MODEL 1
REMARK VINA RESULT:      -1.8      0.000      0.000
REMARK  1 active torsions:
REMARK  status: ('A' for Active; 'I' for Inactive)
REMARK    1  A    between atoms: C4_4  and  C8_8 
ROOT
HETATM    1  C1  UNL     1     -33.183   8.260   2.910  1.00 20.00     0.012 A 
HETATM    2  C2  UNL     1     -33.749   7.224   3.645  1.00 20.00     0.040 A 
HETATM    3  C3  UNL     1     -32.402   6.651   1.342  1.00 20.00     0.125 A 
HETATM    4  C4  UNL     1     -32.496   7.976   1.735  1.00 20.00    -0.036 A 
HETATM    5  C5  UNL     1     -33.600   5.933   3.166  1.00 20.00     0.102 A 
HETATM    6  N9  UNL     1     -32.939   5.618   2.030  1.00 20.00    -0.253 NA
HETATM    7 BR10 UNL     1     -34.364   4.502   4.155  1.00 20.00    -0.029 Br
ENDROOT
BRANCH   4   8
HETATM    8  C8  UNL     1     -31.881   9.062   0.925  1.00 20.00     0.020 A 
HETATM    9  C6  UNL     1     -32.611  10.373   0.779  1.00 20.00     0.010 A 
HETATM   10  C7  UNL     1     -32.510   9.446  -0.391  1.00 20.00     0.010 A 
ENDBRANCH   4   8
TORSDOF 1
ENDMDL
MODEL 2
REMARK VINA RESULT:      -1.8      0.865      1.518
REMARK  1 active torsions:
REMARK  status: ('A' for Active; 'I' for Inactive)
REMARK    1  A    between atoms: C4_4  and  C8_8 
ROOT
HETATM    1  C1  UNL     1     -32.334   6.668   1.212  1.00 20.00     0.012 A 
HETATM    2  C2  UNL     1     -32.891   5.625   1.944  1.00 20.00     0.040 A 
HETATM    3  C3  UNL     1     -33.142   8.184   2.856  1.00 20.00     0.125 A 
HETATM    4  C4  UNL     1     -32.457   7.975   1.671  1.00 20.00    -0.036 A 
HETATM    5  C5  UNL     1     -33.556   5.940   3.118  1.00 20.00     0.102 A 
HETATM    6  N9  UNL     1     -33.697   7.196   3.595  1.00 20.00    -0.253 NA
HETATM    7 BR10 UNL     1     -34.325   4.531   4.134  1.00 20.00    -0.029 Br
ENDROOT
BRANCH   4   8
HETATM    8  C8  UNL     1     -31.870   9.111   0.912  1.00 20.00     0.020 A 
HETATM    9  C6  UNL     1     -32.640  10.403   0.812  1.00 20.00     0.010 A 
HETATM   10  C7  UNL     1     -32.499   9.528  -0.394  1.00 20.00     0.010 A 
ENDBRANCH   4   8
TORSDOF 1
ENDMDL
MODEL 3
REMARK VINA RESULT:      -0.5      2.526      4.764
REMARK  1 active torsions:
REMARK  status: ('A' for Active; 'I' for Inactive)
REMARK    1  A    between atoms: C4_4  and  C8_8 
ROOT
HETATM    1  C1  UNL     1     -34.006   6.632   3.782  1.00 20.00     0.012 A 
HETATM    2  C2  UNL     1     -33.543   7.755   3.105  1.00 20.00     0.040 A 
HETATM    3  C3  UNL     1     -32.923   5.271   2.159  1.00 20.00     0.125 A 
HETATM    4  C4  UNL     1     -33.694   5.363   3.307  1.00 20.00    -0.036 A 
HETATM    5  C5  UNL     1     -32.778   7.556   1.968  1.00 20.00     0.102 A 
HETATM    6  N9  UNL     1     -32.454   6.340   1.475  1.00 20.00    -0.253 NA
HETATM    7 BR10 UNL     1     -32.134   9.076   1.027  1.00 20.00    -0.029 Br
ENDROOT
BRANCH   4   8
HETATM    8  C8  UNL     1     -34.173   4.143   4.008  1.00 20.00     0.020 A 
HETATM    9  C6  UNL     1     -33.472   3.695   5.266  1.00 20.00     0.010 A 
HETATM   10  C7  UNL     1     -33.311   2.905   4.006  1.00 20.00     0.010 A 
ENDBRANCH   4   8
TORSDOF 1
ENDMDL
MODEL 4
REMARK VINA RESULT:      -0.4      2.626      5.004
REMARK  1 active torsions:
REMARK  status: ('A' for Active; 'I' for Inactive)
REMARK    1  A    between atoms: C4_4  and  C8_8 
ROOT
HETATM    1  C1  UNL     1     -32.856   5.145   2.097  1.00 20.00     0.012 A 
HETATM    2  C2  UNL     1     -32.393   6.261   1.409  1.00 20.00     0.040 A 
HETATM    3  C3  UNL     1     -33.873   6.605   3.675  1.00 20.00     0.125 A 
HETATM    4  C4  UNL     1     -33.612   5.312   3.252  1.00 20.00    -0.036 A 
HETATM    5  C5  UNL     1     -32.709   7.512   1.914  1.00 20.00     0.102 A 
HETATM    6  N9  UNL     1     -33.440   7.714   3.033  1.00 20.00    -0.253 NA
HETATM    7 BR10 UNL     1     -32.087   9.051   0.991  1.00 20.00    -0.029 Br
ENDROOT
BRANCH   4   8
HETATM    8  C8  UNL     1     -34.123   4.139   4.009  1.00 20.00     0.020 A 
HETATM    9  C6  UNL     1     -33.397   3.692   5.252  1.00 20.00     0.010 A 
HETATM   10  C7  UNL     1     -33.326   2.858   4.012  1.00 20.00     0.010 A 
ENDBRANCH   4   8
TORSDOF 1
ENDMDL
MODEL 5
REMARK VINA RESULT:       0.8      2.674      4.644
REMARK  1 active torsions:
REMARK  status: ('A' for Active; 'I' for Inactive)
REMARK    1  A    between atoms: C4_4  and  C8_8 
ROOT
HETATM    1  C1  UNL     1     -33.090   5.978   2.144  1.00 20.00     0.012 A 
HETATM    2  C2  UNL     1     -32.403   6.656   1.142  1.00 20.00     0.040 A 
HETATM    3  C3  UNL     1     -33.156   8.000   3.395  1.00 20.00     0.125 A 
HETATM    4  C4  UNL     1     -33.478   6.656   3.294  1.00 20.00    -0.036 A 
HETATM    5  C5  UNL     1     -32.130   8.000   1.339  1.00 20.00     0.102 A 
HETATM    6  N9  UNL     1     -32.489   8.692   2.443  1.00 20.00    -0.253 NA
HETATM    7 BR10 UNL     1     -31.191   8.945  -0.015  1.00 20.00    -0.029 Br
ENDROOT
BRANCH   4   8
HETATM    8  C8  UNL     1     -34.216   5.960   4.381  1.00 20.00     0.020 A 
HETATM    9  C6  UNL     1     -34.537   4.495   4.232  1.00 20.00     0.010 A 
HETATM   10  C7  UNL     1     -35.634   5.508   4.138  1.00 20.00     0.010 A 
ENDBRANCH   4   8
TORSDOF 1
ENDMDL
MODEL 6
REMARK VINA RESULT:       1.0      2.540      4.419
REMARK  1 active torsions:
REMARK  status: ('A' for Active; 'I' for Inactive)
REMARK    1  A    between atoms: C4_4  and  C8_8 
ROOT
HETATM    1  C1  UNL     1     -33.224   8.012   3.542  1.00 20.00     0.012 A 
HETATM    2  C2  UNL     1     -32.549   8.709   2.546  1.00 20.00     0.040 A 
HETATM    3  C3  UNL     1     -33.082   6.055   2.199  1.00 20.00     0.125 A 
HETATM    4  C4  UNL     1     -33.498   6.660   3.374  1.00 20.00    -0.036 A 
HETATM    5  C5  UNL     1     -32.174   8.012   1.409  1.00 20.00     0.102 A 
HETATM    6  N9  UNL     1     -32.423   6.699   1.208  1.00 20.00    -0.253 NA
HETATM    7 BR10 UNL     1     -31.252   8.943   0.034  1.00 20.00    -0.029 Br
ENDROOT
BRANCH   4   8
HETATM    8  C8  UNL     1     -34.216   5.887   4.422  1.00 20.00     0.020 A 
HETATM    9  C6  UNL     1     -34.493   4.422   4.195  1.00 20.00     0.010 A 
HETATM   10  C7  UNL     1     -35.620   5.406   4.152  1.00 20.00     0.010 A 
ENDBRANCH   4   8
TORSDOF 1
ENDMDL
