MODEL 1
REMARK VINA RESULT:      -0.8      0.000      0.000
REMARK  1 active torsions:
REMARK  status: ('A' for Active; 'I' for Inactive)
REMARK    1  A    between atoms: C2_2  and  C6_6 
ROOT
HETATM    1  C1  UNL     1     -32.452   6.460   1.315  1.00 20.00     0.133 A 
HETATM    2  C2  UNL     1     -32.529   7.739   1.824  1.00 20.00     0.007 A 
HETATM    3  C3  UNL     1     -33.708   6.043   3.063  1.00 20.00     0.143 A 
HETATM    4  N7  UNL     1     -33.127   5.485   2.025  1.00 20.00    -0.245 NA
HETATM    5  S8  UNL     1     -33.486   7.734   3.248  1.00 20.00    -0.066 SA
HETATM    6 BR9  UNL     1     -34.745   5.023   4.302  1.00 20.00    -0.021 Br
ENDROOT
BRANCH   2   7
HETATM    7  C6  UNL     1     -31.864   8.984   1.214  1.00 20.00     0.027 A 
HETATM    8  C4  UNL     1     -32.738  10.153   0.822  1.00 20.00     0.010 A 
HETATM    9  C5  UNL     1     -32.118   9.302  -0.241  1.00 20.00     0.010 A 
ENDBRANCH   2   7
TORSDOF 1
ENDMDL
MODEL 2
REMARK VINA RESULT:      -0.6      1.329      1.504
REMARK  1 active torsions:
REMARK  status: ('A' for Active; 'I' for Inactive)
REMARK    1  A    between atoms: C2_2  and  C6_6 
ROOT
HETATM    1  C1  UNL     1     -33.183   8.292   3.077  1.00 20.00     0.133 A 
HETATM    2  C2  UNL     1     -32.572   7.934   1.895  1.00 20.00     0.007 A 
HETATM    3  C3  UNL     1     -33.548   6.131   3.159  1.00 20.00     0.143 A 
HETATM    4  N7  UNL     1     -33.745   7.259   3.804  1.00 20.00    -0.245 NA
HETATM    5  S8  UNL     1     -32.697   6.237   1.673  1.00 20.00    -0.066 SA
HETATM    6 BR9  UNL     1     -34.180   4.462   3.839  1.00 20.00    -0.021 Br
ENDROOT
BRANCH   2   7
HETATM    7  C6  UNL     1     -31.881   8.900   0.918  1.00 20.00     0.027 A 
HETATM    8  C4  UNL     1     -32.541  10.228   0.626  1.00 20.00     0.010 A 
HETATM    9  C5  UNL     1     -32.528   9.160  -0.422  1.00 20.00     0.010 A 
ENDBRANCH   2   7
TORSDOF 1
ENDMDL
MODEL 3
REMARK VINA RESULT:      -0.2      2.818      4.968
REMARK  1 active torsions:
REMARK  status: ('A' for Active; 'I' for Inactive)
REMARK    1  A    between atoms: C2_2  and  C6_6 
ROOT
HETATM    1  C1  UNL     1     -34.177   6.814   3.940  1.00 20.00     0.133 A 
HETATM    2  C2  UNL     1     -33.810   5.581   3.443  1.00 20.00     0.007 A 
HETATM    3  C3  UNL     1     -32.926   7.491   2.270  1.00 20.00     0.143 A 
HETATM    4  N7  UNL     1     -33.670   7.911   3.269  1.00 20.00    -0.245 NA
HETATM    5  S8  UNL     1     -32.792   5.790   2.079  1.00 20.00    -0.066 SA
HETATM    6 BR9  UNL     1     -32.040   8.708   1.095  1.00 20.00    -0.021 Br
ENDROOT
BRANCH   2   7
HETATM    7  C6  UNL     1     -34.244   4.222   4.018  1.00 20.00     0.027 A 
HETATM    8  C4  UNL     1     -33.462   3.642   5.173  1.00 20.00     0.010 A 
HETATM    9  C5  UNL     1     -33.340   3.029   3.814  1.00 20.00     0.010 A 
ENDBRANCH   2   7
TORSDOF 1
ENDMDL
MODEL 4
REMARK VINA RESULT:       0.5      2.659      4.823
REMARK  1 active torsions:
REMARK  status: ('A' for Active; 'I' for Inactive)
REMARK    1  A    between atoms: C2_2  and  C6_6 
ROOT
HETATM    1  C1  UNL     1     -32.713   4.966   2.035  1.00 20.00     0.133 A 
HETATM    2  C2  UNL     1     -33.458   5.214   3.168  1.00 20.00     0.007 A 
HETATM    3  C3  UNL     1     -32.711   7.158   1.957  1.00 20.00     0.143 A 
HETATM    4  N7  UNL     1     -32.285   6.080   1.338  1.00 20.00    -0.245 NA
HETATM    5  S8  UNL     1     -33.633   6.907   3.383  1.00 20.00    -0.066 SA
HETATM    6 BR9  UNL     1     -32.327   8.911   1.303  1.00 20.00    -0.021 Br
ENDROOT
BRANCH   2   7
HETATM    7  C6  UNL     1     -34.044   4.143   4.103  1.00 20.00     0.027 A 
HETATM    8  C4  UNL     1     -33.220   3.683   5.283  1.00 20.00     0.010 A 
HETATM    9  C5  UNL     1     -33.415   2.769   4.115  1.00 20.00     0.010 A 
ENDBRANCH   2   7
TORSDOF 1
ENDMDL
MODEL 5
REMARK VINA RESULT:       1.2      2.583      4.441
REMARK  1 active torsions:
REMARK  status: ('A' for Active; 'I' for Inactive)
REMARK    1  A    between atoms: C2_2  and  C6_6 
ROOT
HETATM    1  C1  UNL     1     -32.795   6.017   1.997  1.00 20.00     0.133 A 
HETATM    2  C2  UNL     1     -33.384   6.586   3.106  1.00 20.00     0.007 A 
HETATM    3  C3  UNL     1     -32.549   8.127   1.454  1.00 20.00     0.143 A 
HETATM    4  N7  UNL     1     -32.316   6.900   1.047  1.00 20.00    -0.245 NA
HETATM    5  S8  UNL     1     -33.340   8.295   2.967  1.00 20.00    -0.066 SA
HETATM    6 BR9  UNL     1     -32.036   9.645   0.413  1.00 20.00    -0.021 Br
ENDROOT
BRANCH   2   7
HETATM    7  C6  UNL     1     -33.989   5.814   4.290  1.00 20.00     0.027 A 
HETATM    8  C4  UNL     1     -34.396   4.374   4.083  1.00 20.00     0.010 A 
HETATM    9  C5  UNL     1     -35.448   5.427   4.232  1.00 20.00     0.010 A 
ENDBRANCH   2   7
TORSDOF 1
ENDMDL
MODEL 6
REMARK VINA RESULT:       1.5      2.180      2.747
REMARK  1 active torsions:
REMARK  status: ('A' for Active; 'I' for Inactive)
REMARK    1  A    between atoms: C2_2  and  C6_6 
ROOT
HETATM    1  C1  UNL     1     -34.646   6.061   3.762  1.00 20.00     0.133 A 
HETATM    2  C2  UNL     1     -33.563   6.271   2.936  1.00 20.00     0.007 A 
HETATM    3  C3  UNL     1     -33.682   4.103   3.980  1.00 20.00     0.143 A 
HETATM    4  N7  UNL     1     -34.717   4.817   4.361  1.00 20.00    -0.245 NA
HETATM    5  S8  UNL     1     -32.584   4.863   2.902  1.00 20.00    -0.066 SA
HETATM    6 BR9  UNL     1     -33.415   2.313   4.591  1.00 20.00    -0.021 Br
ENDROOT
BRANCH   2   7
HETATM    7  C6  UNL     1     -33.269   7.566   2.161  1.00 20.00     0.027 A 
HETATM    8  C4  UNL     1     -31.957   7.685   1.421  1.00 20.00     0.010 A 
HETATM    9  C5  UNL     1     -32.179   8.482   2.667  1.00 20.00     0.010 A 
ENDBRANCH   2   7
TORSDOF 1
ENDMDL
MODEL 7
REMARK VINA RESULT:       1.8      2.893      4.548
REMARK  1 active torsions:
REMARK  status: ('A' for Active; 'I' for Inactive)
REMARK    1  A    between atoms: C2_2  and  C6_6 
ROOT
HETATM    1  C1  UNL     1     -32.594   8.202   3.819  1.00 20.00     0.133 A 
HETATM    2  C2  UNL     1     -33.466   7.201   3.446  1.00 20.00     0.007 A 
HETATM    3  C3  UNL     1     -32.096   8.111   1.685  1.00 20.00     0.143 A 
HETATM    4  N7  UNL     1     -31.807   8.724   2.810  1.00 20.00    -0.245 NA
HETATM    5  S8  UNL     1     -33.304   6.894   1.766  1.00 20.00    -0.066 SA
HETATM    6 BR9  UNL     1     -31.217   8.548   0.047  1.00 20.00    -0.021 Br
ENDROOT
BRANCH   2   7
HETATM    7  C6  UNL     1     -34.437   6.467   4.385  1.00 20.00     0.027 A 
HETATM    8  C4  UNL     1     -34.664   4.987   4.179  1.00 20.00     0.010 A 
HETATM    9  C5  UNL     1     -35.744   5.959   3.822  1.00 20.00     0.010 A 
ENDBRANCH   2   7
TORSDOF 1
ENDMDL
MODEL 8
REMARK VINA RESULT:       1.9      3.139      4.332
REMARK  1 active torsions:
REMARK  status: ('A' for Active; 'I' for Inactive)
REMARK    1  A    between atoms: C2_2  and  C6_6 
ROOT
HETATM    1  C1  UNL     1     -31.857   7.354   1.580  1.00 20.00     0.133 A 
HETATM    2  C2  UNL     1     -32.778   7.813   2.497  1.00 20.00     0.007 A 
HETATM    3  C3  UNL     1     -32.289   9.300   0.666  1.00 20.00     0.143 A 
HETATM    4  N7  UNL     1     -31.576   8.206   0.528  1.00 20.00    -0.245 NA
HETATM    5  S8  UNL     1     -33.320   9.374   2.037  1.00 20.00    -0.066 SA
HETATM    6 BR9  UNL     1     -32.186  10.733  -0.593  1.00 20.00    -0.021 Br
ENDROOT
BRANCH   2   7
HETATM    7  C6  UNL     1     -33.252   7.049   3.745  1.00 20.00     0.027 A 
HETATM    8  C4  UNL     1     -34.540   6.263   3.665  1.00 20.00     0.010 A 
HETATM    9  C5  UNL     1     -34.493   7.530   4.459  1.00 20.00     0.010 A 
ENDBRANCH   2   7
TORSDOF 1
ENDMDL
MODEL 9
REMARK VINA RESULT:       2.2      2.657      3.738
REMARK  1 active torsions:
REMARK  status: ('A' for Active; 'I' for Inactive)
REMARK    1  A    between atoms: C2_2  and  C6_6 
ROOT
HETATM    1  C1  UNL     1     -32.157   7.644   1.875  1.00 20.00     0.133 A 
HETATM    2  C2  UNL     1     -33.215   7.051   2.529  1.00 20.00     0.007 A 
HETATM    3  C3  UNL     1     -31.895   5.597   1.135  1.00 20.00     0.143 A 
HETATM    4  N7  UNL     1     -31.397   6.811   1.076  1.00 20.00    -0.245 NA
HETATM    5  S8  UNL     1     -33.274   5.383   2.133  1.00 20.00    -0.066 SA
HETATM    6 BR9  UNL     1     -31.121   4.144   0.165  1.00 20.00    -0.021 Br
ENDROOT
BRANCH   2   7
HETATM    7  C6  UNL     1     -34.198   7.768   3.470  1.00 20.00     0.027 A 
HETATM    8  C4  UNL     1     -33.898   7.788   4.951  1.00 20.00     0.010 A 
HETATM    9  C5  UNL     1     -35.014   6.937   4.432  1.00 20.00     0.010 A 
ENDBRANCH   2   7
TORSDOF 1
ENDMDL
