MODEL 1
REMARK VINA RESULT:      -1.9      0.000      0.000
REMARK  1 active torsions:
REMARK  status: ('A' for Active; 'I' for Inactive)
REMARK    1  A    between atoms: C4_4  and  C7_7 
ROOT
HETATM    1  C1  UNL     1     -35.224   5.043   4.538  1.00 20.00     0.056 A 
HETATM    2  C2  UNL     1     -35.134   6.209   3.904  1.00 20.00     0.010 A 
HETATM    3  C3  UNL     1     -34.100   4.243   4.065  1.00 20.00     0.157 A 
HETATM    4  C4  UNL     1     -33.970   6.243   2.990  1.00 20.00     0.157 A 
HETATM    5  N8  UNL     1     -33.789   3.047   4.412  1.00 20.00    -0.278 NA
HETATM    6  O9  UNL     1     -33.373   4.950   3.155  1.00 20.00    -0.325 OA
HETATM    7  H20 UNL     1     -32.945   2.750   3.908  1.00 20.00     0.189 HD
ENDROOT
BRANCH   4   8
HETATM    8  C7  UNL     1     -32.957   7.316   3.354  1.00 20.00     0.011 C 
HETATM    9  C5  UNL     1     -32.444   8.029   2.101  1.00 20.00     0.012 C 
HETATM   10  C6  UNL     1     -33.562   8.327   4.330  1.00 20.00     0.012 C 
ENDBRANCH   4   8
TORSDOF 1
ENDMDL
MODEL 2
REMARK VINA RESULT:      -1.6      1.557      2.245
REMARK  1 active torsions:
REMARK  status: ('A' for Active; 'I' for Inactive)
REMARK    1  A    between atoms: C4_4  and  C7_7 
ROOT
HETATM    1  C1  UNL     1     -34.411   7.208   4.765  1.00 20.00     0.056 A 
HETATM    2  C2  UNL     1     -33.754   7.928   3.860  1.00 20.00     0.010 A 
HETATM    3  C3  UNL     1     -34.829   5.989   4.080  1.00 20.00     0.157 A 
HETATM    4  C4  UNL     1     -33.704   7.242   2.550  1.00 20.00     0.157 A 
HETATM    5  N8  UNL     1     -35.489   5.003   4.568  1.00 20.00    -0.278 NA
HETATM    6  O9  UNL     1     -34.416   6.018   2.782  1.00 20.00    -0.325 OA
HETATM    7  H20 UNL     1     -35.633   4.291   3.842  1.00 20.00     0.189 HD
ENDROOT
BRANCH   4   8
HETATM    8  C7  UNL     1     -32.289   6.923   2.097  1.00 20.00     0.011 C 
HETATM    9  C5  UNL     1     -32.266   5.660   1.232  1.00 20.00     0.012 C 
HETATM   10  C6  UNL     1     -31.685   8.102   1.331  1.00 20.00     0.012 C 
ENDBRANCH   4   8
TORSDOF 1
ENDMDL
MODEL 3
REMARK VINA RESULT:      -1.2      2.339      3.533
REMARK  1 active torsions:
REMARK  status: ('A' for Active; 'I' for Inactive)
REMARK    1  A    between atoms: C4_4  and  C7_7 
ROOT
HETATM    1  C1  UNL     1     -32.964   5.869   2.049  1.00 20.00     0.056 A 
HETATM    2  C2  UNL     1     -32.046   6.565   1.385  1.00 20.00     0.010 A 
HETATM    3  C3  UNL     1     -33.628   6.823   2.932  1.00 20.00     0.157 A 
HETATM    4  C4  UNL     1     -32.047   7.990   1.786  1.00 20.00     0.157 A 
HETATM    5  N8  UNL     1     -34.584   6.593   3.756  1.00 20.00    -0.278 NA
HETATM    6  O9  UNL     1     -33.082   8.062   2.777  1.00 20.00    -0.325 OA
HETATM    7  H20 UNL     1     -34.841   7.462   4.238  1.00 20.00     0.189 HD
ENDROOT
BRANCH   4   8
HETATM    8  C7  UNL     1     -32.380   8.933   0.642  1.00 20.00     0.011 C 
HETATM    9  C5  UNL     1     -32.726  10.327   1.168  1.00 20.00     0.012 C 
HETATM   10  C6  UNL     1     -31.219   9.013  -0.352  1.00 20.00     0.012 C 
ENDBRANCH   4   8
TORSDOF 1
ENDMDL
MODEL 4
REMARK VINA RESULT:      -1.1      2.730      3.833
REMARK  1 active torsions:
REMARK  status: ('A' for Active; 'I' for Inactive)
REMARK    1  A    between atoms: C4_4  and  C7_7 
ROOT
HETATM    1  C1  UNL     1     -31.900   6.166   1.284  1.00 20.00     0.056 A 
HETATM    2  C2  UNL     1     -33.013   5.661   1.808  1.00 20.00     0.010 A 
HETATM    3  C3  UNL     1     -31.960   7.603   1.528  1.00 20.00     0.157 A 
HETATM    4  C4  UNL     1     -33.858   6.715   2.413  1.00 20.00     0.157 A 
HETATM    5  N8  UNL     1     -31.094   8.491   1.197  1.00 20.00    -0.278 NA
HETATM    6  O9  UNL     1     -33.111   7.918   2.185  1.00 20.00    -0.325 OA
HETATM    7  H20 UNL     1     -31.414   9.416   1.504  1.00 20.00     0.189 HD
ENDROOT
BRANCH   4   8
HETATM    8  C7  UNL     1     -34.067   6.528   3.907  1.00 20.00     0.011 C 
HETATM    9  C5  UNL     1     -33.908   7.857   4.649  1.00 20.00     0.012 C 
HETATM   10  C6  UNL     1     -35.443   5.923   4.191  1.00 20.00     0.012 C 
ENDBRANCH   4   8
TORSDOF 1
ENDMDL
MODEL 5
REMARK VINA RESULT:      -0.9      1.891      3.195
REMARK  1 active torsions:
REMARK  status: ('A' for Active; 'I' for Inactive)
REMARK    1  A    between atoms: C4_4  and  C7_7 
ROOT
HETATM    1  C1  UNL     1     -32.102   7.172   1.092  1.00 20.00     0.056 A 
HETATM    2  C2  UNL     1     -32.227   7.788   2.264  1.00 20.00     0.010 A 
HETATM    3  C3  UNL     1     -32.674   5.842   1.277  1.00 20.00     0.157 A 
HETATM    4  C4  UNL     1     -32.873   6.918   3.271  1.00 20.00     0.157 A 
HETATM    5  N8  UNL     1     -32.771   4.904   0.407  1.00 20.00    -0.278 NA
HETATM    6  O9  UNL     1     -33.119   5.699   2.557  1.00 20.00    -0.325 OA
HETATM    7  H20 UNL     1     -33.220   4.084   0.833  1.00 20.00     0.189 HD
ENDROOT
BRANCH   4   8
HETATM    8  C7  UNL     1     -34.190   7.474   3.785  1.00 20.00     0.011 C 
HETATM    9  C5  UNL     1     -35.223   6.358   3.958  1.00 20.00     0.012 C 
HETATM   10  C6  UNL     1     -33.988   8.219   5.106  1.00 20.00     0.012 C 
ENDBRANCH   4   8
TORSDOF 1
ENDMDL
MODEL 6
REMARK VINA RESULT:      -0.2      2.507      3.889
REMARK  1 active torsions:
REMARK  status: ('A' for Active; 'I' for Inactive)
REMARK    1  A    between atoms: C4_4  and  C7_7 
ROOT
HETATM    1  C1  UNL     1     -32.659   8.657   3.010  1.00 20.00     0.056 A 
HETATM    2  C2  UNL     1     -32.986   7.700   3.873  1.00 20.00     0.010 A 
HETATM    3  C3  UNL     1     -32.378   7.978   1.749  1.00 20.00     0.157 A 
HETATM    4  C4  UNL     1     -32.936   6.360   3.246  1.00 20.00     0.157 A 
HETATM    5  N8  UNL     1     -32.026   8.510   0.635  1.00 20.00    -0.278 NA
HETATM    6  O9  UNL     1     -32.537   6.633   1.896  1.00 20.00    -0.325 OA
HETATM    7  H20 UNL     1     -31.900   7.776  -0.072  1.00 20.00     0.189 HD
ENDROOT
BRANCH   4   8
HETATM    8  C7  UNL     1     -34.282   5.653   3.240  1.00 20.00     0.011 C 
HETATM    9  C5  UNL     1     -34.180   4.282   3.911  1.00 20.00     0.012 C 
HETATM   10  C6  UNL     1     -35.347   6.506   3.933  1.00 20.00     0.012 C 
ENDBRANCH   4   8
TORSDOF 1
ENDMDL
MODEL 7
REMARK VINA RESULT:      -0.1      2.422      3.020
REMARK  1 active torsions:
REMARK  status: ('A' for Active; 'I' for Inactive)
REMARK    1  A    between atoms: C4_4  and  C7_7 
ROOT
HETATM    1  C1  UNL     1     -35.100   6.650   4.061  1.00 20.00     0.056 A 
HETATM    2  C2  UNL     1     -34.555   5.773   3.223  1.00 20.00     0.010 A 
HETATM    3  C3  UNL     1     -34.032   7.577   4.420  1.00 20.00     0.157 A 
HETATM    4  C4  UNL     1     -33.123   6.061   2.988  1.00 20.00     0.157 A 
HETATM    5  N8  UNL     1     -34.104   8.590   5.204  1.00 20.00    -0.278 NA
HETATM    6  O9  UNL     1     -32.875   7.223   3.791  1.00 20.00    -0.325 OA
HETATM    7  H20 UNL     1     -33.187   9.050   5.259  1.00 20.00     0.189 HD
ENDROOT
BRANCH   4   8
HETATM    8  C7  UNL     1     -32.809   6.378   1.535  1.00 20.00     0.011 C 
HETATM    9  C5  UNL     1     -31.958   7.645   1.426  1.00 20.00     0.012 C 
HETATM   10  C6  UNL     1     -32.097   5.201   0.864  1.00 20.00     0.012 C 
ENDBRANCH   4   8
TORSDOF 1
ENDMDL
MODEL 8
REMARK VINA RESULT:      -0.1      3.615      4.888
REMARK  1 active torsions:
REMARK  status: ('A' for Active; 'I' for Inactive)
REMARK    1  A    between atoms: C4_4  and  C7_7 
ROOT
HETATM    1  C1  UNL     1     -32.637   9.608   2.034  1.00 20.00     0.056 A 
HETATM    2  C2  UNL     1     -32.385   8.445   2.628  1.00 20.00     0.010 A 
HETATM    3  C3  UNL     1     -32.354   9.404   0.618  1.00 20.00     0.157 A 
HETATM    4  C4  UNL     1     -31.925   7.426   1.657  1.00 20.00     0.157 A 
HETATM    5  N8  UNL     1     -32.462  10.258  -0.334  1.00 20.00    -0.278 NA
HETATM    6  O9  UNL     1     -31.933   8.125   0.405  1.00 20.00    -0.325 OA
HETATM    7  H20 UNL     1     -32.191   9.820  -1.222  1.00 20.00     0.189 HD
ENDROOT
BRANCH   4   8
HETATM    8  C7  UNL     1     -32.852   6.225   1.568  1.00 20.00     0.011 C 
HETATM    9  C5  UNL     1     -32.071   4.960   1.205  1.00 20.00     0.012 C 
HETATM   10  C6  UNL     1     -33.608   6.023   2.883  1.00 20.00     0.012 C 
ENDBRANCH   4   8
TORSDOF 1
ENDMDL
MODEL 9
REMARK VINA RESULT:       0.1      1.705      2.383
REMARK  1 active torsions:
REMARK  status: ('A' for Active; 'I' for Inactive)
REMARK    1  A    between atoms: C4_4  and  C7_7 
ROOT
HETATM    1  C1  UNL     1     -33.895   4.050   3.971  1.00 20.00     0.056 A 
HETATM    2  C2  UNL     1     -32.834   4.613   3.400  1.00 20.00     0.010 A 
HETATM    3  C3  UNL     1     -34.847   5.132   4.200  1.00 20.00     0.157 A 
HETATM    4  C4  UNL     1     -33.018   6.071   3.226  1.00 20.00     0.157 A 
HETATM    5  N8  UNL     1     -36.014   5.050   4.727  1.00 20.00    -0.278 NA
HETATM    6  O9  UNL     1     -34.325   6.313   3.766  1.00 20.00    -0.325 OA
HETATM    7  H20 UNL     1     -36.446   5.981   4.754  1.00 20.00     0.189 HD
ENDROOT
BRANCH   4   8
HETATM    8  C7  UNL     1     -32.986   6.507   1.771  1.00 20.00     0.011 C 
HETATM    9  C5  UNL     1     -32.134   7.767   1.599  1.00 20.00     0.012 C 
HETATM   10  C6  UNL     1     -32.458   5.383   0.877  1.00 20.00     0.012 C 
ENDBRANCH   4   8
TORSDOF 1
ENDMDL
