MODEL 1
REMARK VINA RESULT:      -0.8      0.000      0.000
REMARK  0 active torsions:
REMARK  status: ('A' for Active; 'I' for Inactive)
ROOT
HETATM    1  C1  UNL     1     -34.241   5.976   3.608  1.00 20.00     0.136 C 
HETATM    2  C2  UNL     1     -33.008   4.786   1.541  1.00 20.00     0.018 A 
HETATM    3  C3  UNL     1     -33.288   7.944   4.964  1.00 20.00     0.018 A 
HETATM    4  C4  UNL     1     -32.168   8.786   1.178  1.00 20.00     0.011 A 
HETATM    5  C5  UNL     1     -33.082   5.538   2.821  1.00 20.00     0.060 A 
HETATM    6  C6  UNL     1     -34.296   7.422   3.976  1.00 20.00     0.060 A 
HETATM    7  C7  UNL     1     -33.016   6.277   1.475  1.00 20.00     0.002 A 
HETATM    8  C8  UNL     1     -33.299   8.502   3.560  1.00 20.00     0.002 A 
HETATM    9  C9  UNL     1     -31.938   7.342   1.515  1.00 20.00    -0.005 A 
HETATM   10  C10 UNL     1     -32.072   8.383   2.630  1.00 20.00    -0.005 A 
HETATM   11  O11 UNL     1     -35.104   5.189   3.973  1.00 20.00    -0.297 OA
ENDROOT
TORSDOF 0
ENDMDL
MODEL 2
REMARK VINA RESULT:      -0.8      0.908      2.812
REMARK  0 active torsions:
REMARK  status: ('A' for Active; 'I' for Inactive)
ROOT
HETATM    1  C1  UNL     1     -33.885   5.233   3.320  1.00 20.00     0.136 C 
HETATM    2  C2  UNL     1     -34.457   7.542   4.564  1.00 20.00     0.018 A 
HETATM    3  C3  UNL     1     -33.164   5.017   0.860  1.00 20.00     0.018 A 
HETATM    4  C4  UNL     1     -31.282   8.368   2.097  1.00 20.00     0.011 A 
HETATM    5  C5  UNL     1     -34.340   6.626   3.400  1.00 20.00     0.060 A 
HETATM    6  C6  UNL     1     -32.817   4.930   2.321  1.00 20.00     0.060 A 
HETATM    7  C7  UNL     1     -33.185   7.564   3.781  1.00 20.00     0.002 A 
HETATM    8  C8  UNL     1     -32.107   5.938   1.421  1.00 20.00     0.002 A 
HETATM    9  C9  UNL     1     -32.708   8.330   2.563  1.00 20.00    -0.005 A 
HETATM   10  C10 UNL     1     -32.261   7.475   1.373  1.00 20.00    -0.005 A 
HETATM   11  O11 UNL     1     -34.379   4.354   4.015  1.00 20.00    -0.297 OA
ENDROOT
TORSDOF 0
ENDMDL
MODEL 3
REMARK VINA RESULT:      -0.4      1.847      3.269
REMARK  0 active torsions:
REMARK  status: ('A' for Active; 'I' for Inactive)
ROOT
HETATM    1  C1  UNL     1     -32.764   7.440   2.333  1.00 20.00     0.136 C 
HETATM    2  C2  UNL     1     -32.075   5.205   1.016  1.00 20.00     0.018 A 
HETATM    3  C3  UNL     1     -34.936   7.755   3.677  1.00 20.00     0.018 A 
HETATM    4  C4  UNL     1     -33.886   3.939   4.474  1.00 20.00     0.011 A 
HETATM    5  C5  UNL     1     -33.018   6.193   1.602  1.00 20.00     0.060 A 
HETATM    6  C6  UNL     1     -33.440   7.594   3.656  1.00 20.00     0.060 A 
HETATM    7  C7  UNL     1     -32.552   4.973   2.411  1.00 20.00     0.002 A 
HETATM    8  C8  UNL     1     -34.317   6.555   4.351  1.00 20.00     0.002 A 
HETATM    9  C9  UNL     1     -33.746   4.259   3.015  1.00 20.00    -0.005 A 
HETATM   10  C10 UNL     1     -34.650   5.113   3.908  1.00 20.00    -0.005 A 
HETATM   11  O11 UNL     1     -32.060   8.327   1.868  1.00 20.00    -0.297 OA
ENDROOT
TORSDOF 0
ENDMDL
MODEL 4
REMARK VINA RESULT:       0.1      1.544      3.012
REMARK  0 active torsions:
REMARK  status: ('A' for Active; 'I' for Inactive)
ROOT
HETATM    1  C1  UNL     1     -32.232   5.868   1.625  1.00 20.00     0.136 C 
HETATM    2  C2  UNL     1     -34.022   4.485   3.069  1.00 20.00     0.018 A 
HETATM    3  C3  UNL     1     -32.379   8.384   1.104  1.00 20.00     0.018 A 
HETATM    4  C4  UNL     1     -33.698   8.138   4.911  1.00 20.00     0.011 A 
HETATM    5  C5  UNL     1     -33.562   5.576   2.172  1.00 20.00     0.060 A 
HETATM    6  C6  UNL     1     -31.708   7.251   1.833  1.00 20.00     0.060 A 
HETATM    7  C7  UNL     1     -33.588   5.768   3.696  1.00 20.00     0.002 A 
HETATM    8  C8  UNL     1     -32.392   8.372   2.614  1.00 20.00     0.002 A 
HETATM    9  C9  UNL     1     -34.292   7.063   4.049  1.00 20.00    -0.005 A 
HETATM   10  C10 UNL     1     -33.713   8.331   3.414  1.00 20.00    -0.005 A 
HETATM   11  O11 UNL     1     -31.595   5.031   1.000  1.00 20.00    -0.297 OA
ENDROOT
TORSDOF 0
ENDMDL
MODEL 5
REMARK VINA RESULT:       0.6      1.827      4.040
REMARK  0 active torsions:
REMARK  status: ('A' for Active; 'I' for Inactive)
ROOT
HETATM    1  C1  UNL     1     -32.428   7.783   2.149  1.00 20.00     0.136 C 
HETATM    2  C2  UNL     1     -33.201   8.689   4.555  1.00 20.00     0.018 A 
HETATM    3  C3  UNL     1     -32.141   5.303   1.525  1.00 20.00     0.018 A 
HETATM    4  C4  UNL     1     -35.420   5.303   3.881  1.00 20.00     0.011 A 
HETATM    5  C5  UNL     1     -32.572   7.731   3.609  1.00 20.00     0.060 A 
HETATM    6  C6  UNL     1     -32.905   6.593   1.384  1.00 20.00     0.060 A 
HETATM    7  C7  UNL     1     -34.046   7.583   4.015  1.00 20.00     0.002 A 
HETATM    8  C8  UNL     1     -33.585   5.355   1.965  1.00 20.00     0.002 A 
HETATM    9  C9  UNL     1     -34.327   6.159   4.452  1.00 20.00    -0.005 A 
HETATM   10  C10 UNL     1     -33.999   5.070   3.426  1.00 20.00    -0.005 A 
HETATM   11  O11 UNL     1     -31.913   8.741   1.587  1.00 20.00    -0.297 OA
ENDROOT
TORSDOF 0
ENDMDL
MODEL 6
REMARK VINA RESULT:       0.7      1.437      2.128
REMARK  0 active torsions:
REMARK  status: ('A' for Active; 'I' for Inactive)
ROOT
HETATM    1  C1  UNL     1     -35.001   5.186   4.484  1.00 20.00     0.136 C 
HETATM    2  C2  UNL     1     -33.452   3.058   3.955  1.00 20.00     0.018 A 
HETATM    3  C3  UNL     1     -34.285   7.642   4.208  1.00 20.00     0.018 A 
HETATM    4  C4  UNL     1     -32.590   5.810   1.035  1.00 20.00     0.011 A 
HETATM    5  C5  UNL     1     -33.730   4.464   4.347  1.00 20.00     0.060 A 
HETATM    6  C6  UNL     1     -35.122   6.479   3.748  1.00 20.00     0.060 A 
HETATM    7  C7  UNL     1     -33.459   4.095   2.881  1.00 20.00     0.002 A 
HETATM    8  C8  UNL     1     -34.080   7.093   2.816  1.00 20.00     0.002 A 
HETATM    9  C9  UNL     1     -32.407   5.017   2.295  1.00 20.00    -0.005 A 
HETATM   10  C10 UNL     1     -32.721   6.514   2.365  1.00 20.00    -0.005 A 
HETATM   11  O11 UNL     1     -35.906   4.766   5.193  1.00 20.00    -0.297 OA
ENDROOT
TORSDOF 0
ENDMDL
MODEL 7
REMARK VINA RESULT:       0.8      1.451      2.985
REMARK  0 active torsions:
REMARK  status: ('A' for Active; 'I' for Inactive)
ROOT
HETATM    1  C1  UNL     1     -33.386   7.827   4.056  1.00 20.00     0.136 C 
HETATM    2  C2  UNL     1     -31.791   8.820   2.139  1.00 20.00     0.018 A 
HETATM    3  C3  UNL     1     -35.244   6.087   3.678  1.00 20.00     0.018 A 
HETATM    4  C4  UNL     1     -32.292   4.853   1.217  1.00 20.00     0.011 A 
HETATM    5  C5  UNL     1     -33.037   8.224   2.687  1.00 20.00     0.060 A 
HETATM    6  C6  UNL     1     -33.893   6.435   4.243  1.00 20.00     0.060 A 
HETATM    7  C7  UNL     1     -31.922   7.333   2.119  1.00 20.00     0.002 A 
HETATM    8  C8  UNL     1     -34.023   5.364   3.161  1.00 20.00     0.002 A 
HETATM    9  C9  UNL     1     -32.499   6.337   1.133  1.00 20.00    -0.005 A 
HETATM   10  C10 UNL     1     -33.610   5.432   1.674  1.00 20.00    -0.005 A 
HETATM   11  O11 UNL     1     -33.298   8.607   4.994  1.00 20.00    -0.297 OA
ENDROOT
TORSDOF 0
ENDMDL
MODEL 8
REMARK VINA RESULT:       1.0      1.554      3.017
REMARK  0 active torsions:
REMARK  status: ('A' for Active; 'I' for Inactive)
ROOT
HETATM    1  C1  UNL     1     -32.812   5.563   1.498  1.00 20.00     0.136 C 
HETATM    2  C2  UNL     1     -31.486   7.888   1.293  1.00 20.00     0.018 A 
HETATM    3  C3  UNL     1     -33.705   4.557   3.692  1.00 20.00     0.018 A 
HETATM    4  C4  UNL     1     -34.387   8.512   4.128  1.00 20.00     0.011 A 
HETATM    5  C5  UNL     1     -31.946   6.648   1.972  1.00 20.00     0.060 A 
HETATM    6  C6  UNL     1     -33.977   5.206   2.361  1.00 20.00     0.060 A 
HETATM    7  C7  UNL     1     -32.731   7.961   2.113  1.00 20.00     0.002 A 
HETATM    8  C8  UNL     1     -34.392   5.901   3.656  1.00 20.00     0.002 A 
HETATM    9  C9  UNL     1     -33.018   8.244   3.575  1.00 20.00    -0.005 A 
HETATM   10  C10 UNL     1     -33.774   7.147   4.330  1.00 20.00    -0.005 A 
HETATM   11  O11 UNL     1     -32.574   4.956   0.462  1.00 20.00    -0.297 OA
ENDROOT
TORSDOF 0
ENDMDL
MODEL 9
REMARK VINA RESULT:       1.4      1.332      2.635
REMARK  0 active torsions:
REMARK  status: ('A' for Active; 'I' for Inactive)
ROOT
HETATM    1  C1  UNL     1     -33.673   7.687   3.838  1.00 20.00     0.136 C 
HETATM    2  C2  UNL     1     -34.654   5.206   4.135  1.00 20.00     0.018 A 
HETATM    3  C3  UNL     1     -31.432   8.266   2.713  1.00 20.00     0.018 A 
HETATM    4  C4  UNL     1     -32.872   5.258   0.438  1.00 20.00     0.011 A 
HETATM    5  C5  UNL     1     -33.587   6.230   3.992  1.00 20.00     0.060 A 
HETATM    6  C6  UNL     1     -32.936   8.286   2.685  1.00 20.00     0.060 A 
HETATM    7  C7  UNL     1     -34.156   5.509   2.761  1.00 20.00     0.002 A 
HETATM    8  C8  UNL     1     -32.157   7.526   1.614  1.00 20.00     0.002 A 
HETATM    9  C9  UNL     1     -33.029   4.969   1.903  1.00 20.00    -0.005 A 
HETATM   10  C10 UNL     1     -32.003   6.000   1.425  1.00 20.00    -0.005 A 
HETATM   11  O11 UNL     1     -34.290   8.383   4.633  1.00 20.00    -0.297 OA
ENDROOT
TORSDOF 0
ENDMDL
