MODEL 1
REMARK VINA RESULT:      -1.8      0.000      0.000
REMARK  2 active torsions:
REMARK  status: ('A' for Active; 'I' for Inactive)
REMARK    1  A    between atoms: C3_3  and  C6_6 
REMARK    2  A    between atoms: C3_3  and  O10_10 
ROOT
HETATM    1  C1  UNL     1     -32.382   7.499   1.821  1.00 20.00    -0.003 C 
HETATM    2  C2  UNL     1     -32.566   6.214   1.495  1.00 20.00     0.132 C 
HETATM    3  C4  UNL     1     -32.935   8.075   3.086  1.00 20.00     0.032 C 
HETATM    4  C5  UNL     1     -33.957   7.124   3.707  1.00 20.00     0.046 C 
HETATM    5  C6  UNL     1     -33.454   5.687   3.607  1.00 20.00     0.227 C 
HETATM    6  O9  UNL     1     -33.210   5.275   2.258  1.00 20.00    -0.348 OA
ENDROOT
BRANCH   5   7
HETATM    7  C3  UNL     1     -34.490   4.731   4.100  1.00 20.00     0.288 C 
HETATM    8  O8  UNL     1     -35.578   5.069   4.546  1.00 20.00    -0.262 OA
BRANCH   7   9
HETATM    9  O10 UNL     1     -34.029   3.454   3.974  1.00 20.00    -0.324 OA
HETATM   10  C7  UNL     1     -33.096   3.036   4.975  1.00 20.00     0.213 C 
ENDBRANCH   7   9
ENDBRANCH   5   7
TORSDOF 2
ENDMDL
MODEL 2
REMARK VINA RESULT:      -1.7      1.468      4.039
REMARK  2 active torsions:
REMARK  status: ('A' for Active; 'I' for Inactive)
REMARK    1  A    between atoms: C3_3  and  C6_6 
REMARK    2  A    between atoms: C3_3  and  O10_10 
ROOT
HETATM    1  C1  UNL     1     -35.122   4.994   4.515  1.00 20.00    -0.003 C 
HETATM    2  C2  UNL     1     -34.120   4.322   3.933  1.00 20.00     0.132 C 
HETATM    3  C4  UNL     1     -35.354   6.446   4.243  1.00 20.00     0.032 C 
HETATM    4  C5  UNL     1     -34.149   7.060   3.534  1.00 20.00     0.046 C 
HETATM    5  C6  UNL     1     -33.627   6.097   2.472  1.00 20.00     0.227 C 
HETATM    6  O9  UNL     1     -33.241   4.829   3.012  1.00 20.00    -0.348 OA
ENDROOT
BRANCH   5   7
HETATM    7  C3  UNL     1     -32.377   6.626   1.849  1.00 20.00     0.288 C 
HETATM    8  O8  UNL     1     -31.597   5.946   1.195  1.00 20.00    -0.262 OA
BRANCH   7   9
HETATM    9  O10 UNL     1     -32.255   7.954   2.128  1.00 20.00    -0.324 OA
HETATM   10  C7  UNL     1     -32.106   8.810   0.991  1.00 20.00     0.213 C 
ENDBRANCH   7   9
ENDBRANCH   5   7
TORSDOF 2
ENDMDL
MODEL 3
REMARK VINA RESULT:      -1.6      0.943      1.617
REMARK  2 active torsions:
REMARK  status: ('A' for Active; 'I' for Inactive)
REMARK    1  A    between atoms: C3_3  and  C6_6 
REMARK    2  A    between atoms: C3_3  and  O10_10 
ROOT
HETATM    1  C1  UNL     1     -32.324   7.986   2.099  1.00 20.00    -0.003 C 
HETATM    2  C2  UNL     1     -32.934   8.037   3.289  1.00 20.00     0.132 C 
HETATM    3  C4  UNL     1     -32.335   6.745   1.263  1.00 20.00     0.032 C 
HETATM    4  C5  UNL     1     -32.811   5.548   2.085  1.00 20.00     0.046 C 
HETATM    5  C6  UNL     1     -33.987   5.959   2.966  1.00 20.00     0.227 C 
HETATM    6  O9  UNL     1     -33.666   7.029   3.862  1.00 20.00    -0.348 OA
ENDROOT
BRANCH   5   7
HETATM    7  C3  UNL     1     -34.390   4.837   3.865  1.00 20.00     0.288 C 
HETATM    8  O8  UNL     1     -35.368   4.866   4.600  1.00 20.00    -0.262 OA
BRANCH   7   9
HETATM    9  O10 UNL     1     -33.508   3.807   3.732  1.00 20.00    -0.324 OA
HETATM   10  C7  UNL     1     -33.286   3.032   4.915  1.00 20.00     0.213 C 
ENDBRANCH   7   9
ENDBRANCH   5   7
TORSDOF 2
ENDMDL
MODEL 4
REMARK VINA RESULT:      -1.5      1.949      4.411
REMARK  2 active torsions:
REMARK  status: ('A' for Active; 'I' for Inactive)
REMARK    1  A    between atoms: C3_3  and  C6_6 
REMARK    2  A    between atoms: C3_3  and  O10_10 
ROOT
HETATM    1  C1  UNL     1     -34.657   5.333   3.947  1.00 20.00    -0.003 C 
HETATM    2  C2  UNL     1     -33.702   4.949   3.091  1.00 20.00     0.132 C 
HETATM    3  C4  UNL     1     -34.943   6.778   4.206  1.00 20.00     0.032 C 
HETATM    4  C5  UNL     1     -33.823   7.656   3.652  1.00 20.00     0.046 C 
HETATM    5  C6  UNL     1     -33.384   7.135   2.287  1.00 20.00     0.227 C 
HETATM    6  O9  UNL     1     -32.923   5.781   2.328  1.00 20.00    -0.348 OA
ENDROOT
BRANCH   5   7
HETATM    7  C3  UNL     1     -32.210   7.906   1.781  1.00 20.00     0.288 C 
HETATM    8  O8  UNL     1     -31.105   7.419   1.581  1.00 20.00    -0.262 OA
BRANCH   7   9
HETATM    9  O10 UNL     1     -32.567   9.207   1.587  1.00 20.00    -0.324 OA
HETATM   10  C7  UNL     1     -32.344   9.717   0.269  1.00 20.00     0.213 C 
ENDBRANCH   7   9
ENDBRANCH   5   7
TORSDOF 2
ENDMDL
MODEL 5
REMARK VINA RESULT:      -1.2      2.410      4.756
REMARK  2 active torsions:
REMARK  status: ('A' for Active; 'I' for Inactive)
REMARK    1  A    between atoms: C3_3  and  C6_6 
REMARK    2  A    between atoms: C3_3  and  O10_10 
ROOT
HETATM    1  C1  UNL     1     -34.745   6.050   4.057  1.00 20.00    -0.003 C 
HETATM    2  C2  UNL     1     -34.571   7.377   4.023  1.00 20.00     0.132 C 
HETATM    3  C4  UNL     1     -33.947   5.131   3.188  1.00 20.00     0.032 C 
HETATM    4  C5  UNL     1     -33.222   5.918   2.097  1.00 20.00     0.046 C 
HETATM    5  C6  UNL     1     -32.647   7.205   2.682  1.00 20.00     0.227 C 
HETATM    6  O9  UNL     1     -33.647   8.048   3.264  1.00 20.00    -0.348 OA
ENDROOT
BRANCH   5   7
HETATM    7  C3  UNL     1     -32.038   8.046   1.609  1.00 20.00     0.288 C 
HETATM    8  O8  UNL     1     -31.038   7.733   0.978  1.00 20.00    -0.262 OA
BRANCH   7   9
HETATM    9  O10 UNL     1     -32.764   9.190   1.460  1.00 20.00    -0.324 OA
HETATM   10  C7  UNL     1     -32.455   9.967   0.298  1.00 20.00     0.213 C 
ENDBRANCH   7   9
ENDBRANCH   5   7
TORSDOF 2
ENDMDL
MODEL 6
REMARK VINA RESULT:      -0.8      1.870      2.554
REMARK  2 active torsions:
REMARK  status: ('A' for Active; 'I' for Inactive)
REMARK    1  A    between atoms: C3_3  and  C6_6 
REMARK    2  A    between atoms: C3_3  and  O10_10 
ROOT
HETATM    1  C1  UNL     1     -31.556   6.976   1.010  1.00 20.00    -0.003 C 
HETATM    2  C2  UNL     1     -31.801   8.022   1.808  1.00 20.00     0.132 C 
HETATM    3  C4  UNL     1     -32.336   5.704   1.121  1.00 20.00     0.032 C 
HETATM    4  C5  UNL     1     -33.142   5.680   2.419  1.00 20.00     0.046 C 
HETATM    5  C6  UNL     1     -33.762   7.051   2.670  1.00 20.00     0.227 C 
HETATM    6  O9  UNL     1     -32.787   8.096   2.758  1.00 20.00    -0.348 OA
ENDROOT
BRANCH   5   7
HETATM    7  C3  UNL     1     -34.454   7.083   3.993  1.00 20.00     0.288 C 
HETATM    8  O8  UNL     1     -34.095   7.775   4.937  1.00 20.00    -0.262 OA
BRANCH   7   9
HETATM    9  O10 UNL     1     -35.520   6.234   3.971  1.00 20.00    -0.324 OA
HETATM   10  C7  UNL     1     -35.342   5.005   4.681  1.00 20.00     0.213 C 
ENDBRANCH   7   9
ENDBRANCH   5   7
TORSDOF 2
ENDMDL
MODEL 7
REMARK VINA RESULT:      -0.7      1.883      4.308
REMARK  2 active torsions:
REMARK  status: ('A' for Active; 'I' for Inactive)
REMARK    1  A    between atoms: C3_3  and  C6_6 
REMARK    2  A    between atoms: C3_3  and  O10_10 
ROOT
HETATM    1  C1  UNL     1     -35.319   5.297   4.484  1.00 20.00    -0.003 C 
HETATM    2  C2  UNL     1     -35.305   6.548   4.008  1.00 20.00     0.132 C 
HETATM    3  C4  UNL     1     -34.236   4.320   4.153  1.00 20.00     0.032 C 
HETATM    4  C5  UNL     1     -33.382   4.835   2.996  1.00 20.00     0.046 C 
HETATM    5  C6  UNL     1     -33.118   6.328   3.172  1.00 20.00     0.227 C 
HETATM    6  O9  UNL     1     -34.321   7.103   3.231  1.00 20.00    -0.348 OA
ENDROOT
BRANCH   5   7
HETATM    7  C3  UNL     1     -32.387   6.877   1.991  1.00 20.00     0.288 C 
HETATM    8  O8  UNL     1     -31.971   6.195   1.064  1.00 20.00    -0.262 OA
BRANCH   7   9
HETATM    9  O10 UNL     1     -32.264   8.229   2.119  1.00 20.00    -0.324 OA
HETATM   10  C7  UNL     1     -32.185   8.958   0.891  1.00 20.00     0.213 C 
ENDBRANCH   7   9
ENDBRANCH   5   7
TORSDOF 2
ENDMDL
MODEL 8
REMARK VINA RESULT:      -0.6      1.460      3.569
REMARK  2 active torsions:
REMARK  status: ('A' for Active; 'I' for Inactive)
REMARK    1  A    between atoms: C3_3  and  C6_6 
REMARK    2  A    between atoms: C3_3  and  O10_10 
ROOT
HETATM    1  C1  UNL     1     -35.131   4.995   4.546  1.00 20.00    -0.003 C 
HETATM    2  C2  UNL     1     -34.106   4.312   4.021  1.00 20.00     0.132 C 
HETATM    3  C4  UNL     1     -35.379   6.428   4.199  1.00 20.00     0.032 C 
HETATM    4  C5  UNL     1     -34.167   7.027   3.488  1.00 20.00     0.046 C 
HETATM    5  C6  UNL     1     -33.606   6.022   2.486  1.00 20.00     0.227 C 
HETATM    6  O9  UNL     1     -33.213   4.787   3.096  1.00 20.00    -0.348 OA
ENDROOT
BRANCH   5   7
HETATM    7  C3  UNL     1     -32.350   6.540   1.867  1.00 20.00     0.288 C 
HETATM    8  O8  UNL     1     -32.078   7.728   1.760  1.00 20.00    -0.262 OA
BRANCH   7   9
HETATM    9  O10 UNL     1     -31.581   5.493   1.451  1.00 20.00    -0.324 OA
HETATM   10  C7  UNL     1     -32.123   4.722   0.375  1.00 20.00     0.213 C 
ENDBRANCH   7   9
ENDBRANCH   5   7
TORSDOF 2
ENDMDL
MODEL 9
REMARK VINA RESULT:      -0.3      1.663      2.303
REMARK  2 active torsions:
REMARK  status: ('A' for Active; 'I' for Inactive)
REMARK    1  A    between atoms: C3_3  and  C6_6 
REMARK    2  A    between atoms: C3_3  and  O10_10 
ROOT
HETATM    1  C1  UNL     1     -31.839   6.574   0.887  1.00 20.00    -0.003 C 
HETATM    2  C2  UNL     1     -32.755   5.727   1.372  1.00 20.00     0.132 C 
HETATM    3  C4  UNL     1     -31.589   7.907   1.520  1.00 20.00     0.032 C 
HETATM    4  C5  UNL     1     -32.706   8.252   2.503  1.00 20.00     0.046 C 
HETATM    5  C6  UNL     1     -33.085   7.015   3.312  1.00 20.00     0.227 C 
HETATM    6  O9  UNL     1     -33.521   5.925   2.492  1.00 20.00    -0.348 OA
ENDROOT
BRANCH   5   7
HETATM    7  C3  UNL     1     -34.255   7.300   4.195  1.00 20.00     0.288 C 
HETATM    8  O8  UNL     1     -34.249   8.130   5.094  1.00 20.00    -0.262 OA
BRANCH   7   9
HETATM    9  O10 UNL     1     -35.299   6.499   3.840  1.00 20.00    -0.324 OA
HETATM   10  C7  UNL     1     -35.417   5.279   4.579  1.00 20.00     0.213 C 
ENDBRANCH   7   9
ENDBRANCH   5   7
TORSDOF 2
ENDMDL
