MODEL 1
REMARK VINA RESULT:      -0.3      0.000      0.000
REMARK  1 active torsions:
REMARK  status: ('A' for Active; 'I' for Inactive)
REMARK    1  A    between atoms: C10_10  and  O11_11 
ROOT
HETATM    1  C1  UNL     1     -31.372   8.193   2.611  1.00 20.00     0.011 A 
HETATM    2  C2  UNL     1     -33.741   7.467   4.723  1.00 20.00     0.013 A 
HETATM    3  C3  UNL     1     -32.228   4.908   1.234  1.00 20.00     0.013 A 
HETATM    4  C4  UNL     1     -32.818   8.583   2.455  1.00 20.00    -0.005 A 
HETATM    5  C5  UNL     1     -32.142   7.672   1.429  1.00 20.00    -0.005 A 
HETATM    6  C6  UNL     1     -33.967   8.144   3.389  1.00 20.00    -0.003 A 
HETATM    7  C7  UNL     1     -32.753   6.302   1.263  1.00 20.00    -0.003 A 
HETATM    8  C8  UNL     1     -34.565   6.760   3.679  1.00 20.00     0.019 A 
HETATM    9  C9  UNL     1     -32.771   5.456   2.523  1.00 20.00     0.019 A 
HETATM   10  C10 UNL     1     -34.132   5.422   3.115  1.00 20.00     0.127 C 
ENDROOT
BRANCH  10  11
HETATM   11  O11 UNL     1     -34.170   4.454   4.162  1.00 20.00    -0.395 OA
HETATM   12  H25 UNL     1     -33.259   4.356   4.478  1.00 20.00     0.210 HD
ENDBRANCH  10  11
TORSDOF 1
ENDMDL
MODEL 2
REMARK VINA RESULT:      -0.2      1.052      2.830
REMARK  1 active torsions:
REMARK  status: ('A' for Active; 'I' for Inactive)
REMARK    1  A    between atoms: C10_10  and  O11_11 
ROOT
HETATM    1  C1  UNL     1     -32.497   8.604   1.396  1.00 20.00     0.011 A 
HETATM    2  C2  UNL     1     -33.905   5.673   1.232  1.00 20.00     0.013 A 
HETATM    3  C3  UNL     1     -33.711   8.481   4.849  1.00 20.00     0.013 A 
HETATM    4  C4  UNL     1     -31.797   7.293   1.644  1.00 20.00    -0.005 A 
HETATM    5  C5  UNL     1     -31.903   8.343   2.753  1.00 20.00    -0.005 A 
HETATM    6  C6  UNL     1     -32.481   5.909   1.684  1.00 20.00    -0.003 A 
HETATM    7  C7  UNL     1     -32.628   7.908   4.002  1.00 20.00    -0.003 A 
HETATM    8  C8  UNL     1     -33.525   5.322   2.645  1.00 20.00     0.019 A 
HETATM    9  C9  UNL     1     -34.068   7.480   3.788  1.00 20.00     0.019 A 
HETATM   10  C10 UNL     1     -34.189   6.001   3.826  1.00 20.00     0.127 C 
ENDROOT
BRANCH  10  11
HETATM   11  O11 UNL     1     -35.569   5.638   3.841  1.00 20.00    -0.395 OA
HETATM   12  H25 UNL     1     -36.009   6.208   3.192  1.00 20.00     0.210 HD
ENDBRANCH  10  11
TORSDOF 1
ENDMDL
MODEL 3
REMARK VINA RESULT:      -0.1      1.407      2.714
REMARK  1 active torsions:
REMARK  status: ('A' for Active; 'I' for Inactive)
REMARK    1  A    between atoms: C10_10  and  O11_11 
ROOT
HETATM    1  C1  UNL     1     -33.194   7.859   4.829  1.00 20.00     0.011 A 
HETATM    2  C2  UNL     1     -33.524   4.817   3.717  1.00 20.00     0.013 A 
HETATM    3  C3  UNL     1     -31.730   8.415   1.517  1.00 20.00     0.013 A 
HETATM    4  C4  UNL     1     -34.421   7.318   4.144  1.00 20.00    -0.005 A 
HETATM    5  C5  UNL     1     -33.634   8.478   3.531  1.00 20.00    -0.005 A 
HETATM    6  C6  UNL     1     -34.544   5.915   3.510  1.00 20.00    -0.003 A 
HETATM    7  C7  UNL     1     -33.063   8.230   2.156  1.00 20.00    -0.003 A 
HETATM    8  C8  UNL     1     -33.822   5.276   2.315  1.00 20.00     0.019 A 
HETATM    9  C9  UNL     1     -32.093   7.067   2.069  1.00 20.00     0.019 A 
HETATM   10  C10 UNL     1     -32.742   5.886   1.445  1.00 20.00     0.127 C 
ENDROOT
BRANCH  10  11
HETATM   11  O11 UNL     1     -31.757   4.889   1.178  1.00 20.00    -0.395 OA
HETATM   12  H25 UNL     1     -31.252   5.201   0.412  1.00 20.00     0.210 HD
ENDBRANCH  10  11
TORSDOF 1
ENDMDL
MODEL 4
REMARK VINA RESULT:      -0.1      1.822      3.918
REMARK  1 active torsions:
REMARK  status: ('A' for Active; 'I' for Inactive)
REMARK    1  A    between atoms: C10_10  and  O11_11 
ROOT
HETATM    1  C1  UNL     1     -33.661   4.574   4.030  1.00 20.00     0.011 A 
HETATM    2  C2  UNL     1     -31.727   5.598   1.620  1.00 20.00     0.013 A 
HETATM    3  C3  UNL     1     -33.812   8.152   4.804  1.00 20.00     0.013 A 
HETATM    4  C4  UNL     1     -34.120   4.905   2.635  1.00 20.00    -0.005 A 
HETATM    5  C5  UNL     1     -34.648   5.693   3.835  1.00 20.00    -0.005 A 
HETATM    6  C6  UNL     1     -33.233   5.502   1.521  1.00 20.00    -0.003 A 
HETATM    7  C7  UNL     1     -34.364   7.174   3.825  1.00 20.00    -0.003 A 
HETATM    8  C8  UNL     1     -32.523   6.858   1.408  1.00 20.00     0.019 A 
HETATM    9  C9  UNL     1     -32.892   7.541   3.786  1.00 20.00     0.019 A 
HETATM   10  C10 UNL     1     -32.495   7.981   2.425  1.00 20.00     0.127 C 
ENDROOT
BRANCH  10  11
HETATM   11  O11 UNL     1     -31.176   8.523   2.467  1.00 20.00    -0.395 OA
HETATM   12  H25 UNL     1     -30.903   8.507   3.397  1.00 20.00     0.210 HD
ENDBRANCH  10  11
TORSDOF 1
ENDMDL
MODEL 5
REMARK VINA RESULT:       0.8      1.831      3.103
REMARK  1 active torsions:
REMARK  status: ('A' for Active; 'I' for Inactive)
REMARK    1  A    between atoms: C10_10  and  O11_11 
ROOT
HETATM    1  C1  UNL     1     -35.541   6.115   3.421  1.00 20.00     0.011 A 
HETATM    2  C2  UNL     1     -34.029   8.997   3.333  1.00 20.00     0.013 A 
HETATM    3  C3  UNL     1     -32.794   5.129   1.207  1.00 20.00     0.013 A 
HETATM    4  C4  UNL     1     -34.510   6.581   4.415  1.00 20.00    -0.005 A 
HETATM    5  C5  UNL     1     -34.257   5.343   3.552  1.00 20.00    -0.005 A 
HETATM    6  C6  UNL     1     -33.704   7.894   4.316  1.00 20.00    -0.003 A 
HETATM    7  C7  UNL     1     -33.051   5.409   2.648  1.00 20.00    -0.003 A 
HETATM    8  C8  UNL     1     -32.662   8.369   3.294  1.00 20.00     0.019 A 
HETATM    9  C9  UNL     1     -33.073   6.541   1.637  1.00 20.00     0.019 A 
HETATM   10  C10 UNL     1     -32.170   7.641   2.059  1.00 20.00     0.127 C 
ENDROOT
BRANCH  10  11
HETATM   11  O11 UNL     1     -32.043   8.584   0.996  1.00 20.00    -0.395 OA
HETATM   12  H25 UNL     1     -32.775   8.410   0.386  1.00 20.00     0.210 HD
ENDBRANCH  10  11
TORSDOF 1
ENDMDL
MODEL 6
REMARK VINA RESULT:       1.0      1.416      2.840
REMARK  1 active torsions:
REMARK  status: ('A' for Active; 'I' for Inactive)
REMARK    1  A    between atoms: C10_10  and  O11_11 
ROOT
HETATM    1  C1  UNL     1     -31.710   5.291   1.738  1.00 20.00     0.011 A 
HETATM    2  C2  UNL     1     -31.373   8.321   2.883  1.00 20.00     0.013 A 
HETATM    3  C3  UNL     1     -34.675   5.305   3.890  1.00 20.00     0.013 A 
HETATM    4  C4  UNL     1     -32.246   6.531   1.072  1.00 20.00    -0.005 A 
HETATM    5  C5  UNL     1     -33.196   5.431   1.549  1.00 20.00    -0.005 A 
HETATM    6  C6  UNL     1     -32.193   7.957   1.664  1.00 20.00    -0.003 A 
HETATM    7  C7  UNL     1     -34.217   5.846   2.580  1.00 20.00    -0.003 A 
HETATM    8  C8  UNL     1     -32.859   8.562   2.908  1.00 20.00     0.019 A 
HETATM    9  C9  UNL     1     -33.634   6.388   3.872  1.00 20.00     0.019 A 
HETATM   10  C10 UNL     1     -33.747   7.867   3.920  1.00 20.00     0.127 C 
ENDROOT
BRANCH  10  11
HETATM   11  O11 UNL     1     -33.396   8.328   5.225  1.00 20.00    -0.395 OA
HETATM   12  H25 UNL     1     -32.893   9.147   5.100  1.00 20.00     0.210 HD
ENDBRANCH  10  11
TORSDOF 1
ENDMDL
MODEL 7
REMARK VINA RESULT:       1.4      1.570      2.979
REMARK  1 active torsions:
REMARK  status: ('A' for Active; 'I' for Inactive)
REMARK    1  A    between atoms: C10_10  and  O11_11 
ROOT
HETATM    1  C1  UNL     1     -33.547   5.345   0.695  1.00 20.00     0.011 A 
HETATM    2  C2  UNL     1     -35.099   5.900   3.504  1.00 20.00     0.013 A 
HETATM    3  C3  UNL     1     -31.916   8.524   1.505  1.00 20.00     0.013 A 
HETATM    4  C4  UNL     1     -33.109   4.831   2.042  1.00 20.00    -0.005 A 
HETATM    5  C5  UNL     1     -32.215   5.781   1.241  1.00 20.00    -0.005 A 
HETATM    6  C6  UNL     1     -33.770   5.185   3.391  1.00 20.00    -0.003 A 
HETATM    7  C7  UNL     1     -31.882   7.091   1.911  1.00 20.00    -0.003 A 
HETATM    8  C8  UNL     1     -33.886   6.518   4.145  1.00 20.00     0.019 A 
HETATM    9  C9  UNL     1     -33.083   7.952   2.259  1.00 20.00     0.019 A 
HETATM   10  C10 UNL     1     -33.379   7.879   3.712  1.00 20.00     0.127 C 
ENDROOT
BRANCH  10  11
HETATM   11  O11 UNL     1     -34.363   8.857   4.045  1.00 20.00    -0.395 OA
HETATM   12  H25 UNL     1     -34.643   9.260   3.209  1.00 20.00     0.210 HD
ENDBRANCH  10  11
TORSDOF 1
ENDMDL
MODEL 8
REMARK VINA RESULT:       1.7      1.522      2.982
REMARK  1 active torsions:
REMARK  status: ('A' for Active; 'I' for Inactive)
REMARK    1  A    between atoms: C10_10  and  O11_11 
ROOT
HETATM    1  C1  UNL     1     -35.004   7.841   3.397  1.00 20.00     0.011 A 
HETATM    2  C2  UNL     1     -32.600   8.115   1.218  1.00 20.00     0.013 A 
HETATM    3  C3  UNL     1     -34.052   4.305   3.311  1.00 20.00     0.013 A 
HETATM    4  C4  UNL     1     -33.571   8.170   3.726  1.00 20.00    -0.005 A 
HETATM    5  C5  UNL     1     -34.225   6.899   4.273  1.00 20.00    -0.005 A 
HETATM    6  C6  UNL     1     -32.404   8.187   2.716  1.00 20.00    -0.003 A 
HETATM    7  C7  UNL     1     -33.572   5.600   3.869  1.00 20.00    -0.003 A 
HETATM    8  C8  UNL     1     -31.761   7.062   1.892  1.00 20.00     0.019 A 
HETATM    9  C9  UNL     1     -33.520   5.350   2.373  1.00 20.00     0.019 A 
HETATM   10  C10 UNL     1     -32.155   5.600   1.845  1.00 20.00     0.127 C 
ENDROOT
BRANCH  10  11
HETATM   11  O11 UNL     1     -32.080   5.152   0.493  1.00 20.00    -0.395 OA
HETATM   12  H25 UNL     1     -31.258   4.644   0.418  1.00 20.00     0.210 HD
ENDBRANCH  10  11
TORSDOF 1
ENDMDL
