MODEL 1
REMARK VINA RESULT:       0.5      0.000      0.000
REMARK  1 active torsions:
REMARK  status: ('A' for Active; 'I' for Inactive)
REMARK    1  A    between atoms: C5_5  and  C8_8 
ROOT
HETATM    1  C1  UNL     1     -32.499   8.076   3.302  1.00 20.00     0.047 C 
HETATM    2  C2  UNL     1     -33.417   7.291   3.878  1.00 20.00    -0.009 C 
HETATM    3  C3  UNL     1     -32.189   7.933   1.860  1.00 20.00     0.149 C 
HETATM    4  C6  UNL     1     -32.996   6.952   1.043  1.00 20.00     0.084 C 
HETATM    5  C7  UNL     1     -33.430   5.761   1.888  1.00 20.00     0.025 C 
HETATM    6  C8  UNL     1     -34.170   6.178   3.180  1.00 20.00    -0.003 C 
HETATM    7  C11 UNL     1     -35.596   6.661   2.867  1.00 20.00     0.024 C 
HETATM    8  O12 UNL     1     -31.335   8.654   1.345  1.00 20.00    -0.293 OA
ENDROOT
BRANCH   6   9
HETATM    9  C5  UNL     1     -34.271   4.967   4.078  1.00 20.00    -0.076 C 
HETATM   10  C4  UNL     1     -33.336   3.999   4.051  1.00 20.00    -0.027 C 
HETATM   11  C9  UNL     1     -33.290   2.765   4.858  1.00 20.00     0.036 C 
HETATM   12  C10 UNL     1     -35.474   4.942   4.978  1.00 20.00     0.044 C 
ENDBRANCH   6   9
TORSDOF 1
ENDMDL
MODEL 2
REMARK VINA RESULT:       0.9      2.287      5.039
REMARK  1 active torsions:
REMARK  status: ('A' for Active; 'I' for Inactive)
REMARK    1  A    between atoms: C5_5  and  C8_8 
ROOT
HETATM    1  C1  UNL     1     -34.140   7.611   3.816  1.00 20.00     0.047 C 
HETATM    2  C2  UNL     1     -33.217   8.324   3.159  1.00 20.00    -0.009 C 
HETATM    3  C3  UNL     1     -34.290   6.160   3.557  1.00 20.00     0.149 C 
HETATM    4  C6  UNL     1     -33.321   5.493   2.610  1.00 20.00     0.084 C 
HETATM    5  C7  UNL     1     -32.868   6.456   1.519  1.00 20.00     0.025 C 
HETATM    6  C8  UNL     1     -32.301   7.779   2.083  1.00 20.00    -0.003 C 
HETATM    7  C11 UNL     1     -30.901   7.569   2.681  1.00 20.00     0.024 C 
HETATM    8  O12 UNL     1     -35.150   5.518   4.158  1.00 20.00    -0.293 OA
ENDROOT
BRANCH   6   9
HETATM    9  C5  UNL     1     -32.182   8.765   0.945  1.00 20.00    -0.076 C 
HETATM   10  C4  UNL     1     -32.910   9.898   0.923  1.00 20.00    -0.027 C 
HETATM   11  C9  UNL     1     -32.909  10.952  -0.107  1.00 20.00     0.036 C 
HETATM   12  C10 UNL     1     -31.205   8.380  -0.130  1.00 20.00     0.044 C 
ENDBRANCH   6   9
TORSDOF 1
ENDMDL
MODEL 3
REMARK VINA RESULT:       1.3      1.840      3.292
REMARK  1 active torsions:
REMARK  status: ('A' for Active; 'I' for Inactive)
REMARK    1  A    between atoms: C5_5  and  C8_8 
ROOT
HETATM    1  C1  UNL     1     -31.528   8.611   0.196  1.00 20.00     0.047 C 
HETATM    2  C2  UNL     1     -31.735   7.803   1.243  1.00 20.00    -0.009 C 
HETATM    3  C3  UNL     1     -32.179   9.941   0.136  1.00 20.00     0.149 C 
HETATM    4  C6  UNL     1     -33.001  10.396   1.319  1.00 20.00     0.084 C 
HETATM    5  C7  UNL     1     -33.663   9.213   2.014  1.00 20.00     0.025 C 
HETATM    6  C8  UNL     1     -32.659   8.105   2.405  1.00 20.00    -0.003 C 
HETATM    7  C11 UNL     1     -31.812   8.530   3.616  1.00 20.00     0.024 C 
HETATM    8  O12 UNL     1     -31.990  10.669  -0.838  1.00 20.00    -0.293 OA
ENDROOT
BRANCH   6   9
HETATM    9  C5  UNL     1     -33.441   6.871   2.788  1.00 20.00    -0.076 C 
HETATM   10  C4  UNL     1     -34.382   6.913   3.751  1.00 20.00    -0.027 C 
HETATM   11  C9  UNL     1     -35.225   5.806   4.238  1.00 20.00     0.036 C 
HETATM   12  C10 UNL     1     -33.087   5.629   2.020  1.00 20.00     0.044 C 
ENDBRANCH   6   9
TORSDOF 1
ENDMDL
MODEL 4
REMARK VINA RESULT:       2.1      2.260      4.715
REMARK  1 active torsions:
REMARK  status: ('A' for Active; 'I' for Inactive)
REMARK    1  A    between atoms: C5_5  and  C8_8 
ROOT
HETATM    1  C1  UNL     1     -32.510   4.455   2.878  1.00 20.00     0.047 C 
HETATM    2  C2  UNL     1     -32.352   5.452   1.998  1.00 20.00    -0.009 C 
HETATM    3  C3  UNL     1     -33.676   4.441   3.792  1.00 20.00     0.149 C 
HETATM    4  C6  UNL     1     -34.722   5.520   3.644  1.00 20.00     0.084 C 
HETATM    5  C7  UNL     1     -34.098   6.825   3.165  1.00 20.00     0.025 C 
HETATM    6  C8  UNL     1     -33.262   6.655   1.876  1.00 20.00    -0.003 C 
HETATM    7  C11 UNL     1     -34.171   6.470   0.650  1.00 20.00     0.024 C 
HETATM    8  O12 UNL     1     -33.803   3.525   4.604  1.00 20.00    -0.293 OA
ENDROOT
BRANCH   6   9
HETATM    9  C5  UNL     1     -32.449   7.912   1.671  1.00 20.00    -0.076 C 
HETATM   10  C4  UNL     1     -32.713   8.757   0.656  1.00 20.00    -0.027 C 
HETATM   11  C9  UNL     1     -32.017  10.013   0.324  1.00 20.00     0.036 C 
HETATM   12  C10 UNL     1     -31.350   8.127   2.674  1.00 20.00     0.044 C 
ENDBRANCH   6   9
TORSDOF 1
ENDMDL
MODEL 5
REMARK VINA RESULT:       2.1      1.324      2.202
REMARK  1 active torsions:
REMARK  status: ('A' for Active; 'I' for Inactive)
REMARK    1  A    between atoms: C5_5  and  C8_8 
ROOT
HETATM    1  C1  UNL     1     -31.729   7.888   1.213  1.00 20.00     0.047 C 
HETATM    2  C2  UNL     1     -32.086   7.184   2.295  1.00 20.00    -0.009 C 
HETATM    3  C3  UNL     1     -32.431   9.149   0.876  1.00 20.00     0.149 C 
HETATM    4  C6  UNL     1     -33.488   9.663   1.826  1.00 20.00     0.084 C 
HETATM    5  C7  UNL     1     -34.202   8.513   2.525  1.00 20.00     0.025 C 
HETATM    6  C8  UNL     1     -33.230   7.535   3.223  1.00 20.00    -0.003 C 
HETATM    7  C11 UNL     1     -32.655   8.152   4.509  1.00 20.00     0.024 C 
HETATM    8  O12 UNL     1     -32.102   9.781  -0.126  1.00 20.00    -0.293 OA
ENDROOT
BRANCH   6   9
HETATM    9  C5  UNL     1     -34.000   6.292   3.602  1.00 20.00    -0.076 C 
HETATM   10  C4  UNL     1     -33.395   5.092   3.679  1.00 20.00    -0.027 C 
HETATM   11  C9  UNL     1     -34.003   3.796   4.032  1.00 20.00     0.036 C 
HETATM   12  C10 UNL     1     -35.461   6.511   3.879  1.00 20.00     0.044 C 
ENDBRANCH   6   9
TORSDOF 1
ENDMDL
MODEL 6
REMARK VINA RESULT:       2.3      1.809      3.275
REMARK  1 active torsions:
REMARK  status: ('A' for Active; 'I' for Inactive)
REMARK    1  A    between atoms: C5_5  and  C8_8 
ROOT
HETATM    1  C1  UNL     1     -31.991   7.849   0.417  1.00 20.00     0.047 C 
HETATM    2  C2  UNL     1     -32.086   7.515   1.710  1.00 20.00    -0.009 C 
HETATM    3  C3  UNL     1     -32.354   9.214  -0.033  1.00 20.00     0.149 C 
HETATM    4  C6  UNL     1     -32.742  10.237   1.008  1.00 20.00     0.084 C 
HETATM    5  C7  UNL     1     -33.434   9.576   2.195  1.00 20.00     0.025 C 
HETATM    6  C8  UNL     1     -32.608   8.421   2.806  1.00 20.00    -0.003 C 
HETATM    7  C11 UNL     1     -31.417   8.961   3.613  1.00 20.00     0.024 C 
HETATM    8  O12 UNL     1     -32.273   9.504  -1.226  1.00 20.00    -0.293 OA
ENDROOT
BRANCH   6   9
HETATM    9  C5  UNL     1     -33.501   7.648   3.747  1.00 20.00    -0.076 C 
HETATM   10  C4  UNL     1     -34.269   6.634   3.304  1.00 20.00    -0.027 C 
HETATM   11  C9  UNL     1     -35.188   5.789   4.089  1.00 20.00     0.036 C 
HETATM   12  C10 UNL     1     -33.457   8.099   5.180  1.00 20.00     0.044 C 
ENDBRANCH   6   9
TORSDOF 1
ENDMDL
MODEL 7
REMARK VINA RESULT:       2.3      1.319      2.528
REMARK  1 active torsions:
REMARK  status: ('A' for Active; 'I' for Inactive)
REMARK    1  A    between atoms: C5_5  and  C8_8 
ROOT
HETATM    1  C1  UNL     1     -33.353   8.145   0.116  1.00 20.00     0.047 C 
HETATM    2  C2  UNL     1     -33.488   6.996   0.790  1.00 20.00    -0.009 C 
HETATM    3  C3  UNL     1     -32.301   9.117   0.497  1.00 20.00     0.149 C 
HETATM    4  C6  UNL     1     -31.335   8.741   1.595  1.00 20.00     0.084 C 
HETATM    5  C7  UNL     1     -32.002   7.841   2.628  1.00 20.00     0.025 C 
HETATM    6  C8  UNL     1     -32.669   6.596   1.999  1.00 20.00    -0.003 C 
HETATM    7  C11 UNL     1     -31.615   5.564   1.566  1.00 20.00     0.024 C 
HETATM    8  O12 UNL     1     -32.194  10.174  -0.123  1.00 20.00    -0.293 OA
ENDROOT
BRANCH   6   9
HETATM    9  C5  UNL     1     -33.553   5.955   3.044  1.00 20.00    -0.076 C 
HETATM   10  C4  UNL     1     -33.394   4.664   3.395  1.00 20.00    -0.027 C 
HETATM   11  C9  UNL     1     -34.168   3.898   4.389  1.00 20.00     0.036 C 
HETATM   12  C10 UNL     1     -34.593   6.861   3.639  1.00 20.00     0.044 C 
ENDBRANCH   6   9
TORSDOF 1
ENDMDL
MODEL 8
REMARK VINA RESULT:       2.7      1.377      2.939
REMARK  1 active torsions:
REMARK  status: ('A' for Active; 'I' for Inactive)
REMARK    1  A    between atoms: C5_5  and  C8_8 
ROOT
HETATM    1  C1  UNL     1     -33.218   8.204   0.020  1.00 20.00     0.047 C 
HETATM    2  C2  UNL     1     -33.375   7.033   0.650  1.00 20.00    -0.009 C 
HETATM    3  C3  UNL     1     -32.224   9.189   0.508  1.00 20.00     0.149 C 
HETATM    4  C6  UNL     1     -31.336   8.804   1.667  1.00 20.00     0.084 C 
HETATM    5  C7  UNL     1     -32.057   7.858   2.619  1.00 20.00     0.025 C 
HETATM    6  C8  UNL     1     -32.641   6.617   1.907  1.00 20.00    -0.003 C 
HETATM    7  C11 UNL     1     -31.530   5.624   1.528  1.00 20.00     0.024 C 
HETATM    8  O12 UNL     1     -32.097  10.267  -0.073  1.00 20.00    -0.293 OA
ENDROOT
BRANCH   6   9
HETATM    9  C5  UNL     1     -33.585   5.925   2.862  1.00 20.00    -0.076 C 
HETATM   10  C4  UNL     1     -34.572   6.601   3.480  1.00 20.00    -0.027 C 
HETATM   11  C9  UNL     1     -35.567   6.074   4.432  1.00 20.00     0.036 C 
HETATM   12  C10 UNL     1     -33.331   4.456   3.053  1.00 20.00     0.044 C 
ENDBRANCH   6   9
TORSDOF 1
ENDMDL
MODEL 9
REMARK VINA RESULT:       3.5      2.642      5.066
REMARK  1 active torsions:
REMARK  status: ('A' for Active; 'I' for Inactive)
REMARK    1  A    between atoms: C5_5  and  C8_8 
ROOT
HETATM    1  C1  UNL     1     -32.360   8.516   4.420  1.00 20.00     0.047 C 
HETATM    2  C2  UNL     1     -31.755   8.481   3.227  1.00 20.00    -0.009 C 
HETATM    3  C3  UNL     1     -33.671   7.851   4.613  1.00 20.00     0.149 C 
HETATM    4  C6  UNL     1     -34.257   7.063   3.465  1.00 20.00     0.084 C 
HETATM    5  C7  UNL     1     -33.858   7.669   2.125  1.00 20.00     0.025 C 
HETATM    6  C8  UNL     1     -32.329   7.848   1.977  1.00 20.00    -0.003 C 
HETATM    7  C11 UNL     1     -31.635   6.497   1.740  1.00 20.00     0.024 C 
HETATM    8  O12 UNL     1     -34.224   7.900   5.712  1.00 20.00    -0.293 OA
ENDROOT
BRANCH   6   9
HETATM    9  C5  UNL     1     -32.071   8.727   0.776  1.00 20.00    -0.076 C 
HETATM   10  C4  UNL     1     -32.780   9.852   0.569  1.00 20.00    -0.027 C 
HETATM   11  C9  UNL     1     -32.651  10.809  -0.545  1.00 20.00     0.036 C 
HETATM   12  C10 UNL     1     -30.982   8.245  -0.141  1.00 20.00     0.044 C 
ENDBRANCH   6   9
TORSDOF 1
ENDMDL
