MODEL 1
REMARK VINA RESULT:       1.5      0.000      0.000
REMARK  0 active torsions:
REMARK  status: ('A' for Active; 'I' for Inactive)
ROOT
HETATM    1  C1  UNL     1     -32.205   8.005   1.625  1.00 20.00     0.069 C 
HETATM    2  C2  UNL     1     -32.412   5.026   0.545  1.00 20.00     0.007 C 
HETATM    3  C3  UNL     1     -31.392   5.670   1.491  1.00 20.00     0.025 C 
HETATM    4  C4  UNL     1     -33.797   5.453   1.037  1.00 20.00     0.070 C 
HETATM    5  C5  UNL     1     -34.915   6.652   4.126  1.00 20.00     0.197 C 
HETATM    6  C6  UNL     1     -34.677   5.169   4.187  1.00 20.00     0.197 C 
HETATM    7  C7  UNL     1     -32.173   6.701   2.311  1.00 20.00     0.155 C 
HETATM    8  C8  UNL     1     -33.558   6.051   2.421  1.00 20.00     0.180 C 
HETATM    9  N9  UNL     1     -32.231   9.033   1.085  1.00 20.00    -0.197 NA
HETATM   10  O10 UNL     1     -34.587   6.977   2.777  1.00 20.00    -0.352 OA
HETATM   11  O11 UNL     1     -33.500   4.995   3.398  1.00 20.00    -0.352 OA
ENDROOT
TORSDOF 0
ENDMDL
MODEL 2
REMARK VINA RESULT:       1.7      2.497      3.814
REMARK  0 active torsions:
REMARK  status: ('A' for Active; 'I' for Inactive)
ROOT
HETATM    1  C1  UNL     1     -33.676   7.586   3.513  1.00 20.00     0.069 C 
HETATM    2  C2  UNL     1     -31.722   5.951   1.618  1.00 20.00     0.007 C 
HETATM    3  C3  UNL     1     -33.254   6.007   1.651  1.00 20.00     0.025 C 
HETATM    4  C4  UNL     1     -31.227   7.398   1.680  1.00 20.00     0.070 C 
HETATM    5  C5  UNL     1     -32.797  10.439   0.961  1.00 20.00     0.197 C 
HETATM    6  C6  UNL     1     -32.424   9.721  -0.307  1.00 20.00     0.197 C 
HETATM    7  C7  UNL     1     -33.611   7.444   2.047  1.00 20.00     0.155 C 
HETATM    8  C8  UNL     1     -32.467   8.251   1.421  1.00 20.00     0.180 C 
HETATM    9  N9  UNL     1     -33.728   7.698   4.667  1.00 20.00    -0.197 NA
HETATM   10  O10 UNL     1     -32.329   9.558   1.980  1.00 20.00    -0.352 OA
HETATM   11  O11 UNL     1     -32.692   8.354   0.003  1.00 20.00    -0.352 OA
ENDROOT
TORSDOF 0
ENDMDL
MODEL 3
REMARK VINA RESULT:       2.1      1.848      3.470
REMARK  0 active torsions:
REMARK  status: ('A' for Active; 'I' for Inactive)
ROOT
HETATM    1  C1  UNL     1     -33.746   7.821   4.527  1.00 20.00     0.069 C 
HETATM    2  C2  UNL     1     -34.820   4.840   4.327  1.00 20.00     0.007 C 
HETATM    3  C3  UNL     1     -35.494   6.164   3.951  1.00 20.00     0.025 C 
HETATM    4  C4  UNL     1     -33.409   4.880   3.734  1.00 20.00     0.070 C 
HETATM    5  C5  UNL     1     -32.010   6.788   1.159  1.00 20.00     0.197 C 
HETATM    6  C6  UNL     1     -32.876   5.694   0.598  1.00 20.00     0.197 C 
HETATM    7  C7  UNL     1     -34.375   7.070   3.427  1.00 20.00     0.155 C 
HETATM    8  C8  UNL     1     -33.420   6.064   2.770  1.00 20.00     0.180 C 
HETATM    9  N9  UNL     1     -33.250   8.414   5.393  1.00 20.00    -0.197 NA
HETATM   10  O10 UNL     1     -32.105   6.587   2.567  1.00 20.00    -0.352 OA
HETATM   11  O11 UNL     1     -33.976   5.652   1.507  1.00 20.00    -0.352 OA
ENDROOT
TORSDOF 0
ENDMDL
MODEL 4
REMARK VINA RESULT:       2.1      1.568      2.681
REMARK  0 active torsions:
REMARK  status: ('A' for Active; 'I' for Inactive)
ROOT
HETATM    1  C1  UNL     1     -32.117   5.395   1.320  1.00 20.00     0.069 C 
HETATM    2  C2  UNL     1     -32.234   8.376   2.405  1.00 20.00     0.007 C 
HETATM    3  C3  UNL     1     -32.894   7.742   1.176  1.00 20.00     0.025 C 
HETATM    4  C4  UNL     1     -32.492   7.430   3.580  1.00 20.00     0.070 C 
HETATM    5  C5  UNL     1     -34.870   4.915   4.079  1.00 20.00     0.197 C 
HETATM    6  C6  UNL     1     -35.493   6.274   4.243  1.00 20.00     0.197 C 
HETATM    7  C7  UNL     1     -33.244   6.306   1.582  1.00 20.00     0.155 C 
HETATM    8  C8  UNL     1     -33.554   6.455   3.077  1.00 20.00     0.180 C 
HETATM    9  N9  UNL     1     -31.229   4.675   1.113  1.00 20.00    -0.197 NA
HETATM   10  O10 UNL     1     -33.508   5.217   3.788  1.00 20.00    -0.352 OA
HETATM   11  O11 UNL     1     -34.858   7.047   3.225  1.00 20.00    -0.352 OA
ENDROOT
TORSDOF 0
ENDMDL
MODEL 5
REMARK VINA RESULT:       2.6      2.389      3.984
REMARK  0 active torsions:
REMARK  status: ('A' for Active; 'I' for Inactive)
ROOT
HETATM    1  C1  UNL     1     -33.749   4.433   4.060  1.00 20.00     0.069 C 
HETATM    2  C2  UNL     1     -35.769   6.803   3.437  1.00 20.00     0.007 C 
HETATM    3  C3  UNL     1     -34.803   6.605   4.611  1.00 20.00     0.025 C 
HETATM    4  C4  UNL     1     -34.978   6.502   2.162  1.00 20.00     0.070 C 
HETATM    5  C5  UNL     1     -31.544   6.437   1.501  1.00 20.00     0.197 C 
HETATM    6  C6  UNL     1     -32.041   7.853   1.591  1.00 20.00     0.197 C 
HETATM    7  C7  UNL     1     -33.576   5.896   4.030  1.00 20.00     0.155 C 
HETATM    8  C8  UNL     1     -33.517   6.459   2.604  1.00 20.00     0.180 C 
HETATM    9  N9  UNL     1     -33.885   3.280   4.084  1.00 20.00    -0.197 NA
HETATM   10  O10 UNL     1     -32.724   5.666   1.718  1.00 20.00    -0.352 OA
HETATM   11  O11 UNL     1     -32.990   7.798   2.654  1.00 20.00    -0.352 OA
ENDROOT
TORSDOF 0
ENDMDL
MODEL 6
REMARK VINA RESULT:       3.0      2.048      3.365
REMARK  0 active torsions:
REMARK  status: ('A' for Active; 'I' for Inactive)
ROOT
HETATM    1  C1  UNL     1     -33.288   5.420   1.664  1.00 20.00     0.069 C 
HETATM    2  C2  UNL     1     -35.489   6.128   3.840  1.00 20.00     0.007 C 
HETATM    3  C3  UNL     1     -34.325   5.132   3.894  1.00 20.00     0.025 C 
HETATM    4  C4  UNL     1     -34.920   7.439   3.292  1.00 20.00     0.070 C 
HETATM    5  C5  UNL     1     -31.656   8.682   3.122  1.00 20.00     0.197 C 
HETATM    6  C6  UNL     1     -32.191   8.788   4.523  1.00 20.00     0.197 C 
HETATM    7  C7  UNL     1     -33.188   5.772   3.091  1.00 20.00     0.155 C 
HETATM    8  C8  UNL     1     -33.404   7.268   3.353  1.00 20.00     0.180 C 
HETATM    9  N9  UNL     1     -33.366   5.143   0.539  1.00 20.00    -0.197 NA
HETATM   10  O10 UNL     1     -32.744   8.107   2.402  1.00 20.00    -0.352 OA
HETATM   11  O11 UNL     1     -32.937   7.581   4.678  1.00 20.00    -0.352 OA
ENDROOT
TORSDOF 0
ENDMDL
MODEL 7
REMARK VINA RESULT:       4.0      2.085      3.483
REMARK  0 active torsions:
REMARK  status: ('A' for Active; 'I' for Inactive)
ROOT
HETATM    1  C1  UNL     1     -34.809   6.545   3.408  1.00 20.00     0.069 C 
HETATM    2  C2  UNL     1     -32.476   8.613   2.806  1.00 20.00     0.007 C 
HETATM    3  C3  UNL     1     -32.610   7.565   3.917  1.00 20.00     0.025 C 
HETATM    4  C4  UNL     1     -32.844   7.913   1.495  1.00 20.00     0.070 C 
HETATM    5  C5  UNL     1     -32.944   4.535   0.595  1.00 20.00     0.197 C 
HETATM    6  C6  UNL     1     -31.525   5.029   0.645  1.00 20.00     0.197 C 
HETATM    7  C7  UNL     1     -33.350   6.380   3.287  1.00 20.00     0.155 C 
HETATM    8  C8  UNL     1     -32.863   6.425   1.833  1.00 20.00     0.180 C 
HETATM    9  N9  UNL     1     -35.959   6.674   3.503  1.00 20.00    -0.197 NA
HETATM   10  O10 UNL     1     -33.702   5.694   0.937  1.00 20.00    -0.352 OA
HETATM   11  O11 UNL     1     -31.523   5.901   1.775  1.00 20.00    -0.352 OA
ENDROOT
TORSDOF 0
ENDMDL
MODEL 8
REMARK VINA RESULT:       4.4      2.003      3.293
REMARK  0 active torsions:
REMARK  status: ('A' for Active; 'I' for Inactive)
ROOT
HETATM    1  C1  UNL     1     -33.638   7.610   3.705  1.00 20.00     0.069 C 
HETATM    2  C2  UNL     1     -32.155   9.193   1.385  1.00 20.00     0.007 C 
HETATM    3  C3  UNL     1     -31.646   8.735   2.756  1.00 20.00     0.025 C 
HETATM    4  C4  UNL     1     -32.875   7.995   0.761  1.00 20.00     0.070 C 
HETATM    5  C5  UNL     1     -32.698   4.563   1.411  1.00 20.00     0.197 C 
HETATM    6  C6  UNL     1     -31.492   5.020   0.639  1.00 20.00     0.197 C 
HETATM    7  C7  UNL     1     -32.341   7.399   3.037  1.00 20.00     0.155 C 
HETATM    8  C8  UNL     1     -32.485   6.803   1.632  1.00 20.00     0.180 C 
HETATM    9  N9  UNL     1     -34.660   7.776   4.231  1.00 20.00    -0.197 NA
HETATM   10  O10 UNL     1     -33.459   5.760   1.560  1.00 20.00    -0.352 OA
HETATM   11  O11 UNL     1     -31.205   6.296   1.208  1.00 20.00    -0.352 OA
ENDROOT
TORSDOF 0
ENDMDL
MODEL 9
REMARK VINA RESULT:       4.4      1.600      2.988
REMARK  0 active torsions:
REMARK  status: ('A' for Active; 'I' for Inactive)
ROOT
HETATM    1  C1  UNL     1     -32.534   7.233   1.949  1.00 20.00     0.069 C 
HETATM    2  C2  UNL     1     -33.794   8.729   4.450  1.00 20.00     0.007 C 
HETATM    3  C3  UNL     1     -34.319   8.577   3.018  1.00 20.00     0.025 C 
HETATM    4  C4  UNL     1     -33.342   7.339   4.904  1.00 20.00     0.070 C 
HETATM    5  C5  UNL     1     -34.134   4.133   3.753  1.00 20.00     0.197 C 
HETATM    6  C6  UNL     1     -35.266   4.700   4.564  1.00 20.00     0.197 C 
HETATM    7  C7  UNL     1     -33.876   7.185   2.556  1.00 20.00     0.155 C 
HETATM    8  C8  UNL     1     -33.911   6.380   3.861  1.00 20.00     0.180 C 
HETATM    9  N9  UNL     1     -31.477   7.271   1.471  1.00 20.00    -0.197 NA
HETATM   10  O10 UNL     1     -33.155   5.169   3.796  1.00 20.00    -0.352 OA
HETATM   11  O11 UNL     1     -35.281   6.076   4.184  1.00 20.00    -0.352 OA
ENDROOT
TORSDOF 0
ENDMDL
