MODEL 1
REMARK VINA RESULT:      -1.1      0.000      0.000
REMARK  1 active torsions:
REMARK  status: ('A' for Active; 'I' for Inactive)
REMARK    1  A    between atoms: C3_3  and  C7_7 
ROOT
HETATM    1  C1  UNL     1     -33.425   7.933   2.542  1.00 20.00     0.034 A 
HETATM    2  C2  UNL     1     -31.953   6.726   1.207  1.00 20.00     0.058 A 
HETATM    3  C3  UNL     1     -32.397   7.983   1.555  1.00 20.00    -0.046 A 
HETATM    4  C4  UNL     1     -33.726   6.639   2.909  1.00 20.00     0.051 A 
HETATM    5  S8  UNL     1     -32.773   5.493   2.067  1.00 20.00    -0.094 SA
HETATM    6 BR9  UNL     1     -35.041   6.168   4.197  1.00 20.00    -0.043 Br
ENDROOT
BRANCH   3   7
HETATM    7  C7  UNL     1     -31.854   9.278   0.957  1.00 20.00     0.019 A 
HETATM    8  C5  UNL     1     -32.755  10.497   0.902  1.00 20.00     0.010 A 
HETATM    9  C6  UNL     1     -32.418   9.770  -0.363  1.00 20.00     0.010 A 
ENDBRANCH   3   7
TORSDOF 1
ENDMDL
MODEL 2
REMARK VINA RESULT:      -0.3      2.354      3.158
REMARK  1 active torsions:
REMARK  status: ('A' for Active; 'I' for Inactive)
REMARK    1  A    between atoms: C3_3  and  C7_7 
ROOT
HETATM    1  C1  UNL     1     -33.105   5.278   3.206  1.00 20.00     0.034 A 
HETATM    2  C2  UNL     1     -34.927   6.635   3.703  1.00 20.00     0.058 A 
HETATM    3  C3  UNL     1     -33.739   6.540   3.011  1.00 20.00    -0.046 A 
HETATM    4  C4  UNL     1     -33.832   4.458   4.040  1.00 20.00     0.051 A 
HETATM    5  S8  UNL     1     -35.273   5.207   4.583  1.00 20.00    -0.094 SA
HETATM    6 BR9  UNL     1     -33.312   2.699   4.536  1.00 20.00    -0.043 Br
ENDROOT
BRANCH   3   7
HETATM    7  C7  UNL     1     -33.168   7.654   2.138  1.00 20.00     0.019 A 
HETATM    8  C5  UNL     1     -31.863   7.416   1.402  1.00 20.00     0.010 A 
HETATM    9  C6  UNL     1     -31.892   8.348   2.573  1.00 20.00     0.010 A 
ENDBRANCH   3   7
TORSDOF 1
ENDMDL
MODEL 3
REMARK VINA RESULT:      -0.0      1.453      1.766
REMARK  1 active torsions:
REMARK  status: ('A' for Active; 'I' for Inactive)
REMARK    1  A    between atoms: C3_3  and  C7_7 
ROOT
HETATM    1  C1  UNL     1     -32.793   6.477   2.039  1.00 20.00     0.034 A 
HETATM    2  C2  UNL     1     -33.294   8.517   3.036  1.00 20.00     0.058 A 
HETATM    3  C3  UNL     1     -32.659   7.895   1.983  1.00 20.00    -0.046 A 
HETATM    4  C4  UNL     1     -33.525   6.070   3.134  1.00 20.00     0.051 A 
HETATM    5  S8  UNL     1     -34.047   7.393   4.086  1.00 20.00    -0.094 SA
HETATM    6 BR9  UNL     1     -33.917   4.258   3.548  1.00 20.00    -0.043 Br
ENDROOT
BRANCH   3   7
HETATM    7  C7  UNL     1     -31.901   8.636   0.885  1.00 20.00     0.019 A 
HETATM    8  C5  UNL     1     -32.293  10.063   0.554  1.00 20.00     0.010 A 
HETATM    9  C6  UNL     1     -32.618   8.965  -0.410  1.00 20.00     0.010 A 
ENDBRANCH   3   7
TORSDOF 1
ENDMDL
MODEL 4
REMARK VINA RESULT:       0.3      3.061      5.366
REMARK  1 active torsions:
REMARK  status: ('A' for Active; 'I' for Inactive)
REMARK    1  A    between atoms: C3_3  and  C7_7 
ROOT
HETATM    1  C1  UNL     1     -33.004   5.623   2.880  1.00 20.00     0.034 A 
HETATM    2  C2  UNL     1     -34.824   6.051   4.264  1.00 20.00     0.058 A 
HETATM    3  C3  UNL     1     -33.958   5.087   3.795  1.00 20.00    -0.046 A 
HETATM    4  C4  UNL     1     -33.179   6.976   2.686  1.00 20.00     0.051 A 
HETATM    5  S8  UNL     1     -34.486   7.594   3.603  1.00 20.00    -0.094 SA
HETATM    6 BR9  UNL     1     -32.104   8.043   1.540  1.00 20.00    -0.043 Br
ENDROOT
BRANCH   3   7
HETATM    7  C7  UNL     1     -34.011   3.618   4.204  1.00 20.00     0.019 A 
HETATM    8  C5  UNL     1     -33.223   3.163   5.417  1.00 20.00     0.010 A 
HETATM    9  C6  UNL     1     -32.766   2.765   4.048  1.00 20.00     0.010 A 
ENDBRANCH   3   7
TORSDOF 1
ENDMDL
MODEL 5
REMARK VINA RESULT:       0.3      2.475      4.318
REMARK  1 active torsions:
REMARK  status: ('A' for Active; 'I' for Inactive)
REMARK    1  A    between atoms: C3_3  and  C7_7 
ROOT
HETATM    1  C1  UNL     1     -33.248   8.058   2.494  1.00 20.00     0.034 A 
HETATM    2  C2  UNL     1     -32.801   5.800   2.166  1.00 20.00     0.058 A 
HETATM    3  C3  UNL     1     -33.443   6.725   2.961  1.00 20.00    -0.046 A 
HETATM    4  C4  UNL     1     -32.465   8.100   1.360  1.00 20.00     0.051 A 
HETATM    5  S8  UNL     1     -31.969   6.538   0.864  1.00 20.00    -0.094 SA
HETATM    6 BR9  UNL     1     -31.987   9.694   0.445  1.00 20.00    -0.043 Br
ENDROOT
BRANCH   3   7
HETATM    7  C7  UNL     1     -34.265   6.368   4.196  1.00 20.00     0.019 A 
HETATM    8  C5  UNL     1     -34.809   4.959   4.335  1.00 20.00     0.010 A 
HETATM    9  C6  UNL     1     -35.747   6.086   4.037  1.00 20.00     0.010 A 
ENDBRANCH   3   7
TORSDOF 1
ENDMDL
MODEL 6
REMARK VINA RESULT:       0.5      2.725      4.235
REMARK  1 active torsions:
REMARK  status: ('A' for Active; 'I' for Inactive)
REMARK    1  A    between atoms: C3_3  and  C7_7 
ROOT
HETATM    1  C1  UNL     1     -33.124   5.574   2.285  1.00 20.00     0.034 A 
HETATM    2  C2  UNL     1     -32.762   7.861   2.507  1.00 20.00     0.058 A 
HETATM    3  C3  UNL     1     -33.505   6.783   2.939  1.00 20.00    -0.046 A 
HETATM    4  C4  UNL     1     -32.106   5.776   1.379  1.00 20.00     0.051 A 
HETATM    5  S8  UNL     1     -31.612   7.414   1.320  1.00 20.00    -0.094 SA
HETATM    6 BR9  UNL     1     -31.329   4.406   0.316  1.00 20.00    -0.043 Br
ENDROOT
BRANCH   3   7
HETATM    7  C7  UNL     1     -34.606   6.871   3.992  1.00 20.00     0.019 A 
HETATM    8  C5  UNL     1     -35.310   5.600   4.427  1.00 20.00     0.010 A 
HETATM    9  C6  UNL     1     -36.040   6.595   3.581  1.00 20.00     0.010 A 
ENDBRANCH   3   7
TORSDOF 1
ENDMDL
