MODEL 1
REMARK VINA RESULT:      -3.0      0.000      0.000
REMARK  1 active torsions:
REMARK  status: ('A' for Active; 'I' for Inactive)
REMARK    1  A    between atoms: C9_9  and  C10_10 
ROOT
HETATM    1  C1  UNL     1     -32.328   9.475   0.151  1.00 20.00     0.063 C 
HETATM    2  C10 UNL     1     -31.524   8.898   1.210  1.00 20.00     0.163 C 
HETATM    3  N11 UNL     1     -32.948   9.964  -0.700  1.00 20.00    -0.197 NA
ENDROOT
BRANCH   2   4
HETATM    4  C9  UNL     1     -32.227   7.640   1.727  1.00 20.00    -0.033 A 
HETATM    5  C6  UNL     1     -32.165   6.233   1.369  1.00 20.00     0.021 A 
HETATM    6  C7  UNL     1     -33.071   5.971   2.318  1.00 20.00    -0.025 A 
HETATM    7  C4  UNL     1     -33.897   4.989   3.031  1.00 20.00     0.012 A 
HETATM    8  C8  UNL     1     -33.130   7.342   2.668  1.00 20.00    -0.019 A 
HETATM    9  C2  UNL     1     -34.701   5.442   4.017  1.00 20.00     0.001 A 
HETATM   10  C3  UNL     1     -34.762   6.862   4.380  1.00 20.00     0.001 A 
HETATM   11  C5  UNL     1     -34.018   7.793   3.746  1.00 20.00     0.013 A 
ENDBRANCH   2   4
TORSDOF 1
ENDMDL
MODEL 2
REMARK VINA RESULT:      -2.9      2.847      4.963
REMARK  1 active torsions:
REMARK  status: ('A' for Active; 'I' for Inactive)
REMARK    1  A    between atoms: C9_9  and  C10_10 
ROOT
HETATM    1  C1  UNL     1     -33.972   3.731   4.560  1.00 20.00     0.063 C 
HETATM    2  C10 UNL     1     -34.955   4.779   4.371  1.00 20.00     0.163 C 
HETATM    3  N11 UNL     1     -33.210   2.871   4.723  1.00 20.00    -0.197 NA
ENDROOT
BRANCH   2   4
HETATM    4  C9  UNL     1     -34.250   6.014   3.803  1.00 20.00    -0.033 A 
HETATM    5  C6  UNL     1     -34.244   7.423   4.159  1.00 20.00     0.021 A 
HETATM    6  C7  UNL     1     -33.394   7.654   3.152  1.00 20.00    -0.025 A 
HETATM    7  C4  UNL     1     -32.584   8.608   2.384  1.00 20.00     0.012 A 
HETATM    8  C8  UNL     1     -33.398   6.281   2.808  1.00 20.00    -0.019 A 
HETATM    9  C2  UNL     1     -31.857   8.128   1.353  1.00 20.00     0.001 A 
HETATM   10  C3  UNL     1     -31.861   6.705   0.995  1.00 20.00     0.001 A 
HETATM   11  C5  UNL     1     -32.593   5.799   1.678  1.00 20.00     0.013 A 
ENDBRANCH   2   4
TORSDOF 1
ENDMDL
MODEL 3
REMARK VINA RESULT:      -2.1      0.906      1.990
REMARK  1 active torsions:
REMARK  status: ('A' for Active; 'I' for Inactive)
REMARK    1  A    between atoms: C9_9  and  C10_10 
ROOT
HETATM    1  C1  UNL     1     -32.206   9.060   0.788  1.00 20.00     0.063 C 
HETATM    2  C10 UNL     1     -31.713   8.001   1.647  1.00 20.00     0.163 C 
HETATM    3  N11 UNL     1     -32.568   9.910   0.087  1.00 20.00    -0.197 NA
ENDROOT
BRANCH   2   4
HETATM    4  C9  UNL     1     -32.864   7.514   2.532  1.00 20.00    -0.033 A 
HETATM    5  C6  UNL     1     -33.951   8.182   3.228  1.00 20.00     0.021 A 
HETATM    6  C7  UNL     1     -34.370   6.993   3.675  1.00 20.00    -0.025 A 
HETATM    7  C4  UNL     1     -35.336   6.215   4.460  1.00 20.00     0.012 A 
HETATM    8  C8  UNL     1     -33.313   6.342   2.994  1.00 20.00    -0.019 A 
HETATM    9  C2  UNL     1     -35.174   4.875   4.506  1.00 20.00     0.001 A 
HETATM   10  C3  UNL     1     -34.078   4.200   3.802  1.00 20.00     0.001 A 
HETATM   11  C5  UNL     1     -33.172   4.883   3.070  1.00 20.00     0.013 A 
ENDBRANCH   2   4
TORSDOF 1
ENDMDL
MODEL 4
REMARK VINA RESULT:      -0.6      3.005      4.708
REMARK  1 active torsions:
REMARK  status: ('A' for Active; 'I' for Inactive)
REMARK    1  A    between atoms: C9_9  and  C10_10 
ROOT
HETATM    1  C1  UNL     1     -33.638   3.447   4.556  1.00 20.00     0.063 C 
HETATM    2  C10 UNL     1     -34.483   4.520   4.067  1.00 20.00     0.163 C 
HETATM    3  N11 UNL     1     -32.989   2.579   4.968  1.00 20.00    -0.197 NA
ENDROOT
BRANCH   2   4
HETATM    4  C9  UNL     1     -33.688   5.341   3.047  1.00 20.00    -0.033 A 
HETATM    5  C6  UNL     1     -33.097   5.041   1.755  1.00 20.00     0.021 A 
HETATM    6  C7  UNL     1     -32.667   6.306   1.679  1.00 20.00    -0.025 A 
HETATM    7  C4  UNL     1     -31.952   7.348   0.931  1.00 20.00     0.012 A 
HETATM    8  C8  UNL     1     -33.246   6.598   2.937  1.00 20.00    -0.019 A 
HETATM    9  C2  UNL     1     -31.872   8.576   1.487  1.00 20.00     0.001 A 
HETATM   10  C3  UNL     1     -32.472   8.880   2.791  1.00 20.00     0.001 A 
HETATM   11  C5  UNL     1     -33.136   7.947   3.507  1.00 20.00     0.013 A 
ENDBRANCH   2   4
TORSDOF 1
ENDMDL
MODEL 5
REMARK VINA RESULT:      -0.4      2.266      4.522
REMARK  1 active torsions:
REMARK  status: ('A' for Active; 'I' for Inactive)
REMARK    1  A    between atoms: C9_9  and  C10_10 
ROOT
HETATM    1  C1  UNL     1     -34.545   6.886   3.987  1.00 20.00     0.063 C 
HETATM    2  C10 UNL     1     -33.424   7.793   4.129  1.00 20.00     0.163 C 
HETATM    3  N11 UNL     1     -35.449   6.162   3.908  1.00 20.00    -0.197 NA
ENDROOT
BRANCH   2   4
HETATM    4  C9  UNL     1     -32.762   7.970   2.760  1.00 20.00    -0.033 A 
HETATM    5  C6  UNL     1     -31.927   7.121   1.928  1.00 20.00     0.021 A 
HETATM    6  C7  UNL     1     -31.876   8.097   1.015  1.00 20.00    -0.025 A 
HETATM    7  C4  UNL     1     -31.393   8.579  -0.286  1.00 20.00     0.012 A 
HETATM    8  C8  UNL     1     -32.692   8.924   1.824  1.00 20.00    -0.019 A 
HETATM    9  C2  UNL     1     -31.753   9.823  -0.668  1.00 20.00     0.001 A 
HETATM   10  C3  UNL     1     -32.598  10.680   0.171  1.00 20.00     0.001 A 
HETATM   11  C5  UNL     1     -33.060  10.271   1.372  1.00 20.00     0.013 A 
ENDBRANCH   2   4
TORSDOF 1
ENDMDL
MODEL 6
REMARK VINA RESULT:       0.0      2.212      3.278
REMARK  1 active torsions:
REMARK  status: ('A' for Active; 'I' for Inactive)
REMARK    1  A    between atoms: C9_9  and  C10_10 
ROOT
HETATM    1  C1  UNL     1     -33.261   4.178  -0.214  1.00 20.00     0.063 C 
HETATM    2  C10 UNL     1     -32.060   4.648   0.448  1.00 20.00     0.163 C 
HETATM    3  N11 UNL     1     -34.203   3.778  -0.761  1.00 20.00    -0.197 NA
ENDROOT
BRANCH   2   4
HETATM    4  C9  UNL     1     -32.439   5.788   1.397  1.00 20.00    -0.033 A 
HETATM    5  C6  UNL     1     -31.982   7.157   1.560  1.00 20.00     0.021 A 
HETATM    6  C7  UNL     1     -32.854   7.309   2.563  1.00 20.00    -0.025 A 
HETATM    7  C4  UNL     1     -33.442   8.169   3.598  1.00 20.00     0.012 A 
HETATM    8  C8  UNL     1     -33.302   5.976   2.402  1.00 20.00    -0.019 A 
HETATM    9  C2  UNL     1     -34.411   7.641   4.377  1.00 20.00     0.001 A 
HETATM   10  C3  UNL     1     -34.875   6.259   4.211  1.00 20.00     0.001 A 
HETATM   11  C5  UNL     1     -34.357   5.440   3.271  1.00 20.00     0.013 A 
ENDBRANCH   2   4
TORSDOF 1
ENDMDL
