MODEL 1
REMARK VINA RESULT:      -0.9      0.000      0.000
REMARK  2 active torsions:
REMARK  status: ('A' for Active; 'I' for Inactive)
REMARK    1  A    between atoms: C5_5  and  C9_9 
REMARK    2  A    between atoms: C6_6  and  C10_10 
ROOT
HETATM    1  C1  UNL     1     -34.998   5.194   4.272  1.00 20.00     0.131 C 
HETATM    2  C2  UNL     1     -35.376   6.578   3.794  1.00 20.00     0.079 C 
HETATM    3  C3  UNL     1     -34.130   7.390   3.471  1.00 20.00     0.012 C 
HETATM    4  C4  UNL     1     -32.812   5.281   3.067  1.00 20.00     0.016 C 
HETATM    5  C5  UNL     1     -34.039   4.417   3.376  1.00 20.00     0.055 C 
HETATM    6  C6  UNL     1     -33.207   6.651   2.492  1.00 20.00    -0.014 C 
HETATM    7  O11 UNL     1     -35.514   4.708   5.277  1.00 20.00    -0.298 OA
ENDROOT
BRANCH   5   8
HETATM    8  C9  UNL     1     -33.621   3.093   4.011  1.00 20.00     0.007 C 
HETATM    9  C7  UNL     1     -32.623   3.294   5.104  1.00 20.00     0.006 C 
ENDBRANCH   5   8
BRANCH   6  10
HETATM   10  C10 UNL     1     -31.964   7.485   2.191  1.00 20.00     0.000 C 
HETATM   11  C8  UNL     1     -32.254   8.572   1.209  1.00 20.00     0.005 C 
ENDBRANCH   6  10
TORSDOF 2
ENDMDL
MODEL 2
REMARK VINA RESULT:      -0.5      1.816      2.820
REMARK  2 active torsions:
REMARK  status: ('A' for Active; 'I' for Inactive)
REMARK    1  A    between atoms: C5_5  and  C9_9 
REMARK    2  A    between atoms: C6_6  and  C10_10 
ROOT
HETATM    1  C1  UNL     1     -33.722   7.745   3.885  1.00 20.00     0.131 C 
HETATM    2  C2  UNL     1     -32.840   8.537   2.946  1.00 20.00     0.079 C 
HETATM    3  C3  UNL     1     -31.900   7.610   2.187  1.00 20.00     0.012 C 
HETATM    4  C4  UNL     1     -33.487   5.679   2.502  1.00 20.00     0.016 C 
HETATM    5  C5  UNL     1     -34.472   6.570   3.266  1.00 20.00     0.055 C 
HETATM    6  C6  UNL     1     -32.662   6.480   1.482  1.00 20.00    -0.014 C 
HETATM    7  O11 UNL     1     -33.882   8.098   5.053  1.00 20.00    -0.298 OA
ENDROOT
BRANCH   5   8
HETATM    8  C9  UNL     1     -35.226   5.763   4.319  1.00 20.00     0.007 C 
HETATM    9  C7  UNL     1     -34.606   4.421   4.536  1.00 20.00     0.006 C 
ENDBRANCH   5   8
BRANCH   6  10
HETATM   10  C10 UNL     1     -31.695   5.565   0.735  1.00 20.00     0.000 C 
HETATM   11  C8  UNL     1     -32.367   4.315   0.269  1.00 20.00     0.005 C 
ENDBRANCH   6  10
TORSDOF 2
ENDMDL
MODEL 3
REMARK VINA RESULT:      -0.2      2.595      4.198
REMARK  2 active torsions:
REMARK  status: ('A' for Active; 'I' for Inactive)
REMARK    1  A    between atoms: C5_5  and  C9_9 
REMARK    2  A    between atoms: C6_6  and  C10_10 
ROOT
HETATM    1  C1  UNL     1     -31.974   7.636   1.767  1.00 20.00     0.131 C 
HETATM    2  C2  UNL     1     -32.380   8.472   2.960  1.00 20.00     0.079 C 
HETATM    3  C3  UNL     1     -33.785   8.105   3.417  1.00 20.00     0.012 C 
HETATM    4  C4  UNL     1     -33.558   5.811   2.399  1.00 20.00     0.016 C 
HETATM    5  C5  UNL     1     -32.137   6.128   1.922  1.00 20.00     0.055 C 
HETATM    6  C6  UNL     1     -33.925   6.597   3.668  1.00 20.00    -0.014 C 
HETATM    7  O11 UNL     1     -31.462   8.153   0.775  1.00 20.00    -0.298 OA
ENDROOT
BRANCH   5   8
HETATM    8  C9  UNL     1     -31.826   5.389   0.624  1.00 20.00     0.007 C 
HETATM    9  C7  UNL     1     -32.962   4.519   0.195  1.00 20.00     0.006 C 
ENDBRANCH   5   8
BRANCH   6  10
HETATM   10  C10 UNL     1     -35.344   6.257   4.119  1.00 20.00     0.000 C 
HETATM   11  C8  UNL     1     -35.421   4.888   4.712  1.00 20.00     0.005 C 
ENDBRANCH   6  10
TORSDOF 2
ENDMDL
MODEL 4
REMARK VINA RESULT:      -0.1      1.839      3.239
REMARK  2 active torsions:
REMARK  status: ('A' for Active; 'I' for Inactive)
REMARK    1  A    between atoms: C5_5  and  C9_9 
REMARK    2  A    between atoms: C6_6  and  C10_10 
ROOT
HETATM    1  C1  UNL     1     -33.069   5.794   2.807  1.00 20.00     0.131 C 
HETATM    2  C2  UNL     1     -31.982   5.553   1.783  1.00 20.00     0.079 C 
HETATM    3  C3  UNL     1     -32.004   6.637   0.715  1.00 20.00     0.012 C 
HETATM    4  C4  UNL     1     -33.112   8.241   2.311  1.00 20.00     0.016 C 
HETATM    5  C5  UNL     1     -33.107   7.188   3.423  1.00 20.00     0.055 C 
HETATM    6  C6  UNL     1     -31.945   8.042   1.329  1.00 20.00    -0.014 C 
HETATM    7  O11 UNL     1     -33.808   4.881   3.172  1.00 20.00    -0.298 OA
ENDROOT
BRANCH   5   8
HETATM    8  C9  UNL     1     -34.314   7.366   4.340  1.00 20.00     0.007 C 
HETATM    9  C7  UNL     1     -35.499   6.597   3.853  1.00 20.00     0.006 C 
ENDBRANCH   5   8
BRANCH   6  10
HETATM   10  C10 UNL     1     -31.975   9.108   0.236  1.00 20.00     0.000 C 
HETATM   11  C8  UNL     1     -32.708  10.332   0.679  1.00 20.00     0.005 C 
ENDBRANCH   6  10
TORSDOF 2
ENDMDL
MODEL 5
REMARK VINA RESULT:      -0.1      1.977      4.326
REMARK  2 active torsions:
REMARK  status: ('A' for Active; 'I' for Inactive)
REMARK    1  A    between atoms: C5_5  and  C9_9 
REMARK    2  A    between atoms: C6_6  and  C10_10 
ROOT
HETATM    1  C1  UNL     1     -32.922   6.987   2.290  1.00 20.00     0.131 C 
HETATM    2  C2  UNL     1     -32.743   5.688   1.536  1.00 20.00     0.079 C 
HETATM    3  C3  UNL     1     -32.730   4.509   2.499  1.00 20.00     0.012 C 
HETATM    4  C4  UNL     1     -34.049   5.829   4.193  1.00 20.00     0.016 C 
HETATM    5  C5  UNL     1     -34.098   7.041   3.258  1.00 20.00     0.055 C 
HETATM    6  C6  UNL     1     -33.964   4.507   3.412  1.00 20.00    -0.014 C 
HETATM    7  O11 UNL     1     -32.206   7.960   2.054  1.00 20.00    -0.298 OA
ENDROOT
BRANCH   5   8
HETATM    8  C9  UNL     1     -34.111   8.340   4.059  1.00 20.00     0.007 C 
HETATM    9  C7  UNL     1     -33.248   8.249   5.276  1.00 20.00     0.006 C 
ENDBRANCH   5   8
BRANCH   6  10
HETATM   10  C10 UNL     1     -33.921   3.319   4.371  1.00 20.00     0.000 C 
HETATM   11  C8  UNL     1     -32.557   3.123   4.947  1.00 20.00     0.005 C 
ENDBRANCH   6  10
TORSDOF 2
ENDMDL
MODEL 6
REMARK VINA RESULT:       0.3      2.383      4.477
REMARK  2 active torsions:
REMARK  status: ('A' for Active; 'I' for Inactive)
REMARK    1  A    between atoms: C5_5  and  C9_9 
REMARK    2  A    between atoms: C6_6  and  C10_10 
ROOT
HETATM    1  C1  UNL     1     -32.541   5.938   1.467  1.00 20.00     0.131 C 
HETATM    2  C2  UNL     1     -33.570   5.122   2.217  1.00 20.00     0.079 C 
HETATM    3  C3  UNL     1     -33.782   5.685   3.616  1.00 20.00     0.012 C 
HETATM    4  C4  UNL     1     -33.001   7.959   2.861  1.00 20.00     0.016 C 
HETATM    5  C5  UNL     1     -32.777   7.444   1.435  1.00 20.00     0.055 C 
HETATM    6  C6  UNL     1     -34.116   7.183   3.581  1.00 20.00    -0.014 C 
HETATM    7  O11 UNL     1     -31.627   5.393   0.850  1.00 20.00    -0.298 OA
ENDROOT
BRANCH   5   8
HETATM    8  C9  UNL     1     -31.619   8.184   0.770  1.00 20.00     0.007 C 
HETATM    9  C7  UNL     1     -32.049   9.506   0.222  1.00 20.00     0.006 C 
ENDBRANCH   5   8
BRANCH   6  10
HETATM   10  C10 UNL     1     -34.317   7.722   4.996  1.00 20.00     0.000 C 
HETATM   11  C8  UNL     1     -33.092   8.408   5.505  1.00 20.00     0.005 C 
ENDBRANCH   6  10
TORSDOF 2
ENDMDL
MODEL 7
REMARK VINA RESULT:       0.3      2.507      5.088
REMARK  2 active torsions:
REMARK  status: ('A' for Active; 'I' for Inactive)
REMARK    1  A    between atoms: C5_5  and  C9_9 
REMARK    2  A    between atoms: C6_6  and  C10_10 
ROOT
HETATM    1  C1  UNL     1     -31.965   7.066   1.433  1.00 20.00     0.131 C 
HETATM    2  C2  UNL     1     -32.475   5.648   1.558  1.00 20.00     0.079 C 
HETATM    3  C3  UNL     1     -33.257   5.474   2.853  1.00 20.00     0.012 C 
HETATM    4  C4  UNL     1     -33.772   7.939   2.919  1.00 20.00     0.016 C 
HETATM    5  C5  UNL     1     -33.004   8.168   1.614  1.00 20.00     0.055 C 
HETATM    6  C6  UNL     1     -34.368   6.524   2.993  1.00 20.00    -0.014 C 
HETATM    7  O11 UNL     1     -30.799   7.294   1.114  1.00 20.00    -0.298 OA
ENDROOT
BRANCH   5   8
HETATM    8  C9  UNL     1     -32.365   9.554   1.598  1.00 20.00     0.007 C 
HETATM    9  C7  UNL     1     -32.505  10.213   0.265  1.00 20.00     0.006 C 
ENDBRANCH   5   8
BRANCH   6  10
HETATM   10  C10 UNL     1     -35.130   6.329   4.301  1.00 20.00     0.000 C 
HETATM   11  C8  UNL     1     -35.260   4.884   4.654  1.00 20.00     0.005 C 
ENDBRANCH   6  10
TORSDOF 2
ENDMDL
MODEL 8
REMARK VINA RESULT:       0.4      1.799      2.461
REMARK  2 active torsions:
REMARK  status: ('A' for Active; 'I' for Inactive)
REMARK    1  A    between atoms: C5_5  and  C9_9 
REMARK    2  A    between atoms: C6_6  and  C10_10 
ROOT
HETATM    1  C1  UNL     1     -33.678   5.646   3.068  1.00 20.00     0.131 C 
HETATM    2  C2  UNL     1     -34.198   6.930   3.675  1.00 20.00     0.079 C 
HETATM    3  C3  UNL     1     -33.253   8.085   3.374  1.00 20.00     0.012 C 
HETATM    4  C4  UNL     1     -32.381   6.890   1.334  1.00 20.00     0.016 C 
HETATM    5  C5  UNL     1     -33.318   5.705   1.588  1.00 20.00     0.055 C 
HETATM    6  C6  UNL     1     -32.965   8.207   1.871  1.00 20.00    -0.014 C 
HETATM    7  O11 UNL     1     -33.640   4.606   3.723  1.00 20.00    -0.298 OA
ENDROOT
BRANCH   5   8
HETATM    8  C9  UNL     1     -32.684   4.403   1.108  1.00 20.00     0.007 C 
HETATM    9  C7  UNL     1     -31.243   4.585   0.758  1.00 20.00     0.006 C 
ENDBRANCH   5   8
BRANCH   6  10
HETATM   10  C10 UNL     1     -32.010   9.368   1.600  1.00 20.00     0.000 C 
HETATM   11  C8  UNL     1     -32.380  10.107   0.356  1.00 20.00     0.005 C 
ENDBRANCH   6  10
TORSDOF 2
ENDMDL
MODEL 9
REMARK VINA RESULT:       1.1      1.740      4.288
REMARK  2 active torsions:
REMARK  status: ('A' for Active; 'I' for Inactive)
REMARK    1  A    between atoms: C5_5  and  C9_9 
REMARK    2  A    between atoms: C6_6  and  C10_10 
ROOT
HETATM    1  C1  UNL     1     -33.856   7.877   3.063  1.00 20.00     0.131 C 
HETATM    2  C2  UNL     1     -34.447   7.387   4.366  1.00 20.00     0.079 C 
HETATM    3  C3  UNL     1     -34.769   5.901   4.281  1.00 20.00     0.012 C 
HETATM    4  C4  UNL     1     -33.044   5.590   2.472  1.00 20.00     0.016 C 
HETATM    5  C5  UNL     1     -32.676   7.077   2.522  1.00 20.00     0.055 C 
HETATM    6  C6  UNL     1     -33.554   5.080   3.829  1.00 20.00    -0.014 C 
HETATM    7  O11 UNL     1     -34.259   8.912   2.534  1.00 20.00    -0.298 OA
ENDROOT
BRANCH   5   8
HETATM    8  C9  UNL     1     -32.241   7.572   1.146  1.00 20.00     0.007 C 
HETATM    9  C7  UNL     1     -31.501   8.867   1.232  1.00 20.00     0.006 C 
ENDBRANCH   5   8
BRANCH   6  10
HETATM   10  C10 UNL     1     -33.907   3.597   3.748  1.00 20.00     0.000 C 
HETATM   11  C8  UNL     1     -33.200   2.803   4.796  1.00 20.00     0.005 C 
ENDBRANCH   6  10
TORSDOF 2
ENDMDL
