MODEL 1
REMARK VINA RESULT:       0.2      0.000      0.000
REMARK  0 active torsions:
REMARK  status: ('A' for Active; 'I' for Inactive)
ROOT
HETATM    1  C1  UNL     1     -33.317   5.477   2.636  1.00 20.00     0.050 C 
HETATM    2  C2  UNL     1     -32.669   5.675   1.475  1.00 20.00     0.003 C 
HETATM    3  C3  UNL     1     -34.007   6.568   3.386  1.00 20.00     0.027 C 
HETATM    4  C4  UNL     1     -32.452   9.274   1.944  1.00 20.00     0.056 A 
HETATM    5  C5  UNL     1     -32.367   8.297   3.091  1.00 20.00     0.133 A 
HETATM    6  C6  UNL     1     -31.808   7.936   1.748  1.00 20.00     0.108 A 
HETATM    7  C7  UNL     1     -32.215   4.481   0.673  1.00 20.00     0.068 C 
HETATM    8  C8  UNL     1     -35.328   6.175   4.016  1.00 20.00     0.070 C 
HETATM    9  N9  UNL     1     -33.640   7.791   3.583  1.00 20.00    -0.287 NA
HETATM   10  N10 UNL     1     -32.381   6.898   0.904  1.00 20.00    -0.387 N 
HETATM   11  H22 UNL     1     -32.127   6.873  -0.080  1.00 20.00     0.159 HD
ENDROOT
TORSDOF 0
ENDMDL
MODEL 2
REMARK VINA RESULT:       0.5      1.157      3.845
REMARK  0 active torsions:
REMARK  status: ('A' for Active; 'I' for Inactive)
ROOT
HETATM    1  C1  UNL     1     -32.581   8.410   2.922  1.00 20.00     0.050 C 
HETATM    2  C2  UNL     1     -33.429   7.574   3.546  1.00 20.00     0.003 C 
HETATM    3  C3  UNL     1     -32.210   8.277   1.481  1.00 20.00     0.027 C 
HETATM    4  C4  UNL     1     -33.136   5.003   0.991  1.00 20.00     0.056 A 
HETATM    5  C5  UNL     1     -31.981   5.889   1.390  1.00 20.00     0.133 A 
HETATM    6  C6  UNL     1     -32.996   5.464   2.409  1.00 20.00     0.108 A 
HETATM    7  C7  UNL     1     -33.929   7.927   4.923  1.00 20.00     0.068 C 
HETATM    8  C8  UNL     1     -32.092   9.587   0.728  1.00 20.00     0.070 C 
HETATM    9  N9  UNL     1     -31.966   7.213   0.789  1.00 20.00    -0.287 NA
HETATM   10  N10 UNL     1     -33.926   6.392   3.035  1.00 20.00    -0.387 N 
HETATM   11  H22 UNL     1     -34.742   6.019   3.512  1.00 20.00     0.159 HD
ENDROOT
TORSDOF 0
ENDMDL
MODEL 3
REMARK VINA RESULT:       0.5      0.583      2.958
REMARK  0 active torsions:
REMARK  status: ('A' for Active; 'I' for Inactive)
ROOT
HETATM    1  C1  UNL     1     -33.812   5.742   2.238  1.00 20.00     0.050 C 
HETATM    2  C2  UNL     1     -34.102   6.403   3.372  1.00 20.00     0.003 C 
HETATM    3  C3  UNL     1     -32.498   5.854   1.537  1.00 20.00     0.027 C 
HETATM    4  C4  UNL     1     -31.386   8.784   2.950  1.00 20.00     0.056 A 
HETATM    5  C5  UNL     1     -32.161   8.218   1.785  1.00 20.00     0.133 A 
HETATM    6  C6  UNL     1     -32.844   8.470   3.096  1.00 20.00     0.108 A 
HETATM    7  C7  UNL     1     -35.353   6.043   4.134  1.00 20.00     0.068 C 
HETATM    8  C8  UNL     1     -31.968   4.556   0.961  1.00 20.00     0.070 C 
HETATM    9  N9  UNL     1     -31.755   6.893   1.343  1.00 20.00    -0.287 NA
HETATM   10  N10 UNL     1     -33.341   7.400   3.948  1.00 20.00    -0.387 N 
HETATM   11  H22 UNL     1     -33.556   7.609   4.919  1.00 20.00     0.159 HD
ENDROOT
TORSDOF 0
ENDMDL
MODEL 4
REMARK VINA RESULT:       0.8      1.140      3.355
REMARK  0 active torsions:
REMARK  status: ('A' for Active; 'I' for Inactive)
ROOT
HETATM    1  C1  UNL     1     -32.001   6.781   1.482  1.00 20.00     0.050 C 
HETATM    2  C2  UNL     1     -32.497   7.972   1.857  1.00 20.00     0.003 C 
HETATM    3  C3  UNL     1     -32.761   5.501   1.600  1.00 20.00     0.027 C 
HETATM    4  C4  UNL     1     -35.125   6.495   3.891  1.00 20.00     0.056 A 
HETATM    5  C5  UNL     1     -33.755   5.874   3.754  1.00 20.00     0.133 A 
HETATM    6  C6  UNL     1     -33.914   7.365   3.742  1.00 20.00     0.108 A 
HETATM    7  C7  UNL     1     -31.758   9.230   1.477  1.00 20.00     0.068 C 
HETATM    8  C8  UNL     1     -32.585   4.542   0.440  1.00 20.00     0.070 C 
HETATM    9  N9  UNL     1     -33.537   5.090   2.548  1.00 20.00    -0.287 NA
HETATM   10  N10 UNL     1     -33.666   8.179   2.561  1.00 20.00    -0.387 N 
HETATM   11  H22 UNL     1     -34.030   9.127   2.536  1.00 20.00     0.159 HD
ENDROOT
TORSDOF 0
ENDMDL
MODEL 5
REMARK VINA RESULT:       1.1      1.544      3.104
REMARK  0 active torsions:
REMARK  status: ('A' for Active; 'I' for Inactive)
ROOT
HETATM    1  C1  UNL     1     -34.297   6.309   4.011  1.00 20.00     0.050 C 
HETATM    2  C2  UNL     1     -33.699   7.512   4.047  1.00 20.00     0.003 C 
HETATM    3  C3  UNL     1     -33.721   5.128   3.300  1.00 20.00     0.027 C 
HETATM    4  C4  UNL     1     -31.521   6.770   1.231  1.00 20.00     0.056 A 
HETATM    5  C5  UNL     1     -32.934   6.247   1.328  1.00 20.00     0.133 A 
HETATM    6  C6  UNL     1     -32.588   7.596   1.882  1.00 20.00     0.108 A 
HETATM    7  C7  UNL     1     -34.227   8.568   4.985  1.00 20.00     0.068 C 
HETATM    8  C8  UNL     1     -33.887   3.805   4.021  1.00 20.00     0.070 C 
HETATM    9  N9  UNL     1     -33.114   5.069   2.162  1.00 20.00    -0.287 NA
HETATM   10  N10 UNL     1     -32.599   7.894   3.307  1.00 20.00    -0.387 N 
HETATM   11  H22 UNL     1     -32.118   8.727   3.635  1.00 20.00     0.159 HD
ENDROOT
TORSDOF 0
ENDMDL
MODEL 6
REMARK VINA RESULT:       1.2      1.230      2.969
REMARK  0 active torsions:
REMARK  status: ('A' for Active; 'I' for Inactive)
ROOT
HETATM    1  C1  UNL     1     -33.383   8.485   2.402  1.00 20.00     0.050 C 
HETATM    2  C2  UNL     1     -32.411   8.456   1.475  1.00 20.00     0.003 C 
HETATM    3  C3  UNL     1     -33.617   7.381   3.381  1.00 20.00     0.027 C 
HETATM    4  C4  UNL     1     -31.934   4.862   1.754  1.00 20.00     0.056 A 
HETATM    5  C5  UNL     1     -33.286   5.518   1.902  1.00 20.00     0.133 A 
HETATM    6  C6  UNL     1     -32.272   6.082   0.953  1.00 20.00     0.108 A 
HETATM    7  C7  UNL     1     -32.098   9.710   0.698  1.00 20.00     0.068 C 
HETATM    8  C8  UNL     1     -33.980   7.833   4.781  1.00 20.00     0.070 C 
HETATM    9  N9  UNL     1     -33.563   6.102   3.206  1.00 20.00    -0.287 NA
HETATM   10  N10 UNL     1     -31.623   7.368   1.159  1.00 20.00    -0.387 N 
HETATM   11  H22 UNL     1     -30.777   7.578   0.636  1.00 20.00     0.159 HD
ENDROOT
TORSDOF 0
ENDMDL
MODEL 7
REMARK VINA RESULT:       1.5      1.266      2.960
REMARK  0 active torsions:
REMARK  status: ('A' for Active; 'I' for Inactive)
ROOT
HETATM    1  C1  UNL     1     -32.431   7.073   1.935  1.00 20.00     0.050 C 
HETATM    2  C2  UNL     1     -32.680   5.757   1.816  1.00 20.00     0.003 C 
HETATM    3  C3  UNL     1     -32.747   7.861   3.164  1.00 20.00     0.027 C 
HETATM    4  C4  UNL     1     -35.015   5.715   4.604  1.00 20.00     0.056 A 
HETATM    5  C5  UNL     1     -34.885   6.892   3.668  1.00 20.00     0.133 A 
HETATM    6  C6  UNL     1     -34.696   5.496   3.157  1.00 20.00     0.108 A 
HETATM    7  C7  UNL     1     -32.109   5.003   0.642  1.00 20.00     0.068 C 
HETATM    8  C8  UNL     1     -31.708   8.895   3.545  1.00 20.00     0.070 C 
HETATM    9  N9  UNL     1     -33.777   7.795   3.941  1.00 20.00    -0.287 NA
HETATM   10  N10 UNL     1     -33.412   4.987   2.697  1.00 20.00    -0.387 N 
HETATM   11  H22 UNL     1     -33.288   3.983   2.608  1.00 20.00     0.159 HD
ENDROOT
TORSDOF 0
ENDMDL
MODEL 8
REMARK VINA RESULT:       2.3      1.886      3.298
REMARK  0 active torsions:
REMARK  status: ('A' for Active; 'I' for Inactive)
ROOT
HETATM    1  C1  UNL     1     -33.516   6.698   2.331  1.00 20.00     0.050 C 
HETATM    2  C2  UNL     1     -32.772   5.623   2.021  1.00 20.00     0.003 C 
HETATM    3  C3  UNL     1     -34.098   6.930   3.688  1.00 20.00     0.027 C 
HETATM    4  C4  UNL     1     -33.901   3.721   4.906  1.00 20.00     0.056 A 
HETATM    5  C5  UNL     1     -34.797   4.683   4.164  1.00 20.00     0.133 A 
HETATM    6  C6  UNL     1     -33.756   3.896   3.425  1.00 20.00     0.108 A 
HETATM    7  C7  UNL     1     -32.031   5.597   0.708  1.00 20.00     0.068 C 
HETATM    8  C8  UNL     1     -34.059   8.368   4.164  1.00 20.00     0.070 C 
HETATM    9  N9  UNL     1     -34.634   6.087   4.507  1.00 20.00    -0.287 NA
HETATM   10  N10 UNL     1     -32.587   4.508   2.811  1.00 20.00    -0.387 N 
HETATM   11  H22 UNL     1     -31.803   3.915   2.555  1.00 20.00     0.159 HD
ENDROOT
TORSDOF 0
ENDMDL
MODEL 9
REMARK VINA RESULT:       2.8      1.856      3.451
REMARK  0 active torsions:
REMARK  status: ('A' for Active; 'I' for Inactive)
ROOT
HETATM    1  C1  UNL     1     -33.118   4.262   2.584  1.00 20.00     0.050 C 
HETATM    2  C2  UNL     1     -33.523   4.100   3.855  1.00 20.00     0.003 C 
HETATM    3  C3  UNL     1     -32.850   5.598   1.972  1.00 20.00     0.027 C 
HETATM    4  C4  UNL     1     -34.577   7.562   4.204  1.00 20.00     0.056 A 
HETATM    5  C5  UNL     1     -34.707   6.798   2.908  1.00 20.00     0.133 A 
HETATM    6  C6  UNL     1     -34.872   6.093   4.221  1.00 20.00     0.108 A 
HETATM    7  C7  UNL     1     -33.533   2.715   4.452  1.00 20.00     0.068 C 
HETATM    8  C8  UNL     1     -31.647   5.651   1.052  1.00 20.00     0.070 C 
HETATM    9  N9  UNL     1     -33.497   6.709   2.106  1.00 20.00    -0.287 NA
HETATM   10  N10 UNL     1     -33.926   5.102   4.713  1.00 20.00    -0.387 N 
HETATM   11  H22 UNL     1     -33.947   4.854   5.698  1.00 20.00     0.159 HD
ENDROOT
TORSDOF 0
ENDMDL
