MODEL 1
REMARK VINA RESULT:       1.1      0.000      0.000
REMARK  3 active torsions:
REMARK  status: ('A' for Active; 'I' for Inactive)
REMARK    1  A    between atoms: C6_6  and  C7_7 
REMARK    2  A    between atoms: C8_8  and  C10_10 
REMARK    3  A    between atoms: C9_9  and  C11_11 
ROOT
HETATM    1  C1  UNL     1     -32.020   5.698   1.033  1.00 20.00    -0.021 C 
HETATM    2  C2  UNL     1     -31.274   6.516   1.817  1.00 20.00    -0.020 C 
HETATM    3  C5  UNL     1     -34.104   6.594   1.936  1.00 20.00    -0.003 C 
HETATM    4  C6  UNL     1     -33.353   7.241   2.858  1.00 20.00     0.024 C 
HETATM    5  C8  UNL     1     -33.381   6.328   0.614  1.00 20.00     0.039 C 
HETATM    6  C9  UNL     1     -32.002   7.770   2.306  1.00 20.00     0.056 C 
ENDROOT
BRANCH   4   7
HETATM    7  C7  UNL     1     -33.839   7.536   4.252  1.00 20.00     0.205 C 
HETATM    8  O12 UNL     1     -34.954   7.020   4.559  1.00 20.00    -0.644 OA
HETATM    9  O13 UNL     1     -33.075   8.265   4.951  1.00 20.00    -0.644 OA
ENDBRANCH   4   7
BRANCH   6  10
HETATM   10  C11 UNL     1     -32.578   8.623   1.153  1.00 20.00     0.029 C 
HETATM   11  C4  UNL     1     -32.972  10.029   0.784  1.00 20.00    -0.024 C 
HETATM   12  C3  UNL     1     -32.419   9.765  -0.464  1.00 20.00    -0.024 C 
HETATM   13  C10 UNL     1     -31.324   9.043   0.275  1.00 20.00     0.028 C 
ENDBRANCH   6  10
TORSDOF 3
ENDMDL
MODEL 2
REMARK VINA RESULT:       1.3      2.195      3.920
REMARK  3 active torsions:
REMARK  status: ('A' for Active; 'I' for Inactive)
REMARK    1  A    between atoms: C6_6  and  C7_7 
REMARK    2  A    between atoms: C8_8  and  C10_10 
REMARK    3  A    between atoms: C9_9  and  C11_11 
ROOT
HETATM    1  C1  UNL     1     -32.015   5.535   1.122  1.00 20.00    -0.021 C 
HETATM    2  C2  UNL     1     -33.267   5.947   0.799  1.00 20.00    -0.020 C 
HETATM    3  C5  UNL     1     -31.301   7.819   1.613  1.00 20.00    -0.003 C 
HETATM    4  C6  UNL     1     -32.477   8.232   1.084  1.00 20.00     0.024 C 
HETATM    5  C8  UNL     1     -31.348   6.415   2.221  1.00 20.00     0.039 C 
HETATM    6  C9  UNL     1     -33.672   7.295   1.402  1.00 20.00     0.056 C 
ENDROOT
BRANCH   4   7
HETATM    7  C7  UNL     1     -32.637   9.548   0.369  1.00 20.00     0.205 C 
HETATM    8  O12 UNL     1     -32.804   9.469  -0.883  1.00 20.00    -0.644 OA
HETATM    9  O13 UNL     1     -32.587  10.577   1.106  1.00 20.00    -0.644 OA
ENDBRANCH   4   7
BRANCH   6  10
HETATM   10  C11 UNL     1     -33.550   7.329   2.942  1.00 20.00     0.029 C 
HETATM   11  C4  UNL     1     -33.831   8.187   4.147  1.00 20.00    -0.024 C 
HETATM   12  C3  UNL     1     -34.217   7.014   4.786  1.00 20.00    -0.024 C 
HETATM   13  C10 UNL     1     -34.866   6.627   3.483  1.00 20.00     0.028 C 
ENDBRANCH   6  10
TORSDOF 3
ENDMDL
MODEL 3
REMARK VINA RESULT:       3.0      0.974      3.155
REMARK  3 active torsions:
REMARK  status: ('A' for Active; 'I' for Inactive)
REMARK    1  A    between atoms: C6_6  and  C7_7 
REMARK    2  A    between atoms: C8_8  and  C10_10 
REMARK    3  A    between atoms: C9_9  and  C11_11 
ROOT
HETATM    1  C1  UNL     1     -32.055   8.990   0.879  1.00 20.00    -0.021 C 
HETATM    2  C2  UNL     1     -33.202   8.310   0.629  1.00 20.00    -0.020 C 
HETATM    3  C5  UNL     1     -31.910   8.081   3.141  1.00 20.00    -0.003 C 
HETATM    4  C6  UNL     1     -33.156   7.586   2.954  1.00 20.00     0.024 C 
HETATM    5  C8  UNL     1     -31.099   8.238   1.852  1.00 20.00     0.039 C 
HETATM    6  C9  UNL     1     -33.419   7.078   1.511  1.00 20.00     0.056 C 
ENDROOT
BRANCH   4   7
HETATM    7  C7  UNL     1     -34.150   7.421   4.073  1.00 20.00     0.205 C 
HETATM    8  O12 UNL     1     -35.082   6.592   3.854  1.00 20.00    -0.644 OA
HETATM    9  O13 UNL     1     -33.934   8.129   5.100  1.00 20.00    -0.644 OA
ENDBRANCH   4   7
BRANCH   6  10
HETATM   10  C11 UNL     1     -32.250   6.069   1.438  1.00 20.00     0.029 C 
HETATM   11  C4  UNL     1     -31.720   4.803   2.058  1.00 20.00    -0.024 C 
HETATM   12  C3  UNL     1     -31.361   4.424   0.770  1.00 20.00    -0.024 C 
HETATM   13  C10 UNL     1     -32.673   5.016   0.329  1.00 20.00     0.028 C 
ENDBRANCH   6  10
TORSDOF 3
ENDMDL
MODEL 4
REMARK VINA RESULT:       3.1      2.461      3.980
REMARK  3 active torsions:
REMARK  status: ('A' for Active; 'I' for Inactive)
REMARK    1  A    between atoms: C6_6  and  C7_7 
REMARK    2  A    between atoms: C8_8  and  C10_10 
REMARK    3  A    between atoms: C9_9  and  C11_11 
ROOT
HETATM    1  C1  UNL     1     -32.315   8.335   4.041  1.00 20.00    -0.021 C 
HETATM    2  C2  UNL     1     -31.259   8.219   3.197  1.00 20.00    -0.020 C 
HETATM    3  C5  UNL     1     -33.826   8.895   2.205  1.00 20.00    -0.003 C 
HETATM    4  C6  UNL     1     -32.730   8.988   1.416  1.00 20.00     0.024 C 
HETATM    5  C8  UNL     1     -33.668   7.930   3.383  1.00 20.00     0.039 C 
HETATM    6  C9  UNL     1     -31.633   7.939   1.739  1.00 20.00     0.056 C 
ENDROOT
BRANCH   4   7
HETATM    7  C7  UNL     1     -32.640   9.932   0.247  1.00 20.00     0.205 C 
HETATM    8  O12 UNL     1     -32.337  11.127   0.535  1.00 20.00    -0.644 OA
HETATM    9  O13 UNL     1     -32.877   9.419  -0.886  1.00 20.00    -0.644 OA
ENDBRANCH   4   7
BRANCH   6  10
HETATM   10  C11 UNL     1     -32.508   6.676   1.572  1.00 20.00     0.029 C 
HETATM   11  C4  UNL     1     -33.190   5.820   0.538  1.00 20.00    -0.024 C 
HETATM   12  C3  UNL     1     -32.784   4.729   1.296  1.00 20.00    -0.024 C 
HETATM   13  C10 UNL     1     -31.485   5.465   1.493  1.00 20.00     0.028 C 
ENDBRANCH   6  10
TORSDOF 3
ENDMDL
MODEL 5
REMARK VINA RESULT:       3.6      1.979      3.927
REMARK  3 active torsions:
REMARK  status: ('A' for Active; 'I' for Inactive)
REMARK    1  A    between atoms: C6_6  and  C7_7 
REMARK    2  A    between atoms: C8_8  and  C10_10 
REMARK    3  A    between atoms: C9_9  and  C11_11 
ROOT
HETATM    1  C1  UNL     1     -33.078   4.852   0.548  1.00 20.00    -0.021 C 
HETATM    2  C2  UNL     1     -33.972   5.856   0.364  1.00 20.00    -0.020 C 
HETATM    3  C5  UNL     1     -31.623   6.282   1.890  1.00 20.00    -0.003 C 
HETATM    4  C6  UNL     1     -32.407   7.321   1.519  1.00 20.00     0.024 C 
HETATM    5  C8  UNL     1     -32.344   4.932   1.919  1.00 20.00     0.039 C 
HETATM    6  C9  UNL     1     -33.914   6.964   1.418  1.00 20.00     0.056 C 
ENDROOT
BRANCH   4   7
HETATM    7  C7  UNL     1     -31.885   8.723   1.351  1.00 20.00     0.205 C 
HETATM    8  O12 UNL     1     -32.144   9.269   0.238  1.00 20.00    -0.644 OA
HETATM    9  O13 UNL     1     -31.251   9.190   2.342  1.00 20.00    -0.644 OA
ENDBRANCH   4   7
BRANCH   6  10
HETATM   10  C11 UNL     1     -34.092   6.436   2.860  1.00 20.00     0.029 C 
HETATM   11  C4  UNL     1     -34.130   6.875   4.300  1.00 20.00    -0.024 C 
HETATM   12  C3  UNL     1     -35.169   5.965   4.461  1.00 20.00    -0.024 C 
HETATM   13  C10 UNL     1     -35.658   6.426   3.113  1.00 20.00     0.028 C 
ENDBRANCH   6  10
TORSDOF 3
ENDMDL
MODEL 6
REMARK VINA RESULT:       4.0      2.211      3.317
REMARK  3 active torsions:
REMARK  status: ('A' for Active; 'I' for Inactive)
REMARK    1  A    between atoms: C6_6  and  C7_7 
REMARK    2  A    between atoms: C8_8  and  C10_10 
REMARK    3  A    between atoms: C9_9  and  C11_11 
ROOT
HETATM    1  C1  UNL     1     -32.293   8.412   3.856  1.00 20.00    -0.021 C 
HETATM    2  C2  UNL     1     -33.465   8.188   3.210  1.00 20.00    -0.020 C 
HETATM    3  C5  UNL     1     -31.028   7.189   2.163  1.00 20.00    -0.003 C 
HETATM    4  C6  UNL     1     -32.217   6.793   1.651  1.00 20.00     0.024 C 
HETATM    5  C8  UNL     1     -31.077   8.535   2.891  1.00 20.00     0.039 C 
HETATM    6  C9  UNL     1     -33.322   7.881   1.717  1.00 20.00     0.056 C 
ENDROOT
BRANCH   4   7
HETATM    7  C7  UNL     1     -32.413   5.469   0.962  1.00 20.00     0.205 C 
HETATM    8  O12 UNL     1     -31.413   4.694   0.980  1.00 20.00    -0.644 OA
HETATM    9  O13 UNL     1     -33.556   5.288   0.448  1.00 20.00    -0.644 OA
ENDBRANCH   4   7
BRANCH   6  10
HETATM   10  C11 UNL     1     -32.563   8.984   0.944  1.00 20.00     0.029 C 
HETATM   11  C4  UNL     1     -32.362   9.559  -0.433  1.00 20.00    -0.024 C 
HETATM   12  C3  UNL     1     -32.369  10.806   0.180  1.00 20.00    -0.024 C 
HETATM   13  C10 UNL     1     -33.482  10.274   1.044  1.00 20.00     0.028 C 
ENDBRANCH   6  10
TORSDOF 3
ENDMDL
