MODEL 1
REMARK VINA RESULT:      -0.1      0.000      0.000
REMARK  1 active torsions:
REMARK  status: ('A' for Active; 'I' for Inactive)
REMARK    1  A    between atoms: C10_10  and  O11_11 
ROOT
HETATM    1  C1  UNL     1     -34.329   7.674   4.773  1.00 20.00    -0.021 C 
HETATM    2  C2  UNL     1     -34.316   5.129   4.174  1.00 20.00    -0.021 C 
HETATM    3  C3  UNL     1     -33.243   8.267   4.230  1.00 20.00    -0.025 C 
HETATM    4  C4  UNL     1     -33.708   4.626   3.078  1.00 20.00    -0.022 C 
HETATM    5  C5  UNL     1     -32.058   7.501   1.818  1.00 20.00     0.041 C 
HETATM    6  C6  UNL     1     -34.844   6.517   3.941  1.00 20.00     0.035 C 
HETATM    7  C7  UNL     1     -32.748   7.383   3.153  1.00 20.00     0.016 C 
HETATM    8  C8  UNL     1     -33.701   5.592   1.911  1.00 20.00     0.042 C 
HETATM    9  C9  UNL     1     -34.106   6.837   2.665  1.00 20.00     0.015 C 
HETATM   10  C10 UNL     1     -32.383   6.082   1.231  1.00 20.00     0.127 C 
ENDROOT
BRANCH  10  11
HETATM   11  O11 UNL     1     -31.310   5.189   1.491  1.00 20.00    -0.395 OA
HETATM   12  H23 UNL     1     -31.610   4.305   1.222  1.00 20.00     0.210 HD
ENDBRANCH  10  11
TORSDOF 1
ENDMDL
MODEL 2
REMARK VINA RESULT:       0.6      1.809      3.768
REMARK  1 active torsions:
REMARK  status: ('A' for Active; 'I' for Inactive)
REMARK    1  A    between atoms: C10_10  and  O11_11 
ROOT
HETATM    1  C1  UNL     1     -32.326   5.214   1.196  1.00 20.00    -0.021 C 
HETATM    2  C2  UNL     1     -31.416   7.568   1.880  1.00 20.00    -0.021 C 
HETATM    3  C3  UNL     1     -33.052   4.702   2.214  1.00 20.00    -0.025 C 
HETATM    4  C4  UNL     1     -32.018   8.363   2.791  1.00 20.00    -0.022 C 
HETATM    5  C5  UNL     1     -34.575   6.221   3.998  1.00 20.00     0.041 C 
HETATM    6  C6  UNL     1     -32.404   6.726   1.122  1.00 20.00     0.035 C 
HETATM    7  C7  UNL     1     -33.434   5.826   3.096  1.00 20.00     0.016 C 
HETATM    8  C8  UNL     1     -33.523   8.188   2.822  1.00 20.00     0.042 C 
HETATM    9  C9  UNL     1     -33.605   6.914   2.014  1.00 20.00     0.015 C 
HETATM   10  C10 UNL     1     -34.294   7.761   4.113  1.00 20.00     0.127 C 
ENDROOT
BRANCH  10  11
HETATM   11  O11 UNL     1     -33.530   8.032   5.278  1.00 20.00    -0.395 OA
HETATM   12  H23 UNL     1     -32.717   8.476   4.984  1.00 20.00     0.210 HD
ENDBRANCH  10  11
TORSDOF 1
ENDMDL
MODEL 3
REMARK VINA RESULT:       0.7      1.767      3.139
REMARK  1 active torsions:
REMARK  status: ('A' for Active; 'I' for Inactive)
REMARK    1  A    between atoms: C10_10  and  O11_11 
ROOT
HETATM    1  C1  UNL     1     -31.751   7.963   1.255  1.00 20.00    -0.021 C 
HETATM    2  C2  UNL     1     -32.973   5.676   0.922  1.00 20.00    -0.021 C 
HETATM    3  C3  UNL     1     -32.504   8.762   2.043  1.00 20.00    -0.025 C 
HETATM    4  C4  UNL     1     -33.856   5.168   1.809  1.00 20.00    -0.022 C 
HETATM    5  C5  UNL     1     -34.158   7.854   4.105  1.00 20.00     0.041 C 
HETATM    6  C6  UNL     1     -31.905   6.493   1.592  1.00 20.00     0.035 C 
HETATM    7  C7  UNL     1     -33.457   7.896   2.771  1.00 20.00     0.016 C 
HETATM    8  C8  UNL     1     -33.551   5.565   3.239  1.00 20.00     0.042 C 
HETATM    9  C9  UNL     1     -32.551   6.659   2.945  1.00 20.00     0.015 C 
HETATM   10  C10 UNL     1     -34.572   6.340   4.133  1.00 20.00     0.127 C 
ENDROOT
BRANCH  10  11
HETATM   11  O11 UNL     1     -35.897   6.188   3.646  1.00 20.00    -0.395 OA
HETATM   12  H23 UNL     1     -36.389   5.695   4.323  1.00 20.00     0.210 HD
ENDBRANCH  10  11
TORSDOF 1
ENDMDL
MODEL 4
REMARK VINA RESULT:       1.1      1.465      3.031
REMARK  1 active torsions:
REMARK  status: ('A' for Active; 'I' for Inactive)
REMARK    1  A    between atoms: C10_10  and  O11_11 
ROOT
HETATM    1  C1  UNL     1     -31.904   8.155   1.909  1.00 20.00    -0.021 C 
HETATM    2  C2  UNL     1     -32.969   8.260   4.295  1.00 20.00    -0.021 C 
HETATM    3  C3  UNL     1     -31.795   6.865   1.525  1.00 20.00    -0.025 C 
HETATM    4  C4  UNL     1     -33.782   7.302   4.790  1.00 20.00    -0.022 C 
HETATM    5  C5  UNL     1     -33.578   4.837   2.248  1.00 20.00     0.041 C 
HETATM    6  C6  UNL     1     -33.102   8.402   2.805  1.00 20.00     0.035 C 
HETATM    7  C7  UNL     1     -32.721   6.072   2.363  1.00 20.00     0.016 C 
HETATM    8  C8  UNL     1     -34.601   6.612   3.717  1.00 20.00     0.042 C 
HETATM    9  C9  UNL     1     -33.844   7.121   2.513  1.00 20.00     0.015 C 
HETATM   10  C10 UNL     1     -34.535   5.071   3.469  1.00 20.00     0.127 C 
ENDROOT
BRANCH  10  11
HETATM   11  O11 UNL     1     -34.041   4.389   4.613  1.00 20.00    -0.395 OA
HETATM   12  H23 UNL     1     -33.071   4.409   4.554  1.00 20.00     0.210 HD
ENDBRANCH  10  11
TORSDOF 1
ENDMDL
MODEL 5
REMARK VINA RESULT:       1.5      1.125      1.659
REMARK  1 active torsions:
REMARK  status: ('A' for Active; 'I' for Inactive)
REMARK    1  A    between atoms: C10_10  and  O11_11 
ROOT
HETATM    1  C1  UNL     1     -34.804   6.256   4.240  1.00 20.00    -0.021 C 
HETATM    2  C2  UNL     1     -33.201   4.821   2.753  1.00 20.00    -0.021 C 
HETATM    3  C3  UNL     1     -34.234   7.457   4.481  1.00 20.00    -0.025 C 
HETATM    4  C4  UNL     1     -32.290   5.355   1.911  1.00 20.00    -0.022 C 
HETATM    5  C5  UNL     1     -32.555   8.804   2.697  1.00 20.00     0.041 C 
HETATM    6  C6  UNL     1     -34.423   5.686   2.887  1.00 20.00     0.035 C 
HETATM    7  C7  UNL     1     -33.187   7.665   3.457  1.00 20.00     0.016 C 
HETATM    8  C8  UNL     1     -32.727   6.688   1.337  1.00 20.00     0.042 C 
HETATM    9  C9  UNL     1     -33.881   6.954   2.276  1.00 20.00     0.015 C 
HETATM   10  C10 UNL     1     -31.896   7.998   1.523  1.00 20.00     0.127 C 
ENDROOT
BRANCH  10  11
HETATM   11  O11 UNL     1     -30.541   7.704   1.833  1.00 20.00    -0.395 OA
HETATM   12  H23 UNL     1     -30.389   8.010   2.742  1.00 20.00     0.210 HD
ENDBRANCH  10  11
TORSDOF 1
ENDMDL
MODEL 6
REMARK VINA RESULT:       1.7      1.116      2.640
REMARK  1 active torsions:
REMARK  status: ('A' for Active; 'I' for Inactive)
REMARK    1  A    between atoms: C10_10  and  O11_11 
ROOT
HETATM    1  C1  UNL     1     -33.788   8.339   4.235  1.00 20.00    -0.021 C 
HETATM    2  C2  UNL     1     -32.609   8.838   1.955  1.00 20.00    -0.021 C 
HETATM    3  C3  UNL     1     -34.482   7.184   4.136  1.00 20.00    -0.025 C 
HETATM    4  C4  UNL     1     -32.265   7.877   1.070  1.00 20.00    -0.022 C 
HETATM    5  C5  UNL     1     -33.723   5.007   2.557  1.00 20.00     0.041 C 
HETATM    6  C6  UNL     1     -32.540   8.349   3.375  1.00 20.00     0.035 C 
HETATM    7  C7  UNL     1     -33.938   6.437   2.982  1.00 20.00     0.016 C 
HETATM    8  C8  UNL     1     -31.917   6.560   1.734  1.00 20.00     0.042 C 
HETATM    9  C9  UNL     1     -32.461   6.867   3.109  1.00 20.00     0.015 C 
HETATM   10  C10 UNL     1     -32.672   5.231   1.414  1.00 20.00     0.127 C 
ENDROOT
BRANCH  10  11
HETATM   11  O11 UNL     1     -33.328   5.304   0.156  1.00 20.00    -0.395 OA
HETATM   12  H23 UNL     1     -33.855   6.120   0.163  1.00 20.00     0.210 HD
ENDBRANCH  10  11
TORSDOF 1
ENDMDL
MODEL 7
REMARK VINA RESULT:       1.8      1.532      2.756
REMARK  1 active torsions:
REMARK  status: ('A' for Active; 'I' for Inactive)
REMARK    1  A    between atoms: C10_10  and  O11_11 
ROOT
HETATM    1  C1  UNL     1     -34.149   4.607   3.343  1.00 20.00    -0.021 C 
HETATM    2  C2  UNL     1     -35.073   7.017   3.764  1.00 20.00    -0.021 C 
HETATM    3  C3  UNL     1     -33.373   4.613   2.237  1.00 20.00    -0.025 C 
HETATM    4  C4  UNL     1     -34.448   8.138   3.343  1.00 20.00    -0.022 C 
HETATM    5  C5  UNL     1     -31.805   6.774   1.410  1.00 20.00     0.041 C 
HETATM    6  C6  UNL     1     -34.102   5.920   4.100  1.00 20.00     0.035 C 
HETATM    7  C7  UNL     1     -32.976   6.015   1.982  1.00 20.00     0.016 C 
HETATM    8  C8  UNL     1     -32.940   7.993   3.303  1.00 20.00     0.042 C 
HETATM    9  C9  UNL     1     -32.868   6.490   3.446  1.00 20.00     0.015 C 
HETATM   10  C10 UNL     1     -32.109   8.198   1.996  1.00 20.00     0.127 C 
ENDROOT
BRANCH  10  11
HETATM   11  O11 UNL     1     -32.830   8.972   1.048  1.00 20.00    -0.395 OA
HETATM   12  H23 UNL     1     -33.201   9.730   1.529  1.00 20.00     0.210 HD
ENDBRANCH  10  11
TORSDOF 1
ENDMDL
