MODEL 1
REMARK VINA RESULT:       1.5      0.000      0.000
REMARK  1 active torsions:
REMARK  status: ('A' for Active; 'I' for Inactive)
REMARK    1  A    between atoms: C3_3  and  C8_8 
ROOT
HETATM    1  C1  UNL     1     -33.064   7.207   3.215  1.00 20.00     0.147 C 
HETATM    2  C4  UNL     1     -32.392   5.049   1.407  1.00 20.00     0.007 C 
HETATM    3  C5  UNL     1     -31.477   6.274   1.613  1.00 20.00     0.022 C 
HETATM    4  C6  UNL     1     -33.676   6.975   0.988  1.00 20.00     0.027 C 
HETATM    5  C7  UNL     1     -33.806   5.612   1.684  1.00 20.00     0.002 C 
HETATM    6  C8  UNL     1     -32.477   7.414   1.827  1.00 20.00     0.038 C 
HETATM    7  C9  UNL     1     -34.005   6.002   3.187  1.00 20.00     0.018 C 
HETATM    8  C10 UNL     1     -35.442   6.438   3.486  1.00 20.00     0.023 C 
HETATM    9  C11 UNL     1     -33.566   4.929   4.181  1.00 20.00     0.023 C 
HETATM   10  O12 UNL     1     -32.805   7.869   4.210  1.00 20.00    -0.296 OA
ENDROOT
BRANCH   6  11
HETATM   11  C3  UNL     1     -31.978   8.787   1.595  1.00 20.00    -0.020 C 
HETATM   12  C2  UNL     1     -32.327   9.543   0.549  1.00 20.00     0.008 C 
ENDBRANCH   6  11
TORSDOF 1
ENDMDL
MODEL 2
REMARK VINA RESULT:       2.8      1.008      3.612
REMARK  1 active torsions:
REMARK  status: ('A' for Active; 'I' for Inactive)
REMARK    1  A    between atoms: C3_3  and  C8_8 
ROOT
HETATM    1  C1  UNL     1     -33.343   7.275   2.923  1.00 20.00     0.147 C 
HETATM    2  C4  UNL     1     -32.968   6.015   0.344  1.00 20.00     0.007 C 
HETATM    3  C5  UNL     1     -34.132   5.646   1.286  1.00 20.00     0.022 C 
HETATM    4  C6  UNL     1     -32.041   5.420   2.422  1.00 20.00     0.027 C 
HETATM    5  C7  UNL     1     -31.855   6.471   1.317  1.00 20.00     0.002 C 
HETATM    6  C8  UNL     1     -33.502   5.783   2.675  1.00 20.00     0.038 C 
HETATM    7  C9  UNL     1     -32.214   7.811   2.043  1.00 20.00     0.018 C 
HETATM    8  C10 UNL     1     -31.060   8.328   2.907  1.00 20.00     0.023 C 
HETATM    9  C11 UNL     1     -32.708   8.918   1.114  1.00 20.00     0.023 C 
HETATM   10  O12 UNL     1     -34.026   7.955   3.676  1.00 20.00    -0.296 OA
ENDROOT
BRANCH   6  11
HETATM   11  C3  UNL     1     -34.176   5.069   3.782  1.00 20.00    -0.020 C 
HETATM   12  C2  UNL     1     -33.826   3.851   4.210  1.00 20.00     0.008 C 
ENDBRANCH   6  11
TORSDOF 1
ENDMDL
MODEL 3
REMARK VINA RESULT:       3.0      1.515      3.229
REMARK  1 active torsions:
REMARK  status: ('A' for Active; 'I' for Inactive)
REMARK    1  A    between atoms: C3_3  and  C8_8 
ROOT
HETATM    1  C1  UNL     1     -33.200   5.680   2.708  1.00 20.00     0.147 C 
HETATM    2  C4  UNL     1     -31.542   7.971   2.091  1.00 20.00     0.007 C 
HETATM    3  C5  UNL     1     -32.197   7.770   3.473  1.00 20.00     0.022 C 
HETATM    4  C6  UNL     1     -33.852   7.692   1.750  1.00 20.00     0.027 C 
HETATM    5  C7  UNL     1     -32.517   7.254   1.129  1.00 20.00     0.002 C 
HETATM    6  C8  UNL     1     -33.532   7.106   3.123  1.00 20.00     0.038 C 
HETATM    7  C9  UNL     1     -32.524   5.702   1.337  1.00 20.00     0.018 C 
HETATM    8  C10 UNL     1     -33.391   4.983   0.301  1.00 20.00     0.023 C 
HETATM    9  C11 UNL     1     -31.136   5.068   1.390  1.00 20.00     0.023 C 
HETATM   10  O12 UNL     1     -33.404   4.674   3.372  1.00 20.00    -0.296 OA
ENDROOT
BRANCH   6  11
HETATM   11  C3  UNL     1     -34.602   7.191   4.141  1.00 20.00    -0.020 C 
HETATM   12  C2  UNL     1     -35.607   6.316   4.247  1.00 20.00     0.008 C 
ENDBRANCH   6  11
TORSDOF 1
ENDMDL
MODEL 4
REMARK VINA RESULT:       3.4      1.554      2.781
REMARK  1 active torsions:
REMARK  status: ('A' for Active; 'I' for Inactive)
REMARK    1  A    between atoms: C3_3  and  C8_8 
ROOT
HETATM    1  C1  UNL     1     -32.964   7.306   2.874  1.00 20.00     0.147 C 
HETATM    2  C4  UNL     1     -34.375   5.268   4.369  1.00 20.00     0.007 C 
HETATM    3  C5  UNL     1     -33.225   4.936   3.396  1.00 20.00     0.022 C 
HETATM    4  C6  UNL     1     -34.918   6.203   2.280  1.00 20.00     0.027 C 
HETATM    5  C7  UNL     1     -34.982   6.559   3.773  1.00 20.00     0.002 C 
HETATM    6  C8  UNL     1     -33.408   5.975   2.286  1.00 20.00     0.038 C 
HETATM    7  C9  UNL     1     -34.008   7.780   3.885  1.00 20.00     0.018 C 
HETATM    8  C10 UNL     1     -34.658   9.084   3.412  1.00 20.00     0.023 C 
HETATM    9  C11 UNL     1     -33.396   7.973   5.271  1.00 20.00     0.023 C 
HETATM   10  O12 UNL     1     -31.924   7.894   2.614  1.00 20.00    -0.296 OA
ENDROOT
BRANCH   6  11
HETATM   11  C3  UNL     1     -32.784   5.668   0.980  1.00 20.00    -0.020 C 
HETATM   12  C2  UNL     1     -31.742   4.845   0.824  1.00 20.00     0.008 C 
ENDBRANCH   6  11
TORSDOF 1
ENDMDL
MODEL 5
REMARK VINA RESULT:       3.7      1.577      4.000
REMARK  1 active torsions:
REMARK  status: ('A' for Active; 'I' for Inactive)
REMARK    1  A    between atoms: C3_3  and  C8_8 
ROOT
HETATM    1  C1  UNL     1     -32.977   5.661   2.490  1.00 20.00     0.147 C 
HETATM    2  C4  UNL     1     -33.659   7.882   4.217  1.00 20.00     0.007 C 
HETATM    3  C5  UNL     1     -33.360   6.471   4.761  1.00 20.00     0.022 C 
HETATM    4  C6  UNL     1     -35.094   6.376   3.119  1.00 20.00     0.027 C 
HETATM    5  C7  UNL     1     -34.227   7.605   2.805  1.00 20.00     0.002 C 
HETATM    6  C8  UNL     1     -33.930   5.558   3.672  1.00 20.00     0.038 C 
HETATM    7  C9  UNL     1     -33.143   7.031   1.832  1.00 20.00     0.018 C 
HETATM    8  C10 UNL     1     -33.671   6.877   0.403  1.00 20.00     0.023 C 
HETATM    9  C11 UNL     1     -31.828   7.809   1.824  1.00 20.00     0.023 C 
HETATM   10  O12 UNL     1     -32.177   4.807   2.137  1.00 20.00    -0.296 OA
ENDROOT
BRANCH   6  11
HETATM   11  C3  UNL     1     -34.233   4.164   4.066  1.00 20.00    -0.020 C 
HETATM   12  C2  UNL     1     -33.395   3.381   4.753  1.00 20.00     0.008 C 
ENDBRANCH   6  11
TORSDOF 1
ENDMDL
MODEL 6
REMARK VINA RESULT:       3.8      1.584      2.740
REMARK  1 active torsions:
REMARK  status: ('A' for Active; 'I' for Inactive)
REMARK    1  A    between atoms: C3_3  and  C8_8 
ROOT
HETATM    1  C1  UNL     1     -33.547   6.450   2.362  1.00 20.00     0.147 C 
HETATM    2  C4  UNL     1     -34.548   8.709   3.870  1.00 20.00     0.007 C 
HETATM    3  C5  UNL     1     -33.817   8.870   2.522  1.00 20.00     0.022 C 
HETATM    4  C6  UNL     1     -32.470   7.622   4.052  1.00 20.00     0.027 C 
HETATM    5  C7  UNL     1     -33.939   7.411   4.450  1.00 20.00     0.002 C 
HETATM    6  C8  UNL     1     -32.777   7.747   2.561  1.00 20.00     0.038 C 
HETATM    7  C9  UNL     1     -34.348   6.143   3.628  1.00 20.00     0.018 C 
HETATM    8  C10 UNL     1     -33.851   4.848   4.275  1.00 20.00     0.023 C 
HETATM    9  C11 UNL     1     -35.842   6.041   3.331  1.00 20.00     0.023 C 
HETATM   10  O12 UNL     1     -33.559   5.772   1.345  1.00 20.00    -0.296 OA
ENDROOT
BRANCH   6  11
HETATM   11  C3  UNL     1     -31.614   7.888   1.659  1.00 20.00    -0.020 C 
HETATM   12  C2  UNL     1     -31.572   8.723   0.615  1.00 20.00     0.008 C 
ENDBRANCH   6  11
TORSDOF 1
ENDMDL
MODEL 7
REMARK VINA RESULT:       4.2      1.431      3.129
REMARK  1 active torsions:
REMARK  status: ('A' for Active; 'I' for Inactive)
REMARK    1  A    between atoms: C3_3  and  C8_8 
ROOT
HETATM    1  C1  UNL     1     -33.503   6.584   2.912  1.00 20.00     0.147 C 
HETATM    2  C4  UNL     1     -32.812   8.669   1.027  1.00 20.00     0.007 C 
HETATM    3  C5  UNL     1     -33.078   7.214   0.593  1.00 20.00     0.022 C 
HETATM    4  C6  UNL     1     -31.382   7.281   2.277  1.00 20.00     0.027 C 
HETATM    5  C7  UNL     1     -32.275   8.517   2.470  1.00 20.00     0.002 C 
HETATM    6  C8  UNL     1     -32.521   6.401   1.765  1.00 20.00     0.038 C 
HETATM    7  C9  UNL     1     -33.374   8.005   3.461  1.00 20.00     0.018 C 
HETATM    8  C10 UNL     1     -32.878   7.976   4.909  1.00 20.00     0.023 C 
HETATM    9  C11 UNL     1     -34.699   8.759   3.376  1.00 20.00     0.023 C 
HETATM   10  O12 UNL     1     -34.299   5.748   3.316  1.00 20.00    -0.296 OA
ENDROOT
BRANCH   6  11
HETATM   11  C3  UNL     1     -32.187   4.986   1.492  1.00 20.00    -0.020 C 
HETATM   12  C2  UNL     1     -31.598   4.559   0.371  1.00 20.00     0.008 C 
ENDBRANCH   6  11
TORSDOF 1
ENDMDL
MODEL 8
REMARK VINA RESULT:       4.2      1.443      3.295
REMARK  1 active torsions:
REMARK  status: ('A' for Active; 'I' for Inactive)
REMARK    1  A    between atoms: C3_3  and  C8_8 
ROOT
HETATM    1  C1  UNL     1     -32.814   7.310   2.291  1.00 20.00     0.147 C 
HETATM    2  C4  UNL     1     -35.299   6.088   3.134  1.00 20.00     0.007 C 
HETATM    3  C5  UNL     1     -34.878   7.504   3.579  1.00 20.00     0.022 C 
HETATM    4  C6  UNL     1     -33.169   5.921   4.117  1.00 20.00     0.027 C 
HETATM    5  C7  UNL     1     -33.948   5.369   2.914  1.00 20.00     0.002 C 
HETATM    6  C8  UNL     1     -33.357   7.381   3.710  1.00 20.00     0.038 C 
HETATM    7  C9  UNL     1     -33.161   5.948   1.690  1.00 20.00     0.018 C 
HETATM    8  C10 UNL     1     -31.886   5.153   1.394  1.00 20.00     0.023 C 
HETATM    9  C11 UNL     1     -33.993   6.094   0.418  1.00 20.00     0.023 C 
HETATM   10  O12 UNL     1     -32.225   8.205   1.702  1.00 20.00    -0.296 OA
ENDROOT
BRANCH   6  11
HETATM   11  C3  UNL     1     -32.681   8.392   4.552  1.00 20.00    -0.020 C 
HETATM   12  C2  UNL     1     -32.946   8.585   5.849  1.00 20.00     0.008 C 
ENDBRANCH   6  11
TORSDOF 1
ENDMDL
MODEL 9
REMARK VINA RESULT:       4.4      1.704      3.717
REMARK  1 active torsions:
REMARK  status: ('A' for Active; 'I' for Inactive)
REMARK    1  A    between atoms: C3_3  and  C8_8 
ROOT
HETATM    1  C1  UNL     1     -34.521   6.225   3.840  1.00 20.00     0.147 C 
HETATM    2  C4  UNL     1     -33.002   6.729   1.429  1.00 20.00     0.007 C 
HETATM    3  C5  UNL     1     -33.828   5.443   1.635  1.00 20.00     0.022 C 
HETATM    4  C6  UNL     1     -32.287   5.739   3.439  1.00 20.00     0.027 C 
HETATM    5  C7  UNL     1     -32.604   7.130   2.869  1.00 20.00     0.002 C 
HETATM    6  C8  UNL     1     -33.674   5.177   3.135  1.00 20.00     0.038 C 
HETATM    7  C9  UNL     1     -33.837   7.587   3.720  1.00 20.00     0.018 C 
HETATM    8  C10 UNL     1     -33.426   8.103   5.101  1.00 20.00     0.023 C 
HETATM    9  C11 UNL     1     -34.738   8.605   3.026  1.00 20.00     0.023 C 
HETATM   10  O12 UNL     1     -35.597   6.029   4.388  1.00 20.00    -0.296 OA
ENDROOT
BRANCH   6  11
HETATM   11  C3  UNL     1     -33.940   3.796   3.594  1.00 20.00    -0.020 C 
HETATM   12  C2  UNL     1     -33.343   3.229   4.647  1.00 20.00     0.008 C 
ENDBRANCH   6  11
TORSDOF 1
ENDMDL
