MODEL 1
REMARK VINA RESULT:      -0.3      0.000      0.000
REMARK  0 active torsions:
REMARK  status: ('A' for Active; 'I' for Inactive)
ROOT
HETATM    1  C1  UNL     1     -32.883   5.633   2.192  1.00 20.00     0.005 A 
HETATM    2  C2  UNL     1     -33.493   5.469   3.382  1.00 20.00     0.107 A 
HETATM    3  C3  UNL     1     -33.276   7.095   1.939  1.00 20.00     0.132 A 
HETATM    4  C4  UNL     1     -32.112   8.060   1.772  1.00 20.00     0.031 C 
HETATM    5  O5  UNL     1     -33.347   7.515   4.646  1.00 20.00    -0.223 OA
HETATM    6  O6  UNL     1     -35.518   6.775   3.466  1.00 20.00    -0.223 OA
HETATM    7  S7  UNL     1     -34.120   7.135   3.486  1.00 20.00     0.172 S 
ENDROOT
TORSDOF 0
ENDMDL
MODEL 2
REMARK VINA RESULT:      -0.0      2.539      2.833
REMARK  0 active torsions:
REMARK  status: ('A' for Active; 'I' for Inactive)
ROOT
HETATM    1  C1  UNL     1     -33.617   6.700   2.938  1.00 20.00     0.005 A 
HETATM    2  C2  UNL     1     -33.029   7.884   3.198  1.00 20.00     0.107 A 
HETATM    3  C3  UNL     1     -33.010   6.451   1.549  1.00 20.00     0.132 A 
HETATM    4  C4  UNL     1     -32.194   5.174   1.417  1.00 20.00     0.031 C 
HETATM    5  O5  UNL     1     -30.799   7.890   2.288  1.00 20.00    -0.223 OA
HETATM    6  O6  UNL     1     -32.752   9.142   1.161  1.00 20.00    -0.223 OA
HETATM    7  S7  UNL     1     -32.105   7.958   1.675  1.00 20.00     0.172 S 
ENDROOT
TORSDOF 0
ENDMDL
MODEL 3
REMARK VINA RESULT:       0.1      2.484      2.890
REMARK  0 active torsions:
REMARK  status: ('A' for Active; 'I' for Inactive)
ROOT
HETATM    1  C1  UNL     1     -33.027   7.641   3.037  1.00 20.00     0.005 A 
HETATM    2  C2  UNL     1     -33.462   6.394   2.772  1.00 20.00     0.107 A 
HETATM    3  C3  UNL     1     -32.053   7.793   1.860  1.00 20.00     0.132 A 
HETATM    4  C4  UNL     1     -32.348   8.951   0.919  1.00 20.00     0.031 C 
HETATM    5  O5  UNL     1     -33.612   6.087   0.387  1.00 20.00    -0.223 OA
HETATM    6  O6  UNL     1     -31.692   5.086   1.789  1.00 20.00    -0.223 OA
HETATM    7  S7  UNL     1     -32.490   6.182   1.292  1.00 20.00     0.172 S 
ENDROOT
TORSDOF 0
ENDMDL
MODEL 4
REMARK VINA RESULT:       0.2      0.987      2.661
REMARK  0 active torsions:
REMARK  status: ('A' for Active; 'I' for Inactive)
ROOT
HETATM    1  C1  UNL     1     -33.055   5.583   2.290  1.00 20.00     0.005 A 
HETATM    2  C2  UNL     1     -33.804   6.703   2.233  1.00 20.00     0.107 A 
HETATM    3  C3  UNL     1     -33.319   5.212   3.756  1.00 20.00     0.132 A 
HETATM    4  C4  UNL     1     -33.952   3.847   3.976  1.00 20.00     0.031 C 
HETATM    5  O5  UNL     1     -35.774   6.418   3.589  1.00 20.00    -0.223 OA
HETATM    6  O6  UNL     1     -33.764   7.839   4.358  1.00 20.00    -0.223 OA
HETATM    7  S7  UNL     1     -34.381   6.610   3.918  1.00 20.00     0.172 S 
ENDROOT
TORSDOF 0
ENDMDL
MODEL 5
REMARK VINA RESULT:       0.2      2.461      3.011
REMARK  0 active torsions:
REMARK  status: ('A' for Active; 'I' for Inactive)
ROOT
HETATM    1  C1  UNL     1     -33.236   5.804   2.207  1.00 20.00     0.005 A 
HETATM    2  C2  UNL     1     -32.570   6.370   1.181  1.00 20.00     0.107 A 
HETATM    3  C3  UNL     1     -33.071   6.934   3.232  1.00 20.00     0.132 A 
HETATM    4  C4  UNL     1     -34.368   7.529   3.757  1.00 20.00     0.031 C 
HETATM    5  O5  UNL     1     -32.973   8.745   1.178  1.00 20.00    -0.223 OA
HETATM    6  O6  UNL     1     -30.757   7.724   2.013  1.00 20.00    -0.223 OA
HETATM    7  S7  UNL     1     -32.192   7.888   2.038  1.00 20.00     0.172 S 
ENDROOT
TORSDOF 0
ENDMDL
MODEL 6
REMARK VINA RESULT:       0.2      2.539      3.197
REMARK  0 active torsions:
REMARK  status: ('A' for Active; 'I' for Inactive)
ROOT
HETATM    1  C1  UNL     1     -32.747   8.179   4.166  1.00 20.00     0.005 A 
HETATM    2  C2  UNL     1     -31.711   8.317   3.316  1.00 20.00     0.107 A 
HETATM    3  C3  UNL     1     -33.781   7.632   3.171  1.00 20.00     0.132 A 
HETATM    4  C4  UNL     1     -34.348   6.262   3.512  1.00 20.00     0.031 C 
HETATM    5  O5  UNL     1     -31.746   6.520   1.712  1.00 20.00    -0.223 OA
HETATM    6  O6  UNL     1     -32.509   8.912   1.121  1.00 20.00    -0.223 OA
HETATM    7  S7  UNL     1     -32.574   7.690   1.887  1.00 20.00     0.172 S 
ENDROOT
TORSDOF 0
ENDMDL
MODEL 7
REMARK VINA RESULT:       0.4      2.122      2.421
REMARK  0 active torsions:
REMARK  status: ('A' for Active; 'I' for Inactive)
ROOT
HETATM    1  C1  UNL     1     -34.346   7.587   3.946  1.00 20.00     0.005 A 
HETATM    2  C2  UNL     1     -34.949   6.456   3.531  1.00 20.00     0.107 A 
HETATM    3  C3  UNL     1     -32.909   7.241   3.527  1.00 20.00     0.132 A 
HETATM    4  C4  UNL     1     -32.271   8.206   2.540  1.00 20.00     0.031 C 
HETATM    5  O5  UNL     1     -33.905   5.691   1.498  1.00 20.00    -0.223 OA
HETATM    6  O6  UNL     1     -33.459   4.577   3.782  1.00 20.00    -0.223 OA
HETATM    7  S7  UNL     1     -33.471   5.702   2.876  1.00 20.00     0.172 S 
ENDROOT
TORSDOF 0
ENDMDL
MODEL 8
REMARK VINA RESULT:       0.4      2.318      2.784
REMARK  0 active torsions:
REMARK  status: ('A' for Active; 'I' for Inactive)
ROOT
HETATM    1  C1  UNL     1     -32.209   7.971   2.265  1.00 20.00     0.005 A 
HETATM    2  C2  UNL     1     -31.734   6.870   1.649  1.00 20.00     0.107 A 
HETATM    3  C3  UNL     1     -33.629   7.465   2.561  1.00 20.00     0.132 A 
HETATM    4  C4  UNL     1     -34.015   7.444   4.032  1.00 20.00     0.031 C 
HETATM    5  O5  UNL     1     -32.658   4.906   2.693  1.00 20.00    -0.223 OA
HETATM    6  O6  UNL     1     -33.495   5.780   0.415  1.00 20.00    -0.223 OA
HETATM    7  S7  UNL     1     -33.227   5.912   1.828  1.00 20.00     0.172 S 
ENDROOT
TORSDOF 0
ENDMDL
MODEL 9
REMARK VINA RESULT:       0.7      1.850      2.153
REMARK  0 active torsions:
REMARK  status: ('A' for Active; 'I' for Inactive)
ROOT
HETATM    1  C1  UNL     1     -33.164   7.430   2.746  1.00 20.00     0.005 A 
HETATM    2  C2  UNL     1     -33.826   6.293   2.455  1.00 20.00     0.107 A 
HETATM    3  C3  UNL     1     -33.938   7.820   4.014  1.00 20.00     0.132 A 
HETATM    4  C4  UNL     1     -33.096   7.945   5.274  1.00 20.00     0.031 C 
HETATM    5  O5  UNL     1     -34.424   5.167   4.499  1.00 20.00    -0.223 OA
HETATM    6  O6  UNL     1     -36.141   6.489   3.099  1.00 20.00    -0.223 OA
HETATM    7  S7  UNL     1     -34.920   6.364   3.861  1.00 20.00     0.172 S 
ENDROOT
TORSDOF 0
ENDMDL
