MODEL 1
REMARK VINA RESULT:       0.3      0.000      0.000
REMARK  0 active torsions:
REMARK  status: ('A' for Active; 'I' for Inactive)
ROOT
HETATM    1  C1  UNL     1     -32.363   8.127   2.792  1.00 20.00    -0.029 C 
HETATM    2  C2  UNL     1     -32.363   7.258   1.766  1.00 20.00    -0.014 C 
HETATM    3  C3  UNL     1     -33.505   5.325   2.982  1.00 20.00     0.143 C 
HETATM    4  C4  UNL     1     -32.958   7.976   4.162  1.00 20.00     0.032 C 
HETATM    5  C5  UNL     1     -35.297   7.326   3.182  1.00 20.00     0.018 A 
HETATM    6  C6  UNL     1     -34.643   6.042   3.617  1.00 20.00     0.061 A 
HETATM    7  C7  UNL     1     -34.309   7.340   4.313  1.00 20.00     0.001 A 
HETATM    8  C8  UNL     1     -32.890   5.842   1.673  1.00 20.00     0.031 C 
HETATM    9  C9  UNL     1     -33.911   5.697   0.534  1.00 20.00     0.027 C 
HETATM   10  C10 UNL     1     -31.679   4.944   1.323  1.00 20.00     0.027 C 
HETATM   11  O11 UNL     1     -33.079   4.325   3.556  1.00 20.00    -0.296 OA
ENDROOT
TORSDOF 0
ENDMDL
MODEL 2
REMARK VINA RESULT:       2.0      1.398      3.180
REMARK  0 active torsions:
REMARK  status: ('A' for Active; 'I' for Inactive)
ROOT
HETATM    1  C1  UNL     1     -32.604   5.579   1.519  1.00 20.00    -0.029 C 
HETATM    2  C2  UNL     1     -33.779   5.579   2.172  1.00 20.00    -0.014 C 
HETATM    3  C3  UNL     1     -33.285   7.549   3.720  1.00 20.00     0.143 C 
HETATM    4  C4  UNL     1     -31.450   6.531   1.643  1.00 20.00     0.032 C 
HETATM    5  C5  UNL     1     -32.996   8.608   1.261  1.00 20.00     0.018 A 
HETATM    6  C6  UNL     1     -32.742   8.530   2.743  1.00 20.00     0.061 A 
HETATM    7  C7  UNL     1     -31.718   8.002   1.766  1.00 20.00     0.001 A 
HETATM    8  C8  UNL     1     -34.293   6.480   3.275  1.00 20.00     0.031 C 
HETATM    9  C9  UNL     1     -35.615   7.156   2.877  1.00 20.00     0.027 C 
HETATM   10  C10 UNL     1     -34.590   5.565   4.487  1.00 20.00     0.027 C 
HETATM   11  O11 UNL     1     -32.879   7.626   4.878  1.00 20.00    -0.296 OA
ENDROOT
TORSDOF 0
ENDMDL
MODEL 3
REMARK VINA RESULT:       2.8      1.464      3.612
REMARK  0 active torsions:
REMARK  status: ('A' for Active; 'I' for Inactive)
ROOT
HETATM    1  C1  UNL     1     -33.448   4.376   3.641  1.00 20.00    -0.029 C 
HETATM    2  C2  UNL     1     -34.269   5.385   3.981  1.00 20.00    -0.014 C 
HETATM    3  C3  UNL     1     -33.067   7.227   2.685  1.00 20.00     0.143 C 
HETATM    4  C4  UNL     1     -32.273   4.384   2.706  1.00 20.00     0.032 C 
HETATM    5  C5  UNL     1     -33.691   5.435   0.774  1.00 20.00     0.018 A 
HETATM    6  C6  UNL     1     -32.882   6.556   1.371  1.00 20.00     0.061 A 
HETATM    7  C7  UNL     1     -32.365   5.138   1.412  1.00 20.00     0.001 A 
HETATM    8  C8  UNL     1     -34.243   6.849   3.597  1.00 20.00     0.031 C 
HETATM    9  C9  UNL     1     -35.562   7.280   2.937  1.00 20.00     0.027 C 
HETATM   10  C10 UNL     1     -34.105   7.646   4.916  1.00 20.00     0.027 C 
HETATM   11  O11 UNL     1     -32.235   8.074   3.005  1.00 20.00    -0.296 OA
ENDROOT
TORSDOF 0
ENDMDL
MODEL 4
REMARK VINA RESULT:       2.9      1.479      3.385
REMARK  0 active torsions:
REMARK  status: ('A' for Active; 'I' for Inactive)
ROOT
HETATM    1  C1  UNL     1     -32.465   6.665   1.787  1.00 20.00    -0.029 C 
HETATM    2  C2  UNL     1     -32.743   7.592   2.719  1.00 20.00    -0.014 C 
HETATM    3  C3  UNL     1     -34.832   6.472   3.670  1.00 20.00     0.143 C 
HETATM    4  C4  UNL     1     -33.150   5.357   1.515  1.00 20.00     0.032 C 
HETATM    5  C5  UNL     1     -32.921   4.605   4.011  1.00 20.00     0.018 A 
HETATM    6  C6  UNL     1     -34.339   5.078   3.835  1.00 20.00     0.061 A 
HETATM    7  C7  UNL     1     -33.580   4.496   2.666  1.00 20.00     0.001 A 
HETATM    8  C8  UNL     1     -33.859   7.658   3.740  1.00 20.00     0.031 C 
HETATM    9  C9  UNL     1     -33.305   7.783   5.169  1.00 20.00     0.027 C 
HETATM   10  C10 UNL     1     -34.654   8.951   3.440  1.00 20.00     0.027 C 
HETATM   11  O11 UNL     1     -36.034   6.622   3.461  1.00 20.00    -0.296 OA
ENDROOT
TORSDOF 0
ENDMDL
