MODEL 1
REMARK VINA RESULT:       2.5      0.000      0.000
REMARK  0 active torsions:
REMARK  status: ('A' for Active; 'I' for Inactive)
ROOT
HETATM    1  C1  UNL     1     -32.869   6.682   2.573  1.00 20.00    -0.010 C 
HETATM    2  C2  UNL     1     -32.621   7.938   3.337  1.00 20.00     0.155 C 
HETATM    3  C3  UNL     1     -32.393   6.596   1.324  1.00 20.00    -0.078 C 
HETATM    4  C4  UNL     1     -33.661   5.604   3.250  1.00 20.00     0.051 C 
HETATM    5  C5  UNL     1     -33.727   8.414   4.255  1.00 20.00     0.084 C 
HETATM    6  C6  UNL     1     -34.458   7.271   4.953  1.00 20.00     0.017 C 
HETATM    7  C7  UNL     1     -34.904   6.144   3.995  1.00 20.00    -0.043 C 
HETATM    8  C8  UNL     1     -32.593   5.371   0.479  1.00 20.00     0.043 C 
HETATM    9  C9  UNL     1     -31.626   7.718   0.687  1.00 20.00     0.043 C 
HETATM   10  C10 UNL     1     -35.528   5.004   4.819  1.00 20.00     0.015 C 
HETATM   11  C11 UNL     1     -35.964   6.651   2.998  1.00 20.00     0.015 C 
HETATM   12  O12 UNL     1     -31.598   8.600   3.173  1.00 20.00    -0.293 OA
ENDROOT
TORSDOF 0
ENDMDL
MODEL 2
REMARK VINA RESULT:       3.1      1.869      3.657
REMARK  0 active torsions:
REMARK  status: ('A' for Active; 'I' for Inactive)
ROOT
HETATM    1  C1  UNL     1     -33.392   6.074   2.528  1.00 20.00    -0.010 C 
HETATM    2  C2  UNL     1     -34.302   6.600   3.584  1.00 20.00     0.155 C 
HETATM    3  C3  UNL     1     -32.998   4.796   2.608  1.00 20.00    -0.078 C 
HETATM    4  C4  UNL     1     -32.954   7.024   1.453  1.00 20.00     0.051 C 
HETATM    5  C5  UNL     1     -34.092   8.034   4.022  1.00 20.00     0.084 C 
HETATM    6  C6  UNL     1     -33.700   8.959   2.873  1.00 20.00     0.017 C 
HETATM    7  C7  UNL     1     -32.548   8.412   2.002  1.00 20.00    -0.043 C 
HETATM    8  C8  UNL     1     -32.083   4.180   1.590  1.00 20.00     0.043 C 
HETATM    9  C9  UNL     1     -33.448   3.895   3.722  1.00 20.00     0.043 C 
HETATM   10  C10 UNL     1     -32.316   9.370   0.820  1.00 20.00     0.015 C 
HETATM   11  C11 UNL     1     -31.238   8.321   2.809  1.00 20.00     0.015 C 
HETATM   12  O12 UNL     1     -35.137   5.881   4.131  1.00 20.00    -0.293 OA
ENDROOT
TORSDOF 0
ENDMDL
MODEL 3
REMARK VINA RESULT:       3.2      1.618      4.495
REMARK  0 active torsions:
REMARK  status: ('A' for Active; 'I' for Inactive)
ROOT
HETATM    1  C1  UNL     1     -33.277   6.905   3.167  1.00 20.00    -0.010 C 
HETATM    2  C2  UNL     1     -33.285   5.589   2.469  1.00 20.00     0.155 C 
HETATM    3  C3  UNL     1     -34.253   7.161   4.049  1.00 20.00    -0.078 C 
HETATM    4  C4  UNL     1     -32.185   7.871   2.815  1.00 20.00     0.051 C 
HETATM    5  C5  UNL     1     -32.839   5.575   1.022  1.00 20.00     0.084 C 
HETATM    6  C6  UNL     1     -31.690   6.541   0.742  1.00 20.00     0.017 C 
HETATM    7  C7  UNL     1     -31.928   7.964   1.294  1.00 20.00    -0.043 C 
HETATM    8  C8  UNL     1     -34.327   8.458   4.800  1.00 20.00     0.043 C 
HETATM    9  C9  UNL     1     -35.337   6.165   4.345  1.00 20.00     0.043 C 
HETATM   10  C10 UNL     1     -30.667   8.813   1.049  1.00 20.00     0.015 C 
HETATM   11  C11 UNL     1     -33.110   8.645   0.577  1.00 20.00     0.015 C 
HETATM   12  O12 UNL     1     -33.707   4.572   3.016  1.00 20.00    -0.293 OA
ENDROOT
TORSDOF 0
ENDMDL
MODEL 4
REMARK VINA RESULT:       3.4      1.558      3.233
REMARK  0 active torsions:
REMARK  status: ('A' for Active; 'I' for Inactive)
ROOT
HETATM    1  C1  UNL     1     -32.411   7.915   1.724  1.00 20.00    -0.010 C 
HETATM    2  C2  UNL     1     -33.254   7.766   2.943  1.00 20.00     0.155 C 
HETATM    3  C3  UNL     1     -32.415   9.097   1.092  1.00 20.00    -0.078 C 
HETATM    4  C4  UNL     1     -31.630   6.719   1.269  1.00 20.00     0.051 C 
HETATM    5  C5  UNL     1     -33.926   6.425   3.154  1.00 20.00     0.084 C 
HETATM    6  C6  UNL     1     -33.058   5.247   2.721  1.00 20.00     0.017 C 
HETATM    7  C7  UNL     1     -32.451   5.410   1.310  1.00 20.00    -0.043 C 
HETATM    8  C8  UNL     1     -31.597   9.341  -0.143  1.00 20.00     0.043 C 
HETATM    9  C9  UNL     1     -33.236  10.255   1.578  1.00 20.00     0.043 C 
HETATM   10  C10 UNL     1     -31.515   4.221   1.027  1.00 20.00     0.015 C 
HETATM   11  C11 UNL     1     -33.553   5.419   0.231  1.00 20.00     0.015 C 
HETATM   12  O12 UNL     1     -33.459   8.709   3.704  1.00 20.00    -0.293 OA
ENDROOT
TORSDOF 0
ENDMDL
MODEL 5
REMARK VINA RESULT:       3.6      1.159      3.786
REMARK  0 active torsions:
REMARK  status: ('A' for Active; 'I' for Inactive)
ROOT
HETATM    1  C1  UNL     1     -33.559   6.923   2.702  1.00 20.00    -0.010 C 
HETATM    2  C2  UNL     1     -32.545   7.968   2.389  1.00 20.00     0.155 C 
HETATM    3  C3  UNL     1     -34.215   7.005   3.868  1.00 20.00    -0.078 C 
HETATM    4  C4  UNL     1     -33.761   5.827   1.698  1.00 20.00     0.051 C 
HETATM    5  C5  UNL     1     -31.302   7.520   1.649  1.00 20.00     0.084 C 
HETATM    6  C6  UNL     1     -31.584   6.443   0.605  1.00 20.00     0.017 C 
HETATM    7  C7  UNL     1     -32.432   5.269   1.139  1.00 20.00    -0.043 C 
HETATM    8  C8  UNL     1     -35.254   5.999   4.269  1.00 20.00     0.043 C 
HETATM    9  C9  UNL     1     -33.956   8.112   4.849  1.00 20.00     0.043 C 
HETATM   10  C10 UNL     1     -32.742   4.306  -0.022  1.00 20.00     0.015 C 
HETATM   11  C11 UNL     1     -31.669   4.482   2.222  1.00 20.00     0.015 C 
HETATM   12  O12 UNL     1     -32.672   9.127   2.779  1.00 20.00    -0.293 OA
ENDROOT
TORSDOF 0
ENDMDL
MODEL 6
REMARK VINA RESULT:       4.3      1.605      2.681
REMARK  0 active torsions:
REMARK  status: ('A' for Active; 'I' for Inactive)
ROOT
HETATM    1  C1  UNL     1     -32.888   7.218   1.646  1.00 20.00    -0.010 C 
HETATM    2  C2  UNL     1     -32.247   5.873   1.631  1.00 20.00     0.155 C 
HETATM    3  C3  UNL     1     -32.220   8.246   1.105  1.00 20.00    -0.078 C 
HETATM    4  C4  UNL     1     -34.237   7.337   2.292  1.00 20.00     0.051 C 
HETATM    5  C5  UNL     1     -32.475   4.989   2.839  1.00 20.00     0.084 C 
HETATM    6  C6  UNL     1     -33.882   5.118   3.416  1.00 20.00     0.017 C 
HETATM    7  C7  UNL     1     -34.331   6.579   3.636  1.00 20.00    -0.043 C 
HETATM    8  C8  UNL     1     -32.787   9.635   1.073  1.00 20.00     0.043 C 
HETATM    9  C9  UNL     1     -30.860   8.074   0.493  1.00 20.00     0.043 C 
HETATM   10  C10 UNL     1     -35.795   6.587   4.114  1.00 20.00     0.015 C 
HETATM   11  C11 UNL     1     -33.472   7.266   4.715  1.00 20.00     0.015 C 
HETATM   12  O12 UNL     1     -31.502   5.525   0.717  1.00 20.00    -0.293 OA
ENDROOT
TORSDOF 0
ENDMDL
MODEL 7
REMARK VINA RESULT:       5.4      1.959      4.578
REMARK  0 active torsions:
REMARK  status: ('A' for Active; 'I' for Inactive)
ROOT
HETATM    1  C1  UNL     1     -32.690   7.720   2.318  1.00 20.00    -0.010 C 
HETATM    2  C2  UNL     1     -31.833   6.931   1.389  1.00 20.00     0.155 C 
HETATM    3  C3  UNL     1     -33.599   7.066   3.052  1.00 20.00    -0.078 C 
HETATM    4  C4  UNL     1     -32.493   9.207   2.350  1.00 20.00     0.051 C 
HETATM    5  C5  UNL     1     -31.480   7.574   0.065  1.00 20.00     0.084 C 
HETATM    6  C6  UNL     1     -31.240   9.077   0.176  1.00 20.00     0.017 C 
HETATM    7  C7  UNL     1     -32.352   9.828   0.942  1.00 20.00    -0.043 C 
HETATM    8  C8  UNL     1     -34.506   7.777   4.015  1.00 20.00     0.043 C 
HETATM    9  C9  UNL     1     -33.771   5.577   2.962  1.00 20.00     0.043 C 
HETATM   10  C10 UNL     1     -31.951  11.307   1.084  1.00 20.00     0.015 C 
HETATM   11  C11 UNL     1     -33.689   9.766   0.178  1.00 20.00     0.015 C 
HETATM   12  O12 UNL     1     -31.490   5.779   1.650  1.00 20.00    -0.293 OA
ENDROOT
TORSDOF 0
ENDMDL
