MODEL 1
REMARK VINA RESULT:       0.7      0.000      0.000
REMARK  0 active torsions:
REMARK  status: ('A' for Active; 'I' for Inactive)
ROOT
HETATM    1  C1  UNL     1     -32.479   8.585   4.531  1.00 20.00    -0.029 C 
HETATM    2  C2  UNL     1     -31.872   8.491   3.329  1.00 20.00    -0.014 C 
HETATM    3  C3  UNL     1     -33.267   6.647   1.996  1.00 20.00     0.143 C 
HETATM    4  C4  UNL     1     -33.788   8.000   5.011  1.00 20.00     0.032 C 
HETATM    5  C5  UNL     1     -35.141   5.977   3.804  1.00 20.00     0.018 A 
HETATM    6  C6  UNL     1     -33.756   6.227   3.313  1.00 20.00     0.061 A 
HETATM    7  C7  UNL     1     -34.563   7.354   3.927  1.00 20.00     0.001 A 
HETATM    8  C8  UNL     1     -32.212   7.786   2.007  1.00 20.00     0.031 C 
HETATM    9  C9  UNL     1     -32.684   8.863   1.015  1.00 20.00     0.027 C 
HETATM   10  C10 UNL     1     -30.915   7.143   1.477  1.00 20.00     0.027 C 
HETATM   11  O11 UNL     1     -33.672   6.094   0.980  1.00 20.00    -0.296 OA
ENDROOT
TORSDOF 0
ENDMDL
MODEL 2
REMARK VINA RESULT:       1.3      1.464      3.436
REMARK  0 active torsions:
REMARK  status: ('A' for Active; 'I' for Inactive)
ROOT
HETATM    1  C1  UNL     1     -32.742   8.644   1.671  1.00 20.00    -0.029 C 
HETATM    2  C2  UNL     1     -33.627   8.399   2.661  1.00 20.00    -0.014 C 
HETATM    3  C3  UNL     1     -33.574   5.751   2.990  1.00 20.00     0.143 C 
HETATM    4  C4  UNL     1     -31.737   7.727   1.012  1.00 20.00     0.032 C 
HETATM    5  C5  UNL     1     -31.764   5.014   1.144  1.00 20.00     0.018 A 
HETATM    6  C6  UNL     1     -32.982   5.709   1.649  1.00 20.00     0.061 A 
HETATM    7  C7  UNL     1     -31.637   6.407   1.678  1.00 20.00     0.001 A 
HETATM    8  C8  UNL     1     -33.991   7.160   3.492  1.00 20.00     0.031 C 
HETATM    9  C9  UNL     1     -33.386   7.348   4.894  1.00 20.00     0.027 C 
HETATM   10  C10 UNL     1     -35.528   7.112   3.607  1.00 20.00     0.027 C 
HETATM   11  O11 UNL     1     -33.735   4.717   3.629  1.00 20.00    -0.296 OA
ENDROOT
TORSDOF 0
ENDMDL
MODEL 3
REMARK VINA RESULT:       1.4      1.661      3.856
REMARK  0 active torsions:
REMARK  status: ('A' for Active; 'I' for Inactive)
ROOT
HETATM    1  C1  UNL     1     -32.781   5.820   1.389  1.00 20.00    -0.029 C 
HETATM    2  C2  UNL     1     -33.771   5.499   2.247  1.00 20.00    -0.014 C 
HETATM    3  C3  UNL     1     -33.710   7.405   4.114  1.00 20.00     0.143 C 
HETATM    4  C4  UNL     1     -31.941   7.074   1.293  1.00 20.00     0.032 C 
HETATM    5  C5  UNL     1     -31.680   8.942   3.248  1.00 20.00     0.018 A 
HETATM    6  C6  UNL     1     -32.346   7.668   3.641  1.00 20.00     0.061 A 
HETATM    7  C7  UNL     1     -32.402   8.148   2.204  1.00 20.00     0.001 A 
HETATM    8  C8  UNL     1     -34.432   6.209   3.438  1.00 20.00     0.031 C 
HETATM    9  C9  UNL     1     -35.812   6.707   2.972  1.00 20.00     0.027 C 
HETATM   10  C10 UNL     1     -34.623   5.165   4.555  1.00 20.00     0.027 C 
HETATM   11  O11 UNL     1     -34.199   8.092   5.003  1.00 20.00    -0.296 OA
ENDROOT
TORSDOF 0
ENDMDL
MODEL 4
REMARK VINA RESULT:       1.5      1.647      2.826
REMARK  0 active torsions:
REMARK  status: ('A' for Active; 'I' for Inactive)
ROOT
HETATM    1  C1  UNL     1     -32.486   5.533   1.274  1.00 20.00    -0.029 C 
HETATM    2  C2  UNL     1     -32.181   6.846   1.347  1.00 20.00    -0.014 C 
HETATM    3  C3  UNL     1     -33.633   7.777   3.384  1.00 20.00     0.143 C 
HETATM    4  C4  UNL     1     -33.269   4.659   2.227  1.00 20.00     0.032 C 
HETATM    5  C5  UNL     1     -34.925   5.559   4.183  1.00 20.00     0.018 A 
HETATM    6  C6  UNL     1     -34.455   6.576   3.200  1.00 20.00     0.061 A 
HETATM    7  C7  UNL     1     -33.613   5.349   3.493  1.00 20.00     0.001 A 
HETATM    8  C8  UNL     1     -32.484   7.964   2.356  1.00 20.00     0.031 C 
HETATM    9  C9  UNL     1     -31.194   8.234   3.150  1.00 20.00     0.027 C 
HETATM   10  C10 UNL     1     -32.857   9.226   1.553  1.00 20.00     0.027 C 
HETATM   11  O11 UNL     1     -33.886   8.568   4.284  1.00 20.00    -0.296 OA
ENDROOT
TORSDOF 0
ENDMDL
MODEL 5
REMARK VINA RESULT:       1.7      1.661      2.536
REMARK  0 active torsions:
REMARK  status: ('A' for Active; 'I' for Inactive)
ROOT
HETATM    1  C1  UNL     1     -34.995   6.696   3.963  1.00 20.00    -0.029 C 
HETATM    2  C2  UNL     1     -34.213   7.185   2.978  1.00 20.00    -0.014 C 
HETATM    3  C3  UNL     1     -32.512   5.210   2.404  1.00 20.00     0.143 C 
HETATM    4  C4  UNL     1     -35.111   5.291   4.511  1.00 20.00     0.032 C 
HETATM    5  C5  UNL     1     -33.299   3.303   4.129  1.00 20.00     0.018 A 
HETATM    6  C6  UNL     1     -32.870   4.671   3.720  1.00 20.00     0.061 A 
HETATM    7  C7  UNL     1     -34.340   4.300   3.723  1.00 20.00     0.001 A 
HETATM    8  C8  UNL     1     -33.155   6.576   2.045  1.00 20.00     0.031 C 
HETATM    9  C9  UNL     1     -33.793   6.435   0.652  1.00 20.00     0.027 C 
HETATM   10  C10 UNL     1     -31.980   7.571   1.964  1.00 20.00     0.027 C 
HETATM   11  O11 UNL     1     -31.734   4.603   1.677  1.00 20.00    -0.296 OA
ENDROOT
TORSDOF 0
ENDMDL
MODEL 6
REMARK VINA RESULT:       1.7      0.816      3.210
REMARK  0 active torsions:
REMARK  status: ('A' for Active; 'I' for Inactive)
ROOT
HETATM    1  C1  UNL     1     -33.089   8.401   4.749  1.00 20.00    -0.029 C 
HETATM    2  C2  UNL     1     -33.993   7.413   4.579  1.00 20.00    -0.014 C 
HETATM    3  C3  UNL     1     -33.569   6.508   2.105  1.00 20.00     0.143 C 
HETATM    4  C4  UNL     1     -31.915   8.807   3.887  1.00 20.00     0.032 C 
HETATM    5  C5  UNL     1     -31.545   8.083   1.295  1.00 20.00     0.018 A 
HETATM    6  C6  UNL     1     -32.885   7.786   1.875  1.00 20.00     0.061 A 
HETATM    7  C7  UNL     1     -31.665   7.864   2.771  1.00 20.00     0.001 A 
HETATM    8  C8  UNL     1     -34.225   6.343   3.502  1.00 20.00     0.031 C 
HETATM    9  C9  UNL     1     -33.753   4.997   4.078  1.00 20.00     0.027 C 
HETATM   10  C10 UNL     1     -35.742   6.275   3.233  1.00 20.00     0.027 C 
HETATM   11  O11 UNL     1     -33.617   5.665   1.217  1.00 20.00    -0.296 OA
ENDROOT
TORSDOF 0
ENDMDL
MODEL 7
REMARK VINA RESULT:       2.2      1.574      2.425
REMARK  0 active torsions:
REMARK  status: ('A' for Active; 'I' for Inactive)
ROOT
HETATM    1  C1  UNL     1     -32.003   8.255   1.534  1.00 20.00    -0.029 C 
HETATM    2  C2  UNL     1     -31.876   6.971   1.139  1.00 20.00    -0.014 C 
HETATM    3  C3  UNL     1     -33.346   5.569   2.869  1.00 20.00     0.143 C 
HETATM    4  C4  UNL     1     -32.929   8.874   2.556  1.00 20.00     0.032 C 
HETATM    5  C5  UNL     1     -34.287   7.511   4.474  1.00 20.00     0.018 A 
HETATM    6  C6  UNL     1     -33.240   6.745   3.739  1.00 20.00     0.061 A 
HETATM    7  C7  UNL     1     -33.935   7.918   3.077  1.00 20.00     0.001 A 
HETATM    8  C8  UNL     1     -32.560   5.654   1.533  1.00 20.00     0.031 C 
HETATM    9  C9  UNL     1     -33.532   5.279   0.401  1.00 20.00     0.027 C 
HETATM   10  C10 UNL     1     -31.464   4.574   1.638  1.00 20.00     0.027 C 
HETATM   11  O11 UNL     1     -34.002   4.596   3.222  1.00 20.00    -0.296 OA
ENDROOT
TORSDOF 0
ENDMDL
MODEL 8
REMARK VINA RESULT:       2.5      1.515      2.717
REMARK  0 active torsions:
REMARK  status: ('A' for Active; 'I' for Inactive)
ROOT
HETATM    1  C1  UNL     1     -34.149   6.535   3.703  1.00 20.00    -0.029 C 
HETATM    2  C2  UNL     1     -33.516   7.726   3.649  1.00 20.00    -0.014 C 
HETATM    3  C3  UNL     1     -31.758   7.481   1.657  1.00 20.00     0.143 C 
HETATM    4  C4  UNL     1     -34.108   5.364   2.748  1.00 20.00     0.032 C 
HETATM    5  C5  UNL     1     -32.217   4.962   0.839  1.00 20.00     0.018 A 
HETATM    6  C6  UNL     1     -31.931   6.035   1.832  1.00 20.00     0.061 A 
HETATM    7  C7  UNL     1     -33.363   5.662   1.502  1.00 20.00     0.001 A 
HETATM    8  C8  UNL     1     -32.528   8.373   2.667  1.00 20.00     0.031 C 
HETATM    9  C9  UNL     1     -33.304   9.426   1.856  1.00 20.00     0.027 C 
HETATM   10  C10 UNL     1     -31.439   9.078   3.500  1.00 20.00     0.027 C 
HETATM   11  O11 UNL     1     -31.025   7.915   0.776  1.00 20.00    -0.296 OA
ENDROOT
TORSDOF 0
ENDMDL
MODEL 9
REMARK VINA RESULT:       2.5      1.553      3.400
REMARK  0 active torsions:
REMARK  status: ('A' for Active; 'I' for Inactive)
ROOT
HETATM    1  C1  UNL     1     -34.260   4.887   3.808  1.00 20.00    -0.029 C 
HETATM    2  C2  UNL     1     -34.285   6.158   4.264  1.00 20.00    -0.014 C 
HETATM    3  C3  UNL     1     -32.725   7.523   2.583  1.00 20.00     0.143 C 
HETATM    4  C4  UNL     1     -33.703   4.324   2.520  1.00 20.00     0.032 C 
HETATM    5  C5  UNL     1     -31.947   5.593   0.881  1.00 20.00     0.018 A 
HETATM    6  C6  UNL     1     -32.168   6.216   2.216  1.00 20.00     0.061 A 
HETATM    7  C7  UNL     1     -33.256   5.375   1.576  1.00 20.00     0.001 A 
HETATM    8  C8  UNL     1     -33.781   7.503   3.721  1.00 20.00     0.031 C 
HETATM    9  C9  UNL     1     -35.007   8.291   3.226  1.00 20.00     0.027 C 
HETATM   10  C10 UNL     1     -33.131   8.264   4.893  1.00 20.00     0.027 C 
HETATM   11  O11 UNL     1     -32.336   8.541   2.023  1.00 20.00    -0.296 OA
ENDROOT
TORSDOF 0
ENDMDL
