MODEL 1
REMARK VINA RESULT:       0.8      0.000      0.000
REMARK  0 active torsions:
REMARK  status: ('A' for Active; 'I' for Inactive)
ROOT
HETATM    1  C1  UNL     1     -33.287   7.993   3.889  1.00 20.00    -0.023 C 
HETATM    2  C2  UNL     1     -34.124   7.337   4.715  1.00 20.00    -0.013 C 
HETATM    3  C3  UNL     1     -33.980   5.024   3.669  1.00 20.00     0.140 C 
HETATM    4  C4  UNL     1     -32.726   5.060   2.816  1.00 20.00     0.088 C 
HETATM    5  C5  UNL     1     -33.815   7.308   2.637  1.00 20.00     0.035 C 
HETATM    6  C6  UNL     1     -34.660   6.438   3.616  1.00 20.00     0.042 C 
HETATM    7  C7  UNL     1     -32.917   6.289   1.889  1.00 20.00    -0.033 C 
HETATM    8  C8  UNL     1     -36.162   6.425   3.416  1.00 20.00     0.029 C 
HETATM    9  C9  UNL     1     -31.572   6.920   1.516  1.00 20.00     0.016 C 
HETATM   10  C10 UNL     1     -33.640   5.857   0.598  1.00 20.00     0.016 C 
HETATM   11  O11 UNL     1     -34.319   4.038   4.313  1.00 20.00    -0.297 OA
ENDROOT
TORSDOF 0
ENDMDL
MODEL 2
REMARK VINA RESULT:       1.6      2.104      3.770
REMARK  0 active torsions:
REMARK  status: ('A' for Active; 'I' for Inactive)
ROOT
HETATM    1  C1  UNL     1     -32.488   5.674   1.714  1.00 20.00    -0.023 C 
HETATM    2  C2  UNL     1     -31.533   6.599   1.499  1.00 20.00    -0.013 C 
HETATM    3  C3  UNL     1     -32.135   8.228   3.356  1.00 20.00     0.140 C 
HETATM    4  C4  UNL     1     -33.012   7.432   4.303  1.00 20.00     0.088 C 
HETATM    5  C5  UNL     1     -33.577   6.705   1.974  1.00 20.00     0.035 C 
HETATM    6  C6  UNL     1     -32.432   7.759   1.888  1.00 20.00     0.042 C 
HETATM    7  C7  UNL     1     -34.147   6.868   3.407  1.00 20.00    -0.033 C 
HETATM    8  C8  UNL     1     -32.586   8.873   0.872  1.00 20.00     0.029 C 
HETATM    9  C9  UNL     1     -34.665   5.529   3.941  1.00 20.00     0.016 C 
HETATM   10  C10 UNL     1     -35.315   7.871   3.357  1.00 20.00     0.016 C 
HETATM   11  O11 UNL     1     -31.310   9.049   3.743  1.00 20.00    -0.297 OA
ENDROOT
TORSDOF 0
ENDMDL
MODEL 3
REMARK VINA RESULT:       3.1      1.393      3.022
REMARK  0 active torsions:
REMARK  status: ('A' for Active; 'I' for Inactive)
ROOT
HETATM    1  C1  UNL     1     -32.944   5.899   0.591  1.00 20.00    -0.023 C 
HETATM    2  C2  UNL     1     -33.737   5.079   1.307  1.00 20.00    -0.013 C 
HETATM    3  C3  UNL     1     -34.297   6.649   3.227  1.00 20.00     0.140 C 
HETATM    4  C4  UNL     1     -33.951   8.033   2.713  1.00 20.00     0.088 C 
HETATM    5  C5  UNL     1     -32.229   6.451   1.816  1.00 20.00     0.035 C 
HETATM    6  C6  UNL     1     -33.262   5.626   2.642  1.00 20.00     0.042 C 
HETATM    7  C7  UNL     1     -32.476   7.921   2.246  1.00 20.00    -0.033 C 
HETATM    8  C8  UNL     1     -32.714   4.620   3.635  1.00 20.00     0.029 C 
HETATM    9  C9  UNL     1     -32.182   8.881   1.089  1.00 20.00     0.016 C 
HETATM   10  C10 UNL     1     -31.534   8.251   3.419  1.00 20.00     0.016 C 
HETATM   11  O11 UNL     1     -35.272   6.427   3.937  1.00 20.00    -0.297 OA
ENDROOT
TORSDOF 0
ENDMDL
MODEL 4
REMARK VINA RESULT:       3.2      1.829      2.875
REMARK  0 active torsions:
REMARK  status: ('A' for Active; 'I' for Inactive)
ROOT
HETATM    1  C1  UNL     1     -33.811   6.579   3.515  1.00 20.00    -0.023 C 
HETATM    2  C2  UNL     1     -33.842   5.395   2.873  1.00 20.00    -0.013 C 
HETATM    3  C3  UNL     1     -31.873   5.747   1.303  1.00 20.00     0.140 C 
HETATM    4  C4  UNL     1     -31.097   6.903   1.904  1.00 20.00     0.088 C 
HETATM    5  C5  UNL     1     -33.531   7.378   2.251  1.00 20.00     0.035 C 
HETATM    6  C6  UNL     1     -33.404   5.993   1.548  1.00 20.00     0.042 C 
HETATM    7  C7  UNL     1     -32.142   8.039   2.058  1.00 20.00    -0.033 C 
HETATM    8  C8  UNL     1     -34.300   5.734   0.353  1.00 20.00     0.029 C 
HETATM    9  C9  UNL     1     -31.804   8.949   3.244  1.00 20.00     0.016 C 
HETATM   10  C10 UNL     1     -32.179   8.888   0.774  1.00 20.00     0.016 C 
HETATM   11  O11 UNL     1     -31.330   4.783   0.775  1.00 20.00    -0.297 OA
ENDROOT
TORSDOF 0
ENDMDL
MODEL 5
REMARK VINA RESULT:       3.4      1.779      3.472
REMARK  0 active torsions:
REMARK  status: ('A' for Active; 'I' for Inactive)
ROOT
HETATM    1  C1  UNL     1     -32.143   8.059   2.404  1.00 20.00    -0.023 C 
HETATM    2  C2  UNL     1     -31.896   7.596   1.164  1.00 20.00    -0.013 C 
HETATM    3  C3  UNL     1     -33.881   6.024   0.927  1.00 20.00     0.140 C 
HETATM    4  C4  UNL     1     -34.856   6.464   2.001  1.00 20.00     0.088 C 
HETATM    5  C5  UNL     1     -32.549   6.697   2.948  1.00 20.00     0.035 C 
HETATM    6  C6  UNL     1     -32.421   6.205   1.474  1.00 20.00     0.042 C 
HETATM    7  C7  UNL     1     -34.032   6.434   3.316  1.00 20.00    -0.033 C 
HETATM    8  C8  UNL     1     -31.482   5.047   1.206  1.00 20.00     0.029 C 
HETATM    9  C9  UNL     1     -34.537   7.479   4.315  1.00 20.00     0.016 C 
HETATM   10  C10 UNL     1     -34.135   5.038   3.960  1.00 20.00     0.016 C 
HETATM   11  O11 UNL     1     -34.238   5.652  -0.185  1.00 20.00    -0.297 OA
ENDROOT
TORSDOF 0
ENDMDL
MODEL 6
REMARK VINA RESULT:       3.7      1.742      2.762
REMARK  0 active torsions:
REMARK  status: ('A' for Active; 'I' for Inactive)
ROOT
HETATM    1  C1  UNL     1     -30.746   7.535   2.005  1.00 20.00    -0.023 C 
HETATM    2  C2  UNL     1     -31.324   8.482   2.768  1.00 20.00    -0.013 C 
HETATM    3  C3  UNL     1     -33.577   7.364   3.144  1.00 20.00     0.140 C 
HETATM    4  C4  UNL     1     -33.351   5.905   2.797  1.00 20.00     0.088 C 
HETATM    5  C5  UNL     1     -32.003   7.273   1.188  1.00 20.00     0.035 C 
HETATM    6  C6  UNL     1     -32.705   8.247   2.183  1.00 20.00     0.042 C 
HETATM    7  C7  UNL     1     -32.760   5.931   1.362  1.00 20.00    -0.033 C 
HETATM    8  C8  UNL     1     -33.411   9.453   1.595  1.00 20.00     0.029 C 
HETATM    9  C9  UNL     1     -31.821   4.744   1.125  1.00 20.00     0.016 C 
HETATM   10  C10 UNL     1     -33.902   5.877   0.329  1.00 20.00     0.016 C 
HETATM   11  O11 UNL     1     -34.293   7.725   4.072  1.00 20.00    -0.297 OA
ENDROOT
TORSDOF 0
ENDMDL
