MODEL 1
REMARK VINA RESULT:       4.7      0.000      0.000
REMARK  0 active torsions:
REMARK  status: ('A' for Active; 'I' for Inactive)
ROOT
HETATM    1  C1  UNL     1     -34.188   6.342   1.162  1.00 20.00    -0.002 C 
HETATM    2  C2  UNL     1     -32.395   7.360   2.593  1.00 20.00    -0.002 C 
HETATM    3  C3  UNL     1     -35.297   6.530   1.894  1.00 20.00    -0.022 C 
HETATM    4  C4  UNL     1     -33.078   7.789   3.667  1.00 20.00    -0.022 C 
HETATM    5  C5  UNL     1     -33.557   4.729   3.717  1.00 20.00     0.079 C 
HETATM    6  C6  UNL     1     -32.828   6.182   1.772  1.00 20.00     0.128 C 
HETATM    7  C7  UNL     1     -35.390   6.600   3.358  1.00 20.00     0.028 A 
HETATM    8  C8  UNL     1     -34.311   7.213   4.221  1.00 20.00     0.028 A 
HETATM    9  C9  UNL     1     -34.541   5.717   4.248  1.00 20.00     0.063 A 
HETATM   10  N10 UNL     1     -32.800   4.976   2.592  1.00 20.00    -0.373 N 
HETATM   11  S11 UNL     1     -33.417   3.293   4.563  1.00 20.00    -0.065 SA
HETATM   12  H20 UNL     1     -32.156   4.244   2.306  1.00 20.00     0.161 HD
ENDROOT
TORSDOF 0
ENDMDL
MODEL 2
REMARK VINA RESULT:       5.2      1.031      2.764
REMARK  0 active torsions:
REMARK  status: ('A' for Active; 'I' for Inactive)
ROOT
HETATM    1  C1  UNL     1     -34.151   7.602   4.346  1.00 20.00    -0.002 C 
HETATM    2  C2  UNL     1     -35.726   6.621   2.656  1.00 20.00    -0.002 C 
HETATM    3  C3  UNL     1     -32.976   7.596   3.698  1.00 20.00    -0.022 C 
HETATM    4  C4  UNL     1     -34.925   6.380   1.606  1.00 20.00    -0.022 C 
HETATM    5  C5  UNL     1     -33.715   4.590   3.827  1.00 20.00     0.079 C 
HETATM    6  C6  UNL     1     -35.235   6.603   4.074  1.00 20.00     0.128 C 
HETATM    7  C7  UNL     1     -32.543   6.653   2.659  1.00 20.00     0.028 A 
HETATM    8  C8  UNL     1     -33.491   6.060   1.641  1.00 20.00     0.028 A 
HETATM    9  C9  UNL     1     -32.902   5.183   2.725  1.00 20.00     0.063 A 
HETATM   10  N10 UNL     1     -34.764   5.265   4.413  1.00 20.00    -0.373 N 
HETATM   11  S11 UNL     1     -33.286   3.051   4.322  1.00 20.00    -0.065 SA
HETATM   12  H20 UNL     1     -35.259   4.782   5.157  1.00 20.00     0.161 HD
ENDROOT
TORSDOF 0
ENDMDL
MODEL 3
REMARK VINA RESULT:       5.8      1.917      3.210
REMARK  0 active torsions:
REMARK  status: ('A' for Active; 'I' for Inactive)
ROOT
HETATM    1  C1  UNL     1     -30.924   7.104   2.152  1.00 20.00    -0.002 C 
HETATM    2  C2  UNL     1     -32.515   8.656   0.986  1.00 20.00    -0.002 C 
HETATM    3  C3  UNL     1     -31.226   5.911   1.619  1.00 20.00    -0.022 C 
HETATM    4  C4  UNL     1     -33.197   7.831   0.176  1.00 20.00    -0.022 C 
HETATM    5  C5  UNL     1     -33.871   6.746   2.999  1.00 20.00     0.079 C 
HETATM    6  C6  UNL     1     -31.926   8.210   2.292  1.00 20.00     0.128 C 
HETATM    7  C7  UNL     1     -32.531   5.475   1.106  1.00 20.00     0.028 A 
HETATM    8  C8  UNL     1     -33.491   6.409   0.404  1.00 20.00     0.028 A 
HETATM    9  C9  UNL     1     -33.824   5.881   1.783  1.00 20.00     0.063 A 
HETATM   10  N10 UNL     1     -32.994   7.791   3.193  1.00 20.00    -0.373 N 
HETATM   11  S11 UNL     1     -35.053   6.380   4.125  1.00 20.00    -0.065 SA
HETATM   12  H20 UNL     1     -33.103   8.324   4.052  1.00 20.00     0.161 HD
ENDROOT
TORSDOF 0
ENDMDL
MODEL 4
REMARK VINA RESULT:       5.9      2.974      4.042
REMARK  0 active torsions:
REMARK  status: ('A' for Active; 'I' for Inactive)
ROOT
HETATM    1  C1  UNL     1     -32.442   5.623   1.304  1.00 20.00    -0.002 C 
HETATM    2  C2  UNL     1     -34.120   6.792   2.759  1.00 20.00    -0.002 C 
HETATM    3  C3  UNL     1     -31.271   6.091   1.764  1.00 20.00    -0.022 C 
HETATM    4  C4  UNL     1     -33.348   7.538   3.565  1.00 20.00    -0.022 C 
HETATM    5  C5  UNL     1     -32.692   8.650   0.749  1.00 20.00     0.079 C 
HETATM    6  C6  UNL     1     -33.714   6.414   1.365  1.00 20.00     0.128 C 
HETATM    7  C7  UNL     1     -31.020   7.403   2.374  1.00 20.00     0.028 A 
HETATM    8  C8  UNL     1     -32.030   8.108   3.251  1.00 20.00     0.028 A 
HETATM    9  C9  UNL     1     -31.712   8.653   1.875  1.00 20.00     0.063 A 
HETATM   10  N10 UNL     1     -33.582   7.617   0.550  1.00 20.00    -0.373 N 
HETATM   11  S11 UNL     1     -32.654   9.974  -0.272  1.00 20.00    -0.065 SA
HETATM   12  H20 UNL     1     -34.210   7.702  -0.244  1.00 20.00     0.161 HD
ENDROOT
TORSDOF 0
ENDMDL
MODEL 5
REMARK VINA RESULT:       5.9      2.106      3.090
REMARK  0 active torsions:
REMARK  status: ('A' for Active; 'I' for Inactive)
ROOT
HETATM    1  C1  UNL     1     -33.750   6.492   0.339  1.00 20.00    -0.002 C 
HETATM    2  C2  UNL     1     -31.870   5.303   1.502  1.00 20.00    -0.002 C 
HETATM    3  C3  UNL     1     -33.277   7.740   0.205  1.00 20.00    -0.022 C 
HETATM    4  C4  UNL     1     -30.949   6.270   1.646  1.00 20.00    -0.022 C 
HETATM    5  C5  UNL     1     -33.351   7.350   3.278  1.00 20.00     0.079 C 
HETATM    6  C6  UNL     1     -33.343   5.583   1.460  1.00 20.00     0.128 C 
HETATM    7  C7  UNL     1     -32.327   8.426   1.090  1.00 20.00     0.028 A 
HETATM    8  C8  UNL     1     -31.194   7.711   1.792  1.00 20.00     0.028 A 
HETATM    9  C9  UNL     1     -32.366   8.237   2.592  1.00 20.00     0.063 A 
HETATM   10  N10 UNL     1     -33.770   6.155   2.732  1.00 20.00    -0.373 N 
HETATM   11  S11 UNL     1     -33.929   7.882   4.754  1.00 20.00    -0.065 SA
HETATM   12  H20 UNL     1     -34.443   5.619   3.271  1.00 20.00     0.161 HD
ENDROOT
TORSDOF 0
ENDMDL
MODEL 6
REMARK VINA RESULT:       6.2      3.185      4.225
REMARK  0 active torsions:
REMARK  status: ('A' for Active; 'I' for Inactive)
ROOT
HETATM    1  C1  UNL     1     -33.894   6.709   2.594  1.00 20.00    -0.002 C 
HETATM    2  C2  UNL     1     -32.666   8.350   4.044  1.00 20.00    -0.002 C 
HETATM    3  C3  UNL     1     -32.913   6.175   1.851  1.00 20.00    -0.022 C 
HETATM    4  C4  UNL     1     -31.393   8.206   3.644  1.00 20.00    -0.022 C 
HETATM    5  C5  UNL     1     -32.823   9.172   1.071  1.00 20.00     0.079 C 
HETATM    6  C6  UNL     1     -33.836   8.106   3.136  1.00 20.00     0.128 C 
HETATM    7  C7  UNL     1     -31.663   6.824   1.437  1.00 20.00     0.028 A 
HETATM    8  C8  UNL     1     -30.922   7.813   2.309  1.00 20.00     0.028 A 
HETATM    9  C9  UNL     1     -31.620   8.288   1.052  1.00 20.00     0.063 A 
HETATM   10  N10 UNL     1     -33.805   9.058   2.031  1.00 20.00    -0.373 N 
HETATM   11  S11 UNL     1     -32.921  10.318  -0.143  1.00 20.00    -0.065 SA
HETATM   12  H20 UNL     1     -34.587   9.703   1.962  1.00 20.00     0.161 HD
ENDROOT
TORSDOF 0
ENDMDL
MODEL 7
REMARK VINA RESULT:       6.4      2.002      3.499
REMARK  0 active torsions:
REMARK  status: ('A' for Active; 'I' for Inactive)
ROOT
HETATM    1  C1  UNL     1     -32.779   8.040   4.558  1.00 20.00    -0.002 C 
HETATM    2  C2  UNL     1     -34.549   8.661   2.890  1.00 20.00    -0.002 C 
HETATM    3  C3  UNL     1     -31.653   8.483   3.977  1.00 20.00    -0.022 C 
HETATM    4  C4  UNL     1     -33.844   9.250   1.912  1.00 20.00    -0.022 C 
HETATM    5  C5  UNL     1     -32.693   6.374   1.960  1.00 20.00     0.079 C 
HETATM    6  C6  UNL     1     -33.976   7.593   3.775  1.00 20.00     0.128 C 
HETATM    7  C7  UNL     1     -31.386   8.599   2.538  1.00 20.00     0.028 A 
HETATM    8  C8  UNL     1     -32.452   8.972   1.532  1.00 20.00     0.028 A 
HETATM    9  C9  UNL     1     -31.892   7.566   1.553  1.00 20.00     0.063 A 
HETATM   10  N10 UNL     1     -33.628   6.426   2.972  1.00 20.00    -0.373 N 
HETATM   11  S11 UNL     1     -32.397   4.959   1.120  1.00 20.00    -0.065 SA
HETATM   12  H20 UNL     1     -34.124   5.564   3.179  1.00 20.00     0.161 HD
ENDROOT
TORSDOF 0
ENDMDL
MODEL 8
REMARK VINA RESULT:       6.8      2.113      3.272
REMARK  0 active torsions:
REMARK  status: ('A' for Active; 'I' for Inactive)
ROOT
HETATM    1  C1  UNL     1     -35.691   6.661   2.858  1.00 20.00    -0.002 C 
HETATM    2  C2  UNL     1     -34.290   5.176   4.318  1.00 20.00    -0.002 C 
HETATM    3  C3  UNL     1     -35.177   6.449   1.636  1.00 20.00    -0.022 C 
HETATM    4  C4  UNL     1     -33.442   4.612   3.443  1.00 20.00    -0.022 C 
HETATM    5  C5  UNL     1     -32.780   7.629   3.204  1.00 20.00     0.079 C 
HETATM    6  C6  UNL     1     -34.881   6.540   4.113  1.00 20.00     0.128 C 
HETATM    7  C7  UNL     1     -33.792   6.087   1.309  1.00 20.00     0.028 A 
HETATM    8  C8  UNL     1     -32.947   5.193   2.188  1.00 20.00     0.028 A 
HETATM    9  C9  UNL     1     -32.621   6.667   2.074  1.00 20.00     0.063 A 
HETATM   10  N10 UNL     1     -33.817   7.538   4.107  1.00 20.00    -0.373 N 
HETATM   11  S11 UNL     1     -31.626   8.834   3.321  1.00 20.00    -0.065 SA
HETATM   12  H20 UNL     1     -33.844   8.238   4.842  1.00 20.00     0.161 HD
ENDROOT
TORSDOF 0
ENDMDL
MODEL 9
REMARK VINA RESULT:       7.1      1.582      1.962
REMARK  0 active torsions:
REMARK  status: ('A' for Active; 'I' for Inactive)
ROOT
HETATM    1  C1  UNL     1     -33.029   8.683   1.326  1.00 20.00    -0.002 C 
HETATM    2  C2  UNL     1     -31.166   8.278   2.959  1.00 20.00    -0.002 C 
HETATM    3  C3  UNL     1     -34.050   9.039   2.120  1.00 20.00    -0.022 C 
HETATM    4  C4  UNL     1     -31.745   8.536   4.142  1.00 20.00    -0.022 C 
HETATM    5  C5  UNL     1     -33.409   6.157   3.060  1.00 20.00     0.079 C 
HETATM    6  C6  UNL     1     -31.931   7.766   1.774  1.00 20.00     0.128 C 
HETATM    7  C7  UNL     1     -34.284   8.612   3.506  1.00 20.00     0.028 A 
HETATM    8  C8  UNL     1     -33.163   8.367   4.490  1.00 20.00     0.028 A 
HETATM    9  C9  UNL     1     -33.973   7.202   3.963  1.00 20.00     0.063 A 
HETATM   10  N10 UNL     1     -32.486   6.452   2.079  1.00 20.00    -0.373 N 
HETATM   11  S11 UNL     1     -33.957   4.595   3.297  1.00 20.00    -0.065 SA
HETATM   12  H20 UNL     1     -32.159   5.675   1.512  1.00 20.00     0.161 HD
ENDROOT
TORSDOF 0
ENDMDL
