MODEL 1
REMARK VINA RESULT:       4.5      0.000      0.000
REMARK  0 active torsions:
REMARK  status: ('A' for Active; 'I' for Inactive)
ROOT
HETATM    1  C1  UNL     1     -35.393   5.296   4.825  1.00 20.00    -0.017 C 
HETATM    2  C2  UNL     1     -35.748   6.382   4.066  1.00 20.00    -0.019 C 
HETATM    3  C3  UNL     1     -33.233   4.098   3.680  1.00 20.00     0.136 C 
HETATM    4  C4  UNL     1     -32.612   4.146   2.273  1.00 20.00     0.083 C 
HETATM    5  C5  UNL     1     -31.807   8.709   2.745  1.00 20.00     0.000 C 
HETATM    6  C6  UNL     1     -31.629   7.873   1.473  1.00 20.00     0.000 C 
HETATM    7  C7  UNL     1     -33.118   8.547   3.517  1.00 20.00     0.001 C 
HETATM    8  C8  UNL     1     -31.515   6.368   1.714  1.00 20.00     0.005 C 
HETATM    9  C9  UNL     1     -33.325   7.159   4.129  1.00 20.00     0.014 C 
HETATM   10  C10 UNL     1     -34.155   6.249   1.850  1.00 20.00     0.019 C 
HETATM   11  C11 UNL     1     -34.587   4.787   3.665  1.00 20.00     0.090 C 
HETATM   12  C12 UNL     1     -32.802   5.523   1.542  1.00 20.00    -0.007 C 
HETATM   13  C13 UNL     1     -34.379   6.317   3.359  1.00 20.00    -0.009 C 
HETATM   14  O14 UNL     1     -32.698   3.522   4.624  1.00 20.00    -0.297 OA
ENDROOT
TORSDOF 0
ENDMDL
MODEL 2
REMARK VINA RESULT:       5.3      1.676      4.346
REMARK  0 active torsions:
REMARK  status: ('A' for Active; 'I' for Inactive)
ROOT
HETATM    1  C1  UNL     1     -31.365   6.305   0.987  1.00 20.00    -0.017 C 
HETATM    2  C2  UNL     1     -32.311   5.353   0.709  1.00 20.00    -0.019 C 
HETATM    3  C3  UNL     1     -32.372   8.021   2.846  1.00 20.00     0.136 C 
HETATM    4  C4  UNL     1     -33.795   8.350   3.328  1.00 20.00     0.083 C 
HETATM    5  C5  UNL     1     -34.358   3.961   4.779  1.00 20.00     0.000 C 
HETATM    6  C6  UNL     1     -35.433   5.052   4.719  1.00 20.00     0.000 C 
HETATM    7  C7  UNL     1     -33.483   3.764   3.539  1.00 20.00     0.001 C 
HETATM    8  C8  UNL     1     -34.885   6.477   4.653  1.00 20.00     0.005 C 
HETATM    9  C9  UNL     1     -32.577   4.955   3.209  1.00 20.00     0.014 C 
HETATM   10  C10 UNL     1     -34.550   6.166   2.047  1.00 20.00     0.019 C 
HETATM   11  C11 UNL     1     -32.441   7.152   1.601  1.00 20.00     0.090 C 
HETATM   12  C12 UNL     1     -34.788   7.135   3.254  1.00 20.00    -0.007 C 
HETATM   13  C13 UNL     1     -33.079   5.765   1.982  1.00 20.00    -0.009 C 
HETATM   14  O14 UNL     1     -31.365   8.470   3.388  1.00 20.00    -0.297 OA
ENDROOT
TORSDOF 0
ENDMDL
MODEL 3
REMARK VINA RESULT:       5.5      1.907      3.659
REMARK  0 active torsions:
REMARK  status: ('A' for Active; 'I' for Inactive)
ROOT
HETATM    1  C1  UNL     1     -33.044   4.854   1.588  1.00 20.00    -0.017 C 
HETATM    2  C2  UNL     1     -31.946   5.354   0.938  1.00 20.00    -0.019 C 
HETATM    3  C3  UNL     1     -34.023   6.775   3.252  1.00 20.00     0.136 C 
HETATM    4  C4  UNL     1     -33.431   8.060   3.857  1.00 20.00     0.083 C 
HETATM    5  C5  UNL     1     -32.840   9.835  -0.408  1.00 20.00     0.000 C 
HETATM    6  C6  UNL     1     -32.335  10.430   0.911  1.00 20.00     0.000 C 
HETATM    7  C7  UNL     1     -32.580   8.347  -0.656  1.00 20.00     0.001 C 
HETATM    8  C8  UNL     1     -33.051   9.909   2.156  1.00 20.00     0.005 C 
HETATM    9  C9  UNL     1     -33.310   7.408   0.308  1.00 20.00     0.014 C 
HETATM   10  C10 UNL     1     -31.476   7.782   2.100  1.00 20.00     0.019 C 
HETATM   11  C11 UNL     1     -32.920   5.967   2.589  1.00 20.00     0.090 C 
HETATM   12  C12 UNL     1     -32.365   8.761   2.939  1.00 20.00    -0.007 C 
HETATM   13  C13 UNL     1     -32.359   6.778   1.363  1.00 20.00    -0.009 C 
HETATM   14  O14 UNL     1     -35.206   6.468   3.371  1.00 20.00    -0.297 OA
ENDROOT
TORSDOF 0
ENDMDL
MODEL 4
REMARK VINA RESULT:       6.0      1.682      3.093
REMARK  0 active torsions:
REMARK  status: ('A' for Active; 'I' for Inactive)
ROOT
HETATM    1  C1  UNL     1     -34.764   4.094   4.056  1.00 20.00    -0.017 C 
HETATM    2  C2  UNL     1     -33.395   4.060   4.097  1.00 20.00    -0.019 C 
HETATM    3  C3  UNL     1     -35.563   6.670   3.680  1.00 20.00     0.136 C 
HETATM    4  C4  UNL     1     -34.878   8.034   3.873  1.00 20.00     0.083 C 
HETATM    5  C5  UNL     1     -31.666   6.909   0.693  1.00 20.00     0.000 C 
HETATM    6  C6  UNL     1     -31.666   8.145   1.599  1.00 20.00     0.000 C 
HETATM    7  C7  UNL     1     -31.936   5.553   1.350  1.00 20.00     0.001 C 
HETATM    8  C8  UNL     1     -33.030   8.496   2.192  1.00 20.00     0.005 C 
HETATM    9  C9  UNL     1     -33.343   5.403   1.936  1.00 20.00     0.014 C 
HETATM   10  C10 UNL     1     -32.618   6.679   4.070  1.00 20.00     0.019 C 
HETATM   11  C11 UNL     1     -34.704   5.575   4.291  1.00 20.00     0.090 C 
HETATM   12  C12 UNL     1     -33.326   8.005   3.631  1.00 20.00    -0.007 C 
HETATM   13  C13 UNL     1     -33.355   5.476   3.487  1.00 20.00    -0.009 C 
HETATM   14  O14 UNL     1     -36.668   6.548   3.159  1.00 20.00    -0.297 OA
ENDROOT
TORSDOF 0
ENDMDL
MODEL 5
REMARK VINA RESULT:       7.1      1.776      4.349
REMARK  0 active torsions:
REMARK  status: ('A' for Active; 'I' for Inactive)
ROOT
HETATM    1  C1  UNL     1     -31.690   8.858   1.191  1.00 20.00    -0.017 C 
HETATM    2  C2  UNL     1     -32.469   8.008   0.449  1.00 20.00    -0.019 C 
HETATM    3  C3  UNL     1     -32.412   8.641   3.808  1.00 20.00     0.136 C 
HETATM    4  C4  UNL     1     -33.662   8.102   4.525  1.00 20.00     0.083 C 
HETATM    5  C5  UNL     1     -32.887   3.863   2.757  1.00 20.00     0.000 C 
HETATM    6  C6  UNL     1     -34.124   4.318   3.541  1.00 20.00     0.000 C 
HETATM    7  C7  UNL     1     -32.403   4.763   1.619  1.00 20.00     0.001 C 
HETATM    8  C8  UNL     1     -33.913   5.578   4.380  1.00 20.00     0.005 C 
HETATM    9  C9  UNL     1     -31.891   6.134   2.070  1.00 20.00     0.014 C 
HETATM   10  C10 UNL     1     -34.319   7.026   2.202  1.00 20.00     0.019 C 
HETATM   11  C11 UNL     1     -32.678   8.733   2.315  1.00 20.00     0.090 C 
HETATM   12  C12 UNL     1     -34.371   6.924   3.764  1.00 20.00    -0.007 C 
HETATM   13  C13 UNL     1     -32.886   7.281   1.743  1.00 20.00    -0.009 C 
HETATM   14  O14 UNL     1     -31.399   8.989   4.408  1.00 20.00    -0.297 OA
ENDROOT
TORSDOF 0
ENDMDL
