MODEL 1
REMARK VINA RESULT:      -2.2      0.000      0.000
REMARK  1 active torsions:
REMARK  status: ('A' for Active; 'I' for Inactive)
REMARK    1  A    between atoms: C3_3  and  C7_7 
ROOT
HETATM    1  C1  UNL     1     -32.463   6.206   1.731  1.00 20.00     0.259 C 
HETATM    2  C4  UNL     1     -32.217   7.689   1.642  1.00 20.00     0.111 C 
HETATM    3  C5  UNL     1     -32.176   8.309   3.030  1.00 20.00     0.013 C 
HETATM    4  C6  UNL     1     -33.348   7.866   3.904  1.00 20.00     0.037 C 
HETATM    5  C7  UNL     1     -34.265   6.889   3.175  1.00 20.00     0.154 C 
HETATM    6  O8  UNL     1     -31.819   5.385   1.084  1.00 20.00    -0.265 OA
HETATM    7  O9  UNL     1     -33.481   5.846   2.558  1.00 20.00    -0.312 OA
ENDROOT
BRANCH   5   8
HETATM    8  C3  UNL     1     -35.242   6.247   4.105  1.00 20.00    -0.005 C 
HETATM    9  C2  UNL     1     -35.174   4.969   4.496  1.00 20.00     0.009 C 
ENDBRANCH   5   8
TORSDOF 1
ENDMDL
MODEL 2
REMARK VINA RESULT:      -2.0      1.765      2.315
REMARK  1 active torsions:
REMARK  status: ('A' for Active; 'I' for Inactive)
REMARK    1  A    between atoms: C3_3  and  C7_7 
ROOT
HETATM    1  C1  UNL     1     -32.323   8.448   1.437  1.00 20.00     0.259 C 
HETATM    2  C4  UNL     1     -31.374   7.284   1.321  1.00 20.00     0.111 C 
HETATM    3  C5  UNL     1     -32.141   5.973   1.259  1.00 20.00     0.013 C 
HETATM    4  C6  UNL     1     -33.215   5.870   2.341  1.00 20.00     0.037 C 
HETATM    5  C7  UNL     1     -33.269   7.122   3.211  1.00 20.00     0.154 C 
HETATM    6  O8  UNL     1     -32.210   9.467   0.762  1.00 20.00    -0.265 OA
HETATM    7  O9  UNL     1     -33.295   8.299   2.376  1.00 20.00    -0.312 OA
ENDROOT
BRANCH   5   8
HETATM    8  C3  UNL     1     -34.484   7.141   4.079  1.00 20.00    -0.005 C 
HETATM    9  C2  UNL     1     -35.404   6.169   4.099  1.00 20.00     0.009 C 
ENDBRANCH   5   8
TORSDOF 1
ENDMDL
MODEL 3
REMARK VINA RESULT:      -1.9      1.758      4.063
REMARK  1 active torsions:
REMARK  status: ('A' for Active; 'I' for Inactive)
REMARK    1  A    between atoms: C3_3  and  C7_7 
ROOT
HETATM    1  C1  UNL     1     -33.758   7.575   4.056  1.00 20.00     0.259 C 
HETATM    2  C4  UNL     1     -34.518   6.377   3.551  1.00 20.00     0.111 C 
HETATM    3  C5  UNL     1     -33.588   5.422   2.820  1.00 20.00     0.013 C 
HETATM    4  C6  UNL     1     -32.694   6.135   1.807  1.00 20.00     0.037 C 
HETATM    5  C7  UNL     1     -32.939   7.641   1.792  1.00 20.00     0.154 C 
HETATM    6  O8  UNL     1     -33.894   8.018   5.192  1.00 20.00    -0.265 OA
HETATM    7  O9  UNL     1     -32.934   8.153   3.141  1.00 20.00    -0.312 OA
ENDROOT
BRANCH   5   8
HETATM    8  C3  UNL     1     -31.888   8.365   1.016  1.00 20.00    -0.005 C 
HETATM    9  C2  UNL     1     -32.109   9.493   0.331  1.00 20.00     0.009 C 
ENDBRANCH   5   8
TORSDOF 1
ENDMDL
MODEL 4
REMARK VINA RESULT:      -1.0      1.655      3.820
REMARK  1 active torsions:
REMARK  status: ('A' for Active; 'I' for Inactive)
REMARK    1  A    between atoms: C3_3  and  C7_7 
ROOT
HETATM    1  C1  UNL     1     -34.147   7.361   4.079  1.00 20.00     0.259 C 
HETATM    2  C4  UNL     1     -35.238   6.325   4.147  1.00 20.00     0.111 C 
HETATM    3  C5  UNL     1     -34.647   4.924   4.140  1.00 20.00     0.013 C 
HETATM    4  C6  UNL     1     -33.599   4.736   3.045  1.00 20.00     0.037 C 
HETATM    5  C7  UNL     1     -33.385   6.012   2.236  1.00 20.00     0.154 C 
HETATM    6  O8  UNL     1     -34.124   8.352   4.803  1.00 20.00    -0.265 OA
HETATM    7  O9  UNL     1     -33.204   7.134   3.126  1.00 20.00    -0.312 OA
ENDROOT
BRANCH   5   8
HETATM    8  C3  UNL     1     -32.180   5.916   1.358  1.00 20.00    -0.005 C 
HETATM    9  C2  UNL     1     -31.795   4.794   0.738  1.00 20.00     0.009 C 
ENDBRANCH   5   8
TORSDOF 1
ENDMDL
MODEL 5
REMARK VINA RESULT:      -1.0      1.868      2.854
REMARK  1 active torsions:
REMARK  status: ('A' for Active; 'I' for Inactive)
REMARK    1  A    between atoms: C3_3  and  C7_7 
ROOT
HETATM    1  C1  UNL     1     -33.946   7.361   3.567  1.00 20.00     0.259 C 
HETATM    2  C4  UNL     1     -32.725   7.552   2.707  1.00 20.00     0.111 C 
HETATM    3  C5  UNL     1     -32.728   6.569   1.547  1.00 20.00     0.013 C 
HETATM    4  C6  UNL     1     -33.028   5.139   1.993  1.00 20.00     0.037 C 
HETATM    5  C7  UNL     1     -33.273   5.050   3.496  1.00 20.00     0.154 C 
HETATM    6  O8  UNL     1     -34.632   8.297   3.965  1.00 20.00    -0.265 OA
HETATM    7  O9  UNL     1     -34.210   6.070   3.902  1.00 20.00    -0.312 OA
ENDROOT
BRANCH   5   8
HETATM    8  C3  UNL     1     -33.832   3.722   3.888  1.00 20.00    -0.005 C 
HETATM    9  C2  UNL     1     -33.218   2.866   4.713  1.00 20.00     0.009 C 
ENDBRANCH   5   8
TORSDOF 1
ENDMDL
MODEL 6
REMARK VINA RESULT:      -0.9      1.343      3.605
REMARK  1 active torsions:
REMARK  status: ('A' for Active; 'I' for Inactive)
REMARK    1  A    between atoms: C3_3  and  C7_7 
ROOT
HETATM    1  C1  UNL     1     -33.954   4.277   3.933  1.00 20.00     0.259 C 
HETATM    2  C4  UNL     1     -34.820   5.147   4.807  1.00 20.00     0.111 C 
HETATM    3  C5  UNL     1     -35.603   6.140   3.964  1.00 20.00     0.013 C 
HETATM    4  C6  UNL     1     -34.726   6.863   2.943  1.00 20.00     0.037 C 
HETATM    5  C7  UNL     1     -33.276   6.393   3.004  1.00 20.00     0.154 C 
HETATM    6  O8  UNL     1     -33.883   3.060   4.069  1.00 20.00    -0.265 OA
HETATM    7  O9  UNL     1     -33.226   4.951   3.003  1.00 20.00    -0.312 OA
ENDROOT
BRANCH   5   8
HETATM    8  C3  UNL     1     -32.484   6.887   1.838  1.00 20.00    -0.005 C 
HETATM    9  C2  UNL     1     -31.958   8.115   1.757  1.00 20.00     0.009 C 
ENDBRANCH   5   8
TORSDOF 1
ENDMDL
MODEL 7
REMARK VINA RESULT:      -0.9      1.350      3.301
REMARK  1 active torsions:
REMARK  status: ('A' for Active; 'I' for Inactive)
REMARK    1  A    between atoms: C3_3  and  C7_7 
ROOT
HETATM    1  C1  UNL     1     -32.918   5.606   1.496  1.00 20.00     0.259 C 
HETATM    2  C4  UNL     1     -33.257   5.389   2.948  1.00 20.00     0.111 C 
HETATM    3  C5  UNL     1     -34.139   6.514   3.465  1.00 20.00     0.013 C 
HETATM    4  C6  UNL     1     -33.606   7.896   3.091  1.00 20.00     0.037 C 
HETATM    5  C7  UNL     1     -32.324   7.808   2.267  1.00 20.00     0.154 C 
HETATM    6  O8  UNL     1     -32.985   4.713   0.657  1.00 20.00    -0.265 OA
HETATM    7  O9  UNL     1     -32.495   6.862   1.191  1.00 20.00    -0.312 OA
ENDROOT
BRANCH   5   8
HETATM    8  C3  UNL     1     -31.958   9.128   1.672  1.00 20.00    -0.005 C 
HETATM    9  C2  UNL     1     -32.367   9.545   0.468  1.00 20.00     0.009 C 
ENDBRANCH   5   8
TORSDOF 1
ENDMDL
MODEL 8
REMARK VINA RESULT:      -0.8      1.305      3.326
REMARK  1 active torsions:
REMARK  status: ('A' for Active; 'I' for Inactive)
REMARK    1  A    between atoms: C3_3  and  C7_7 
ROOT
HETATM    1  C1  UNL     1     -34.262   6.643   3.536  1.00 20.00     0.259 C 
HETATM    2  C4  UNL     1     -33.216   7.624   3.998  1.00 20.00     0.111 C 
HETATM    3  C5  UNL     1     -32.640   8.388   2.817  1.00 20.00     0.013 C 
HETATM    4  C6  UNL     1     -32.246   7.470   1.661  1.00 20.00     0.037 C 
HETATM    5  C7  UNL     1     -32.549   6.006   1.968  1.00 20.00     0.154 C 
HETATM    6  O8  UNL     1     -35.348   6.518   4.092  1.00 20.00    -0.265 OA
HETATM    7  O9  UNL     1     -33.895   5.878   2.473  1.00 20.00    -0.312 OA
ENDROOT
BRANCH   5   8
HETATM    8  C3  UNL     1     -32.425   5.149   0.751  1.00 20.00    -0.005 C 
HETATM    9  C2  UNL     1     -31.352   4.401   0.469  1.00 20.00     0.009 C 
ENDBRANCH   5   8
TORSDOF 1
ENDMDL
MODEL 9
REMARK VINA RESULT:      -0.6      1.653      2.807
REMARK  1 active torsions:
REMARK  status: ('A' for Active; 'I' for Inactive)
REMARK    1  A    between atoms: C3_3  and  C7_7 
ROOT
HETATM    1  C1  UNL     1     -33.332   6.488   2.678  1.00 20.00     0.259 C 
HETATM    2  C4  UNL     1     -34.785   6.858   2.821  1.00 20.00     0.111 C 
HETATM    3  C5  UNL     1     -35.297   6.494   4.205  1.00 20.00     0.013 C 
HETATM    4  C6  UNL     1     -34.914   5.072   4.615  1.00 20.00     0.037 C 
HETATM    5  C7  UNL     1     -34.090   4.371   3.539  1.00 20.00     0.154 C 
HETATM    6  O8  UNL     1     -32.498   7.245   2.189  1.00 20.00    -0.265 OA
HETATM    7  O9  UNL     1     -33.019   5.234   3.100  1.00 20.00    -0.312 OA
ENDROOT
BRANCH   5   8
HETATM    8  C3  UNL     1     -33.486   3.102   4.044  1.00 20.00    -0.005 C 
HETATM    9  C2  UNL     1     -32.851   2.991   5.217  1.00 20.00     0.009 C 
ENDBRANCH   5   8
TORSDOF 1
ENDMDL
