MODEL 1
REMARK VINA RESULT:       0.8      0.000      0.000
REMARK  1 active torsions:
REMARK  status: ('A' for Active; 'I' for Inactive)
REMARK    1  A    between atoms: C4_4  and  C11_11 
ROOT
HETATM    1  C1  UNL     1     -34.804   7.131   3.716  1.00 20.00     0.027 A 
HETATM    2  C2  UNL     1     -33.068   5.506   3.350  1.00 20.00     0.034 A 
HETATM    3  C3  UNL     1     -35.563   6.116   4.274  1.00 20.00     0.117 A 
HETATM    4  C4  UNL     1     -33.534   6.813   3.247  1.00 20.00    -0.047 A 
HETATM    5  C5  UNL     1     -33.905   4.564   3.925  1.00 20.00     0.030 A 
HETATM    6  C12 UNL     1     -33.438   3.152   4.052  1.00 20.00     0.070 C 
HETATM    7  N13 UNL     1     -35.145   4.836   4.392  1.00 20.00    -0.266 NA
ENDROOT
BRANCH   4   8
HETATM    8  C11 UNL     1     -32.660   7.889   2.624  1.00 20.00     0.041 C 
HETATM    9  C7  UNL     1     -31.796   7.357   1.505  1.00 20.00    -0.021 C 
HETATM   10  C6  UNL     1     -31.591   8.020   0.358  1.00 20.00    -0.030 C 
HETATM   11  C8  UNL     1     -32.161   9.378   0.080  1.00 20.00     0.027 C 
HETATM   12  C9  UNL     1     -32.698  10.070   1.335  1.00 20.00     0.005 C 
HETATM   13  C10 UNL     1     -33.511   9.102   2.192  1.00 20.00     0.013 C 
ENDBRANCH   4   8
TORSDOF 1
ENDMDL
MODEL 2
REMARK VINA RESULT:       1.5      1.280      2.200
REMARK  1 active torsions:
REMARK  status: ('A' for Active; 'I' for Inactive)
REMARK    1  A    between atoms: C4_4  and  C11_11 
ROOT
HETATM    1  C1  UNL     1     -32.148   6.051   1.656  1.00 20.00     0.027 A 
HETATM    2  C2  UNL     1     -33.721   7.281   2.998  1.00 20.00     0.034 A 
HETATM    3  C3  UNL     1     -32.707   4.889   2.161  1.00 20.00     0.117 A 
HETATM    4  C4  UNL     1     -32.669   7.266   2.087  1.00 20.00    -0.047 A 
HETATM    5  C5  UNL     1     -34.209   6.064   3.442  1.00 20.00     0.030 A 
HETATM    6  C12 UNL     1     -35.337   6.041   4.420  1.00 20.00     0.070 C 
HETATM    7  N13 UNL     1     -33.728   4.863   3.047  1.00 20.00    -0.266 NA
ENDROOT
BRANCH   4   8
HETATM    8  C11 UNL     1     -32.092   8.571   1.565  1.00 20.00     0.041 C 
HETATM    9  C7  UNL     1     -31.521   8.435   0.172  1.00 20.00    -0.021 C 
HETATM   10  C6  UNL     1     -31.691   9.359  -0.784  1.00 20.00    -0.030 C 
HETATM   11  C8  UNL     1     -32.429  10.645  -0.562  1.00 20.00     0.027 C 
HETATM   12  C9  UNL     1     -32.663  10.953   0.918  1.00 20.00     0.005 C 
HETATM   13  C10 UNL     1     -33.128   9.709   1.673  1.00 20.00     0.013 C 
ENDBRANCH   4   8
TORSDOF 1
ENDMDL
MODEL 3
REMARK VINA RESULT:       1.5      2.128      5.408
REMARK  1 active torsions:
REMARK  status: ('A' for Active; 'I' for Inactive)
REMARK    1  A    between atoms: C4_4  and  C11_11 
ROOT
HETATM    1  C1  UNL     1     -31.567   7.127   1.140  1.00 20.00     0.027 A 
HETATM    2  C2  UNL     1     -32.958   8.960   1.842  1.00 20.00     0.034 A 
HETATM    3  C3  UNL     1     -31.140   7.924   0.091  1.00 20.00     0.117 A 
HETATM    4  C4  UNL     1     -32.494   7.662   2.028  1.00 20.00    -0.047 A 
HETATM    5  C5  UNL     1     -32.467   9.674   0.762  1.00 20.00     0.030 A 
HETATM    6  C12 UNL     1     -32.943  11.070   0.531  1.00 20.00     0.070 C 
HETATM    7  N13 UNL     1     -31.567   9.188  -0.122  1.00 20.00    -0.266 NA
ENDROOT
BRANCH   4   8
HETATM    8  C11 UNL     1     -32.998   6.830   3.197  1.00 20.00     0.041 C 
HETATM    9  C7  UNL     1     -34.196   7.452   3.875  1.00 20.00    -0.021 C 
HETATM   10  C6  UNL     1     -35.255   6.742   4.289  1.00 20.00    -0.030 C 
HETATM   11  C8  UNL     1     -35.345   5.250   4.161  1.00 20.00     0.027 C 
HETATM   12  C9  UNL     1     -34.001   4.594   3.840  1.00 20.00     0.005 C 
HETATM   13  C10 UNL     1     -33.252   5.372   2.760  1.00 20.00     0.013 C 
ENDBRANCH   4   8
TORSDOF 1
ENDMDL
MODEL 4
REMARK VINA RESULT:       2.5      0.942      1.068
REMARK  1 active torsions:
REMARK  status: ('A' for Active; 'I' for Inactive)
REMARK    1  A    between atoms: C4_4  and  C11_11 
ROOT
HETATM    1  C1  UNL     1     -33.930   8.016   3.879  1.00 20.00     0.027 A 
HETATM    2  C2  UNL     1     -33.020   6.237   2.539  1.00 20.00     0.034 A 
HETATM    3  C3  UNL     1     -34.638   7.054   4.579  1.00 20.00     0.117 A 
HETATM    4  C4  UNL     1     -33.107   7.592   2.841  1.00 20.00    -0.047 A 
HETATM    5  C5  UNL     1     -33.769   5.355   3.300  1.00 20.00     0.030 A 
HETATM    6  C12 UNL     1     -33.699   3.894   3.005  1.00 20.00     0.070 C 
HETATM    7  N13 UNL     1     -34.579   5.729   4.316  1.00 20.00    -0.266 NA
ENDROOT
BRANCH   4   8
HETATM    8  C11 UNL     1     -32.308   8.607   2.039  1.00 20.00     0.041 C 
HETATM    9  C7  UNL     1     -31.644   7.994   0.828  1.00 20.00    -0.021 C 
HETATM   10  C6  UNL     1     -31.598   8.597  -0.368  1.00 20.00    -0.030 C 
HETATM   11  C8  UNL     1     -32.164   9.962  -0.622  1.00 20.00     0.027 C 
HETATM   12  C9  UNL     1     -32.481  10.728   0.664  1.00 20.00     0.005 C 
HETATM   13  C10 UNL     1     -33.180   9.830   1.683  1.00 20.00     0.013 C 
ENDBRANCH   4   8
TORSDOF 1
ENDMDL
MODEL 5
REMARK VINA RESULT:       2.9      2.102      5.240
REMARK  1 active torsions:
REMARK  status: ('A' for Active; 'I' for Inactive)
REMARK    1  A    between atoms: C4_4  and  C11_11 
ROOT
HETATM    1  C1  UNL     1     -31.609   6.890   1.825  1.00 20.00     0.027 A 
HETATM    2  C2  UNL     1     -33.352   8.465   1.303  1.00 20.00     0.034 A 
HETATM    3  C3  UNL     1     -30.706   7.795   1.294  1.00 20.00     0.117 A 
HETATM    4  C4  UNL     1     -32.956   7.239   1.826  1.00 20.00    -0.047 A 
HETATM    5  C5  UNL     1     -32.370   9.299   0.795  1.00 20.00     0.030 A 
HETATM    6  C12 UNL     1     -32.757  10.623   0.225  1.00 20.00     0.070 C 
HETATM    7  N13 UNL     1     -31.052   8.995   0.776  1.00 20.00    -0.266 NA
ENDROOT
BRANCH   4   8
HETATM    8  C11 UNL     1     -33.990   6.282   2.397  1.00 20.00     0.041 C 
HETATM    9  C7  UNL     1     -33.444   4.885   2.587  1.00 20.00    -0.021 C 
HETATM   10  C6  UNL     1     -33.708   4.135   3.665  1.00 20.00    -0.030 C 
HETATM   11  C8  UNL     1     -34.608   4.583   4.778  1.00 20.00     0.027 C 
HETATM   12  C9  UNL     1     -35.452   5.805   4.410  1.00 20.00     0.005 C 
HETATM   13  C10 UNL     1     -34.613   6.856   3.687  1.00 20.00     0.013 C 
ENDBRANCH   4   8
TORSDOF 1
ENDMDL
