MODEL 1
REMARK VINA RESULT:      -1.3      0.000      0.000
REMARK  2 active torsions:
REMARK  status: ('A' for Active; 'I' for Inactive)
REMARK    1  A    between atoms: C6_6  and  C10_10 
REMARK    2  A    between atoms: C10_10  and  O11_11 
ROOT
HETATM    1  C1  UNL     1     -32.389   8.071   2.805  1.00 20.00    -0.024 C 
HETATM    2  C2  UNL     1     -33.376   7.423   3.453  1.00 20.00    -0.081 C 
HETATM    3  C3  UNL     1     -31.716   7.555   1.570  1.00 20.00     0.027 C 
HETATM    4  C4  UNL     1     -32.482   6.412   0.909  1.00 20.00     0.004 C 
HETATM    5  C5  UNL     1     -32.951   5.406   1.952  1.00 20.00     0.012 C 
HETATM    6  C6  UNL     1     -33.877   6.059   2.999  1.00 20.00     0.042 C 
HETATM    7  C7  UNL     1     -34.058   8.062   4.633  1.00 20.00     0.043 C 
ENDROOT
BRANCH   6   8
HETATM    8  C10 UNL     1     -34.078   5.075   4.157  1.00 20.00     0.124 C 
HETATM    9  C8  UNL     1     -35.523   5.048   4.617  1.00 20.00     0.040 C 
BRANCH   8  10
HETATM   10  O11 UNL     1     -33.688   3.778   3.728  1.00 20.00    -0.390 OA
HETATM   11  C9  UNL     1     -33.210   2.991   4.810  1.00 20.00     0.202 C 
ENDBRANCH   8  10
ENDBRANCH   6   8
TORSDOF 2
ENDMDL
MODEL 2
REMARK VINA RESULT:      -0.5      2.120      4.615
REMARK  2 active torsions:
REMARK  status: ('A' for Active; 'I' for Inactive)
REMARK    1  A    between atoms: C6_6  and  C10_10 
REMARK    2  A    between atoms: C10_10  and  O11_11 
ROOT
HETATM    1  C1  UNL     1     -33.422   4.902   3.020  1.00 20.00    -0.024 C 
HETATM    2  C2  UNL     1     -33.050   5.895   2.191  1.00 20.00    -0.081 C 
HETATM    3  C3  UNL     1     -34.399   5.068   4.144  1.00 20.00     0.027 C 
HETATM    4  C4  UNL     1     -35.202   6.363   4.046  1.00 20.00     0.004 C 
HETATM    5  C5  UNL     1     -34.292   7.534   3.698  1.00 20.00     0.012 C 
HETATM    6  C6  UNL     1     -33.571   7.316   2.352  1.00 20.00     0.042 C 
HETATM    7  C7  UNL     1     -32.133   5.613   1.031  1.00 20.00     0.043 C 
ENDROOT
BRANCH   6   8
HETATM    8  C10 UNL     1     -32.478   8.379   2.203  1.00 20.00     0.124 C 
HETATM    9  C8  UNL     1     -31.226   8.001   2.972  1.00 20.00     0.040 C 
BRANCH   8  10
HETATM   10  O11 UNL     1     -32.166   8.525   0.824  1.00 20.00    -0.390 OA
HETATM   11  C9  UNL     1     -32.455   9.836   0.358  1.00 20.00     0.202 C 
ENDBRANCH   8  10
ENDBRANCH   6   8
TORSDOF 2
ENDMDL
MODEL 3
REMARK VINA RESULT:       0.7      1.453      3.646
REMARK  2 active torsions:
REMARK  status: ('A' for Active; 'I' for Inactive)
REMARK    1  A    between atoms: C6_6  and  C10_10 
REMARK    2  A    between atoms: C10_10  and  O11_11 
ROOT
HETATM    1  C1  UNL     1     -35.347   6.202   4.483  1.00 20.00    -0.024 C 
HETATM    2  C2  UNL     1     -34.388   6.833   3.779  1.00 20.00    -0.081 C 
HETATM    3  C3  UNL     1     -35.391   4.721   4.701  1.00 20.00     0.027 C 
HETATM    4  C4  UNL     1     -34.072   4.031   4.362  1.00 20.00     0.004 C 
HETATM    5  C5  UNL     1     -33.516   4.552   3.044  1.00 20.00     0.012 C 
HETATM    6  C6  UNL     1     -33.262   6.073   3.094  1.00 20.00     0.042 C 
HETATM    7  C7  UNL     1     -34.374   8.335   3.691  1.00 20.00     0.043 C 
ENDROOT
BRANCH   6   8
HETATM    8  C10 UNL     1     -32.977   6.570   1.672  1.00 20.00     0.124 C 
HETATM    9  C8  UNL     1     -31.720   7.416   1.620  1.00 20.00     0.040 C 
BRANCH   8  10
HETATM   10  O11 UNL     1     -32.832   5.445   0.815  1.00 20.00    -0.390 OA
HETATM   11  C9  UNL     1     -31.476   5.030   0.722  1.00 20.00     0.202 C 
ENDBRANCH   8  10
ENDBRANCH   6   8
TORSDOF 2
ENDMDL
MODEL 4
REMARK VINA RESULT:       0.7      2.393      4.522
REMARK  2 active torsions:
REMARK  status: ('A' for Active; 'I' for Inactive)
REMARK    1  A    between atoms: C6_6  and  C10_10 
REMARK    2  A    between atoms: C10_10  and  O11_11 
ROOT
HETATM    1  C1  UNL     1     -33.877   7.397   4.160  1.00 20.00    -0.024 C 
HETATM    2  C2  UNL     1     -32.753   7.940   3.657  1.00 20.00    -0.081 C 
HETATM    3  C3  UNL     1     -34.623   6.267   3.518  1.00 20.00     0.027 C 
HETATM    4  C4  UNL     1     -33.809   5.553   2.442  1.00 20.00     0.004 C 
HETATM    5  C5  UNL     1     -33.107   6.560   1.542  1.00 20.00     0.012 C 
HETATM    6  C6  UNL     1     -32.150   7.469   2.341  1.00 20.00     0.042 C 
HETATM    7  C7  UNL     1     -32.019   9.010   4.420  1.00 20.00     0.043 C 
ENDROOT
BRANCH   6   8
HETATM    8  C10 UNL     1     -31.700   8.622   1.437  1.00 20.00     0.124 C 
HETATM    9  C8  UNL     1     -31.147   8.113   0.121  1.00 20.00     0.040 C 
BRANCH   8  10
HETATM   10  O11 UNL     1     -32.813   9.472   1.192  1.00 20.00    -0.390 OA
HETATM   11  C9  UNL     1     -32.704  10.127  -0.064  1.00 20.00     0.202 C 
ENDBRANCH   8  10
ENDBRANCH   6   8
TORSDOF 2
ENDMDL
MODEL 5
REMARK VINA RESULT:       0.7      1.187      2.714
REMARK  2 active torsions:
REMARK  status: ('A' for Active; 'I' for Inactive)
REMARK    1  A    between atoms: C6_6  and  C10_10 
REMARK    2  A    between atoms: C10_10  and  O11_11 
ROOT
HETATM    1  C1  UNL     1     -32.036   7.333   0.957  1.00 20.00    -0.024 C 
HETATM    2  C2  UNL     1     -32.383   6.184   1.567  1.00 20.00    -0.081 C 
HETATM    3  C3  UNL     1     -32.096   8.681   1.609  1.00 20.00     0.027 C 
HETATM    4  C4  UNL     1     -32.242   8.600   3.126  1.00 20.00     0.004 C 
HETATM    5  C5  UNL     1     -33.289   7.563   3.512  1.00 20.00     0.012 C 
HETATM    6  C6  UNL     1     -32.917   6.158   2.992  1.00 20.00     0.042 C 
HETATM    7  C7  UNL     1     -32.202   4.866   0.864  1.00 20.00     0.043 C 
ENDROOT
BRANCH   6   8
HETATM    8  C10 UNL     1     -34.128   5.235   3.166  1.00 20.00     0.124 C 
HETATM    9  C8  UNL     1     -33.773   3.998   3.967  1.00 20.00     0.040 C 
BRANCH   8  10
HETATM   10  O11 UNL     1     -35.160   5.955   3.829  1.00 20.00    -0.390 OA
HETATM   11  C9  UNL     1     -35.713   5.206   4.902  1.00 20.00     0.202 C 
ENDBRANCH   8  10
ENDBRANCH   6   8
TORSDOF 2
ENDMDL
MODEL 6
REMARK VINA RESULT:       0.8      1.885      4.424
REMARK  2 active torsions:
REMARK  status: ('A' for Active; 'I' for Inactive)
REMARK    1  A    between atoms: C6_6  and  C10_10 
REMARK    2  A    between atoms: C10_10  and  O11_11 
ROOT
HETATM    1  C1  UNL     1     -33.679   4.496   3.174  1.00 20.00    -0.024 C 
HETATM    2  C2  UNL     1     -33.165   5.399   2.318  1.00 20.00    -0.081 C 
HETATM    3  C3  UNL     1     -34.667   4.827   4.251  1.00 20.00     0.027 C 
HETATM    4  C4  UNL     1     -35.308   6.199   4.067  1.00 20.00     0.004 C 
HETATM    5  C5  UNL     1     -34.257   7.240   3.705  1.00 20.00     0.012 C 
HETATM    6  C6  UNL     1     -33.521   6.877   2.398  1.00 20.00     0.042 C 
HETATM    7  C7  UNL     1     -32.249   4.959   1.209  1.00 20.00     0.043 C 
ENDROOT
BRANCH   6   8
HETATM    8  C10 UNL     1     -32.307   7.799   2.247  1.00 20.00     0.124 C 
HETATM    9  C8  UNL     1     -32.463   8.734   1.063  1.00 20.00     0.040 C 
BRANCH   8  10
HETATM   10  O11 UNL     1     -32.158   8.558   3.439  1.00 20.00    -0.390 OA
HETATM   11  C9  UNL     1     -30.865   9.142   3.529  1.00 20.00     0.202 C 
ENDBRANCH   8  10
ENDBRANCH   6   8
TORSDOF 2
ENDMDL
MODEL 7
REMARK VINA RESULT:       0.9      1.124      2.257
REMARK  2 active torsions:
REMARK  status: ('A' for Active; 'I' for Inactive)
REMARK    1  A    between atoms: C6_6  and  C10_10 
REMARK    2  A    between atoms: C10_10  and  O11_11 
ROOT
HETATM    1  C1  UNL     1     -33.293   8.113   4.222  1.00 20.00    -0.024 C 
HETATM    2  C2  UNL     1     -33.930   7.149   3.531  1.00 20.00    -0.081 C 
HETATM    3  C3  UNL     1     -32.058   8.813   3.743  1.00 20.00     0.027 C 
HETATM    4  C4  UNL     1     -31.791   8.594   2.256  1.00 20.00     0.004 C 
HETATM    5  C5  UNL     1     -31.982   7.130   1.886  1.00 20.00     0.012 C 
HETATM    6  C6  UNL     1     -33.416   6.647   2.190  1.00 20.00     0.042 C 
HETATM    7  C7  UNL     1     -35.217   6.567   4.049  1.00 20.00     0.043 C 
ENDROOT
BRANCH   6   8
HETATM    8  C10 UNL     1     -33.457   5.120   2.061  1.00 20.00     0.124 C 
HETATM    9  C8  UNL     1     -32.741   4.649   0.810  1.00 20.00     0.040 C 
BRANCH   8  10
HETATM   10  O11 UNL     1     -32.842   4.548   3.208  1.00 20.00    -0.390 OA
HETATM   11  C9  UNL     1     -33.703   3.623   3.857  1.00 20.00     0.202 C 
ENDBRANCH   8  10
ENDBRANCH   6   8
TORSDOF 2
ENDMDL
MODEL 8
REMARK VINA RESULT:       1.0      1.818      3.945
REMARK  2 active torsions:
REMARK  status: ('A' for Active; 'I' for Inactive)
REMARK    1  A    between atoms: C6_6  and  C10_10 
REMARK    2  A    between atoms: C10_10  and  O11_11 
ROOT
HETATM    1  C1  UNL     1     -35.252   6.269   4.286  1.00 20.00    -0.024 C 
HETATM    2  C2  UNL     1     -34.176   6.886   3.762  1.00 20.00    -0.081 C 
HETATM    3  C3  UNL     1     -35.373   4.784   4.445  1.00 20.00     0.027 C 
HETATM    4  C4  UNL     1     -34.038   4.059   4.294  1.00 20.00     0.004 C 
HETATM    5  C5  UNL     1     -33.267   4.598   3.096  1.00 20.00     0.012 C 
HETATM    6  C6  UNL     1     -32.978   6.108   3.237  1.00 20.00     0.042 C 
HETATM    7  C7  UNL     1     -34.104   8.388   3.728  1.00 20.00     0.043 C 
ENDROOT
BRANCH   6   8
HETATM    8  C10 UNL     1     -32.460   6.634   1.894  1.00 20.00     0.124 C 
HETATM    9  C8  UNL     1     -33.435   6.345   0.769  1.00 20.00     0.040 C 
BRANCH   8  10
HETATM   10  O11 UNL     1     -32.254   8.036   2.001  1.00 20.00    -0.390 OA
HETATM   11  C9  UNL     1     -31.894   8.609   0.751  1.00 20.00     0.202 C 
ENDBRANCH   8  10
ENDBRANCH   6   8
TORSDOF 2
ENDMDL
MODEL 9
REMARK VINA RESULT:       1.2      1.787      3.016
REMARK  2 active torsions:
REMARK  status: ('A' for Active; 'I' for Inactive)
REMARK    1  A    between atoms: C6_6  and  C10_10 
REMARK    2  A    between atoms: C10_10  and  O11_11 
ROOT
HETATM    1  C1  UNL     1     -33.321   7.829   4.337  1.00 20.00    -0.024 C 
HETATM    2  C2  UNL     1     -33.840   6.983   3.428  1.00 20.00    -0.081 C 
HETATM    3  C3  UNL     1     -32.173   8.753   4.065  1.00 20.00     0.027 C 
HETATM    4  C4  UNL     1     -31.877   8.910   2.575  1.00 20.00     0.004 C 
HETATM    5  C5  UNL     1     -31.896   7.556   1.879  1.00 20.00     0.012 C 
HETATM    6  C6  UNL     1     -33.266   6.860   2.023  1.00 20.00     0.042 C 
HETATM    7  C7  UNL     1     -35.053   6.159   3.762  1.00 20.00     0.043 C 
ENDROOT
BRANCH   6   8
HETATM    8  C10 UNL     1     -33.130   5.408   1.552  1.00 20.00     0.124 C 
HETATM    9  C8  UNL     1     -33.829   5.187   0.224  1.00 20.00     0.040 C 
BRANCH   8  10
HETATM   10  O11 UNL     1     -31.749   5.096   1.424  1.00 20.00    -0.390 OA
HETATM   11  C9  UNL     1     -31.497   4.301   0.273  1.00 20.00     0.202 C 
ENDBRANCH   8  10
ENDBRANCH   6   8
TORSDOF 2
ENDMDL
