MODEL 1
REMARK VINA RESULT:       3.3      0.000      0.000
REMARK  0 active torsions:
REMARK  status: ('A' for Active; 'I' for Inactive)
ROOT
HETATM    1  C1  UNL     1     -32.795   4.122   3.085  1.00 20.00     0.052 A 
HETATM    2  C2  UNL     1     -34.885   5.562   4.239  1.00 20.00     0.126 A 
HETATM    3  C3  UNL     1     -33.077   5.404   2.681  1.00 20.00    -0.043 A 
HETATM    4  C4  UNL     1     -34.124   6.135   3.257  1.00 20.00    -0.028 A 
HETATM    5  C5  UNL     1     -33.622   3.619   4.081  1.00 20.00     0.126 A 
HETATM    6  C6  UNL     1     -33.690   7.061   1.199  1.00 20.00     0.020 C 
HETATM    7  C7  UNL     1     -31.686   7.423   2.449  1.00 20.00     0.030 C 
HETATM    8  C8  UNL     1     -32.425   6.311   1.668  1.00 20.00     0.021 C 
HETATM    9  C9  UNL     1     -34.122   7.499   2.616  1.00 20.00     0.040 C 
HETATM   10  C10 UNL     1     -32.850   8.277   3.035  1.00 20.00     0.091 C 
HETATM   11  N11 UNL     1     -34.653   4.299   4.665  1.00 20.00    -0.248 NA
HETATM   12 CL12 UNL     1     -33.392   2.027   4.686  1.00 20.00    -0.062 Cl
HETATM   13 CL13 UNL     1     -32.711   8.523   4.787  1.00 20.00    -0.124 Cl
ENDROOT
TORSDOF 0
ENDMDL
MODEL 2
REMARK VINA RESULT:       3.5      2.375      3.333
REMARK  0 active torsions:
REMARK  status: ('A' for Active; 'I' for Inactive)
ROOT
HETATM    1  C1  UNL     1     -33.866   7.394   3.751  1.00 20.00     0.052 A 
HETATM    2  C2  UNL     1     -32.852   5.827   1.680  1.00 20.00     0.126 A 
HETATM    3  C3  UNL     1     -32.844   7.850   2.955  1.00 20.00    -0.043 A 
HETATM    4  C4  UNL     1     -32.330   7.070   1.912  1.00 20.00    -0.028 A 
HETATM    5  C5  UNL     1     -34.329   6.120   3.449  1.00 20.00     0.126 A 
HETATM    6  C6  UNL     1     -30.717   8.606   2.481  1.00 20.00     0.020 C 
HETATM    7  C7  UNL     1     -32.534   9.925   1.665  1.00 20.00     0.030 C 
HETATM    8  C8  UNL     1     -32.088   9.155   2.930  1.00 20.00     0.021 C 
HETATM    9  C9  UNL     1     -31.264   7.886   1.228  1.00 20.00     0.040 C 
HETATM   10  C10 UNL     1     -31.907   9.095   0.506  1.00 20.00     0.091 C 
HETATM   11  N11 UNL     1     -33.853   5.329   2.442  1.00 20.00    -0.248 NA
HETATM   12 CL12 UNL     1     -35.603   5.414   4.360  1.00 20.00    -0.062 Cl
HETATM   13 CL13 UNL     1     -33.090   8.638  -0.735  1.00 20.00    -0.124 Cl
ENDROOT
TORSDOF 0
ENDMDL
MODEL 3
REMARK VINA RESULT:       5.3      2.178      4.217
REMARK  0 active torsions:
REMARK  status: ('A' for Active; 'I' for Inactive)
ROOT
HETATM    1  C1  UNL     1     -32.665   8.093   2.707  1.00 20.00     0.052 A 
HETATM    2  C2  UNL     1     -32.980   5.656   1.388  1.00 20.00     0.126 A 
HETATM    3  C3  UNL     1     -33.664   7.220   3.064  1.00 20.00    -0.043 A 
HETATM    4  C4  UNL     1     -33.828   5.994   2.408  1.00 20.00    -0.028 A 
HETATM    5  C5  UNL     1     -31.857   7.672   1.659  1.00 20.00     0.126 A 
HETATM    6  C6  UNL     1     -35.839   6.523   3.387  1.00 20.00     0.020 C 
HETATM    7  C7  UNL     1     -34.336   6.247   5.224  1.00 20.00     0.030 C 
HETATM    8  C8  UNL     1     -34.721   7.279   4.138  1.00 20.00     0.021 C 
HETATM    9  C9  UNL     1     -34.976   5.280   3.074  1.00 20.00     0.040 C 
HETATM   10  C10 UNL     1     -34.582   4.880   4.517  1.00 20.00     0.091 C 
HETATM   11  N11 UNL     1     -31.986   6.485   0.994  1.00 20.00    -0.248 NA
HETATM   12 CL12 UNL     1     -30.566   8.658   1.100  1.00 20.00    -0.062 Cl
HETATM   13 CL13 UNL     1     -33.178   3.799   4.598  1.00 20.00    -0.124 Cl
ENDROOT
TORSDOF 0
ENDMDL
MODEL 4
REMARK VINA RESULT:       5.9      2.896      4.839
REMARK  0 active torsions:
REMARK  status: ('A' for Active; 'I' for Inactive)
ROOT
HETATM    1  C1  UNL     1     -32.571   8.292  -0.025  1.00 20.00     0.052 A 
HETATM    2  C2  UNL     1     -32.007   8.592   2.689  1.00 20.00     0.126 A 
HETATM    3  C3  UNL     1     -32.513   7.202   0.810  1.00 20.00    -0.043 A 
HETATM    4  C4  UNL     1     -32.232   7.345   2.174  1.00 20.00    -0.028 A 
HETATM    5  C5  UNL     1     -32.323   9.516   0.581  1.00 20.00     0.126 A 
HETATM    6  C6  UNL     1     -31.717   5.183   1.588  1.00 20.00     0.020 C 
HETATM    7  C7  UNL     1     -34.075   5.348   1.242  1.00 20.00     0.030 C 
HETATM    8  C8  UNL     1     -32.737   5.731   0.567  1.00 20.00     0.021 C 
HETATM    9  C9  UNL     1     -32.290   5.970   2.788  1.00 20.00     0.040 C 
HETATM   10  C10 UNL     1     -33.745   5.441   2.761  1.00 20.00     0.091 C 
HETATM   11  N11 UNL     1     -32.044   9.695   1.907  1.00 20.00    -0.248 NA
HETATM   12 CL12 UNL     1     -32.358  10.969  -0.336  1.00 20.00    -0.062 Cl
HETATM   13 CL13 UNL     1     -34.890   6.460   3.655  1.00 20.00    -0.124 Cl
ENDROOT
TORSDOF 0
ENDMDL
