MODEL 1
REMARK VINA RESULT:      -0.2      0.000      0.000
REMARK  1 active torsions:
REMARK  status: ('A' for Active; 'I' for Inactive)
REMARK    1  A    between atoms: C10_10  and  O12_12 
ROOT
HETATM    1  C1  UNL     1     -31.417   7.841   2.866  1.00 20.00     0.011 A 
HETATM    2  C2  UNL     1     -32.061   4.954   1.345  1.00 20.00     0.013 A 
HETATM    3  C3  UNL     1     -34.113   7.546   4.791  1.00 20.00     0.013 A 
HETATM    4  C4  UNL     1     -32.128   7.617   1.559  1.00 20.00    -0.005 A 
HETATM    5  C5  UNL     1     -32.781   8.441   2.655  1.00 20.00    -0.005 A 
HETATM    6  C6  UNL     1     -32.699   6.292   1.064  1.00 20.00    -0.003 A 
HETATM    7  C7  UNL     1     -34.065   8.020   3.359  1.00 20.00    -0.003 A 
HETATM    8  C8  UNL     1     -33.427   5.257   1.897  1.00 20.00     0.020 A 
HETATM    9  C9  UNL     1     -34.491   6.603   3.683  1.00 20.00     0.020 A 
HETATM   10  C10 UNL     1     -33.626   5.419   3.373  1.00 20.00     0.129 C 
ENDROOT
BRANCH  10  11
HETATM   11  O12 UNL     1     -34.259   4.237   3.871  1.00 20.00    -0.390 OA
HETATM   12  C11 UNL     1     -33.318   3.372   4.485  1.00 20.00     0.202 C 
ENDBRANCH  10  11
TORSDOF 1
ENDMDL
MODEL 2
REMARK VINA RESULT:       0.2      1.719      4.233
REMARK  1 active torsions:
REMARK  status: ('A' for Active; 'I' for Inactive)
REMARK    1  A    between atoms: C10_10  and  O12_12 
ROOT
HETATM    1  C1  UNL     1     -33.302   4.520   4.168  1.00 20.00     0.011 A 
HETATM    2  C2  UNL     1     -34.019   7.720   4.725  1.00 20.00     0.013 A 
HETATM    3  C3  UNL     1     -31.827   5.248   1.277  1.00 20.00     0.013 A 
HETATM    4  C4  UNL     1     -34.586   5.249   3.880  1.00 20.00    -0.005 A 
HETATM    5  C5  UNL     1     -33.889   4.463   2.783  1.00 20.00    -0.005 A 
HETATM    6  C6  UNL     1     -34.768   6.763   3.831  1.00 20.00    -0.003 A 
HETATM    7  C7  UNL     1     -33.308   5.115   1.534  1.00 20.00    -0.003 A 
HETATM    8  C8  UNL     1     -33.802   7.767   3.238  1.00 20.00     0.020 A 
HETATM    9  C9  UNL     1     -32.666   6.484   1.449  1.00 20.00     0.020 A 
HETATM   10  C10 UNL     1     -32.484   7.356   2.654  1.00 20.00     0.129 C 
ENDROOT
BRANCH  10  11
HETATM   11  O12 UNL     1     -31.777   8.538   2.270  1.00 20.00    -0.390 OA
HETATM   12  C11 UNL     1     -32.189   8.989   0.990  1.00 20.00     0.202 C 
ENDBRANCH  10  11
TORSDOF 1
ENDMDL
MODEL 3
REMARK VINA RESULT:       0.8      1.061      2.865
REMARK  1 active torsions:
REMARK  status: ('A' for Active; 'I' for Inactive)
REMARK    1  A    between atoms: C10_10  and  O12_12 
ROOT
HETATM    1  C1  UNL     1     -32.744   8.695   1.288  1.00 20.00     0.011 A 
HETATM    2  C2  UNL     1     -33.787   8.558   4.443  1.00 20.00     0.013 A 
HETATM    3  C3  UNL     1     -33.174   5.421   0.897  1.00 20.00     0.013 A 
HETATM    4  C4  UNL     1     -31.913   8.599   2.539  1.00 20.00    -0.005 A 
HETATM    5  C5  UNL     1     -31.718   7.601   1.411  1.00 20.00    -0.005 A 
HETATM    6  C6  UNL     1     -32.417   8.201   3.923  1.00 20.00    -0.003 A 
HETATM    7  C7  UNL     1     -32.008   6.111   1.560  1.00 20.00    -0.003 A 
HETATM    8  C8  UNL     1     -33.424   7.114   4.237  1.00 20.00     0.020 A 
HETATM    9  C9  UNL     1     -33.105   5.487   2.397  1.00 20.00     0.020 A 
HETATM   10  C10 UNL     1     -34.093   6.314   3.162  1.00 20.00     0.129 C 
ENDROOT
BRANCH  10  11
HETATM   11  O12 UNL     1     -35.047   5.445   3.779  1.00 20.00    -0.390 OA
HETATM   12  C11 UNL     1     -34.410   4.330   4.382  1.00 20.00     0.202 C 
ENDBRANCH  10  11
TORSDOF 1
ENDMDL
MODEL 4
REMARK VINA RESULT:       1.1      1.373      2.801
REMARK  1 active torsions:
REMARK  status: ('A' for Active; 'I' for Inactive)
REMARK    1  A    between atoms: C10_10  and  O12_12 
ROOT
HETATM    1  C1  UNL     1     -33.070   7.746   4.848  1.00 20.00     0.011 A 
HETATM    2  C2  UNL     1     -31.559   8.264   1.930  1.00 20.00     0.013 A 
HETATM    3  C3  UNL     1     -34.095   4.728   3.897  1.00 20.00     0.013 A 
HETATM    4  C4  UNL     1     -33.597   8.480   3.645  1.00 20.00    -0.005 A 
HETATM    5  C5  UNL     1     -34.404   7.356   4.270  1.00 20.00    -0.005 A 
HETATM    6  C6  UNL     1     -33.030   8.410   2.230  1.00 20.00    -0.003 A 
HETATM    7  C7  UNL     1     -34.720   6.055   3.541  1.00 20.00    -0.003 A 
HETATM    8  C8  UNL     1     -32.511   7.172   1.529  1.00 20.00     0.020 A 
HETATM    9  C9  UNL     1     -33.828   5.339   2.549  1.00 20.00     0.020 A 
HETATM   10  C10 UNL     1     -32.456   5.837   2.205  1.00 20.00     0.129 C 
ENDROOT
BRANCH  10  11
HETATM   11  O12 UNL     1     -31.835   4.908   1.313  1.00 20.00    -0.390 OA
HETATM   12  C11 UNL     1     -32.716   4.534   0.267  1.00 20.00     0.202 C 
ENDBRANCH  10  11
TORSDOF 1
ENDMDL
MODEL 5
REMARK VINA RESULT:       1.6      1.973      3.589
REMARK  1 active torsions:
REMARK  status: ('A' for Active; 'I' for Inactive)
REMARK    1  A    between atoms: C10_10  and  O12_12 
ROOT
HETATM    1  C1  UNL     1     -35.455   6.333   3.179  1.00 20.00     0.011 A 
HETATM    2  C2  UNL     1     -33.168   5.414   0.946  1.00 20.00     0.013 A 
HETATM    3  C3  UNL     1     -33.680   9.008   4.048  1.00 20.00     0.013 A 
HETATM    4  C4  UNL     1     -34.338   5.338   3.347  1.00 20.00    -0.005 A 
HETATM    5  C5  UNL     1     -34.501   6.481   4.334  1.00 20.00    -0.005 A 
HETATM    6  C6  UNL     1     -33.123   5.191   2.437  1.00 20.00    -0.003 A 
HETATM    7  C7  UNL     1     -33.464   7.586   4.504  1.00 20.00    -0.003 A 
HETATM    8  C8  UNL     1     -32.329   6.317   1.806  1.00 20.00     0.020 A 
HETATM    9  C9  UNL     1     -32.595   8.181   3.417  1.00 20.00     0.020 A 
HETATM   10  C10 UNL     1     -32.708   7.756   1.984  1.00 20.00     0.129 C 
ENDROOT
BRANCH  10  11
HETATM   11  O12 UNL     1     -31.822   8.552   1.192  1.00 20.00    -0.390 OA
HETATM   12  C11 UNL     1     -32.528   9.568   0.498  1.00 20.00     0.202 C 
ENDBRANCH  10  11
TORSDOF 1
ENDMDL
MODEL 6
REMARK VINA RESULT:       2.2      1.529      3.210
REMARK  1 active torsions:
REMARK  status: ('A' for Active; 'I' for Inactive)
REMARK    1  A    between atoms: C10_10  and  O12_12 
ROOT
HETATM    1  C1  UNL     1     -33.435   5.400   0.595  1.00 20.00     0.011 A 
HETATM    2  C2  UNL     1     -32.351   8.440   1.397  1.00 20.00     0.013 A 
HETATM    3  C3  UNL     1     -34.619   4.901   3.663  1.00 20.00     0.013 A 
HETATM    4  C4  UNL     1     -32.052   5.812   1.022  1.00 20.00    -0.005 A 
HETATM    5  C5  UNL     1     -32.773   4.686   1.743  1.00 20.00    -0.005 A 
HETATM    6  C6  UNL     1     -31.676   7.126   1.699  1.00 20.00    -0.003 A 
HETATM    7  C7  UNL     1     -33.186   4.767   3.208  1.00 20.00    -0.003 A 
HETATM    8  C8  UNL     1     -32.466   7.845   2.773  1.00 20.00     0.020 A 
HETATM    9  C9  UNL     1     -33.641   6.008   3.948  1.00 20.00     0.020 A 
HETATM   10  C10 UNL     1     -33.786   7.335   3.266  1.00 20.00     0.129 C 
ENDROOT
BRANCH  10  11
HETATM   11  O12 UNL     1     -34.310   8.282   4.201  1.00 20.00    -0.390 OA
HETATM   12  C11 UNL     1     -33.474   8.396   5.340  1.00 20.00     0.202 C 
ENDBRANCH  10  11
TORSDOF 1
ENDMDL
MODEL 7
REMARK VINA RESULT:       2.7      1.427      3.107
REMARK  1 active torsions:
REMARK  status: ('A' for Active; 'I' for Inactive)
REMARK    1  A    between atoms: C10_10  and  O12_12 
ROOT
HETATM    1  C1  UNL     1     -34.605   8.434   3.483  1.00 20.00     0.011 A 
HETATM    2  C2  UNL     1     -34.830   5.115   3.536  1.00 20.00     0.013 A 
HETATM    3  C3  UNL     1     -32.157   8.334   1.234  1.00 20.00     0.013 A 
HETATM    4  C4  UNL     1     -33.971   7.474   4.453  1.00 20.00    -0.005 A 
HETATM    5  C5  UNL     1     -33.121   8.497   3.721  1.00 20.00    -0.005 A 
HETATM    6  C6  UNL     1     -33.815   5.969   4.255  1.00 20.00    -0.003 A 
HETATM    7  C7  UNL     1     -32.034   8.114   2.722  1.00 20.00    -0.003 A 
HETATM    8  C8  UNL     1     -33.447   5.264   2.966  1.00 20.00     0.020 A 
HETATM    9  C9  UNL     1     -32.059   6.934   1.773  1.00 20.00     0.020 A 
HETATM   10  C10 UNL     1     -33.234   6.008   1.683  1.00 20.00     0.129 C 
ENDROOT
BRANCH  10  11
HETATM   11  O12 UNL     1     -32.994   5.052   0.646  1.00 20.00    -0.390 OA
HETATM   12  C11 UNL     1     -31.634   4.653   0.622  1.00 20.00     0.202 C 
ENDBRANCH  10  11
TORSDOF 1
ENDMDL
