MODEL 1
REMARK VINA RESULT:      -0.2      0.000      0.000
REMARK  3 active torsions:
REMARK  status: ('A' for Active; 'I' for Inactive)
REMARK    1  A    between atoms: C6_6  and  N10_10 
REMARK    2  A    between atoms: C7_7  and  C8_8 
REMARK    3  A    between atoms: C7_7  and  N10_10 
ROOT
HETATM    1  C1  UNL     1     -34.450   4.955   4.045  1.00 20.00     0.086 C 
HETATM    2  C6  UNL     1     -34.905   6.325   3.825  1.00 20.00     0.357 C 
HETATM    3  N9  UNL     1     -34.093   3.864   4.220  1.00 20.00    -0.196 NA
ENDROOT
BRANCH   2   4
HETATM    4  N10 UNL     1     -33.719   7.258   3.823  1.00 20.00    -0.062 N 
HETATM    5  C5  UNL     1     -33.684   8.098   5.077  1.00 20.00     0.270 C 
HETATM    6  H27 UNL     1     -32.880   6.654   3.860  1.00 20.00     0.280 HD
BRANCH   4   7
HETATM    7  C7  UNL     1     -33.637   8.074   2.586  1.00 20.00     0.243 C 
BRANCH   7   8
HETATM    8  C8  UNL     1     -32.280   7.922   1.867  1.00 20.00    -0.027 C 
HETATM    9  C2  UNL     1     -32.060   6.478   1.384  1.00 20.00     0.016 C 
HETATM   10  C3  UNL     1     -32.291   8.851   0.637  1.00 20.00     0.016 C 
HETATM   11  C4  UNL     1     -31.112   8.334   2.779  1.00 20.00     0.016 C 
ENDBRANCH   7   8
ENDBRANCH   4   7
ENDBRANCH   2   4
TORSDOF 3
ENDMDL
MODEL 2
REMARK VINA RESULT:      -0.2      0.048      1.365
REMARK  3 active torsions:
REMARK  status: ('A' for Active; 'I' for Inactive)
REMARK    1  A    between atoms: C6_6  and  N10_10 
REMARK    2  A    between atoms: C7_7  and  C8_8 
REMARK    3  A    between atoms: C7_7  and  N10_10 
ROOT
HETATM    1  C1  UNL     1     -34.438   4.945   4.056  1.00 20.00     0.086 C 
HETATM    2  C6  UNL     1     -34.885   6.316   3.826  1.00 20.00     0.357 C 
HETATM    3  N9  UNL     1     -34.087   3.854   4.240  1.00 20.00    -0.196 NA
ENDROOT
BRANCH   2   4
HETATM    4  N10 UNL     1     -33.692   7.240   3.802  1.00 20.00    -0.062 N 
HETATM    5  C5  UNL     1     -33.609   8.056   5.070  1.00 20.00     0.270 C 
HETATM    6  H27 UNL     1     -32.857   6.630   3.800  1.00 20.00     0.280 HD
BRANCH   4   7
HETATM    7  C7  UNL     1     -33.644   8.079   2.580  1.00 20.00     0.243 C 
BRANCH   7   8
HETATM    8  C8  UNL     1     -32.291   7.978   1.845  1.00 20.00    -0.027 C 
HETATM    9  C2  UNL     1     -31.119   8.335   2.776  1.00 20.00     0.016 C 
HETATM   10  C3  UNL     1     -32.116   6.520   1.378  1.00 20.00     0.016 C 
HETATM   11  C4  UNL     1     -32.254   8.894   0.610  1.00 20.00     0.016 C 
ENDBRANCH   7   8
ENDBRANCH   4   7
ENDBRANCH   2   4
TORSDOF 3
ENDMDL
MODEL 3
REMARK VINA RESULT:      -0.2      1.756      4.486
REMARK  3 active torsions:
REMARK  status: ('A' for Active; 'I' for Inactive)
REMARK    1  A    between atoms: C6_6  and  N10_10 
REMARK    2  A    between atoms: C7_7  and  C8_8 
REMARK    3  A    between atoms: C7_7  and  N10_10 
ROOT
HETATM    1  C1  UNL     1     -32.118   8.859   0.913  1.00 20.00     0.086 C 
HETATM    2  C6  UNL     1     -31.528   7.992   1.929  1.00 20.00     0.357 C 
HETATM    3  N9  UNL     1     -32.584   9.552   0.107  1.00 20.00    -0.196 NA
ENDROOT
BRANCH   2   4
HETATM    4  N10 UNL     1     -32.345   6.730   2.055  1.00 20.00    -0.062 N 
HETATM    5  C5  UNL     1     -32.032   5.763   0.938  1.00 20.00     0.270 C 
HETATM    6  H27 UNL     1     -32.029   6.270   2.927  1.00 20.00     0.280 HD
BRANCH   4   7
HETATM    7  C7  UNL     1     -33.798   7.000   2.185  1.00 20.00     0.243 C 
BRANCH   7   8
HETATM    8  C8  UNL     1     -34.353   6.598   3.569  1.00 20.00    -0.027 C 
HETATM    9  C2  UNL     1     -33.919   7.595   4.658  1.00 20.00     0.016 C 
HETATM   10  C3  UNL     1     -35.891   6.608   3.481  1.00 20.00     0.016 C 
HETATM   11  C4  UNL     1     -33.896   5.184   3.966  1.00 20.00     0.016 C 
ENDBRANCH   7   8
ENDBRANCH   4   7
ENDBRANCH   2   4
TORSDOF 3
ENDMDL
MODEL 4
REMARK VINA RESULT:      -0.2      0.058      1.362
REMARK  3 active torsions:
REMARK  status: ('A' for Active; 'I' for Inactive)
REMARK    1  A    between atoms: C6_6  and  N10_10 
REMARK    2  A    between atoms: C7_7  and  C8_8 
REMARK    3  A    between atoms: C7_7  and  N10_10 
ROOT
HETATM    1  C1  UNL     1     -34.450   4.983   4.050  1.00 20.00     0.086 C 
HETATM    2  C6  UNL     1     -34.895   6.346   3.770  1.00 20.00     0.357 C 
HETATM    3  N9  UNL     1     -34.102   3.899   4.273  1.00 20.00    -0.196 NA
ENDROOT
BRANCH   2   4
HETATM    4  N10 UNL     1     -33.710   7.280   3.789  1.00 20.00    -0.062 N 
HETATM    5  C5  UNL     1     -33.680   8.098   5.057  1.00 20.00     0.270 C 
HETATM    6  H27 UNL     1     -32.871   6.676   3.819  1.00 20.00     0.280 HD
BRANCH   4   7
HETATM    7  C7  UNL     1     -33.624   8.117   2.567  1.00 20.00     0.243 C 
BRANCH   7   8
HETATM    8  C8  UNL     1     -32.276   7.954   1.833  1.00 20.00    -0.027 C 
HETATM    9  C2  UNL     1     -32.208   8.845   0.580  1.00 20.00     0.016 C 
HETATM   10  C3  UNL     1     -31.156   8.386   2.800  1.00 20.00     0.016 C 
HETATM   11  C4  UNL     1     -32.032   6.490   1.427  1.00 20.00     0.016 C 
ENDBRANCH   7   8
ENDBRANCH   4   7
ENDBRANCH   2   4
TORSDOF 3
ENDMDL
MODEL 5
REMARK VINA RESULT:      -0.2      1.753      4.461
REMARK  3 active torsions:
REMARK  status: ('A' for Active; 'I' for Inactive)
REMARK    1  A    between atoms: C6_6  and  N10_10 
REMARK    2  A    between atoms: C7_7  and  C8_8 
REMARK    3  A    between atoms: C7_7  and  N10_10 
ROOT
HETATM    1  C1  UNL     1     -32.119   8.866   0.916  1.00 20.00     0.086 C 
HETATM    2  C6  UNL     1     -31.531   7.999   1.934  1.00 20.00     0.357 C 
HETATM    3  N9  UNL     1     -32.583   9.559   0.109  1.00 20.00    -0.196 NA
ENDROOT
BRANCH   2   4
HETATM    4  N10 UNL     1     -32.353   6.740   2.064  1.00 20.00    -0.062 N 
HETATM    5  C5  UNL     1     -32.047   5.771   0.947  1.00 20.00     0.270 C 
HETATM    6  H27 UNL     1     -32.036   6.281   2.935  1.00 20.00     0.280 HD
BRANCH   4   7
HETATM    7  C7  UNL     1     -33.805   7.017   2.198  1.00 20.00     0.243 C 
BRANCH   7   8
HETATM    8  C8  UNL     1     -34.369   6.564   3.561  1.00 20.00    -0.027 C 
HETATM    9  C2  UNL     1     -33.857   5.165   3.944  1.00 20.00     0.016 C 
HETATM   10  C3  UNL     1     -33.890   7.569   4.627  1.00 20.00     0.016 C 
HETATM   11  C4  UNL     1     -35.908   6.556   3.556  1.00 20.00     0.016 C 
ENDBRANCH   7   8
ENDBRANCH   4   7
ENDBRANCH   2   4
TORSDOF 3
ENDMDL
MODEL 6
REMARK VINA RESULT:       0.7      1.916      4.509
REMARK  3 active torsions:
REMARK  status: ('A' for Active; 'I' for Inactive)
REMARK    1  A    between atoms: C6_6  and  N10_10 
REMARK    2  A    between atoms: C7_7  and  C8_8 
REMARK    3  A    between atoms: C7_7  and  N10_10 
ROOT
HETATM    1  C1  UNL     1     -32.385   9.455   0.463  1.00 20.00     0.086 C 
HETATM    2  C6  UNL     1     -32.112   8.109   0.959  1.00 20.00     0.357 C 
HETATM    3  N9  UNL     1     -32.599  10.523   0.064  1.00 20.00    -0.196 NA
ENDROOT
BRANCH   2   4
HETATM    4  N10 UNL     1     -32.710   7.945   2.335  1.00 20.00    -0.062 N 
HETATM    5  C5  UNL     1     -31.736   8.373   3.407  1.00 20.00     0.270 C 
HETATM    6  H27 UNL     1     -33.500   8.612   2.385  1.00 20.00     0.280 HD
BRANCH   4   7
HETATM    7  C7  UNL     1     -33.250   6.583   2.565  1.00 20.00     0.243 C 
BRANCH   7   8
HETATM    8  C8  UNL     1     -34.374   6.563   3.623  1.00 20.00    -0.027 C 
HETATM    9  C2  UNL     1     -35.741   6.883   2.995  1.00 20.00     0.016 C 
HETATM   10  C3  UNL     1     -34.432   5.144   4.222  1.00 20.00     0.016 C 
HETATM   11  C4  UNL     1     -34.092   7.561   4.759  1.00 20.00     0.016 C 
ENDBRANCH   7   8
ENDBRANCH   4   7
ENDBRANCH   2   4
TORSDOF 3
ENDMDL
MODEL 7
REMARK VINA RESULT:       0.7      1.918      4.526
REMARK  3 active torsions:
REMARK  status: ('A' for Active; 'I' for Inactive)
REMARK    1  A    between atoms: C6_6  and  N10_10 
REMARK    2  A    between atoms: C7_7  and  C8_8 
REMARK    3  A    between atoms: C7_7  and  N10_10 
ROOT
HETATM    1  C1  UNL     1     -32.394   9.499   0.477  1.00 20.00     0.086 C 
HETATM    2  C6  UNL     1     -32.278   8.096   0.865  1.00 20.00     0.357 C 
HETATM    3  N9  UNL     1     -32.483  10.613   0.165  1.00 20.00    -0.196 NA
ENDROOT
BRANCH   2   4
HETATM    4  N10 UNL     1     -32.707   7.930   2.303  1.00 20.00    -0.062 N 
HETATM    5  C5  UNL     1     -31.617   8.370   3.251  1.00 20.00     0.270 C 
HETATM    6  H27 UNL     1     -33.492   8.589   2.445  1.00 20.00     0.280 HD
BRANCH   4   7
HETATM    7  C7  UNL     1     -33.203   6.563   2.597  1.00 20.00     0.243 C 
BRANCH   7   8
HETATM    8  C8  UNL     1     -34.345   6.560   3.635  1.00 20.00    -0.027 C 
HETATM    9  C2  UNL     1     -34.088   7.581   4.756  1.00 20.00     0.016 C 
HETATM   10  C3  UNL     1     -35.645   6.951   2.907  1.00 20.00     0.016 C 
HETATM   11  C4  UNL     1     -34.534   5.164   4.255  1.00 20.00     0.016 C 
ENDBRANCH   7   8
ENDBRANCH   4   7
ENDBRANCH   2   4
TORSDOF 3
ENDMDL
MODEL 8
REMARK VINA RESULT:       0.7      0.959      1.146
REMARK  3 active torsions:
REMARK  status: ('A' for Active; 'I' for Inactive)
REMARK    1  A    between atoms: C6_6  and  N10_10 
REMARK    2  A    between atoms: C7_7  and  C8_8 
REMARK    3  A    between atoms: C7_7  and  N10_10 
ROOT
HETATM    1  C1  UNL     1     -33.700   4.155   3.799  1.00 20.00     0.086 C 
HETATM    2  C6  UNL     1     -33.585   5.187   2.772  1.00 20.00     0.357 C 
HETATM    3  N9  UNL     1     -33.791   3.331   4.610  1.00 20.00    -0.196 NA
ENDROOT
BRANCH   2   4
HETATM    4  N10 UNL     1     -33.850   6.541   3.383  1.00 20.00    -0.062 N 
HETATM    5  C5  UNL     1     -35.145   6.545   4.160  1.00 20.00     0.270 C 
HETATM    6  H27 UNL     1     -33.099   6.693   4.079  1.00 20.00     0.280 HD
BRANCH   4   7
HETATM    7  C7  UNL     1     -33.777   7.640   2.390  1.00 20.00     0.243 C 
BRANCH   7   8
HETATM    8  C8  UNL     1     -32.326   7.984   1.994  1.00 20.00    -0.027 C 
HETATM    9  C2  UNL     1     -31.601   6.763   1.404  1.00 20.00     0.016 C 
HETATM   10  C3  UNL     1     -32.379   9.088   0.919  1.00 20.00     0.016 C 
HETATM   11  C4  UNL     1     -31.528   8.514   3.198  1.00 20.00     0.016 C 
ENDBRANCH   7   8
ENDBRANCH   4   7
ENDBRANCH   2   4
TORSDOF 3
ENDMDL
MODEL 9
REMARK VINA RESULT:       0.8      1.446      2.751
REMARK  3 active torsions:
REMARK  status: ('A' for Active; 'I' for Inactive)
REMARK    1  A    between atoms: C6_6  and  N10_10 
REMARK    2  A    between atoms: C7_7  and  C8_8 
REMARK    3  A    between atoms: C7_7  and  N10_10 
ROOT
HETATM    1  C1  UNL     1     -34.552   6.739   3.819  1.00 20.00     0.086 C 
HETATM    2  C6  UNL     1     -33.396   7.581   3.523  1.00 20.00     0.357 C 
HETATM    3  N9  UNL     1     -35.471   6.072   4.059  1.00 20.00    -0.196 NA
ENDROOT
BRANCH   2   4
HETATM    4  N10 UNL     1     -32.963   7.363   2.094  1.00 20.00    -0.062 N 
HETATM    5  C5  UNL     1     -32.748   5.897   1.806  1.00 20.00     0.270 C 
HETATM    6  H27 UNL     1     -33.762   7.656   1.506  1.00 20.00     0.280 HD
BRANCH   4   7
HETATM    7  C7  UNL     1     -31.794   8.196   1.719  1.00 20.00     0.243 C 
BRANCH   7   8
HETATM    8  C8  UNL     1     -32.080   9.103   0.502  1.00 20.00    -0.027 C 
HETATM    9  C2  UNL     1     -32.648  10.464   0.939  1.00 20.00     0.016 C 
HETATM   10  C3  UNL     1     -30.747   9.342  -0.232  1.00 20.00     0.016 C 
HETATM   11  C4  UNL     1     -33.062   8.435  -0.475  1.00 20.00     0.016 C 
ENDBRANCH   7   8
ENDBRANCH   4   7
ENDBRANCH   2   4
TORSDOF 3
ENDMDL
