MODEL 1
REMARK VINA RESULT:       0.9      0.000      0.000
REMARK  3 active torsions:
REMARK  status: ('A' for Active; 'I' for Inactive)
REMARK    1  A    between atoms: C6_6  and  C7_7 
REMARK    2  A    between atoms: C8_8  and  C10_10 
REMARK    3  A    between atoms: C9_9  and  C11_11 
ROOT
HETATM    1  C1  UNL     1     -32.122   5.207   0.966  1.00 20.00    -0.021 C 
HETATM    2  C2  UNL     1     -33.348   5.728   0.734  1.00 20.00    -0.020 C 
HETATM    3  C5  UNL     1     -31.225   7.473   1.346  1.00 20.00    -0.003 C 
HETATM    4  C6  UNL     1     -32.449   7.984   1.119  1.00 20.00     0.024 C 
HETATM    5  C8  UNL     1     -31.249   6.049   1.900  1.00 20.00     0.039 C 
HETATM    6  C9  UNL     1     -33.609   7.055   1.453  1.00 20.00     0.056 C 
ENDROOT
BRANCH   4   7
HETATM    7  C7  UNL     1     -32.647   9.378   0.586  1.00 20.00     0.205 C 
HETATM    8  O12 UNL     1     -32.785   9.465  -0.671  1.00 20.00    -0.644 OA
HETATM    9  O13 UNL     1     -32.651  10.298   1.456  1.00 20.00    -0.644 OA
ENDBRANCH   4   7
BRANCH   6  10
HETATM   10  C11 UNL     1     -33.489   6.675   2.964  1.00 20.00     0.029 A 
HETATM   11  C4  UNL     1     -34.437   5.657   3.575  1.00 20.00    -0.024 A 
HETATM   12  C3  UNL     1     -35.100   6.569   4.314  1.00 20.00    -0.024 A 
HETATM   13  C10 UNL     1     -34.261   7.740   3.830  1.00 20.00     0.028 A 
ENDBRANCH   6  10
TORSDOF 3
ENDMDL
MODEL 2
REMARK VINA RESULT:       1.0      2.161      3.966
REMARK  3 active torsions:
REMARK  status: ('A' for Active; 'I' for Inactive)
REMARK    1  A    between atoms: C6_6  and  C7_7 
REMARK    2  A    between atoms: C8_8  and  C10_10 
REMARK    3  A    between atoms: C9_9  and  C11_11 
ROOT
HETATM    1  C1  UNL     1     -31.603   6.011   1.098  1.00 20.00    -0.021 C 
HETATM    2  C2  UNL     1     -31.149   7.043   1.844  1.00 20.00    -0.020 C 
HETATM    3  C5  UNL     1     -33.810   6.190   2.184  1.00 20.00    -0.003 C 
HETATM    4  C6  UNL     1     -33.353   7.220   2.919  1.00 20.00     0.024 C 
HETATM    5  C8  UNL     1     -33.111   6.043   0.833  1.00 20.00     0.039 C 
HETATM    6  C9  UNL     1     -32.239   8.031   2.271  1.00 20.00     0.056 C 
ENDROOT
BRANCH   4   7
HETATM    7  C7  UNL     1     -33.917   7.546   4.276  1.00 20.00     0.205 C 
HETATM    8  O12 UNL     1     -33.211   8.321   4.987  1.00 20.00    -0.644 OA
HETATM    9  O13 UNL     1     -35.031   7.006   4.546  1.00 20.00    -0.644 OA
ENDBRANCH   4   7
BRANCH   6  10
HETATM   10  C11 UNL     1     -32.782   8.577   0.912  1.00 20.00     0.029 A 
HETATM   11  C4  UNL     1     -31.826   9.164  -0.115  1.00 20.00    -0.024 A 
HETATM   12  C3  UNL     1     -32.257  10.429   0.059  1.00 20.00    -0.024 A 
HETATM   13  C10 UNL     1     -33.287  10.055   1.111  1.00 20.00     0.028 A 
ENDBRANCH   6  10
TORSDOF 3
ENDMDL
MODEL 3
REMARK VINA RESULT:       1.4      2.172      3.929
REMARK  3 active torsions:
REMARK  status: ('A' for Active; 'I' for Inactive)
REMARK    1  A    between atoms: C6_6  and  C7_7 
REMARK    2  A    between atoms: C8_8  and  C10_10 
REMARK    3  A    between atoms: C9_9  and  C11_11 
ROOT
HETATM    1  C1  UNL     1     -31.993   5.947   1.163  1.00 20.00    -0.021 C 
HETATM    2  C2  UNL     1     -31.227   6.927   1.690  1.00 20.00    -0.020 C 
HETATM    3  C5  UNL     1     -33.840   6.571   2.673  1.00 20.00    -0.003 C 
HETATM    4  C6  UNL     1     -33.073   7.549   3.189  1.00 20.00     0.024 C 
HETATM    5  C8  UNL     1     -33.498   6.223   1.225  1.00 20.00     0.039 C 
HETATM    6  C9  UNL     1     -32.023   8.114   2.242  1.00 20.00     0.056 C 
ENDROOT
BRANCH   4   7
HETATM    7  C7  UNL     1     -33.257   8.050   4.597  1.00 20.00     0.205 C 
HETATM    8  O12 UNL     1     -34.333   7.696   5.164  1.00 20.00    -0.644 OA
HETATM    9  O13 UNL     1     -32.314   8.765   5.047  1.00 20.00    -0.644 OA
ENDBRANCH   4   7
BRANCH   6  10
HETATM   10  C11 UNL     1     -32.769   8.663   0.984  1.00 20.00     0.029 A 
HETATM   11  C4  UNL     1     -31.983   9.239  -0.182  1.00 20.00    -0.024 A 
HETATM   12  C3  UNL     1     -32.370  10.508   0.053  1.00 20.00    -0.024 A 
HETATM   13  C10 UNL     1     -33.225  10.145   1.256  1.00 20.00     0.028 A 
ENDBRANCH   6  10
TORSDOF 3
ENDMDL
MODEL 4
REMARK VINA RESULT:       3.6      1.251      3.006
REMARK  3 active torsions:
REMARK  status: ('A' for Active; 'I' for Inactive)
REMARK    1  A    between atoms: C6_6  and  C7_7 
REMARK    2  A    between atoms: C8_8  and  C10_10 
REMARK    3  A    between atoms: C9_9  and  C11_11 
ROOT
HETATM    1  C1  UNL     1     -32.497   8.198   4.128  1.00 20.00    -0.021 C 
HETATM    2  C2  UNL     1     -31.451   8.065   3.283  1.00 20.00    -0.020 C 
HETATM    3  C5  UNL     1     -33.866   9.121   2.296  1.00 20.00    -0.003 C 
HETATM    4  C6  UNL     1     -32.821   8.981   1.460  1.00 20.00     0.024 C 
HETATM    5  C8  UNL     1     -33.867   8.118   3.449  1.00 20.00     0.039 C 
HETATM    6  C9  UNL     1     -31.852   7.863   1.819  1.00 20.00     0.056 C 
ENDROOT
BRANCH   4   7
HETATM    7  C7  UNL     1     -32.641   9.863   0.253  1.00 20.00     0.205 C 
HETATM    8  O12 UNL     1     -32.849   9.304  -0.865  1.00 20.00    -0.644 OA
HETATM    9  O13 UNL     1     -32.301  11.058   0.498  1.00 20.00    -0.644 OA
ENDBRANCH   4   7
BRANCH   6  10
HETATM   10  C11 UNL     1     -32.663   6.528   1.849  1.00 20.00     0.029 A 
HETATM   11  C4  UNL     1     -31.940   5.192   1.805  1.00 20.00    -0.024 A 
HETATM   12  C3  UNL     1     -32.350   4.896   0.556  1.00 20.00    -0.024 A 
HETATM   13  C10 UNL     1     -33.146   6.181   0.391  1.00 20.00     0.028 A 
ENDBRANCH   6  10
TORSDOF 3
ENDMDL
MODEL 5
REMARK VINA RESULT:       3.6      2.018      3.932
REMARK  3 active torsions:
REMARK  status: ('A' for Active; 'I' for Inactive)
REMARK    1  A    between atoms: C6_6  and  C7_7 
REMARK    2  A    between atoms: C8_8  and  C10_10 
REMARK    3  A    between atoms: C9_9  and  C11_11 
ROOT
HETATM    1  C1  UNL     1     -35.442   5.282   4.070  1.00 20.00    -0.021 C 
HETATM    2  C2  UNL     1     -34.139   5.006   4.299  1.00 20.00    -0.020 C 
HETATM    3  C5  UNL     1     -34.904   7.682   3.881  1.00 20.00    -0.003 C 
HETATM    4  C6  UNL     1     -33.608   7.399   4.105  1.00 20.00     0.024 C 
HETATM    5  C8  UNL     1     -35.678   6.539   3.227  1.00 20.00     0.039 C 
HETATM    6  C9  UNL     1     -33.167   6.008   3.668  1.00 20.00     0.056 C 
ENDROOT
BRANCH   4   7
HETATM    7  C7  UNL     1     -32.669   8.395   4.730  1.00 20.00     0.205 C 
HETATM    8  O12 UNL     1     -31.733   8.804   3.981  1.00 20.00    -0.644 OA
HETATM    9  O13 UNL     1     -32.925   8.704   5.931  1.00 20.00    -0.644 OA
ENDBRANCH   4   7
BRANCH   6  10
HETATM   10  C11 UNL     1     -33.460   5.879   2.139  1.00 20.00     0.029 A 
HETATM   11  C4  UNL     1     -32.882   4.720   1.343  1.00 20.00    -0.024 A 
HETATM   12  C3  UNL     1     -32.012   5.491   0.661  1.00 20.00    -0.024 A 
HETATM   13  C10 UNL     1     -32.446   6.780   1.338  1.00 20.00     0.028 A 
ENDBRANCH   6  10
TORSDOF 3
ENDMDL
MODEL 6
REMARK VINA RESULT:       3.7      2.330      3.811
REMARK  3 active torsions:
REMARK  status: ('A' for Active; 'I' for Inactive)
REMARK    1  A    between atoms: C6_6  and  C7_7 
REMARK    2  A    between atoms: C8_8  and  C10_10 
REMARK    3  A    between atoms: C9_9  and  C11_11 
ROOT
HETATM    1  C1  UNL     1     -31.913   8.899   1.049  1.00 20.00    -0.021 C 
HETATM    2  C2  UNL     1     -33.016   8.159   0.800  1.00 20.00    -0.020 C 
HETATM    3  C5  UNL     1     -32.099   8.378   3.453  1.00 20.00    -0.003 C 
HETATM    4  C6  UNL     1     -33.194   7.638   3.197  1.00 20.00     0.024 C 
HETATM    5  C8  UNL     1     -31.121   8.451   2.281  1.00 20.00     0.039 C 
HETATM    6  C9  UNL     1     -33.247   7.025   1.804  1.00 20.00     0.056 C 
ENDROOT
BRANCH   4   7
HETATM    7  C7  UNL     1     -34.275   7.429   4.223  1.00 20.00     0.205 C 
HETATM    8  O12 UNL     1     -34.155   8.109   5.285  1.00 20.00    -0.644 OA
HETATM    9  O13 UNL     1     -35.175   6.597   3.903  1.00 20.00    -0.644 OA
ENDBRANCH   4   7
BRANCH   6  10
HETATM   10  C11 UNL     1     -31.978   6.130   1.633  1.00 20.00     0.029 A 
HETATM   11  C4  UNL     1     -31.679   5.470   0.297  1.00 20.00    -0.024 A 
HETATM   12  C3  UNL     1     -31.954   4.226   0.736  1.00 20.00    -0.024 A 
HETATM   13  C10 UNL     1     -32.295   4.676   2.147  1.00 20.00     0.028 A 
ENDBRANCH   6  10
TORSDOF 3
ENDMDL
MODEL 7
REMARK VINA RESULT:       3.8      2.364      3.339
REMARK  3 active torsions:
REMARK  status: ('A' for Active; 'I' for Inactive)
REMARK    1  A    between atoms: C6_6  and  C7_7 
REMARK    2  A    between atoms: C8_8  and  C10_10 
REMARK    3  A    between atoms: C9_9  and  C11_11 
ROOT
HETATM    1  C1  UNL     1     -31.660   9.178   1.581  1.00 20.00    -0.021 C 
HETATM    2  C2  UNL     1     -31.278   8.240   2.477  1.00 20.00    -0.020 C 
HETATM    3  C5  UNL     1     -32.799   7.444   0.246  1.00 20.00    -0.003 C 
HETATM    4  C6  UNL     1     -32.420   6.518   1.145  1.00 20.00     0.024 C 
HETATM    5  C8  UNL     1     -32.957   8.844   0.839  1.00 20.00     0.039 C 
HETATM    6  C9  UNL     1     -32.222   7.037   2.563  1.00 20.00     0.056 C 
ENDROOT
BRANCH   4   7
HETATM    7  C7  UNL     1     -32.220   5.074   0.768  1.00 20.00     0.205 C 
HETATM    8  O12 UNL     1     -31.103   4.576   1.097  1.00 20.00    -0.644 OA
HETATM    9  O13 UNL     1     -33.193   4.529   0.167  1.00 20.00    -0.644 OA
ENDBRANCH   4   7
BRANCH   6  10
HETATM   10  C11 UNL     1     -33.572   7.671   3.026  1.00 20.00     0.029 A 
HETATM   11  C4  UNL     1     -33.797   8.009   4.491  1.00 20.00    -0.024 A 
HETATM   12  C3  UNL     1     -34.703   7.029   4.682  1.00 20.00    -0.024 A 
HETATM   13  C10 UNL     1     -34.633   6.529   3.249  1.00 20.00     0.028 A 
ENDBRANCH   6  10
TORSDOF 3
ENDMDL
