MODEL 1
REMARK VINA RESULT:       1.1      0.000      0.000
REMARK  0 active torsions:
REMARK  status: ('A' for Active; 'I' for Inactive)
ROOT
HETATM    1  C1  UNL     1     -34.201   4.135   3.562  1.00 20.00    -0.023 C 
HETATM    2  C2  UNL     1     -34.486   4.901   4.675  1.00 20.00    -0.013 C 
HETATM    3  C3  UNL     1     -33.642   7.443   3.849  1.00 20.00     0.140 C 
HETATM    4  C4  UNL     1     -32.850   7.520   2.517  1.00 20.00     0.088 C 
HETATM    5  C5  UNL     1     -33.298   5.241   3.117  1.00 20.00     0.035 C 
HETATM    6  C6  UNL     1     -34.473   6.136   3.768  1.00 20.00     0.042 C 
HETATM    7  C7  UNL     1     -32.950   6.067   1.889  1.00 20.00    -0.033 C 
HETATM    8  C8  UNL     1     -35.896   6.456   3.283  1.00 20.00     0.029 C 
HETATM    9  C9  UNL     1     -33.942   5.942   0.734  1.00 20.00     0.016 C 
HETATM   10  C10 UNL     1     -31.570   5.632   1.363  1.00 20.00     0.016 C 
HETATM   11  O11 UNL     1     -33.601   8.295   4.725  1.00 20.00    -0.297 OA
ENDROOT
TORSDOF 0
ENDMDL
MODEL 2
REMARK VINA RESULT:       2.0      1.410      3.453
REMARK  0 active torsions:
REMARK  status: ('A' for Active; 'I' for Inactive)
ROOT
HETATM    1  C1  UNL     1     -32.042   8.505   0.387  1.00 20.00    -0.023 C 
HETATM    2  C2  UNL     1     -32.544   9.332   1.372  1.00 20.00    -0.013 C 
HETATM    3  C3  UNL     1     -33.494   7.477   3.246  1.00 20.00     0.140 C 
HETATM    4  C4  UNL     1     -33.523   5.990   2.807  1.00 20.00     0.088 C 
HETATM    5  C5  UNL     1     -32.861   7.406   0.989  1.00 20.00     0.035 C 
HETATM    6  C6  UNL     1     -32.427   8.158   2.350  1.00 20.00     0.042 C 
HETATM    7  C7  UNL     1     -32.762   5.951   1.416  1.00 20.00    -0.033 C 
HETATM    8  C8  UNL     1     -31.085   8.219   3.096  1.00 20.00     0.029 C 
HETATM    9  C9  UNL     1     -31.338   5.402   1.488  1.00 20.00     0.016 C 
HETATM   10  C10 UNL     1     -33.545   5.077   0.419  1.00 20.00     0.016 C 
HETATM   11  O11 UNL     1     -34.174   7.942   4.150  1.00 20.00    -0.297 OA
ENDROOT
TORSDOF 0
ENDMDL
MODEL 3
REMARK VINA RESULT:       2.4      1.592      2.889
REMARK  0 active torsions:
REMARK  status: ('A' for Active; 'I' for Inactive)
ROOT
HETATM    1  C1  UNL     1     -31.449   5.592   0.834  1.00 20.00    -0.023 C 
HETATM    2  C2  UNL     1     -32.350   4.699   1.379  1.00 20.00    -0.013 C 
HETATM    3  C3  UNL     1     -33.917   6.376   2.985  1.00 20.00     0.140 C 
HETATM    4  C4  UNL     1     -33.418   7.832   3.175  1.00 20.00     0.088 C 
HETATM    5  C5  UNL     1     -31.829   6.537   1.930  1.00 20.00     0.035 C 
HETATM    6  C6  UNL     1     -33.280   5.883   1.661  1.00 20.00     0.042 C 
HETATM    7  C7  UNL     1     -32.204   7.991   2.166  1.00 20.00    -0.033 C 
HETATM    8  C8  UNL     1     -34.278   6.062   0.506  1.00 20.00     0.029 C 
HETATM    9  C9  UNL     1     -32.533   8.778   0.898  1.00 20.00     0.016 C 
HETATM   10  C10 UNL     1     -31.035   8.707   2.866  1.00 20.00     0.016 C 
HETATM   11  O11 UNL     1     -34.688   5.808   3.746  1.00 20.00    -0.297 OA
ENDROOT
TORSDOF 0
ENDMDL
MODEL 4
REMARK VINA RESULT:       2.6      1.662      3.525
REMARK  0 active torsions:
REMARK  status: ('A' for Active; 'I' for Inactive)
ROOT
HETATM    1  C1  UNL     1     -32.069   7.644   1.800  1.00 20.00    -0.023 C 
HETATM    2  C2  UNL     1     -31.765   6.320   1.559  1.00 20.00    -0.013 C 
HETATM    3  C3  UNL     1     -33.595   5.001   3.221  1.00 20.00     0.140 C 
HETATM    4  C4  UNL     1     -34.396   5.880   4.218  1.00 20.00     0.088 C 
HETATM    5  C5  UNL     1     -32.764   7.187   3.044  1.00 20.00     0.035 C 
HETATM    6  C6  UNL     1     -33.159   5.955   2.079  1.00 20.00     0.042 C 
HETATM    7  C7  UNL     1     -34.058   7.377   3.818  1.00 20.00    -0.033 C 
HETATM    8  C8  UNL     1     -34.152   5.855   0.911  1.00 20.00     0.029 C 
HETATM    9  C9  UNL     1     -35.165   8.092   3.044  1.00 20.00     0.016 C 
HETATM   10  C10 UNL     1     -33.772   8.202   5.085  1.00 20.00     0.016 C 
HETATM   11  O11 UNL     1     -33.418   3.799   3.352  1.00 20.00    -0.297 OA
ENDROOT
TORSDOF 0
ENDMDL
MODEL 5
REMARK VINA RESULT:       2.9      1.695      3.504
REMARK  0 active torsions:
REMARK  status: ('A' for Active; 'I' for Inactive)
ROOT
HETATM    1  C1  UNL     1     -33.079   8.425   4.494  1.00 20.00    -0.023 C 
HETATM    2  C2  UNL     1     -31.928   8.340   3.737  1.00 20.00    -0.013 C 
HETATM    3  C3  UNL     1     -32.545   6.236   1.992  1.00 20.00     0.140 C 
HETATM    4  C4  UNL     1     -33.839   5.434   2.292  1.00 20.00     0.088 C 
HETATM    5  C5  UNL     1     -33.414   7.048   4.014  1.00 20.00     0.035 C 
HETATM    6  C6  UNL     1     -32.747   7.621   2.660  1.00 20.00     0.042 C 
HETATM    7  C7  UNL     1     -34.569   6.238   3.449  1.00 20.00    -0.033 C 
HETATM    8  C8  UNL     1     -33.259   8.629   1.620  1.00 20.00     0.029 C 
HETATM    9  C9  UNL     1     -35.765   7.068   2.986  1.00 20.00     0.016 C 
HETATM   10  C10 UNL     1     -35.073   5.259   4.524  1.00 20.00     0.016 C 
HETATM   11  O11 UNL     1     -31.613   5.814   1.324  1.00 20.00    -0.297 OA
ENDROOT
TORSDOF 0
ENDMDL
MODEL 6
REMARK VINA RESULT:       3.0      1.995      3.203
REMARK  0 active torsions:
REMARK  status: ('A' for Active; 'I' for Inactive)
ROOT
HETATM    1  C1  UNL     1     -34.396   7.480   3.923  1.00 20.00    -0.023 C 
HETATM    2  C2  UNL     1     -34.914   6.292   3.447  1.00 20.00    -0.013 C 
HETATM    3  C3  UNL     1     -33.180   5.724   1.321  1.00 20.00     0.140 C 
HETATM    4  C4  UNL     1     -32.182   6.840   0.913  1.00 20.00     0.088 C 
HETATM    5  C5  UNL     1     -33.684   7.615   2.614  1.00 20.00     0.035 C 
HETATM    6  C6  UNL     1     -33.554   6.016   2.797  1.00 20.00     0.042 C 
HETATM    7  C7  UNL     1     -32.320   7.953   2.035  1.00 20.00    -0.033 C 
HETATM    8  C8  UNL     1     -32.680   5.166   3.732  1.00 20.00     0.029 C 
HETATM    9  C9  UNL     1     -31.182   7.972   3.053  1.00 20.00     0.016 C 
HETATM   10  C10 UNL     1     -32.381   9.345   1.381  1.00 20.00     0.016 C 
HETATM   11  O11 UNL     1     -33.526   4.809   0.588  1.00 20.00    -0.297 OA
ENDROOT
TORSDOF 0
ENDMDL
MODEL 7
REMARK VINA RESULT:       3.1      1.208      3.341
REMARK  0 active torsions:
REMARK  status: ('A' for Active; 'I' for Inactive)
ROOT
HETATM    1  C1  UNL     1     -34.053   5.108   0.676  1.00 20.00    -0.023 C 
HETATM    2  C2  UNL     1     -33.162   6.005   0.122  1.00 20.00    -0.013 C 
HETATM    3  C3  UNL     1     -32.398   7.508   2.359  1.00 20.00     0.140 C 
HETATM    4  C4  UNL     1     -33.200   7.276   3.667  1.00 20.00     0.088 C 
HETATM    5  C5  UNL     1     -34.148   6.032   1.848  1.00 20.00     0.035 C 
HETATM    6  C6  UNL     1     -32.578   6.215   1.522  1.00 20.00     0.042 C 
HETATM    7  C7  UNL     1     -34.131   6.026   3.368  1.00 20.00    -0.033 C 
HETATM    8  C8  UNL     1     -31.377   5.283   1.744  1.00 20.00     0.029 C 
HETATM    9  C9  UNL     1     -33.654   4.717   3.995  1.00 20.00     0.016 C 
HETATM   10  C10 UNL     1     -35.553   6.300   3.890  1.00 20.00     0.016 C 
HETATM   11  O11 UNL     1     -31.747   8.515   2.121  1.00 20.00    -0.297 OA
ENDROOT
TORSDOF 0
ENDMDL
MODEL 8
REMARK VINA RESULT:       3.4      2.016      3.710
REMARK  0 active torsions:
REMARK  status: ('A' for Active; 'I' for Inactive)
ROOT
HETATM    1  C1  UNL     1     -32.233   5.543   2.009  1.00 20.00    -0.023 C 
HETATM    2  C2  UNL     1     -31.804   6.266   0.914  1.00 20.00    -0.013 C 
HETATM    3  C3  UNL     1     -32.887   8.796   1.439  1.00 20.00     0.140 C 
HETATM    4  C4  UNL     1     -33.890   8.898   2.619  1.00 20.00     0.088 C 
HETATM    5  C5  UNL     1     -33.247   6.619   2.236  1.00 20.00     0.035 C 
HETATM    6  C6  UNL     1     -32.023   7.543   1.732  1.00 20.00     0.042 C 
HETATM    7  C7  UNL     1     -33.830   7.486   3.340  1.00 20.00    -0.033 C 
HETATM    8  C8  UNL     1     -30.715   7.963   2.420  1.00 20.00     0.029 C 
HETATM    9  C9  UNL     1     -33.036   7.475   4.645  1.00 20.00     0.016 C 
HETATM   10  C10 UNL     1     -35.257   7.004   3.660  1.00 20.00     0.016 C 
HETATM   11  O11 UNL     1     -32.822   9.599   0.520  1.00 20.00    -0.297 OA
ENDROOT
TORSDOF 0
ENDMDL
MODEL 9
REMARK VINA RESULT:       3.9      1.434      3.264
REMARK  0 active torsions:
REMARK  status: ('A' for Active; 'I' for Inactive)
ROOT
HETATM    1  C1  UNL     1     -32.271   5.531   2.041  1.00 20.00    -0.023 C 
HETATM    2  C2  UNL     1     -33.223   6.479   1.724  1.00 20.00    -0.013 C 
HETATM    3  C3  UNL     1     -35.163   6.021   3.693  1.00 20.00     0.140 C 
HETATM    4  C4  UNL     1     -34.986   4.754   4.570  1.00 20.00     0.088 C 
HETATM    5  C5  UNL     1     -33.328   4.836   2.839  1.00 20.00     0.035 C 
HETATM    6  C6  UNL     1     -33.748   6.361   3.159  1.00 20.00     0.042 C 
HETATM    7  C7  UNL     1     -33.555   4.182   4.192  1.00 20.00    -0.033 C 
HETATM    8  C8  UNL     1     -33.099   7.430   4.052  1.00 20.00     0.029 C 
HETATM    9  C9  UNL     1     -32.467   4.464   5.227  1.00 20.00     0.016 C 
HETATM   10  C10 UNL     1     -33.637   2.656   4.009  1.00 20.00     0.016 C 
HETATM   11  O11 UNL     1     -36.225   6.604   3.533  1.00 20.00    -0.297 OA
ENDROOT
TORSDOF 0
ENDMDL
