MODEL 1
REMARK VINA RESULT:      -2.6      0.000      0.000
REMARK  2 active torsions:
REMARK  status: ('A' for Active; 'I' for Inactive)
REMARK    1  A    between atoms: C7_7  and  C9_9 
REMARK    2  A    between atoms: C8_8  and  C9_9 
ROOT
HETATM    1  C1  UNL     1     -32.713  10.157  -0.178  1.00 20.00     0.012 C 
HETATM    2  C2  UNL     1     -32.215   9.377   0.587  1.00 20.00    -0.117 C 
HETATM    3  C8  UNL     1     -31.603   8.426   1.526  1.00 20.00     0.093 C 
ENDROOT
BRANCH   3   4
HETATM    4  C9  UNL     1     -32.322   7.089   1.469  1.00 20.00     0.017 C 
BRANCH   4   5
HETATM    5  C7  UNL     1     -32.903   6.724   2.825  1.00 20.00    -0.006 C 
HETATM    6  C5  UNL     1     -33.654   5.391   2.811  1.00 20.00     0.082 C 
HETATM    7  C3  UNL     1     -34.620   5.570   3.954  1.00 20.00     0.127 C 
HETATM    8  C4  UNL     1     -34.683   6.998   4.431  1.00 20.00     0.079 C 
HETATM    9  O10 UNL     1     -35.277   4.659   4.441  1.00 20.00    -0.298 OA
HETATM   10  C6  UNL     1     -33.947   7.730   3.314  1.00 20.00     0.012 C 
ENDBRANCH   4   5
ENDBRANCH   3   4
TORSDOF 2
ENDMDL
MODEL 2
REMARK VINA RESULT:      -2.3      0.812      1.551
REMARK  2 active torsions:
REMARK  status: ('A' for Active; 'I' for Inactive)
REMARK    1  A    between atoms: C7_7  and  C9_9 
REMARK    2  A    between atoms: C8_8  and  C9_9 
ROOT
HETATM    1  C1  UNL     1     -32.921  10.652  -0.128  1.00 20.00     0.012 C 
HETATM    2  C2  UNL     1     -32.293   9.703   0.256  1.00 20.00    -0.117 C 
HETATM    3  C8  UNL     1     -31.520   8.544   0.722  1.00 20.00     0.093 C 
ENDROOT
BRANCH   3   4
HETATM    4  C9  UNL     1     -31.868   8.221   2.166  1.00 20.00     0.017 C 
BRANCH   4   5
HETATM    5  C7  UNL     1     -33.085   7.315   2.245  1.00 20.00    -0.006 C 
HETATM    6  C5  UNL     1     -33.863   7.478   3.553  1.00 20.00     0.082 C 
HETATM    7  C3  UNL     1     -34.536   6.135   3.678  1.00 20.00     0.127 C 
HETATM    8  C4  UNL     1     -33.981   5.124   2.710  1.00 20.00     0.079 C 
HETATM    9  O10 UNL     1     -35.435   5.895   4.475  1.00 20.00    -0.298 OA
HETATM   10  C6  UNL     1     -32.723   5.829   2.214  1.00 20.00     0.012 C 
ENDBRANCH   4   5
ENDBRANCH   3   4
TORSDOF 2
ENDMDL
MODEL 3
REMARK VINA RESULT:      -2.1      2.447      4.969
REMARK  2 active torsions:
REMARK  status: ('A' for Active; 'I' for Inactive)
REMARK    1  A    between atoms: C7_7  and  C9_9 
REMARK    2  A    between atoms: C8_8  and  C9_9 
ROOT
HETATM    1  C1  UNL     1     -33.460   3.414   4.732  1.00 20.00     0.012 C 
HETATM    2  C2  UNL     1     -34.289   4.239   4.460  1.00 20.00    -0.117 C 
HETATM    3  C8  UNL     1     -35.307   5.245   4.128  1.00 20.00     0.093 C 
ENDROOT
BRANCH   3   4
HETATM    4  C9  UNL     1     -34.686   6.632   4.080  1.00 20.00     0.017 C 
BRANCH   4   5
HETATM    5  C7  UNL     1     -33.380   6.618   3.303  1.00 20.00    -0.006 C 
HETATM    6  C5  UNL     1     -32.931   8.017   2.872  1.00 20.00     0.082 C 
HETATM    7  C3  UNL     1     -32.089   7.709   1.661  1.00 20.00     0.127 C 
HETATM    8  C4  UNL     1     -32.257   6.287   1.194  1.00 20.00     0.079 C 
HETATM    9  O10 UNL     1     -31.350   8.522   1.120  1.00 20.00    -0.298 OA
HETATM   10  C6  UNL     1     -33.481   5.842   1.988  1.00 20.00     0.012 C 
ENDBRANCH   4   5
ENDBRANCH   3   4
TORSDOF 2
ENDMDL
MODEL 4
REMARK VINA RESULT:      -2.1      2.450      4.878
REMARK  2 active torsions:
REMARK  status: ('A' for Active; 'I' for Inactive)
REMARK    1  A    between atoms: C7_7  and  C9_9 
REMARK    2  A    between atoms: C8_8  and  C9_9 
ROOT
HETATM    1  C1  UNL     1     -32.914   2.857   5.323  1.00 20.00     0.012 C 
HETATM    2  C2  UNL     1     -33.519   3.505   4.513  1.00 20.00    -0.117 C 
HETATM    3  C8  UNL     1     -34.260   4.295   3.520  1.00 20.00     0.093 C 
ENDROOT
BRANCH   3   4
HETATM    4  C9  UNL     1     -34.768   5.585   4.140  1.00 20.00     0.017 C 
BRANCH   4   5
HETATM    5  C7  UNL     1     -34.207   6.797   3.416  1.00 20.00    -0.006 C 
HETATM    6  C5  UNL     1     -33.246   6.422   2.286  1.00 20.00     0.082 C 
HETATM    7  C3  UNL     1     -32.385   7.656   2.193  1.00 20.00     0.127 C 
HETATM    8  C4  UNL     1     -32.585   8.582   3.363  1.00 20.00     0.079 C 
HETATM    9  O10 UNL     1     -31.613   7.880   1.269  1.00 20.00    -0.298 OA
HETATM   10  C6  UNL     1     -33.371   7.699   4.326  1.00 20.00     0.012 C 
ENDBRANCH   4   5
ENDBRANCH   3   4
TORSDOF 2
ENDMDL
MODEL 5
REMARK VINA RESULT:      -1.4      2.199      4.689
REMARK  2 active torsions:
REMARK  status: ('A' for Active; 'I' for Inactive)
REMARK    1  A    between atoms: C7_7  and  C9_9 
REMARK    2  A    between atoms: C8_8  and  C9_9 
ROOT
HETATM    1  C1  UNL     1     -33.537   3.402   4.729  1.00 20.00     0.012 C 
HETATM    2  C2  UNL     1     -34.321   4.284   4.505  1.00 20.00    -0.117 C 
HETATM    3  C8  UNL     1     -35.283   5.360   4.233  1.00 20.00     0.093 C 
ENDROOT
BRANCH   3   4
HETATM    4  C9  UNL     1     -34.577   6.704   4.188  1.00 20.00     0.017 C 
BRANCH   4   5
HETATM    5  C7  UNL     1     -33.886   6.914   2.851  1.00 20.00    -0.006 C 
HETATM    6  C5  UNL     1     -33.306   5.621   2.273  1.00 20.00     0.082 C 
HETATM    7  C3  UNL     1     -32.196   6.147   1.399  1.00 20.00     0.127 C 
HETATM    8  C4  UNL     1     -31.909   7.604   1.654  1.00 20.00     0.079 C 
HETATM    9  O10 UNL     1     -31.599   5.468   0.573  1.00 20.00    -0.298 OA
HETATM   10  C6  UNL     1     -32.680   7.850   2.946  1.00 20.00     0.012 C 
ENDBRANCH   4   5
ENDBRANCH   3   4
TORSDOF 2
ENDMDL
MODEL 6
REMARK VINA RESULT:      -1.2      2.485      4.919
REMARK  2 active torsions:
REMARK  status: ('A' for Active; 'I' for Inactive)
REMARK    1  A    between atoms: C7_7  and  C9_9 
REMARK    2  A    between atoms: C8_8  and  C9_9 
ROOT
HETATM    1  C1  UNL     1     -34.039   3.809   4.434  1.00 20.00     0.012 C 
HETATM    2  C2  UNL     1     -34.468   4.875   4.085  1.00 20.00    -0.117 C 
HETATM    3  C8  UNL     1     -34.996   6.178   3.658  1.00 20.00     0.093 C 
ENDROOT
BRANCH   3   4
HETATM    4  C9  UNL     1     -34.132   7.304   4.200  1.00 20.00     0.017 C 
BRANCH   4   5
HETATM    5  C7  UNL     1     -32.978   7.607   3.259  1.00 20.00    -0.006 C 
HETATM    6  C5  UNL     1     -33.151   8.932   2.513  1.00 20.00     0.082 C 
HETATM    7  C3  UNL     1     -32.328   8.696   1.273  1.00 20.00     0.127 C 
HETATM    8  C4  UNL     1     -31.940   7.250   1.111  1.00 20.00     0.079 C 
HETATM    9  O10 UNL     1     -32.009   9.580   0.488  1.00 20.00    -0.298 OA
HETATM   10  C6  UNL     1     -32.835   6.571   2.142  1.00 20.00     0.012 C 
ENDBRANCH   4   5
ENDBRANCH   3   4
TORSDOF 2
ENDMDL
MODEL 7
REMARK VINA RESULT:      -1.1      0.927      1.085
REMARK  2 active torsions:
REMARK  status: ('A' for Active; 'I' for Inactive)
REMARK    1  A    between atoms: C7_7  and  C9_9 
REMARK    2  A    between atoms: C8_8  and  C9_9 
ROOT
HETATM    1  C1  UNL     1     -32.692  10.084  -0.529  1.00 20.00     0.012 C 
HETATM    2  C2  UNL     1     -32.493   9.250   0.311  1.00 20.00    -0.117 C 
HETATM    3  C8  UNL     1     -32.246   8.227   1.337  1.00 20.00     0.093 C 
ENDROOT
BRANCH   3   4
HETATM    4  C9  UNL     1     -32.806   8.675   2.677  1.00 20.00     0.017 C 
BRANCH   4   5
HETATM    5  C7  UNL     1     -33.257   7.483   3.505  1.00 20.00    -0.006 C 
HETATM    6  C5  UNL     1     -33.184   6.163   2.736  1.00 20.00     0.082 C 
HETATM    7  C3  UNL     1     -34.222   5.334   3.449  1.00 20.00     0.127 C 
HETATM    8  C4  UNL     1     -35.082   6.162   4.367  1.00 20.00     0.079 C 
HETATM    9  O10 UNL     1     -34.349   4.125   3.300  1.00 20.00    -0.298 OA
HETATM   10  C6  UNL     1     -34.722   7.579   3.935  1.00 20.00     0.012 C 
ENDBRANCH   4   5
ENDBRANCH   3   4
TORSDOF 2
ENDMDL
MODEL 8
REMARK VINA RESULT:      -1.0      2.689      4.999
REMARK  2 active torsions:
REMARK  status: ('A' for Active; 'I' for Inactive)
REMARK    1  A    between atoms: C7_7  and  C9_9 
REMARK    2  A    between atoms: C8_8  and  C9_9 
ROOT
HETATM    1  C1  UNL     1     -35.362   5.358   4.448  1.00 20.00     0.012 C 
HETATM    2  C2  UNL     1     -34.920   6.382   4.003  1.00 20.00    -0.117 C 
HETATM    3  C8  UNL     1     -34.383   7.637   3.460  1.00 20.00     0.093 C 
ENDROOT
BRANCH   3   4
HETATM    4  C9  UNL     1     -32.897   7.752   3.759  1.00 20.00     0.017 C 
BRANCH   4   5
HETATM    5  C7  UNL     1     -32.151   8.371   2.590  1.00 20.00    -0.006 C 
HETATM    6  C5  UNL     1     -32.952   9.471   1.889  1.00 20.00     0.082 C 
HETATM    7  C3  UNL     1     -32.362   9.444   0.502  1.00 20.00     0.127 C 
HETATM    8  C4  UNL     1     -31.499   8.231   0.271  1.00 20.00     0.079 C 
HETATM    9  O10 UNL     1     -32.559  10.311  -0.339  1.00 20.00    -0.298 OA
HETATM   10  C6  UNL     1     -31.853   7.365   1.476  1.00 20.00     0.012 C 
ENDBRANCH   4   5
ENDBRANCH   3   4
TORSDOF 2
ENDMDL
MODEL 9
REMARK VINA RESULT:      -0.2      2.795      5.017
REMARK  2 active torsions:
REMARK  status: ('A' for Active; 'I' for Inactive)
REMARK    1  A    between atoms: C7_7  and  C9_9 
REMARK    2  A    between atoms: C8_8  and  C9_9 
ROOT
HETATM    1  C1  UNL     1     -35.430   6.110   4.018  1.00 20.00     0.012 C 
HETATM    2  C2  UNL     1     -34.409   6.683   3.749  1.00 20.00    -0.117 C 
HETATM    3  C8  UNL     1     -33.160   7.384   3.423  1.00 20.00     0.093 C 
ENDROOT
BRANCH   3   4
HETATM    4  C9  UNL     1     -32.598   6.881   2.104  1.00 20.00     0.017 C 
BRANCH   4   5
HETATM    5  C7  UNL     1     -32.100   8.033   1.248  1.00 20.00    -0.006 C 
HETATM    6  C5  UNL     1     -32.378   9.402   1.874  1.00 20.00     0.082 C 
HETATM    7  C3  UNL     1     -32.420  10.292   0.658  1.00 20.00     0.127 C 
HETATM    8  C4  UNL     1     -32.478   9.506  -0.625  1.00 20.00     0.079 C 
HETATM    9  O10 UNL     1     -32.404  11.516   0.708  1.00 20.00    -0.298 OA
HETATM   10  C6  UNL     1     -32.791   8.103  -0.115  1.00 20.00     0.012 C 
ENDBRANCH   4   5
ENDBRANCH   3   4
TORSDOF 2
ENDMDL
