MODEL 1
REMARK VINA RESULT:      -1.8      0.000      0.000
REMARK  3 active torsions:
REMARK  status: ('A' for Active; 'I' for Inactive)
REMARK    1  A    between atoms: C3_3  and  C7_7 
REMARK    2  A    between atoms: C6_6  and  N9_9 
REMARK    3  A    between atoms: C7_7  and  N9_9 
ROOT
HETATM    1  C1  UNL     1     -34.856   6.134   4.007  1.00 20.00     0.089 C 
HETATM    2  C6  UNL     1     -34.145   7.317   3.525  1.00 20.00     0.395 C 
HETATM    3  N8  UNL     1     -35.424   5.198   4.391  1.00 20.00    -0.195 NA
ENDROOT
BRANCH   2   4
HETATM    4  N9  UNL     1     -32.842   6.946   2.949  1.00 20.00     0.100 N 
HETATM    5  C5  UNL     1     -33.055   6.080   1.778  1.00 20.00     0.311 C 
BRANCH   4   6
HETATM    6  C7  UNL     1     -32.070   8.107   2.608  1.00 20.00     0.300 C 
BRANCH   6   7
HETATM    7  C3  UNL     1     -32.329   8.471   1.182  1.00 20.00    -0.002 C 
HETATM    8  C2  UNL     1     -32.425   9.734   0.744  1.00 20.00    -0.033 C 
HETATM    9  C4  UNL     1     -32.679  10.102  -0.681  1.00 20.00     0.036 C 
ENDBRANCH   6   7
ENDBRANCH   4   6
ENDBRANCH   2   4
TORSDOF 3
ENDMDL
MODEL 2
REMARK VINA RESULT:      -1.7      2.183      5.085
REMARK  3 active torsions:
REMARK  status: ('A' for Active; 'I' for Inactive)
REMARK    1  A    between atoms: C3_3  and  C7_7 
REMARK    2  A    between atoms: C6_6  and  N9_9 
REMARK    3  A    between atoms: C7_7  and  N9_9 
ROOT
HETATM    1  C1  UNL     1     -32.277   8.854   1.070  1.00 20.00     0.089 C 
HETATM    2  C6  UNL     1     -32.252   7.885   2.164  1.00 20.00     0.395 C 
HETATM    3  N8  UNL     1     -32.293   9.627   0.204  1.00 20.00    -0.195 NA
ENDROOT
BRANCH   2   4
HETATM    4  N9  UNL     1     -33.050   6.695   1.826  1.00 20.00     0.100 N 
HETATM    5  C5  UNL     1     -32.164   5.647   1.293  1.00 20.00     0.311 C 
BRANCH   4   6
HETATM    6  C7  UNL     1     -33.794   6.224   2.961  1.00 20.00     0.300 C 
BRANCH   6   7
HETATM    7  C3  UNL     1     -33.297   4.869   3.348  1.00 20.00    -0.002 C 
HETATM    8  C2  UNL     1     -33.877   4.104   4.284  1.00 20.00    -0.033 C 
HETATM    9  C4  UNL     1     -33.388   2.748   4.669  1.00 20.00     0.036 C 
ENDBRANCH   6   7
ENDBRANCH   4   6
ENDBRANCH   2   4
TORSDOF 3
ENDMDL
MODEL 3
REMARK VINA RESULT:      -1.6      1.830      4.774
REMARK  3 active torsions:
REMARK  status: ('A' for Active; 'I' for Inactive)
REMARK    1  A    between atoms: C3_3  and  C7_7 
REMARK    2  A    between atoms: C6_6  and  N9_9 
REMARK    3  A    between atoms: C7_7  and  N9_9 
ROOT
HETATM    1  C1  UNL     1     -32.273   9.510   0.382  1.00 20.00     0.089 C 
HETATM    2  C6  UNL     1     -31.656   8.473   1.208  1.00 20.00     0.395 C 
HETATM    3  N8  UNL     1     -32.759  10.335  -0.274  1.00 20.00    -0.195 NA
ENDROOT
BRANCH   2   4
HETATM    4  N9  UNL     1     -32.642   7.446   1.581  1.00 20.00     0.100 N 
HETATM    5  C5  UNL     1     -32.007   6.118   1.535  1.00 20.00     0.311 C 
BRANCH   4   6
HETATM    6  C7  UNL     1     -33.210   7.710   2.874  1.00 20.00     0.300 C 
BRANCH   6   7
HETATM    7  C3  UNL     1     -33.781   6.445   3.428  1.00 20.00    -0.002 C 
HETATM    8  C2  UNL     1     -34.967   6.376   4.050  1.00 20.00    -0.033 C 
HETATM    9  C4  UNL     1     -35.544   5.114   4.600  1.00 20.00     0.036 C 
ENDBRANCH   6   7
ENDBRANCH   4   6
ENDBRANCH   2   4
TORSDOF 3
ENDMDL
MODEL 4
REMARK VINA RESULT:      -1.5      1.346      2.136
REMARK  3 active torsions:
REMARK  status: ('A' for Active; 'I' for Inactive)
REMARK    1  A    between atoms: C3_3  and  C7_7 
REMARK    2  A    between atoms: C6_6  and  N9_9 
REMARK    3  A    between atoms: C7_7  and  N9_9 
ROOT
HETATM    1  C1  UNL     1     -34.432   4.478   4.280  1.00 20.00     0.089 C 
HETATM    2  C6  UNL     1     -35.190   5.720   4.140  1.00 20.00     0.395 C 
HETATM    3  N8  UNL     1     -33.834   3.490   4.393  1.00 20.00    -0.195 NA
ENDROOT
BRANCH   2   4
HETATM    4  N9  UNL     1     -34.364   6.770   3.522  1.00 20.00     0.100 N 
HETATM    5  C5  UNL     1     -33.943   7.732   4.554  1.00 20.00     0.311 C 
BRANCH   4   6
HETATM    6  C7  UNL     1     -33.234   6.211   2.834  1.00 20.00     0.300 C 
BRANCH   6   7
HETATM    7  C3  UNL     1     -32.907   7.062   1.650  1.00 20.00    -0.002 C 
HETATM    8  C2  UNL     1     -32.099   8.130   1.705  1.00 20.00    -0.033 C 
HETATM    9  C4  UNL     1     -31.764   8.980   0.524  1.00 20.00     0.036 C 
ENDBRANCH   6   7
ENDBRANCH   4   6
ENDBRANCH   2   4
TORSDOF 3
ENDMDL
MODEL 5
REMARK VINA RESULT:      -1.5      1.978      5.187
REMARK  3 active torsions:
REMARK  status: ('A' for Active; 'I' for Inactive)
REMARK    1  A    between atoms: C3_3  and  C7_7 
REMARK    2  A    between atoms: C6_6  and  N9_9 
REMARK    3  A    between atoms: C7_7  and  N9_9 
ROOT
HETATM    1  C1  UNL     1     -32.420   7.528   1.892  1.00 20.00     0.089 C 
HETATM    2  C6  UNL     1     -33.524   6.610   2.168  1.00 20.00     0.395 C 
HETATM    3  N8  UNL     1     -31.543   8.255   1.669  1.00 20.00    -0.195 NA
ENDROOT
BRANCH   2   4
HETATM    4  N9  UNL     1     -33.839   6.587   3.605  1.00 20.00     0.100 N 
HETATM    5  C5  UNL     1     -33.935   7.967   4.107  1.00 20.00     0.311 C 
BRANCH   4   6
HETATM    6  C7  UNL     1     -35.043   5.849   3.866  1.00 20.00     0.300 C 
BRANCH   6   7
HETATM    7  C3  UNL     1     -34.693   4.545   4.507  1.00 20.00    -0.002 C 
HETATM    8  C2  UNL     1     -33.639   3.800   4.147  1.00 20.00    -0.033 C 
HETATM    9  C4  UNL     1     -33.282   2.501   4.789  1.00 20.00     0.036 C 
ENDBRANCH   6   7
ENDBRANCH   4   6
ENDBRANCH   2   4
TORSDOF 3
ENDMDL
MODEL 6
REMARK VINA RESULT:      -0.6      1.383      2.307
REMARK  3 active torsions:
REMARK  status: ('A' for Active; 'I' for Inactive)
REMARK    1  A    between atoms: C3_3  and  C7_7 
REMARK    2  A    between atoms: C6_6  and  N9_9 
REMARK    3  A    between atoms: C7_7  and  N9_9 
ROOT
HETATM    1  C1  UNL     1     -32.734   5.456   1.662  1.00 20.00     0.089 C 
HETATM    2  C6  UNL     1     -33.496   5.987   2.792  1.00 20.00     0.395 C 
HETATM    3  N8  UNL     1     -32.130   5.031   0.768  1.00 20.00    -0.195 NA
ENDROOT
BRANCH   2   4
HETATM    4  N9  UNL     1     -33.401   7.454   2.844  1.00 20.00     0.100 N 
HETATM    5  C5  UNL     1     -33.907   7.931   4.141  1.00 20.00     0.311 C 
BRANCH   4   6
HETATM    6  C7  UNL     1     -32.056   7.900   2.611  1.00 20.00     0.300 C 
BRANCH   6   7
HETATM    7  C3  UNL     1     -31.975   8.539   1.262  1.00 20.00    -0.002 C 
HETATM    8  C2  UNL     1     -32.693   9.613   0.905  1.00 20.00    -0.033 C 
HETATM    9  C4  UNL     1     -32.612  10.258  -0.439  1.00 20.00     0.036 C 
ENDBRANCH   6   7
ENDBRANCH   4   6
ENDBRANCH   2   4
TORSDOF 3
ENDMDL
MODEL 7
REMARK VINA RESULT:      -0.3      1.490      2.460
REMARK  3 active torsions:
REMARK  status: ('A' for Active; 'I' for Inactive)
REMARK    1  A    between atoms: C3_3  and  C7_7 
REMARK    2  A    between atoms: C6_6  and  N9_9 
REMARK    3  A    between atoms: C7_7  and  N9_9 
ROOT
HETATM    1  C1  UNL     1     -34.206   7.413   4.363  1.00 20.00     0.089 C 
HETATM    2  C6  UNL     1     -34.627   6.214   3.640  1.00 20.00     0.395 C 
HETATM    3  N8  UNL     1     -33.876   8.366   4.937  1.00 20.00    -0.195 NA
ENDROOT
BRANCH   2   4
HETATM    4  N9  UNL     1     -33.492   5.298   3.440  1.00 20.00     0.100 N 
HETATM    5  C5  UNL     1     -33.855   3.957   3.929  1.00 20.00     0.311 C 
BRANCH   4   6
HETATM    6  C7  UNL     1     -33.085   5.260   2.064  1.00 20.00     0.300 C 
BRANCH   6   7
HETATM    7  C3  UNL     1     -33.027   6.655   1.529  1.00 20.00    -0.002 C 
HETATM    8  C2  UNL     1     -31.936   7.430   1.594  1.00 20.00    -0.033 C 
HETATM    9  C4  UNL     1     -31.872   8.821   1.056  1.00 20.00     0.036 C 
ENDBRANCH   6   7
ENDBRANCH   4   6
ENDBRANCH   2   4
TORSDOF 3
ENDMDL
MODEL 8
REMARK VINA RESULT:      -0.1      2.204      4.663
REMARK  3 active torsions:
REMARK  status: ('A' for Active; 'I' for Inactive)
REMARK    1  A    between atoms: C3_3  and  C7_7 
REMARK    2  A    between atoms: C6_6  and  N9_9 
REMARK    3  A    between atoms: C7_7  and  N9_9 
ROOT
HETATM    1  C1  UNL     1     -33.109   8.000   4.002  1.00 20.00     0.089 C 
HETATM    2  C6  UNL     1     -32.701   7.716   2.627  1.00 20.00     0.395 C 
HETATM    3  N8  UNL     1     -33.429   8.229   5.094  1.00 20.00    -0.195 NA
ENDROOT
BRANCH   2   4
HETATM    4  N9  UNL     1     -33.428   6.552   2.096  1.00 20.00     0.100 N 
HETATM    5  C5  UNL     1     -32.477   5.642   1.437  1.00 20.00     0.311 C 
BRANCH   4   6
HETATM    6  C7  UNL     1     -34.167   5.880   3.128  1.00 20.00     0.300 C 
BRANCH   6   7
HETATM    7  C3  UNL     1     -33.503   4.578   3.441  1.00 20.00    -0.002 C 
HETATM    8  C2  UNL     1     -33.862   3.789   4.463  1.00 20.00    -0.033 C 
HETATM    9  C4  UNL     1     -33.207   2.485   4.776  1.00 20.00     0.036 C 
ENDBRANCH   6   7
ENDBRANCH   4   6
ENDBRANCH   2   4
TORSDOF 3
ENDMDL
MODEL 9
REMARK VINA RESULT:      -0.1      1.906      4.232
REMARK  3 active torsions:
REMARK  status: ('A' for Active; 'I' for Inactive)
REMARK    1  A    between atoms: C3_3  and  C7_7 
REMARK    2  A    between atoms: C6_6  and  N9_9 
REMARK    3  A    between atoms: C7_7  and  N9_9 
ROOT
HETATM    1  C1  UNL     1     -32.154   8.774   0.915  1.00 20.00     0.089 C 
HETATM    2  C6  UNL     1     -31.875   7.592   1.730  1.00 20.00     0.395 C 
HETATM    3  N8  UNL     1     -32.373   9.715   0.272  1.00 20.00    -0.195 NA
ENDROOT
BRANCH   2   4
HETATM    4  N9  UNL     1     -32.667   6.440   1.268  1.00 20.00     0.100 N 
HETATM    5  C5  UNL     1     -31.769   5.303   1.009  1.00 20.00     0.311 C 
BRANCH   4   6
HETATM    6  C7  UNL     1     -33.690   6.095   2.215  1.00 20.00     0.300 C 
BRANCH   6   7
HETATM    7  C3  UNL     1     -33.383   6.738   3.529  1.00 20.00    -0.002 C 
HETATM    8  C2  UNL     1     -34.146   7.689   4.086  1.00 20.00    -0.033 C 
HETATM    9  C4  UNL     1     -33.848   8.330   5.400  1.00 20.00     0.036 C 
ENDBRANCH   6   7
ENDBRANCH   4   6
ENDBRANCH   2   4
TORSDOF 3
ENDMDL
