MODEL 1
REMARK VINA RESULT:       8.3      0.000      0.000
REMARK  0 active torsions:
REMARK  status: ('A' for Active; 'I' for Inactive)
ROOT
HETATM    1  C1  UNL     1     -34.123   6.543   3.546  1.00 20.00     0.064 C 
HETATM    2  C2  UNL     1     -32.272   5.004   1.106  1.00 20.00    -0.030 C 
HETATM    3  C3  UNL     1     -33.403   5.348   0.483  1.00 20.00    -0.030 C 
HETATM    4  C4  UNL     1     -31.436   5.908   1.948  1.00 20.00     0.037 C 
HETATM    5  C5  UNL     1     -34.035   6.702   0.480  1.00 20.00     0.038 C 
HETATM    6  C6  UNL     1     -31.124   9.482   0.415  1.00 20.00     0.001 C 
HETATM    7  C7  UNL     1     -32.507   9.519  -0.225  1.00 20.00     0.001 C 
HETATM    8  C8  UNL     1     -30.755   8.072   0.856  1.00 20.00     0.011 C 
HETATM    9  C9  UNL     1     -33.566   9.156   0.806  1.00 20.00     0.012 C 
HETATM   10  C10 UNL     1     -32.111   8.055   3.141  1.00 20.00     0.030 C 
HETATM   11  C11 UNL     1     -33.623   7.756   2.926  1.00 20.00     0.103 C 
HETATM   12  C12 UNL     1     -31.810   7.400   1.751  1.00 20.00    -0.027 C 
HETATM   13  C13 UNL     1     -33.323   7.728   1.374  1.00 20.00    -0.013 C 
HETATM   14  N14 UNL     1     -34.521   5.572   4.040  1.00 20.00    -0.197 NA
ENDROOT
TORSDOF 0
ENDMDL
MODEL 2
REMARK VINA RESULT:       9.0      1.399      3.034
REMARK  0 active torsions:
REMARK  status: ('A' for Active; 'I' for Inactive)
ROOT
HETATM    1  C1  UNL     1     -33.198   4.461   3.483  1.00 20.00     0.064 C 
HETATM    2  C2  UNL     1     -35.422   7.066   3.377  1.00 20.00    -0.030 C 
HETATM    3  C3  UNL     1     -34.538   7.436   4.308  1.00 20.00    -0.030 C 
HETATM    4  C4  UNL     1     -35.087   6.569   2.011  1.00 20.00     0.037 C 
HETATM    5  C5  UNL     1     -33.052   7.453   4.159  1.00 20.00     0.038 C 
HETATM    6  C6  UNL     1     -32.147   8.559   0.396  1.00 20.00     0.001 C 
HETATM    7  C7  UNL     1     -31.398   8.847   1.691  1.00 20.00     0.001 C 
HETATM    8  C8  UNL     1     -33.555   8.051   0.672  1.00 20.00     0.011 C 
HETATM    9  C9  UNL     1     -31.187   7.554   2.467  1.00 20.00     0.012 C 
HETATM   10  C10 UNL     1     -32.918   5.521   1.181  1.00 20.00     0.030 C 
HETATM   11  C11 UNL     1     -32.399   5.327   2.636  1.00 20.00     0.103 C 
HETATM   12  C12 UNL     1     -33.610   6.851   1.634  1.00 20.00    -0.027 C 
HETATM   13  C13 UNL     1     -32.549   6.890   2.822  1.00 20.00    -0.013 C 
HETATM   14  N14 UNL     1     -33.838   3.770   4.160  1.00 20.00    -0.197 NA
ENDROOT
TORSDOF 0
ENDMDL
MODEL 3
REMARK VINA RESULT:       9.4      1.914      3.669
REMARK  0 active torsions:
REMARK  status: ('A' for Active; 'I' for Inactive)
ROOT
HETATM    1  C1  UNL     1     -32.769  10.074   0.880  1.00 20.00     0.064 C 
HETATM    2  C2  UNL     1     -32.041   8.534   3.854  1.00 20.00    -0.030 C 
HETATM    3  C3  UNL     1     -33.359   8.358   3.715  1.00 20.00    -0.030 C 
HETATM    4  C4  UNL     1     -31.012   8.243   2.814  1.00 20.00     0.037 C 
HETATM    5  C5  UNL     1     -34.056   7.813   2.512  1.00 20.00     0.038 C 
HETATM    6  C6  UNL     1     -31.758   4.935   0.886  1.00 20.00     0.001 C 
HETATM    7  C7  UNL     1     -33.277   5.032   0.953  1.00 20.00     0.001 C 
HETATM    8  C8  UNL     1     -31.097   5.925   1.835  1.00 20.00     0.011 C 
HETATM    9  C9  UNL     1     -33.733   6.395   0.453  1.00 20.00     0.012 C 
HETATM   10  C10 UNL     1     -31.298   8.077   0.288  1.00 20.00     0.030 C 
HETATM   11  C11 UNL     1     -32.714   8.721   0.358  1.00 20.00     0.103 C 
HETATM   12  C12 UNL     1     -31.579   7.376   1.660  1.00 20.00    -0.027 C 
HETATM   13  C13 UNL     1     -33.127   7.536   1.320  1.00 20.00    -0.013 C 
HETATM   14  N14 UNL     1     -32.812  11.155   1.299  1.00 20.00    -0.197 NA
ENDROOT
TORSDOF 0
ENDMDL
MODEL 4
REMARK VINA RESULT:       9.5      2.071      3.843
REMARK  0 active torsions:
REMARK  status: ('A' for Active; 'I' for Inactive)
ROOT
HETATM    1  C1  UNL     1     -32.421   9.225   0.246  1.00 20.00     0.064 C 
HETATM    2  C2  UNL     1     -32.764   5.908   1.038  1.00 20.00    -0.030 C 
HETATM    3  C3  UNL     1     -31.513   6.200   1.408  1.00 20.00    -0.030 C 
HETATM    4  C4  UNL     1     -33.981   6.692   1.400  1.00 20.00     0.037 C 
HETATM    5  C5  UNL     1     -31.091   7.341   2.274  1.00 20.00     0.038 C 
HETATM    6  C6  UNL     1     -33.897   7.924   5.100  1.00 20.00     0.001 C 
HETATM    7  C7  UNL     1     -32.387   8.107   5.190  1.00 20.00     0.001 C 
HETATM    8  C8  UNL     1     -34.286   7.132   3.859  1.00 20.00     0.011 C 
HETATM    9  C9  UNL     1     -31.898   8.961   4.028  1.00 20.00     0.012 C 
HETATM   10  C10 UNL     1     -34.154   9.131   2.114  1.00 20.00     0.030 C 
HETATM   11  C11 UNL     1     -32.693   9.419   1.658  1.00 20.00     0.103 C 
HETATM   12  C12 UNL     1     -33.708   7.695   2.550  1.00 20.00    -0.027 C 
HETATM   13  C13 UNL     1     -32.234   8.289   2.665  1.00 20.00    -0.013 C 
HETATM   14  N14 UNL     1     -32.204   9.069  -0.883  1.00 20.00    -0.197 NA
ENDROOT
TORSDOF 0
ENDMDL
MODEL 5
REMARK VINA RESULT:       9.8      2.043      4.361
REMARK  0 active torsions:
REMARK  status: ('A' for Active; 'I' for Inactive)
ROOT
HETATM    1  C1  UNL     1     -32.107   7.947   2.017  1.00 20.00     0.064 C 
HETATM    2  C2  UNL     1     -34.607   6.179   0.477  1.00 20.00    -0.030 C 
HETATM    3  C3  UNL     1     -33.545   5.370   0.399  1.00 20.00    -0.030 C 
HETATM    4  C4  UNL     1     -35.090   6.859   1.714  1.00 20.00     0.037 C 
HETATM    5  C5  UNL     1     -32.657   4.966   1.529  1.00 20.00     0.038 C 
HETATM    6  C6  UNL     1     -34.902   4.537   4.843  1.00 20.00     0.001 C 
HETATM    7  C7  UNL     1     -33.665   3.760   4.410  1.00 20.00     0.001 C 
HETATM    8  C8  UNL     1     -35.478   5.348   3.690  1.00 20.00     0.011 C 
HETATM    9  C9  UNL     1     -32.550   4.727   4.036  1.00 20.00     0.012 C 
HETATM   10  C10 UNL     1     -33.802   7.406   3.842  1.00 20.00     0.030 C 
HETATM   11  C11 UNL     1     -32.439   7.107   3.152  1.00 20.00     0.103 C 
HETATM   12  C12 UNL     1     -34.453   6.261   2.994  1.00 20.00    -0.027 C 
HETATM   13  C13 UNL     1     -32.987   5.652   2.863  1.00 20.00    -0.013 C 
HETATM   14  N14 UNL     1     -31.843   8.619   1.109  1.00 20.00    -0.197 NA
ENDROOT
TORSDOF 0
ENDMDL
MODEL 6
REMARK VINA RESULT:      10.1      2.011      4.029
REMARK  0 active torsions:
REMARK  status: ('A' for Active; 'I' for Inactive)
ROOT
HETATM    1  C1  UNL     1     -32.998   9.334   0.689  1.00 20.00     0.064 C 
HETATM    2  C2  UNL     1     -30.472   7.894   2.503  1.00 20.00    -0.030 C 
HETATM    3  C3  UNL     1     -31.139   8.623   3.403  1.00 20.00    -0.030 C 
HETATM    4  C4  UNL     1     -31.083   6.929   1.543  1.00 20.00     0.037 C 
HETATM    5  C5  UNL     1     -32.612   8.597   3.645  1.00 20.00     0.038 C 
HETATM    6  C6  UNL     1     -33.928   4.821   3.180  1.00 20.00     0.001 C 
HETATM    7  C7  UNL     1     -34.418   5.901   4.137  1.00 20.00     0.001 C 
HETATM    8  C8  UNL     1     -32.581   5.188   2.574  1.00 20.00     0.011 C 
HETATM    9  C9  UNL     1     -34.685   7.190   3.372  1.00 20.00     0.012 C 
HETATM   10  C10 UNL     1     -33.480   6.830   0.689  1.00 20.00     0.030 C 
HETATM   11  C11 UNL     1     -33.789   8.251   1.245  1.00 20.00     0.103 C 
HETATM   12  C12 UNL     1     -32.546   6.580   1.920  1.00 20.00    -0.027 C 
HETATM   13  C13 UNL     1     -33.392   7.700   2.673  1.00 20.00    -0.013 C 
HETATM   14  N14 UNL     1     -32.364  10.198   0.244  1.00 20.00    -0.197 NA
ENDROOT
TORSDOF 0
ENDMDL
MODEL 7
REMARK VINA RESULT:      10.2      1.868      3.339
REMARK  0 active torsions:
REMARK  status: ('A' for Active; 'I' for Inactive)
ROOT
HETATM    1  C1  UNL     1     -33.894   4.917   0.115  1.00 20.00     0.064 C 
HETATM    2  C2  UNL     1     -32.898   3.856   3.218  1.00 20.00    -0.030 C 
HETATM    3  C3  UNL     1     -31.755   4.182   2.607  1.00 20.00    -0.030 C 
HETATM    4  C4  UNL     1     -34.118   4.713   3.290  1.00 20.00     0.037 C 
HETATM    5  C5  UNL     1     -31.462   5.469   1.907  1.00 20.00     0.038 C 
HETATM    6  C6  UNL     1     -33.251   8.465   3.914  1.00 20.00     0.001 C 
HETATM    7  C7  UNL     1     -31.931   8.469   3.152  1.00 20.00     0.001 C 
HETATM    8  C8  UNL     1     -33.744   7.045   4.160  1.00 20.00     0.011 C 
HETATM    9  C9  UNL     1     -32.135   7.893   1.758  1.00 20.00     0.012 C 
HETATM   10  C10 UNL     1     -34.816   6.629   1.764  1.00 20.00     0.030 C 
HETATM   11  C11 UNL     1     -33.747   6.236   0.702  1.00 20.00     0.103 C 
HETATM   12  C12 UNL     1     -33.823   6.181   2.890  1.00 20.00    -0.027 C 
HETATM   13  C13 UNL     1     -32.658   6.429   1.832  1.00 20.00    -0.013 C 
HETATM   14  N14 UNL     1     -34.011   3.862  -0.353  1.00 20.00    -0.197 NA
ENDROOT
TORSDOF 0
ENDMDL
MODEL 8
REMARK VINA RESULT:      10.8      1.672      2.104
REMARK  0 active torsions:
REMARK  status: ('A' for Active; 'I' for Inactive)
ROOT
HETATM    1  C1  UNL     1     -32.398   8.462   4.844  1.00 20.00     0.064 C 
HETATM    2  C2  UNL     1     -33.905   6.194   2.762  1.00 20.00    -0.030 C 
HETATM    3  C3  UNL     1     -34.757   7.224   2.788  1.00 20.00    -0.030 C 
HETATM    4  C4  UNL     1     -32.438   6.289   2.509  1.00 20.00     0.037 C 
HETATM    5  C5  UNL     1     -34.419   8.658   2.541  1.00 20.00     0.038 C 
HETATM    6  C6  UNL     1     -31.590   8.841  -0.317  1.00 20.00     0.001 C 
HETATM    7  C7  UNL     1     -32.734   9.805  -0.031  1.00 20.00     0.001 C 
HETATM    8  C8  UNL     1     -31.785   7.518   0.411  1.00 20.00     0.011 C 
HETATM    9  C9  UNL     1     -32.739  10.182   1.443  1.00 20.00     0.012 C 
HETATM   10  C10 UNL     1     -30.894   8.295   2.791  1.00 20.00     0.030 C 
HETATM   11  C11 UNL     1     -31.975   9.074   3.598  1.00 20.00     0.103 C 
HETATM   12  C12 UNL     1     -32.035   7.666   1.922  1.00 20.00    -0.027 C 
HETATM   13  C13 UNL     1     -32.920   8.923   2.339  1.00 20.00    -0.013 C 
HETATM   14  N14 UNL     1     -32.736   7.971   5.839  1.00 20.00    -0.197 NA
ENDROOT
TORSDOF 0
ENDMDL
MODEL 9
REMARK VINA RESULT:      11.2      1.951      3.255
REMARK  0 active torsions:
REMARK  status: ('A' for Active; 'I' for Inactive)
ROOT
HETATM    1  C1  UNL     1     -32.690   8.002   3.854  1.00 20.00     0.064 C 
HETATM    2  C2  UNL     1     -34.520   5.151   4.377  1.00 20.00    -0.030 C 
HETATM    3  C3  UNL     1     -35.403   6.011   3.859  1.00 20.00    -0.030 C 
HETATM    4  C4  UNL     1     -33.172   4.848   3.814  1.00 20.00     0.037 C 
HETATM    5  C5  UNL     1     -35.231   6.810   2.609  1.00 20.00     0.038 C 
HETATM    6  C6  UNL     1     -33.224   4.583  -0.077  1.00 20.00     0.001 C 
HETATM    7  C7  UNL     1     -34.321   5.615  -0.309  1.00 20.00     0.001 C 
HETATM    8  C8  UNL     1     -33.145   4.177   1.388  1.00 20.00     0.011 C 
HETATM    9  C9  UNL     1     -33.981   6.906   0.423  1.00 20.00     0.012 C 
HETATM   10  C10 UNL     1     -31.740   6.261   2.251  1.00 20.00     0.030 C 
HETATM   11  C11 UNL     1     -32.632   7.515   2.488  1.00 20.00     0.103 C 
HETATM   12  C12 UNL     1     -33.018   5.363   2.360  1.00 20.00    -0.027 C 
HETATM   13  C13 UNL     1     -33.850   6.660   1.954  1.00 20.00    -0.013 C 
HETATM   14  N14 UNL     1     -32.736   8.389   4.947  1.00 20.00    -0.197 NA
ENDROOT
TORSDOF 0
ENDMDL
