MODEL 1
REMARK VINA RESULT:      -3.3      0.000      0.000
REMARK  2 active torsions:
REMARK  status: ('A' for Active; 'I' for Inactive)
REMARK    1  A    between atoms: C7_7  and  C9_9 
REMARK    2  A    between atoms: C8_8  and  C9_9 
ROOT
HETATM    1  C1  UNL     1     -32.611   9.923  -0.232  1.00 20.00     0.012 C 
HETATM    2  C2  UNL     1     -32.245   9.259   0.699  1.00 20.00    -0.117 C 
HETATM    3  C8  UNL     1     -31.796   8.452   1.842  1.00 20.00     0.093 C 
ENDROOT
BRANCH   3   4
HETATM    4  C9  UNL     1     -32.105   6.983   1.607  1.00 20.00     0.017 C 
BRANCH   4   5
HETATM    5  C7  UNL     1     -33.435   6.599   2.235  1.00 20.00    -0.006 C 
HETATM    6  C5  UNL     1     -33.416   5.202   2.860  1.00 20.00     0.082 C 
HETATM    7  C3  UNL     1     -34.494   5.321   3.907  1.00 20.00     0.127 C 
HETATM    8  C4  UNL     1     -34.925   6.748   4.125  1.00 20.00     0.079 C 
HETATM    9  O10 UNL     1     -34.967   4.366   4.510  1.00 20.00    -0.298 OA
HETATM   10  C6  UNL     1     -33.833   7.517   3.390  1.00 20.00     0.012 C 
ENDBRANCH   4   5
ENDBRANCH   3   4
TORSDOF 2
ENDMDL
MODEL 2
REMARK VINA RESULT:      -2.5      0.841      1.582
REMARK  2 active torsions:
REMARK  status: ('A' for Active; 'I' for Inactive)
REMARK    1  A    between atoms: C7_7  and  C9_9 
REMARK    2  A    between atoms: C8_8  and  C9_9 
ROOT
HETATM    1  C1  UNL     1     -32.707  10.345  -0.456  1.00 20.00     0.012 C 
HETATM    2  C2  UNL     1     -32.298   9.461   0.246  1.00 20.00    -0.117 C 
HETATM    3  C8  UNL     1     -31.793   8.378   1.101  1.00 20.00     0.093 C 
ENDROOT
BRANCH   3   4
HETATM    4  C9  UNL     1     -32.223   8.595   2.541  1.00 20.00     0.017 C 
BRANCH   4   5
HETATM    5  C7  UNL     1     -32.740   7.305   3.157  1.00 20.00    -0.006 C 
HETATM    6  C5  UNL     1     -34.090   7.478   3.857  1.00 20.00     0.082 C 
HETATM    7  C3  UNL     1     -34.656   6.083   3.780  1.00 20.00     0.127 C 
HETATM    8  C4  UNL     1     -33.872   5.199   2.846  1.00 20.00     0.079 C 
HETATM    9  O10 UNL     1     -35.639   5.712   4.408  1.00 20.00    -0.298 OA
HETATM   10  C6  UNL     1     -32.998   6.213   2.118  1.00 20.00     0.012 C 
ENDBRANCH   4   5
ENDBRANCH   3   4
TORSDOF 2
ENDMDL
MODEL 3
REMARK VINA RESULT:      -2.2      2.401      4.735
REMARK  2 active torsions:
REMARK  status: ('A' for Active; 'I' for Inactive)
REMARK    1  A    between atoms: C7_7  and  C9_9 
REMARK    2  A    between atoms: C8_8  and  C9_9 
ROOT
HETATM    1  C1  UNL     1     -33.364   3.262   4.324  1.00 20.00     0.012 C 
HETATM    2  C2  UNL     1     -34.243   4.062   4.493  1.00 20.00    -0.117 C 
HETATM    3  C8  UNL     1     -35.321   5.039   4.704  1.00 20.00     0.093 C 
ENDROOT
BRANCH   3   4
HETATM    4  C9  UNL     1     -35.229   6.158   3.682  1.00 20.00     0.017 C 
BRANCH   4   5
HETATM    5  C7  UNL     1     -33.793   6.627   3.512  1.00 20.00    -0.006 C 
HETATM    6  C5  UNL     1     -33.356   6.689   2.047  1.00 20.00     0.082 C 
HETATM    7  C3  UNL     1     -32.265   7.727   2.096  1.00 20.00     0.127 C 
HETATM    8  C4  UNL     1     -32.241   8.468   3.408  1.00 20.00     0.079 C 
HETATM    9  O10 UNL     1     -31.487   7.943   1.175  1.00 20.00    -0.298 OA
HETATM   10  C6  UNL     1     -33.568   8.049   4.026  1.00 20.00     0.012 C 
ENDBRANCH   4   5
ENDBRANCH   3   4
TORSDOF 2
ENDMDL
MODEL 4
REMARK VINA RESULT:      -2.0      2.403      4.978
REMARK  2 active torsions:
REMARK  status: ('A' for Active; 'I' for Inactive)
REMARK    1  A    between atoms: C7_7  and  C9_9 
REMARK    2  A    between atoms: C8_8  and  C9_9 
ROOT
HETATM    1  C1  UNL     1     -33.112   3.062   4.854  1.00 20.00     0.012 C 
HETATM    2  C2  UNL     1     -33.966   3.854   4.560  1.00 20.00    -0.117 C 
HETATM    3  C8  UNL     1     -35.014   4.819   4.201  1.00 20.00     0.093 C 
ENDROOT
BRANCH   3   4
HETATM    4  C9  UNL     1     -34.475   6.237   4.270  1.00 20.00     0.017 C 
BRANCH   4   5
HETATM    5  C7  UNL     1     -33.958   6.691   2.915  1.00 20.00    -0.006 C 
HETATM    6  C5  UNL     1     -32.968   7.854   3.014  1.00 20.00     0.082 C 
HETATM    7  C3  UNL     1     -32.159   7.677   1.755  1.00 20.00     0.127 C 
HETATM    8  C4  UNL     1     -32.415   6.347   1.094  1.00 20.00     0.079 C 
HETATM    9  O10 UNL     1     -31.384   8.518   1.319  1.00 20.00    -0.298 OA
HETATM   10  C6  UNL     1     -33.175   5.600   2.183  1.00 20.00     0.012 C 
ENDBRANCH   4   5
ENDBRANCH   3   4
TORSDOF 2
ENDMDL
MODEL 5
REMARK VINA RESULT:      -1.8      0.797      1.548
REMARK  2 active torsions:
REMARK  status: ('A' for Active; 'I' for Inactive)
REMARK    1  A    between atoms: C7_7  and  C9_9 
REMARK    2  A    between atoms: C8_8  and  C9_9 
ROOT
HETATM    1  C1  UNL     1     -32.397   9.960  -0.036  1.00 20.00     0.012 C 
HETATM    2  C2  UNL     1     -32.238   9.147   0.833  1.00 20.00    -0.117 C 
HETATM    3  C8  UNL     1     -32.041   8.155   1.899  1.00 20.00     0.093 C 
ENDROOT
BRANCH   3   4
HETATM    4  C9  UNL     1     -32.844   6.898   1.609  1.00 20.00     0.017 C 
BRANCH   4   5
HETATM    5  C7  UNL     1     -33.153   6.140   2.890  1.00 20.00    -0.006 C 
HETATM    6  C5  UNL     1     -34.580   6.375   3.390  1.00 20.00     0.082 C 
HETATM    7  C3  UNL     1     -34.838   5.118   4.181  1.00 20.00     0.127 C 
HETATM    8  C4  UNL     1     -33.790   4.063   3.935  1.00 20.00     0.079 C 
HETATM    9  O10 UNL     1     -35.789   4.972   4.938  1.00 20.00    -0.298 OA
HETATM   10  C6  UNL     1     -33.065   4.624   2.718  1.00 20.00     0.012 C 
ENDBRANCH   4   5
ENDBRANCH   3   4
TORSDOF 2
ENDMDL
MODEL 6
REMARK VINA RESULT:      -1.2      1.486      1.867
REMARK  2 active torsions:
REMARK  status: ('A' for Active; 'I' for Inactive)
REMARK    1  A    between atoms: C7_7  and  C9_9 
REMARK    2  A    between atoms: C8_8  and  C9_9 
ROOT
HETATM    1  C1  UNL     1     -32.825  10.209  -0.372  1.00 20.00     0.012 C 
HETATM    2  C2  UNL     1     -32.214   9.454   0.333  1.00 20.00    -0.117 C 
HETATM    3  C8  UNL     1     -31.463   8.534   1.199  1.00 20.00     0.093 C 
ENDROOT
BRANCH   3   4
HETATM    4  C9  UNL     1     -32.090   7.151   1.173  1.00 20.00     0.017 C 
BRANCH   4   5
HETATM    5  C7  UNL     1     -32.699   6.803   2.522  1.00 20.00    -0.006 C 
HETATM    6  C5  UNL     1     -32.788   8.007   3.463  1.00 20.00     0.082 C 
HETATM    7  C3  UNL     1     -33.932   7.610   4.361  1.00 20.00     0.127 C 
HETATM    8  C4  UNL     1     -34.686   6.417   3.832  1.00 20.00     0.079 C 
HETATM    9  O10 UNL     1     -34.215   8.190   5.401  1.00 20.00    -0.298 OA
HETATM   10  C6  UNL     1     -34.141   6.310   2.413  1.00 20.00     0.012 C 
ENDBRANCH   4   5
ENDBRANCH   3   4
TORSDOF 2
ENDMDL
MODEL 7
REMARK VINA RESULT:      -1.1      2.676      5.063
REMARK  2 active torsions:
REMARK  status: ('A' for Active; 'I' for Inactive)
REMARK    1  A    between atoms: C7_7  and  C9_9 
REMARK    2  A    between atoms: C8_8  and  C9_9 
ROOT
HETATM    1  C1  UNL     1     -33.956   3.957   4.143  1.00 20.00     0.012 C 
HETATM    2  C2  UNL     1     -34.303   5.096   3.993  1.00 20.00    -0.117 C 
HETATM    3  C8  UNL     1     -34.732   6.490   3.811  1.00 20.00     0.093 C 
ENDROOT
BRANCH   3   4
HETATM    4  C9  UNL     1     -33.526   7.408   3.717  1.00 20.00     0.017 C 
BRANCH   4   5
HETATM    5  C7  UNL     1     -33.200   7.735   2.269  1.00 20.00    -0.006 C 
HETATM    6  C5  UNL     1     -33.269   9.233   1.967  1.00 20.00     0.082 C 
HETATM    7  C3  UNL     1     -32.331   9.353   0.792  1.00 20.00     0.127 C 
HETATM    8  C4  UNL     1     -31.516   8.103   0.584  1.00 20.00     0.079 C 
HETATM    9  O10 UNL     1     -32.244  10.350   0.088  1.00 20.00    -0.298 OA
HETATM   10  C6  UNL     1     -31.775   7.343   1.878  1.00 20.00     0.012 C 
ENDBRANCH   4   5
ENDBRANCH   3   4
TORSDOF 2
ENDMDL
