MODEL 1
REMARK VINA RESULT:      -1.1      0.000      0.000
REMARK  0 active torsions:
REMARK  status: ('A' for Active; 'I' for Inactive)
ROOT
HETATM    1  C1  UNL     1     -33.780   8.267   4.131  1.00 20.00    -0.021 C 
HETATM    2  C2  UNL     1     -32.163   8.188   1.869  1.00 20.00    -0.021 C 
HETATM    3  C3  UNL     1     -34.535   7.202   4.502  1.00 20.00    -0.018 C 
HETATM    4  C4  UNL     1     -31.961   7.029   1.168  1.00 20.00    -0.024 C 
HETATM    5  C5  UNL     1     -33.870   4.663   3.357  1.00 20.00     0.135 C 
HETATM    6  C6  UNL     1     -33.181   4.556   1.962  1.00 20.00     0.087 C 
HETATM    7  C7  UNL     1     -32.728   7.809   3.206  1.00 20.00     0.036 C 
HETATM    8  C8  UNL     1     -34.477   6.055   3.540  1.00 20.00     0.083 C 
HETATM    9  C9  UNL     1     -32.435   5.869   2.018  1.00 20.00     0.021 C 
HETATM   10  C10 UNL     1     -33.555   6.722   2.567  1.00 20.00     0.020 C 
HETATM   11  O11 UNL     1     -33.980   3.744   4.156  1.00 20.00    -0.297 OA
ENDROOT
TORSDOF 0
ENDMDL
MODEL 2
REMARK VINA RESULT:      -0.5      1.961      3.147
REMARK  0 active torsions:
REMARK  status: ('A' for Active; 'I' for Inactive)
ROOT
HETATM    1  C1  UNL     1     -34.568   7.391   4.528  1.00 20.00    -0.021 C 
HETATM    2  C2  UNL     1     -34.247   4.774   3.640  1.00 20.00    -0.021 C 
HETATM    3  C3  UNL     1     -33.776   8.397   4.076  1.00 20.00    -0.018 C 
HETATM    4  C4  UNL     1     -33.401   4.462   2.611  1.00 20.00    -0.024 C 
HETATM    5  C5  UNL     1     -32.293   7.916   1.673  1.00 20.00     0.135 C 
HETATM    6  C6  UNL     1     -31.868   6.474   1.256  1.00 20.00     0.087 C 
HETATM    7  C7  UNL     1     -34.481   6.255   3.593  1.00 20.00     0.036 C 
HETATM    8  C8  UNL     1     -32.688   7.941   3.151  1.00 20.00     0.083 C 
HETATM    9  C9  UNL     1     -33.025   5.742   1.896  1.00 20.00     0.021 C 
HETATM   10  C10 UNL     1     -33.040   6.487   3.211  1.00 20.00     0.020 C 
HETATM   11  O11 UNL     1     -32.241   8.898   0.948  1.00 20.00    -0.297 OA
ENDROOT
TORSDOF 0
ENDMDL
MODEL 3
REMARK VINA RESULT:      -0.5      1.078      2.696
REMARK  0 active torsions:
REMARK  status: ('A' for Active; 'I' for Inactive)
ROOT
HETATM    1  C1  UNL     1     -32.366   5.335   1.085  1.00 20.00    -0.021 C 
HETATM    2  C2  UNL     1     -31.657   8.000   1.452  1.00 20.00    -0.021 C 
HETATM    3  C3  UNL     1     -33.136   4.674   1.986  1.00 20.00    -0.018 C 
HETATM    4  C4  UNL     1     -32.196   8.757   2.457  1.00 20.00    -0.024 C 
HETATM    5  C5  UNL     1     -34.613   6.260   3.858  1.00 20.00     0.135 C 
HETATM    6  C6  UNL     1     -34.120   7.675   4.292  1.00 20.00     0.087 C 
HETATM    7  C7  UNL     1     -32.523   6.786   1.292  1.00 20.00     0.036 C 
HETATM    8  C8  UNL     1     -33.470   5.482   3.203  1.00 20.00     0.083 C 
HETATM    9  C9  UNL     1     -33.404   8.027   3.009  1.00 20.00     0.021 C 
HETATM   10  C10 UNL     1     -32.710   6.702   2.786  1.00 20.00     0.020 C 
HETATM   11  O11 UNL     1     -35.726   5.808   4.081  1.00 20.00    -0.297 OA
ENDROOT
TORSDOF 0
ENDMDL
MODEL 4
REMARK VINA RESULT:      -0.2      1.547      2.926
REMARK  0 active torsions:
REMARK  status: ('A' for Active; 'I' for Inactive)
ROOT
HETATM    1  C1  UNL     1     -31.486   7.860   1.407  1.00 20.00    -0.021 C 
HETATM    2  C2  UNL     1     -32.352   5.244   1.021  1.00 20.00    -0.021 C 
HETATM    3  C3  UNL     1     -32.147   8.712   2.231  1.00 20.00    -0.018 C 
HETATM    4  C4  UNL     1     -33.361   4.702   1.771  1.00 20.00    -0.024 C 
HETATM    5  C5  UNL     1     -33.976   7.563   4.111  1.00 20.00     0.135 C 
HETATM    6  C6  UNL     1     -34.687   6.204   3.825  1.00 20.00     0.087 C 
HETATM    7  C7  UNL     1     -31.880   6.477   1.733  1.00 20.00     0.036 C 
HETATM    8  C8  UNL     1     -33.402   8.139   2.815  1.00 20.00     0.083 C 
HETATM    9  C9  UNL     1     -33.600   5.597   2.969  1.00 20.00     0.021 C 
HETATM   10  C10 UNL     1     -33.296   6.814   2.125  1.00 20.00     0.020 C 
HETATM   11  O11 UNL     1     -33.951   8.125   5.196  1.00 20.00    -0.297 OA
ENDROOT
TORSDOF 0
ENDMDL
MODEL 5
REMARK VINA RESULT:      -0.0      2.239      3.338
REMARK  0 active torsions:
REMARK  status: ('A' for Active; 'I' for Inactive)
ROOT
HETATM    1  C1  UNL     1     -34.348   6.970   4.012  1.00 20.00    -0.021 C 
HETATM    2  C2  UNL     1     -33.303   4.864   2.526  1.00 20.00    -0.021 C 
HETATM    3  C3  UNL     1     -33.878   8.236   3.877  1.00 20.00    -0.018 C 
HETATM    4  C4  UNL     1     -32.409   5.073   1.510  1.00 20.00    -0.024 C 
HETATM    5  C5  UNL     1     -32.337   8.819   1.535  1.00 20.00     0.135 C 
HETATM    6  C6  UNL     1     -31.522   7.709   0.802  1.00 20.00     0.087 C 
HETATM    7  C7  UNL     1     -33.948   6.182   2.832  1.00 20.00     0.036 C 
HETATM    8  C8  UNL     1     -32.713   8.353   2.943  1.00 20.00     0.083 C 
HETATM    9  C9  UNL     1     -32.419   6.547   1.162  1.00 20.00     0.021 C 
HETATM   10  C10 UNL     1     -32.636   6.894   2.617  1.00 20.00     0.020 C 
HETATM   11  O11 UNL     1     -32.572   9.929   1.082  1.00 20.00    -0.297 OA
ENDROOT
TORSDOF 0
ENDMDL
MODEL 6
REMARK VINA RESULT:       0.3      1.913      3.908
REMARK  0 active torsions:
REMARK  status: ('A' for Active; 'I' for Inactive)
ROOT
HETATM    1  C1  UNL     1     -33.056   4.309   2.281  1.00 20.00    -0.021 C 
HETATM    2  C2  UNL     1     -35.004   5.187   4.063  1.00 20.00    -0.021 C 
HETATM    3  C3  UNL     1     -32.337   5.180   1.529  1.00 20.00    -0.018 C 
HETATM    4  C4  UNL     1     -35.173   6.515   4.348  1.00 20.00    -0.024 C 
HETATM    5  C5  UNL     1     -32.336   7.925   2.347  1.00 20.00     0.135 C 
HETATM    6  C6  UNL     1     -33.532   8.536   3.140  1.00 20.00     0.087 C 
HETATM    7  C7  UNL     1     -33.661   5.037   3.411  1.00 20.00     0.036 C 
HETATM    8  C8  UNL     1     -32.758   6.609   1.690  1.00 20.00     0.083 C 
HETATM    9  C9  UNL     1     -33.960   7.269   3.844  1.00 20.00     0.021 C 
HETATM   10  C10 UNL     1     -33.861   6.331   2.663  1.00 20.00     0.020 C 
HETATM   11  O11 UNL     1     -31.246   8.458   2.204  1.00 20.00    -0.297 OA
ENDROOT
TORSDOF 0
ENDMDL
MODEL 7
REMARK VINA RESULT:       0.5      1.423      2.835
REMARK  0 active torsions:
REMARK  status: ('A' for Active; 'I' for Inactive)
ROOT
HETATM    1  C1  UNL     1     -32.350   8.841   2.108  1.00 20.00    -0.021 C 
HETATM    2  C2  UNL     1     -34.060   8.143   4.188  1.00 20.00    -0.021 C 
HETATM    3  C3  UNL     1     -31.750   7.900   1.336  1.00 20.00    -0.018 C 
HETATM    4  C4  UNL     1     -34.469   6.851   4.382  1.00 20.00    -0.024 C 
HETATM    5  C5  UNL     1     -32.847   5.255   1.404  1.00 20.00     0.135 C 
HETATM    6  C6  UNL     1     -33.606   4.723   2.659  1.00 20.00     0.087 C 
HETATM    7  C7  UNL     1     -33.500   8.231   2.800  1.00 20.00     0.036 C 
HETATM    8  C8  UNL     1     -32.026   6.493   1.772  1.00 20.00     0.083 C 
HETATM    9  C9  UNL     1     -34.140   6.054   3.136  1.00 20.00     0.021 C 
HETATM   10  C10 UNL     1     -32.879   6.865   2.945  1.00 20.00     0.020 C 
HETATM   11  O11 UNL     1     -32.843   4.716   0.308  1.00 20.00    -0.297 OA
ENDROOT
TORSDOF 0
ENDMDL
MODEL 8
REMARK VINA RESULT:       1.1      1.434      2.910
REMARK  0 active torsions:
REMARK  status: ('A' for Active; 'I' for Inactive)
ROOT
HETATM    1  C1  UNL     1     -34.538   4.888   4.222  1.00 20.00    -0.021 C 
HETATM    2  C2  UNL     1     -34.492   7.662   4.419  1.00 20.00    -0.021 C 
HETATM    3  C3  UNL     1     -33.976   4.241   3.169  1.00 20.00    -0.018 C 
HETATM    4  C4  UNL     1     -33.764   8.434   3.553  1.00 20.00    -0.024 C 
HETATM    5  C5  UNL     1     -32.117   5.717   1.567  1.00 20.00     0.135 C 
HETATM    6  C6  UNL     1     -32.205   7.270   1.444  1.00 20.00     0.087 C 
HETATM    7  C7  UNL     1     -33.990   6.254   4.293  1.00 20.00     0.036 C 
HETATM    8  C8  UNL     1     -33.431   5.158   2.117  1.00 20.00     0.083 C 
HETATM    9  C9  UNL     1     -32.801   7.535   2.807  1.00 20.00     0.021 C 
HETATM   10  C10 UNL     1     -33.829   6.427   2.804  1.00 20.00     0.020 C 
HETATM   11  O11 UNL     1     -31.169   5.039   1.202  1.00 20.00    -0.297 OA
ENDROOT
TORSDOF 0
ENDMDL
