MODEL 1
REMARK VINA RESULT:       1.5      0.000      0.000
REMARK  1 active torsions:
REMARK  status: ('A' for Active; 'I' for Inactive)
REMARK    1  A    between atoms: C6_6  and  N10_10 
ROOT
HETATM    1  C1  UNL     1     -33.974   6.640   3.262  1.00 20.00     0.156 C 
HETATM    2  C2  UNL     1     -33.640   5.959   1.970  1.00 20.00     0.110 C 
HETATM    3  C3  UNL     1     -33.049   7.798   3.529  1.00 20.00     0.350 C 
HETATM    4  C5  UNL     1     -32.287   6.587   1.670  1.00 20.00     0.281 C 
HETATM    5  N10 UNL     1     -32.297   7.934   2.271  1.00 20.00     0.101 N 
HETATM    6  O11 UNL     1     -34.885   6.301   4.005  1.00 20.00    -0.296 OA
ENDROOT
BRANCH   5   7
HETATM    7  C6  UNL     1     -32.928   8.908   1.379  1.00 20.00     0.232 A 
HETATM    8  C4  UNL     1     -32.557  10.366   1.453  1.00 20.00     0.047 A 
HETATM    9  C7  UNL     1     -32.179   9.562   0.230  1.00 20.00    -0.015 A 
HETATM   10  C8  UNL     1     -30.720   9.261   0.010  1.00 20.00     0.017 C 
HETATM   11  C9  UNL     1     -32.948   9.810  -1.042  1.00 20.00     0.017 C 
ENDBRANCH   5   7
TORSDOF 1
ENDMDL
MODEL 2
REMARK VINA RESULT:       2.0      2.226      4.419
REMARK  1 active torsions:
REMARK  status: ('A' for Active; 'I' for Inactive)
REMARK    1  A    between atoms: C6_6  and  N10_10 
ROOT
HETATM    1  C1  UNL     1     -32.486   9.515   0.016  1.00 20.00     0.156 C 
HETATM    2  C2  UNL     1     -33.008  10.235   1.221  1.00 20.00     0.110 C 
HETATM    3  C3  UNL     1     -31.760   8.254   0.398  1.00 20.00     0.350 C 
HETATM    4  C5  UNL     1     -32.274   9.488   2.325  1.00 20.00     0.281 C 
HETATM    5  N10 UNL     1     -32.044   8.116   1.836  1.00 20.00     0.101 N 
HETATM    6  O11 UNL     1     -32.636   9.902  -1.136  1.00 20.00    -0.296 OA
ENDROOT
BRANCH   5   7
HETATM    7  C6  UNL     1     -33.215   7.268   2.066  1.00 20.00     0.232 A 
HETATM    8  C4  UNL     1     -33.068   5.922   2.725  1.00 20.00     0.047 A 
HETATM    9  C7  UNL     1     -33.789   7.034   3.454  1.00 20.00    -0.015 A 
HETATM   10  C8  UNL     1     -33.118   7.635   4.661  1.00 20.00     0.017 C 
HETATM   11  C9  UNL     1     -35.289   6.941   3.573  1.00 20.00     0.017 C 
ENDBRANCH   5   7
TORSDOF 1
ENDMDL
MODEL 3
REMARK VINA RESULT:       2.3      2.475      4.580
REMARK  1 active torsions:
REMARK  status: ('A' for Active; 'I' for Inactive)
REMARK    1  A    between atoms: C6_6  and  N10_10 
ROOT
HETATM    1  C1  UNL     1     -31.552   7.562   1.648  1.00 20.00     0.156 C 
HETATM    2  C2  UNL     1     -31.355   6.087   1.482  1.00 20.00     0.110 C 
HETATM    3  C3  UNL     1     -33.012   7.914   1.753  1.00 20.00     0.350 C 
HETATM    4  C5  UNL     1     -32.782   5.651   1.182  1.00 20.00     0.281 C 
HETATM    5  N10 UNL     1     -33.674   6.604   1.867  1.00 20.00     0.101 N 
HETATM    6  O11 UNL     1     -30.642   8.378   1.697  1.00 20.00    -0.296 OA
ENDROOT
BRANCH   5   7
HETATM    7  C6  UNL     1     -33.874   6.231   3.268  1.00 20.00     0.232 A 
HETATM    8  C4  UNL     1     -34.233   7.274   4.294  1.00 20.00     0.047 A 
HETATM    9  C7  UNL     1     -35.248   6.217   3.918  1.00 20.00    -0.015 A 
HETATM   10  C8  UNL     1     -36.458   6.652   3.135  1.00 20.00     0.017 C 
HETATM   11  C9  UNL     1     -35.528   5.122   4.915  1.00 20.00     0.017 C 
ENDBRANCH   5   7
TORSDOF 1
ENDMDL
MODEL 4
REMARK VINA RESULT:       2.7      2.301      4.363
REMARK  1 active torsions:
REMARK  status: ('A' for Active; 'I' for Inactive)
REMARK    1  A    between atoms: C6_6  and  N10_10 
ROOT
HETATM    1  C1  UNL     1     -32.553   9.680   0.015  1.00 20.00     0.156 C 
HETATM    2  C2  UNL     1     -32.777  10.244   1.385  1.00 20.00     0.110 C 
HETATM    3  C3  UNL     1     -31.816   8.368   0.073  1.00 20.00     0.350 C 
HETATM    4  C5  UNL     1     -31.858   9.348   2.204  1.00 20.00     0.281 C 
HETATM    5  N10 UNL     1     -31.796   8.049   1.510  1.00 20.00     0.101 N 
HETATM    6  O11 UNL     1     -32.925  10.216  -1.020  1.00 20.00    -0.296 OA
ENDROOT
BRANCH   5   7
HETATM    7  C6  UNL     1     -32.927   7.195   1.879  1.00 20.00     0.232 A 
HETATM    8  C4  UNL     1     -33.606   6.336   0.846  1.00 20.00     0.047 A 
HETATM    9  C7  UNL     1     -32.812   5.682   1.954  1.00 20.00    -0.015 A 
HETATM   10  C8  UNL     1     -31.519   5.002   1.586  1.00 20.00     0.017 C 
HETATM   11  C9  UNL     1     -33.575   4.987   3.052  1.00 20.00     0.017 C 
ENDBRANCH   5   7
TORSDOF 1
ENDMDL
MODEL 5
REMARK VINA RESULT:       2.8      1.682      2.856
REMARK  1 active torsions:
REMARK  status: ('A' for Active; 'I' for Inactive)
REMARK    1  A    between atoms: C6_6  and  N10_10 
ROOT
HETATM    1  C1  UNL     1     -34.235   4.689   3.832  1.00 20.00     0.156 C 
HETATM    2  C2  UNL     1     -34.758   5.953   4.443  1.00 20.00     0.110 C 
HETATM    3  C3  UNL     1     -33.750   4.916   2.425  1.00 20.00     0.350 C 
HETATM    4  C5  UNL     1     -34.838   6.841   3.209  1.00 20.00     0.281 C 
HETATM    5  N10 UNL     1     -33.788   6.381   2.281  1.00 20.00     0.101 N 
HETATM    6  O11 UNL     1     -34.202   3.609   4.405  1.00 20.00    -0.296 OA
ENDROOT
BRANCH   5   7
HETATM    7  C6  UNL     1     -32.493   6.980   2.607  1.00 20.00     0.232 A 
HETATM    8  C4  UNL     1     -31.352   6.916   1.626  1.00 20.00     0.047 A 
HETATM    9  C7  UNL     1     -31.993   8.250   1.938  1.00 20.00    -0.015 A 
HETATM   10  C8  UNL     1     -32.811   8.907   0.857  1.00 20.00     0.017 C 
HETATM   11  C9  UNL     1     -31.220   9.221   2.792  1.00 20.00     0.017 C 
ENDBRANCH   5   7
TORSDOF 1
ENDMDL
MODEL 6
REMARK VINA RESULT:       3.3      1.495      2.749
REMARK  1 active torsions:
REMARK  status: ('A' for Active; 'I' for Inactive)
REMARK    1  A    between atoms: C6_6  and  N10_10 
ROOT
HETATM    1  C1  UNL     1     -35.000   5.924   4.230  1.00 20.00     0.156 C 
HETATM    2  C2  UNL     1     -34.388   6.929   5.156  1.00 20.00     0.110 C 
HETATM    3  C3  UNL     1     -34.957   6.393   2.800  1.00 20.00     0.350 C 
HETATM    4  C5  UNL     1     -34.279   8.129   4.226  1.00 20.00     0.281 C 
HETATM    5  N10 UNL     1     -34.112   7.598   2.860  1.00 20.00     0.101 N 
HETATM    6  O11 UNL     1     -35.472   4.853   4.589  1.00 20.00    -0.296 OA
ENDROOT
BRANCH   5   7
HETATM    7  C6  UNL     1     -32.711   7.278   2.583  1.00 20.00     0.232 A 
HETATM    8  C4  UNL     1     -32.319   6.613   1.290  1.00 20.00     0.047 A 
HETATM    9  C7  UNL     1     -31.891   8.039   1.554  1.00 20.00    -0.015 A 
HETATM   10  C8  UNL     1     -32.531   9.129   0.735  1.00 20.00     0.017 C 
HETATM   11  C9  UNL     1     -30.441   8.291   1.878  1.00 20.00     0.017 C 
ENDBRANCH   5   7
TORSDOF 1
ENDMDL
MODEL 7
REMARK VINA RESULT:       3.4      1.888      3.765
REMARK  1 active torsions:
REMARK  status: ('A' for Active; 'I' for Inactive)
REMARK    1  A    between atoms: C6_6  and  N10_10 
ROOT
HETATM    1  C1  UNL     1     -33.094   7.968   4.076  1.00 20.00     0.156 C 
HETATM    2  C2  UNL     1     -31.874   8.597   3.476  1.00 20.00     0.110 C 
HETATM    3  C3  UNL     1     -33.898   7.228   3.040  1.00 20.00     0.350 C 
HETATM    4  C5  UNL     1     -32.188   8.445   1.994  1.00 20.00     0.281 C 
HETATM    5  N10 UNL     1     -33.025   7.240   1.854  1.00 20.00     0.101 N 
HETATM    6  O11 UNL     1     -33.397   8.042   5.259  1.00 20.00    -0.296 OA
ENDROOT
BRANCH   5   7
HETATM    7  C6  UNL     1     -32.206   6.029   1.787  1.00 20.00     0.232 A 
HETATM    8  C4  UNL     1     -32.727   4.721   2.322  1.00 20.00     0.047 A 
HETATM    9  C7  UNL     1     -32.519   4.888   0.833  1.00 20.00    -0.015 A 
HETATM   10  C8  UNL     1     -33.741   4.950  -0.044  1.00 20.00     0.017 C 
HETATM   11  C9  UNL     1     -31.350   4.177   0.201  1.00 20.00     0.017 C 
ENDBRANCH   5   7
TORSDOF 1
ENDMDL
MODEL 8
REMARK VINA RESULT:       3.9      2.648      3.588
REMARK  1 active torsions:
REMARK  status: ('A' for Active; 'I' for Inactive)
REMARK    1  A    between atoms: C6_6  and  N10_10 
ROOT
HETATM    1  C1  UNL     1     -34.316   7.449   4.020  1.00 20.00     0.156 C 
HETATM    2  C2  UNL     1     -35.316   6.334   4.063  1.00 20.00     0.110 C 
HETATM    3  C3  UNL     1     -32.965   6.960   3.570  1.00 20.00     0.350 C 
HETATM    4  C5  UNL     1     -34.393   5.132   3.920  1.00 20.00     0.281 C 
HETATM    5  N10 UNL     1     -33.227   5.578   3.135  1.00 20.00     0.101 N 
HETATM    6  O11 UNL     1     -34.566   8.611   4.309  1.00 20.00    -0.296 OA
ENDROOT
BRANCH   5   7
HETATM    7  C6  UNL     1     -33.501   5.517   1.698  1.00 20.00     0.232 A 
HETATM    8  C4  UNL     1     -32.754   6.407   0.739  1.00 20.00     0.047 A 
HETATM    9  C7  UNL     1     -32.518   4.913   0.708  1.00 20.00    -0.015 A 
HETATM   10  C8  UNL     1     -31.184   4.403   1.185  1.00 20.00     0.017 C 
HETATM   11  C9  UNL     1     -33.093   4.132  -0.445  1.00 20.00     0.017 C 
ENDBRANCH   5   7
TORSDOF 1
ENDMDL
MODEL 9
REMARK VINA RESULT:       4.0      2.921      4.454
REMARK  1 active torsions:
REMARK  status: ('A' for Active; 'I' for Inactive)
REMARK    1  A    between atoms: C6_6  and  N10_10 
ROOT
HETATM    1  C1  UNL     1     -31.891   5.376   1.026  1.00 20.00     0.156 C 
HETATM    2  C2  UNL     1     -33.304   4.999   0.703  1.00 20.00     0.110 C 
HETATM    3  C3  UNL     1     -31.825   6.694   1.752  1.00 20.00     0.350 C 
HETATM    4  C5  UNL     1     -34.014   6.312   0.999  1.00 20.00     0.281 C 
HETATM    5  N10 UNL     1     -33.236   6.992   2.051  1.00 20.00     0.101 N 
HETATM    6  O11 UNL     1     -30.914   4.697   0.741  1.00 20.00    -0.296 OA
ENDROOT
BRANCH   5   7
HETATM    7  C6  UNL     1     -33.609   6.511   3.382  1.00 20.00     0.232 A 
HETATM    8  C4  UNL     1     -34.105   7.470   4.431  1.00 20.00     0.047 A 
HETATM    9  C7  UNL     1     -35.054   6.447   3.848  1.00 20.00    -0.015 A 
HETATM   10  C8  UNL     1     -36.159   6.943   2.953  1.00 20.00     0.017 C 
HETATM   11  C9  UNL     1     -35.449   5.278   4.713  1.00 20.00     0.017 C 
ENDBRANCH   5   7
TORSDOF 1
ENDMDL
