MODEL 1
REMARK VINA RESULT:      -2.1      0.000      0.000
REMARK  2 active torsions:
REMARK  status: ('A' for Active; 'I' for Inactive)
REMARK    1  A    between atoms: C6_6  and  N9_9 
REMARK    2  A    between atoms: C7_7  and  N9_9 
ROOT
HETATM    1  C1  UNL     1     -32.517   9.910   0.001  1.00 20.00     0.013 C 
HETATM    2  C2  UNL     1     -32.236   9.100   0.841  1.00 20.00    -0.087 C 
HETATM    3  C6  UNL     1     -31.889   8.114   1.866  1.00 20.00     0.366 C 
ENDROOT
BRANCH   3   4
HETATM    4  N9  UNL     1     -33.007   7.203   2.106  1.00 20.00     0.112 N 
HETATM    5  C5  UNL     1     -32.772   5.920   1.445  1.00 20.00     0.312 C 
BRANCH   4   6
HETATM    6  C7  UNL     1     -33.211   7.009   3.541  1.00 20.00     0.325 C 
HETATM    7  C3  UNL     1     -34.562   6.488   3.788  1.00 20.00     0.095 C 
HETATM    8  N8  UNL     1     -35.628   6.075   3.986  1.00 20.00    -0.195 NA
HETATM    9  C4  UNL     1     -32.980   8.310   4.298  1.00 20.00     0.059 C 
ENDBRANCH   4   6
ENDBRANCH   3   4
TORSDOF 2
ENDMDL
MODEL 2
REMARK VINA RESULT:      -1.7      1.090      1.123
REMARK  2 active torsions:
REMARK  status: ('A' for Active; 'I' for Inactive)
REMARK    1  A    between atoms: C6_6  and  N9_9 
REMARK    2  A    between atoms: C7_7  and  N9_9 
ROOT
HETATM    1  C1  UNL     1     -32.438   9.704   0.144  1.00 20.00     0.013 C 
HETATM    2  C2  UNL     1     -32.223   8.874   0.984  1.00 20.00    -0.087 C 
HETATM    3  C6  UNL     1     -31.956   7.863   2.010  1.00 20.00     0.366 C 
ENDROOT
BRANCH   3   4
HETATM    4  N9  UNL     1     -33.059   6.906   2.091  1.00 20.00     0.112 N 
HETATM    5  C5  UNL     1     -32.691   5.645   1.449  1.00 20.00     0.312 C 
BRANCH   4   6
HETATM    6  C7  UNL     1     -33.436   6.679   3.486  1.00 20.00     0.325 C 
HETATM    7  C3  UNL     1     -33.847   5.281   3.671  1.00 20.00     0.095 C 
HETATM    8  N8  UNL     1     -34.171   4.177   3.820  1.00 20.00    -0.195 NA
HETATM    9  C4  UNL     1     -34.544   7.635   3.907  1.00 20.00     0.059 C 
ENDBRANCH   4   6
ENDBRANCH   3   4
TORSDOF 2
ENDMDL
MODEL 3
REMARK VINA RESULT:      -1.5      2.008      4.405
REMARK  2 active torsions:
REMARK  status: ('A' for Active; 'I' for Inactive)
REMARK    1  A    between atoms: C6_6  and  N9_9 
REMARK    2  A    between atoms: C7_7  and  N9_9 
ROOT
HETATM    1  C1  UNL     1     -33.224   2.825   4.781  1.00 20.00     0.013 C 
HETATM    2  C2  UNL     1     -33.700   3.790   4.250  1.00 20.00    -0.087 C 
HETATM    3  C6  UNL     1     -34.285   4.967   3.603  1.00 20.00     0.366 C 
ENDROOT
BRANCH   3   4
HETATM    4  N9  UNL     1     -33.253   5.747   2.919  1.00 20.00     0.112 N 
HETATM    5  C5  UNL     1     -33.006   5.206   1.584  1.00 20.00     0.312 C 
BRANCH   4   6
HETATM    6  C7  UNL     1     -33.646   7.153   2.838  1.00 20.00     0.325 C 
HETATM    7  C3  UNL     1     -32.616   7.919   2.122  1.00 20.00     0.095 C 
HETATM    8  N8  UNL     1     -31.805   8.525   1.556  1.00 20.00    -0.195 NA
HETATM    9  C4  UNL     1     -33.887   7.727   4.227  1.00 20.00     0.059 C 
ENDBRANCH   4   6
ENDBRANCH   3   4
TORSDOF 2
ENDMDL
MODEL 4
REMARK VINA RESULT:      -1.3      1.291      1.676
REMARK  2 active torsions:
REMARK  status: ('A' for Active; 'I' for Inactive)
REMARK    1  A    between atoms: C6_6  and  N9_9 
REMARK    2  A    between atoms: C7_7  and  N9_9 
ROOT
HETATM    1  C1  UNL     1     -32.317   9.679   0.270  1.00 20.00     0.013 C 
HETATM    2  C2  UNL     1     -32.268   8.815   1.103  1.00 20.00    -0.087 C 
HETATM    3  C6  UNL     1     -32.204   7.764   2.121  1.00 20.00     0.366 C 
ENDROOT
BRANCH   3   4
HETATM    4  N9  UNL     1     -33.086   6.652   1.770  1.00 20.00     0.112 N 
HETATM    5  C5  UNL     1     -32.302   5.471   1.413  1.00 20.00     0.312 C 
BRANCH   4   6
HETATM    6  C7  UNL     1     -33.992   6.349   2.877  1.00 20.00     0.325 C 
HETATM    7  C3  UNL     1     -33.856   7.367   3.928  1.00 20.00     0.095 C 
HETATM    8  N8  UNL     1     -33.752   8.171   4.757  1.00 20.00    -0.195 NA
HETATM    9  C4  UNL     1     -33.722   4.956   3.429  1.00 20.00     0.059 C 
ENDBRANCH   4   6
ENDBRANCH   3   4
TORSDOF 2
ENDMDL
MODEL 5
REMARK VINA RESULT:      -1.1      1.402      4.293
REMARK  2 active torsions:
REMARK  status: ('A' for Active; 'I' for Inactive)
REMARK    1  A    between atoms: C6_6  and  N9_9 
REMARK    2  A    between atoms: C7_7  and  N9_9 
ROOT
HETATM    1  C1  UNL     1     -35.467   5.805   4.417  1.00 20.00     0.013 C 
HETATM    2  C2  UNL     1     -34.591   6.048   3.633  1.00 20.00    -0.087 C 
HETATM    3  C6  UNL     1     -33.522   6.339   2.675  1.00 20.00     0.366 C 
ENDROOT
BRANCH   3   4
HETATM    4  N9  UNL     1     -33.140   7.750   2.741  1.00 20.00     0.112 N 
HETATM    5  C5  UNL     1     -32.861   8.140   4.122  1.00 20.00     0.312 C 
BRANCH   4   6
HETATM    6  C7  UNL     1     -31.978   8.005   1.892  1.00 20.00     0.325 C 
HETATM    7  C3  UNL     1     -32.270   9.104   0.961  1.00 20.00     0.095 C 
HETATM    8  N8  UNL     1     -32.497   9.972   0.227  1.00 20.00    -0.195 NA
HETATM    9  C4  UNL     1     -31.573   6.745   1.139  1.00 20.00     0.059 C 
ENDBRANCH   4   6
ENDBRANCH   3   4
TORSDOF 2
ENDMDL
MODEL 6
REMARK VINA RESULT:      -0.9      1.083      2.064
REMARK  2 active torsions:
REMARK  status: ('A' for Active; 'I' for Inactive)
REMARK    1  A    between atoms: C6_6  and  N9_9 
REMARK    2  A    between atoms: C7_7  and  N9_9 
ROOT
HETATM    1  C1  UNL     1     -32.808  10.494   0.333  1.00 20.00     0.013 C 
HETATM    2  C2  UNL     1     -32.209   9.465   0.489  1.00 20.00    -0.087 C 
HETATM    3  C6  UNL     1     -31.476   8.211   0.676  1.00 20.00     0.366 C 
ENDROOT
BRANCH   3   4
HETATM    4  N9  UNL     1     -31.874   7.561   1.924  1.00 20.00     0.112 N 
HETATM    5  C5  UNL     1     -32.236   8.560   2.928  1.00 20.00     0.312 C 
BRANCH   4   6
HETATM    6  C7  UNL     1     -32.989   6.644   1.690  1.00 20.00     0.325 C 
HETATM    7  C3  UNL     1     -33.827   6.559   2.893  1.00 20.00     0.095 C 
HETATM    8  N8  UNL     1     -34.491   6.491   3.842  1.00 20.00    -0.195 NA
HETATM    9  C4  UNL     1     -32.479   5.269   1.280  1.00 20.00     0.059 C 
ENDBRANCH   4   6
ENDBRANCH   3   4
TORSDOF 2
ENDMDL
MODEL 7
REMARK VINA RESULT:      -0.8      2.450      4.409
REMARK  2 active torsions:
REMARK  status: ('A' for Active; 'I' for Inactive)
REMARK    1  A    between atoms: C6_6  and  N9_9 
REMARK    2  A    between atoms: C7_7  and  N9_9 
ROOT
HETATM    1  C1  UNL     1     -32.848   2.748   5.002  1.00 20.00     0.013 C 
HETATM    2  C2  UNL     1     -33.462   3.516   4.312  1.00 20.00    -0.087 C 
HETATM    3  C6  UNL     1     -34.215   4.449   3.471  1.00 20.00     0.366 C 
ENDROOT
BRANCH   3   4
HETATM    4  N9  UNL     1     -33.431   5.655   3.208  1.00 20.00     0.112 N 
HETATM    5  C5  UNL     1     -32.923   5.646   1.837  1.00 20.00     0.312 C 
BRANCH   4   6
HETATM    6  C7  UNL     1     -34.237   6.851   3.447  1.00 20.00     0.325 C 
HETATM    7  C3  UNL     1     -33.543   7.743   4.386  1.00 20.00     0.095 C 
HETATM    8  N8  UNL     1     -32.997   8.449   5.127  1.00 20.00    -0.195 NA
HETATM    9  C4  UNL     1     -35.618   6.476   3.968  1.00 20.00     0.059 C 
ENDBRANCH   4   6
ENDBRANCH   3   4
TORSDOF 2
ENDMDL
MODEL 8
REMARK VINA RESULT:      -0.5      1.725      4.556
REMARK  2 active torsions:
REMARK  status: ('A' for Active; 'I' for Inactive)
REMARK    1  A    between atoms: C6_6  and  N9_9 
REMARK    2  A    between atoms: C7_7  and  N9_9 
ROOT
HETATM    1  C1  UNL     1     -33.541   3.590   4.502  1.00 20.00     0.013 C 
HETATM    2  C2  UNL     1     -34.244   4.504   4.167  1.00 20.00    -0.087 C 
HETATM    3  C6  UNL     1     -35.105   5.616   3.760  1.00 20.00     0.366 C 
ENDROOT
BRANCH   3   4
HETATM    4  N9  UNL     1     -34.304   6.746   3.294  1.00 20.00     0.112 N 
HETATM    5  C5  UNL     1     -33.875   7.569   4.423  1.00 20.00     0.312 C 
BRANCH   4   6
HETATM    6  C7  UNL     1     -33.146   6.274   2.536  1.00 20.00     0.325 C 
HETATM    7  C3  UNL     1     -32.310   7.415   2.137  1.00 20.00     0.095 C 
HETATM    8  N8  UNL     1     -31.648   8.314   1.823  1.00 20.00    -0.195 NA
HETATM    9  C4  UNL     1     -33.587   5.469   1.321  1.00 20.00     0.059 C 
ENDBRANCH   4   6
ENDBRANCH   3   4
TORSDOF 2
ENDMDL
MODEL 9
REMARK VINA RESULT:      -0.5      1.617      2.612
REMARK  2 active torsions:
REMARK  status: ('A' for Active; 'I' for Inactive)
REMARK    1  A    between atoms: C6_6  and  N9_9 
REMARK    2  A    between atoms: C7_7  and  N9_9 
ROOT
HETATM    1  C1  UNL     1     -31.642   8.353   1.360  1.00 20.00     0.013 C 
HETATM    2  C2  UNL     1     -32.389   7.531   1.817  1.00 20.00    -0.087 C 
HETATM    3  C6  UNL     1     -33.300   6.526   2.369  1.00 20.00     0.366 C 
ENDROOT
BRANCH   3   4
HETATM    4  N9  UNL     1     -33.546   6.777   3.788  1.00 20.00     0.112 N 
HETATM    5  C5  UNL     1     -33.854   8.188   4.012  1.00 20.00     0.312 C 
BRANCH   4   6
HETATM    6  C7  UNL     1     -34.636   5.932   4.275  1.00 20.00     0.325 C 
HETATM    7  C3  UNL     1     -34.226   4.521   4.246  1.00 20.00     0.095 C 
HETATM    8  N8  UNL     1     -33.905   3.407   4.226  1.00 20.00    -0.195 NA
HETATM    9  C4  UNL     1     -35.898   6.152   3.452  1.00 20.00     0.059 C 
ENDBRANCH   4   6
ENDBRANCH   3   4
TORSDOF 2
ENDMDL
