MODEL 1
REMARK VINA RESULT:      -0.6      0.000      0.000
REMARK  2 active torsions:
REMARK  status: ('A' for Active; 'I' for Inactive)
REMARK    1  A    between atoms: C3_3  and  N10_10 
REMARK    2  A    between atoms: C8_8  and  N10_10 
ROOT
HETATM    1  C1  UNL     1     -34.411   4.997   4.158  1.00 20.00     0.094 C 
HETATM    2  C7  UNL     1     -35.890   6.691   3.146  1.00 20.00     0.059 C 
HETATM    3  C8  UNL     1     -34.789   6.416   4.161  1.00 20.00     0.322 C 
HETATM    4  N9  UNL     1     -34.114   3.875   4.159  1.00 20.00    -0.195 NA
ENDROOT
BRANCH   3   5
HETATM    5  N10 UNL     1     -33.622   7.239   3.889  1.00 20.00     0.106 N 
HETATM    6  H24 UNL     1     -32.792   6.793   4.268  1.00 20.00     0.318 HD
BRANCH   5   7
HETATM    7  C3  UNL     1     -33.441   7.414   2.443  1.00 20.00     0.230 A 
HETATM    8  C2  UNL     1     -32.422   6.586   1.708  1.00 20.00     0.047 A 
HETATM    9  C4  UNL     1     -32.196   8.072   1.873  1.00 20.00    -0.015 A 
HETATM   10  C5  UNL     1     -32.372   8.950   0.661  1.00 20.00     0.017 C 
HETATM   11  C6  UNL     1     -31.094   8.516   2.798  1.00 20.00     0.017 C 
ENDBRANCH   5   7
ENDBRANCH   3   5
TORSDOF 2
ENDMDL
MODEL 2
REMARK VINA RESULT:      -0.3      1.659      4.290
REMARK  2 active torsions:
REMARK  status: ('A' for Active; 'I' for Inactive)
REMARK    1  A    between atoms: C3_3  and  N10_10 
REMARK    2  A    between atoms: C8_8  and  N10_10 
ROOT
HETATM    1  C1  UNL     1     -32.271   8.795   0.990  1.00 20.00     0.094 C 
HETATM    2  C7  UNL     1     -32.671   6.362   0.956  1.00 20.00     0.059 C 
HETATM    3  C8  UNL     1     -31.911   7.511   1.605  1.00 20.00     0.322 C 
HETATM    4  N9  UNL     1     -32.551   9.810   0.502  1.00 20.00    -0.195 NA
ENDROOT
BRANCH   3   5
HETATM    5  N10 UNL     1     -32.173   7.556   3.034  1.00 20.00     0.106 N 
HETATM    6  H24 UNL     1     -31.655   8.323   3.453  1.00 20.00     0.318 HD
BRANCH   5   7
HETATM    7  C3  UNL     1     -33.603   7.762   3.290  1.00 20.00     0.230 A 
HETATM    8  C2  UNL     1     -34.121   7.761   4.703  1.00 20.00     0.047 A 
HETATM    9  C4  UNL     1     -34.494   6.630   3.772  1.00 20.00    -0.015 A 
HETATM   10  C5  UNL     1     -35.905   6.588   3.244  1.00 20.00     0.017 C 
HETATM   11  C6  UNL     1     -33.900   5.272   4.043  1.00 20.00     0.017 C 
ENDBRANCH   5   7
ENDBRANCH   3   5
TORSDOF 2
ENDMDL
MODEL 3
REMARK VINA RESULT:      -0.0      1.836      4.596
REMARK  2 active torsions:
REMARK  status: ('A' for Active; 'I' for Inactive)
REMARK    1  A    between atoms: C3_3  and  N10_10 
REMARK    2  A    between atoms: C8_8  and  N10_10 
ROOT
HETATM    1  C1  UNL     1     -32.345   9.284   0.992  1.00 20.00     0.094 C 
HETATM    2  C7  UNL     1     -31.224   7.100   1.221  1.00 20.00     0.059 C 
HETATM    3  C8  UNL     1     -31.892   8.262   1.943  1.00 20.00     0.322 C 
HETATM    4  N9  UNL     1     -32.700  10.095   0.241  1.00 20.00    -0.195 NA
ENDROOT
BRANCH   3   5
HETATM    5  N10 UNL     1     -33.015   7.794   2.739  1.00 20.00     0.106 N 
HETATM    6  H24 UNL     1     -33.885   8.121   2.328  1.00 20.00     0.318 HD
BRANCH   5   7
HETATM    7  C3  UNL     1     -33.039   6.328   2.785  1.00 20.00     0.230 A 
HETATM    8  C2  UNL     1     -33.994   5.564   1.906  1.00 20.00     0.047 A 
HETATM    9  C4  UNL     1     -34.203   5.572   3.403  1.00 20.00    -0.015 A 
HETATM   10  C5  UNL     1     -33.881   4.313   4.165  1.00 20.00     0.017 C 
HETATM   11  C6  UNL     1     -35.387   6.331   3.943  1.00 20.00     0.017 C 
ENDBRANCH   5   7
ENDBRANCH   3   5
TORSDOF 2
ENDMDL
MODEL 4
REMARK VINA RESULT:       0.2      1.202      1.947
REMARK  2 active torsions:
REMARK  status: ('A' for Active; 'I' for Inactive)
REMARK    1  A    between atoms: C3_3  and  N10_10 
REMARK    2  A    between atoms: C8_8  and  N10_10 
ROOT
HETATM    1  C1  UNL     1     -34.170   7.608   4.511  1.00 20.00     0.094 C 
HETATM    2  C7  UNL     1     -35.312   5.431   4.321  1.00 20.00     0.059 C 
HETATM    3  C8  UNL     1     -34.555   6.532   3.590  1.00 20.00     0.322 C 
HETATM    4  N9  UNL     1     -33.868   8.461   5.238  1.00 20.00    -0.195 NA
ENDROOT
BRANCH   3   5
HETATM    5  N10 UNL     1     -33.374   5.995   2.935  1.00 20.00     0.106 N 
HETATM    6  H24 UNL     1     -33.518   5.012   2.721  1.00 20.00     0.318 HD
BRANCH   5   7
HETATM    7  C3  UNL     1     -33.108   6.712   1.683  1.00 20.00     0.230 A 
HETATM    8  C2  UNL     1     -31.809   6.495   0.954  1.00 20.00     0.047 A 
HETATM    9  C4  UNL     1     -32.081   7.829   1.611  1.00 20.00    -0.015 A 
HETATM   10  C5  UNL     1     -32.396   9.002   0.720  1.00 20.00     0.017 C 
HETATM   11  C6  UNL     1     -31.276   8.186   2.833  1.00 20.00     0.017 C 
ENDBRANCH   5   7
ENDBRANCH   3   5
TORSDOF 2
ENDMDL
MODEL 5
REMARK VINA RESULT:       0.3      1.672      2.408
REMARK  2 active torsions:
REMARK  status: ('A' for Active; 'I' for Inactive)
REMARK    1  A    between atoms: C3_3  and  N10_10 
REMARK    2  A    between atoms: C8_8  and  N10_10 
ROOT
HETATM    1  C1  UNL     1     -33.018   5.964   1.963  1.00 20.00     0.094 C 
HETATM    2  C7  UNL     1     -34.564   6.817   3.684  1.00 20.00     0.059 C 
HETATM    3  C8  UNL     1     -33.153   6.866   3.113  1.00 20.00     0.322 C 
HETATM    4  N9  UNL     1     -32.909   5.248   1.056  1.00 20.00    -0.195 NA
ENDROOT
BRANCH   3   5
HETATM    5  N10 UNL     1     -32.804   8.222   2.723  1.00 20.00     0.106 N 
HETATM    6  H24 UNL     1     -32.042   8.560   3.303  1.00 20.00     0.318 HD
BRANCH   5   7
HETATM    7  C3  UNL     1     -32.377   8.260   1.320  1.00 20.00     0.230 A 
HETATM    8  C2  UNL     1     -31.054   8.879   0.953  1.00 20.00     0.047 A 
HETATM    9  C4  UNL     1     -32.337   9.562   0.537  1.00 20.00    -0.015 A 
HETATM   10  C5  UNL     1     -32.725   9.505  -0.918  1.00 20.00     0.017 C 
HETATM   11  C6  UNL     1     -32.696  10.856   1.218  1.00 20.00     0.017 C 
ENDBRANCH   5   7
ENDBRANCH   3   5
TORSDOF 2
ENDMDL
MODEL 6
REMARK VINA RESULT:       0.4      1.600      2.627
REMARK  2 active torsions:
REMARK  status: ('A' for Active; 'I' for Inactive)
REMARK    1  A    between atoms: C3_3  and  N10_10 
REMARK    2  A    between atoms: C8_8  and  N10_10 
ROOT
HETATM    1  C1  UNL     1     -34.235   6.556   3.310  1.00 20.00     0.094 C 
HETATM    2  C7  UNL     1     -32.590   5.376   1.902  1.00 20.00     0.059 C 
HETATM    3  C8  UNL     1     -33.419   6.639   2.092  1.00 20.00     0.322 C 
HETATM    4  N9  UNL     1     -34.884   6.489   4.270  1.00 20.00    -0.195 NA
ENDROOT
BRANCH   3   5
HETATM    5  N10 UNL     1     -32.562   7.811   2.150  1.00 20.00     0.106 N 
HETATM    6  H24 UNL     1     -31.708   7.586   2.651  1.00 20.00     0.318 HD
BRANCH   5   7
HETATM    7  C3  UNL     1     -32.209   8.259   0.798  1.00 20.00     0.230 A 
HETATM    8  C2  UNL     1     -30.979   9.099   0.582  1.00 20.00     0.047 A 
HETATM    9  C4  UNL     1     -32.345   9.713   0.382  1.00 20.00    -0.015 A 
HETATM   10  C5  UNL     1     -32.794   9.989  -1.029  1.00 20.00     0.017 C 
HETATM   11  C6  UNL     1     -32.808  10.738   1.384  1.00 20.00     0.017 C 
ENDBRANCH   5   7
ENDBRANCH   3   5
TORSDOF 2
ENDMDL
MODEL 7
REMARK VINA RESULT:       0.4      1.142      1.690
REMARK  2 active torsions:
REMARK  status: ('A' for Active; 'I' for Inactive)
REMARK    1  A    between atoms: C3_3  and  N10_10 
REMARK    2  A    between atoms: C8_8  and  N10_10 
ROOT
HETATM    1  C1  UNL     1     -33.938   5.173   3.723  1.00 20.00     0.094 C 
HETATM    2  C7  UNL     1     -34.517   7.541   4.090  1.00 20.00     0.059 C 
HETATM    3  C8  UNL     1     -33.559   6.560   3.428  1.00 20.00     0.322 C 
HETATM    4  N9  UNL     1     -34.234   4.076   3.959  1.00 20.00    -0.195 NA
ENDROOT
BRANCH   3   5
HETATM    5  N10 UNL     1     -33.524   6.768   1.990  1.00 20.00     0.106 N 
HETATM    6  H24 UNL     1     -34.197   7.483   1.732  1.00 20.00     0.318 HD
BRANCH   5   7
HETATM    7  C3  UNL     1     -32.190   7.204   1.564  1.00 20.00     0.230 A 
HETATM    8  C2  UNL     1     -31.427   8.205   2.391  1.00 20.00     0.047 A 
HETATM    9  C4  UNL     1     -31.946   8.605   1.028  1.00 20.00    -0.015 A 
HETATM   10  C5  UNL     1     -30.947   8.752  -0.090  1.00 20.00     0.017 C 
HETATM   11  C6  UNL     1     -33.081   9.593   0.972  1.00 20.00     0.017 C 
ENDBRANCH   5   7
ENDBRANCH   3   5
TORSDOF 2
ENDMDL
MODEL 8
REMARK VINA RESULT:       0.7      1.672      3.908
REMARK  2 active torsions:
REMARK  status: ('A' for Active; 'I' for Inactive)
REMARK    1  A    between atoms: C3_3  and  N10_10 
REMARK    2  A    between atoms: C8_8  and  N10_10 
ROOT
HETATM    1  C1  UNL     1     -32.045   6.122   1.191  1.00 20.00     0.094 C 
HETATM    2  C7  UNL     1     -31.507   8.501   0.833  1.00 20.00     0.059 C 
HETATM    3  C8  UNL     1     -32.441   7.501   1.501  1.00 20.00     0.322 C 
HETATM    4  N9  UNL     1     -31.734   5.031   0.944  1.00 20.00    -0.195 NA
ENDROOT
BRANCH   3   5
HETATM    5  N10 UNL     1     -32.461   7.699   2.941  1.00 20.00     0.106 N 
HETATM    6  H24 UNL     1     -31.980   8.563   3.174  1.00 20.00     0.318 HD
BRANCH   5   7
HETATM    7  C3  UNL     1     -33.841   7.783   3.430  1.00 20.00     0.230 A 
HETATM    8  C2  UNL     1     -34.136   7.561   4.890  1.00 20.00     0.047 A 
HETATM    9  C4  UNL     1     -34.605   6.547   3.871  1.00 20.00    -0.015 A 
HETATM   10  C5  UNL     1     -36.077   6.494   3.556  1.00 20.00     0.017 C 
HETATM   11  C6  UNL     1     -33.926   5.202   3.856  1.00 20.00     0.017 C 
ENDBRANCH   5   7
ENDBRANCH   3   5
TORSDOF 2
ENDMDL
MODEL 9
REMARK VINA RESULT:       0.9      1.861      4.012
REMARK  2 active torsions:
REMARK  status: ('A' for Active; 'I' for Inactive)
REMARK    1  A    between atoms: C3_3  and  N10_10 
REMARK    2  A    between atoms: C8_8  and  N10_10 
ROOT
HETATM    1  C1  UNL     1     -31.892   7.305   1.402  1.00 20.00     0.094 C 
HETATM    2  C7  UNL     1     -31.932   4.982   0.576  1.00 20.00     0.059 C 
HETATM    3  C8  UNL     1     -32.232   5.918   1.740  1.00 20.00     0.322 C 
HETATM    4  N9  UNL     1     -31.619   8.402   1.137  1.00 20.00    -0.195 NA
ENDROOT
BRANCH   3   5
HETATM    5  N10 UNL     1     -33.632   5.831   2.121  1.00 20.00     0.106 N 
HETATM    6  H24 UNL     1     -33.983   4.898   1.924  1.00 20.00     0.318 HD
BRANCH   5   7
HETATM    7  C3  UNL     1     -33.794   6.100   3.554  1.00 20.00     0.230 A 
HETATM    8  C2  UNL     1     -35.173   6.260   4.137  1.00 20.00     0.047 A 
HETATM    9  C4  UNL     1     -34.252   7.457   4.060  1.00 20.00    -0.015 A 
HETATM   10  C5  UNL     1     -33.641   7.959   5.342  1.00 20.00     0.017 C 
HETATM   11  C6  UNL     1     -34.597   8.545   3.077  1.00 20.00     0.017 C 
ENDBRANCH   5   7
ENDBRANCH   3   5
TORSDOF 2
ENDMDL
