MODEL 1
REMARK VINA RESULT:      -1.8      0.000      0.000
REMARK  3 active torsions:
REMARK  status: ('A' for Active; 'I' for Inactive)
REMARK    1  A    between atoms: C2_2  and  N8_8 
REMARK    2  A    between atoms: C6_6  and  C7_7 
REMARK    3  A    between atoms: C6_6  and  N8_8 
ROOT
HETATM    1  N8  UNL     1     -32.000   8.275   2.075  1.00 20.00     0.097 N 
HETATM    2  H23 UNL     1     -32.794   8.814   2.413  1.00 20.00     0.316 HD
ENDROOT
BRANCH   1   3
HETATM    3  C2  UNL     1     -32.378   6.858   2.032  1.00 20.00     0.229 A 
HETATM    4  C1  UNL     1     -33.653   6.441   1.349  1.00 20.00     0.047 A 
HETATM    5  C3  UNL     1     -33.538   6.321   2.852  1.00 20.00    -0.015 A 
HETATM    6  C4  UNL     1     -33.390   4.941   3.438  1.00 20.00     0.017 C 
HETATM    7  C5  UNL     1     -34.359   7.261   3.695  1.00 20.00     0.017 C 
ENDBRANCH   1   3
BRANCH   1   8
HETATM    8  C6  UNL     1     -31.617   8.742   0.754  1.00 20.00     0.386 C 
BRANCH   8   9
HETATM    9  C7  UNL     1     -32.503   9.869   0.284  1.00 20.00     0.413 C 
HETATM   10  F9  UNL     1     -33.443  10.150   1.214  1.00 20.00    -0.169 F 
HETATM   11  F10 UNL     1     -31.792  10.997   0.067  1.00 20.00    -0.169 F 
HETATM   12  F11 UNL     1     -33.141   9.550  -0.861  1.00 20.00    -0.169 F 
ENDBRANCH   8   9
ENDBRANCH   1   8
TORSDOF 3
ENDMDL
MODEL 2
REMARK VINA RESULT:      -1.7      0.010      1.140
REMARK  3 active torsions:
REMARK  status: ('A' for Active; 'I' for Inactive)
REMARK    1  A    between atoms: C2_2  and  N8_8 
REMARK    2  A    between atoms: C6_6  and  C7_7 
REMARK    3  A    between atoms: C6_6  and  N8_8 
ROOT
HETATM    1  N8  UNL     1     -32.001   8.274   2.073  1.00 20.00     0.097 N 
HETATM    2  H23 UNL     1     -32.794   8.810   2.417  1.00 20.00     0.316 HD
ENDROOT
BRANCH   1   3
HETATM    3  C2  UNL     1     -32.378   6.856   2.030  1.00 20.00     0.229 A 
HETATM    4  C1  UNL     1     -33.652   6.437   1.346  1.00 20.00     0.047 A 
HETATM    5  C3  UNL     1     -33.537   6.317   2.848  1.00 20.00    -0.015 A 
HETATM    6  C4  UNL     1     -33.388   4.938   3.435  1.00 20.00     0.017 C 
HETATM    7  C5  UNL     1     -34.361   7.256   3.691  1.00 20.00     0.017 C 
ENDBRANCH   1   3
BRANCH   1   8
HETATM    8  C6  UNL     1     -31.628   8.744   0.751  1.00 20.00     0.386 C 
BRANCH   8   9
HETATM    9  C7  UNL     1     -32.509   9.880   0.295  1.00 20.00     0.413 C 
HETATM   10  F9  UNL     1     -33.137   9.557  -0.857  1.00 20.00    -0.169 F 
HETATM   11  F10 UNL     1     -33.458  10.167   1.212  1.00 20.00    -0.169 F 
HETATM   12  F11 UNL     1     -31.791  11.000   0.070  1.00 20.00    -0.169 F 
ENDBRANCH   8   9
ENDBRANCH   1   8
TORSDOF 3
ENDMDL
MODEL 3
REMARK VINA RESULT:      -1.5      1.177      2.123
REMARK  3 active torsions:
REMARK  status: ('A' for Active; 'I' for Inactive)
REMARK    1  A    between atoms: C2_2  and  N8_8 
REMARK    2  A    between atoms: C6_6  and  C7_7 
REMARK    3  A    between atoms: C6_6  and  N8_8 
ROOT
HETATM    1  N8  UNL     1     -32.651   7.269   1.735  1.00 20.00     0.097 N 
HETATM    2  H23 UNL     1     -32.100   6.460   2.011  1.00 20.00     0.316 HD
ENDROOT
BRANCH   1   3
HETATM    3  C2  UNL     1     -33.727   7.461   2.715  1.00 20.00     0.229 A 
HETATM    4  C1  UNL     1     -33.410   7.474   4.187  1.00 20.00     0.047 A 
HETATM    5  C3  UNL     1     -34.203   6.326   3.604  1.00 20.00    -0.015 A 
HETATM    6  C4  UNL     1     -35.675   6.259   3.912  1.00 20.00     0.017 C 
HETATM    7  C5  UNL     1     -33.531   4.980   3.525  1.00 20.00     0.017 C 
ENDBRANCH   1   3
BRANCH   1   8
HETATM    8  C6  UNL     1     -31.800   8.445   1.675  1.00 20.00     0.386 C 
BRANCH   8   9
HETATM    9  C7  UNL     1     -32.052   9.251   0.426  1.00 20.00     0.413 C 
HETATM   10  F9  UNL     1     -30.966   9.226  -0.379  1.00 20.00    -0.169 F 
HETATM   11  F10 UNL     1     -33.094   8.758  -0.277  1.00 20.00    -0.169 F 
HETATM   12  F11 UNL     1     -32.316  10.542   0.717  1.00 20.00    -0.169 F 
ENDBRANCH   8   9
ENDBRANCH   1   8
TORSDOF 3
ENDMDL
MODEL 4
REMARK VINA RESULT:      -1.4      3.220      4.806
REMARK  3 active torsions:
REMARK  status: ('A' for Active; 'I' for Inactive)
REMARK    1  A    between atoms: C2_2  and  N8_8 
REMARK    2  A    between atoms: C6_6  and  C7_7 
REMARK    3  A    between atoms: C6_6  and  N8_8 
ROOT
HETATM    1  N8  UNL     1     -33.177   7.620   2.818  1.00 20.00     0.097 N 
HETATM    2  H23 UNL     1     -32.496   7.733   3.565  1.00 20.00     0.316 HD
ENDROOT
BRANCH   1   3
HETATM    3  C2  UNL     1     -32.483   7.734   1.530  1.00 20.00     0.229 A 
HETATM    4  C1  UNL     1     -31.125   8.381   1.462  1.00 20.00     0.047 A 
HETATM    5  C3  UNL     1     -32.314   9.072   0.834  1.00 20.00    -0.015 A 
HETATM    6  C4  UNL     1     -32.407   9.088  -0.669  1.00 20.00     0.017 C 
HETATM    7  C5  UNL     1     -32.821  10.329   1.493  1.00 20.00     0.017 C 
ENDBRANCH   1   3
BRANCH   1   8
HETATM    8  C6  UNL     1     -33.825   6.325   2.936  1.00 20.00     0.386 C 
BRANCH   8   9
HETATM    9  C7  UNL     1     -34.989   6.372   3.894  1.00 20.00     0.413 C 
HETATM   10  F9  UNL     1     -36.126   6.695   3.240  1.00 20.00    -0.169 F 
HETATM   11  F10 UNL     1     -35.186   5.176   4.490  1.00 20.00    -0.169 F 
HETATM   12  F11 UNL     1     -34.796   7.294   4.860  1.00 20.00    -0.169 F 
ENDBRANCH   8   9
ENDBRANCH   1   8
TORSDOF 3
ENDMDL
MODEL 5
REMARK VINA RESULT:      -1.3      3.221      4.703
REMARK  3 active torsions:
REMARK  status: ('A' for Active; 'I' for Inactive)
REMARK    1  A    between atoms: C2_2  and  N8_8 
REMARK    2  A    between atoms: C6_6  and  C7_7 
REMARK    3  A    between atoms: C6_6  and  N8_8 
ROOT
HETATM    1  N8  UNL     1     -33.176   7.630   2.815  1.00 20.00     0.097 N 
HETATM    2  H23 UNL     1     -32.501   7.746   3.567  1.00 20.00     0.316 HD
ENDROOT
BRANCH   1   3
HETATM    3  C2  UNL     1     -32.472   7.739   1.532  1.00 20.00     0.229 A 
HETATM    4  C1  UNL     1     -31.120   8.398   1.470  1.00 20.00     0.047 A 
HETATM    5  C3  UNL     1     -32.311   9.073   0.826  1.00 20.00    -0.015 A 
HETATM    6  C4  UNL     1     -32.391   9.074  -0.678  1.00 20.00     0.017 C 
HETATM    7  C5  UNL     1     -32.835  10.330   1.469  1.00 20.00     0.017 C 
ENDBRANCH   1   3
BRANCH   1   8
HETATM    8  C6  UNL     1     -33.824   6.335   2.934  1.00 20.00     0.386 C 
BRANCH   8   9
HETATM    9  C7  UNL     1     -34.993   6.383   3.886  1.00 20.00     0.413 C 
HETATM   10  F9  UNL     1     -35.174   5.179   4.472  1.00 20.00    -0.169 F 
HETATM   11  F10 UNL     1     -34.794   7.291   4.866  1.00 20.00    -0.169 F 
HETATM   12  F11 UNL     1     -36.137   6.703   3.245  1.00 20.00    -0.169 F 
ENDBRANCH   8   9
ENDBRANCH   1   8
TORSDOF 3
ENDMDL
MODEL 6
REMARK VINA RESULT:      -1.3      4.809      6.199
REMARK  3 active torsions:
REMARK  status: ('A' for Active; 'I' for Inactive)
REMARK    1  A    between atoms: C2_2  and  N8_8 
REMARK    2  A    between atoms: C6_6  and  C7_7 
REMARK    3  A    between atoms: C6_6  and  N8_8 
ROOT
HETATM    1  N8  UNL     1     -33.879   4.743   3.564  1.00 20.00     0.097 N 
HETATM    2  H23 UNL     1     -34.369   4.633   2.679  1.00 20.00     0.316 HD
ENDROOT
BRANCH   1   3
HETATM    3  C2  UNL     1     -34.316   5.997   4.188  1.00 20.00     0.229 A 
HETATM    4  C1  UNL     1     -35.241   6.924   3.447  1.00 20.00     0.047 A 
HETATM    5  C3  UNL     1     -33.812   7.344   3.703  1.00 20.00    -0.015 A 
HETATM    6  C4  UNL     1     -33.565   8.406   4.742  1.00 20.00     0.017 C 
HETATM    7  C5  UNL     1     -32.880   7.414   2.521  1.00 20.00     0.017 C 
ENDBRANCH   1   3
BRANCH   1   8
HETATM    8  C6  UNL     1     -34.171   3.613   4.429  1.00 20.00     0.386 C 
BRANCH   8   9
HETATM    9  C7  UNL     1     -32.923   2.837   4.770  1.00 20.00     0.413 C 
HETATM   10  F9  UNL     1     -33.139   1.511   4.631  1.00 20.00    -0.169 F 
HETATM   11  F10 UNL     1     -31.897   3.172   3.958  1.00 20.00    -0.169 F 
HETATM   12  F11 UNL     1     -32.537   3.058   6.044  1.00 20.00    -0.169 F 
ENDBRANCH   8   9
ENDBRANCH   1   8
TORSDOF 3
ENDMDL
MODEL 7
REMARK VINA RESULT:      -1.2      4.804      6.193
REMARK  3 active torsions:
REMARK  status: ('A' for Active; 'I' for Inactive)
REMARK    1  A    between atoms: C2_2  and  N8_8 
REMARK    2  A    between atoms: C6_6  and  C7_7 
REMARK    3  A    between atoms: C6_6  and  N8_8 
ROOT
HETATM    1  N8  UNL     1     -33.895   4.739   3.566  1.00 20.00     0.097 N 
HETATM    2  H23 UNL     1     -34.397   4.622   2.689  1.00 20.00     0.316 HD
ENDROOT
BRANCH   1   3
HETATM    3  C2  UNL     1     -34.319   6.000   4.185  1.00 20.00     0.229 A 
HETATM    4  C1  UNL     1     -35.235   6.933   3.440  1.00 20.00     0.047 A 
HETATM    5  C3  UNL     1     -33.802   7.340   3.694  1.00 20.00    -0.015 A 
HETATM    6  C4  UNL     1     -33.544   8.404   4.728  1.00 20.00     0.017 C 
HETATM    7  C5  UNL     1     -32.869   7.395   2.511  1.00 20.00     0.017 C 
ENDBRANCH   1   3
BRANCH   1   8
HETATM    8  C6  UNL     1     -34.177   3.618   4.446  1.00 20.00     0.386 C 
BRANCH   8   9
HETATM    9  C7  UNL     1     -32.928   2.837   4.770  1.00 20.00     0.413 C 
HETATM   10  F9  UNL     1     -31.919   3.197   3.947  1.00 20.00    -0.169 F 
HETATM   11  F10 UNL     1     -32.522   3.061   6.038  1.00 20.00    -0.169 F 
HETATM   12  F11 UNL     1     -33.124   1.510   4.622  1.00 20.00    -0.169 F 
ENDBRANCH   8   9
ENDBRANCH   1   8
TORSDOF 3
ENDMDL
MODEL 8
REMARK VINA RESULT:      -1.1      3.328      4.743
REMARK  3 active torsions:
REMARK  status: ('A' for Active; 'I' for Inactive)
REMARK    1  A    between atoms: C2_2  and  N8_8 
REMARK    2  A    between atoms: C6_6  and  C7_7 
REMARK    3  A    between atoms: C6_6  and  N8_8 
ROOT
HETATM    1  N8  UNL     1     -33.108   6.543   3.161  1.00 20.00     0.097 N 
HETATM    2  H23 UNL     1     -32.253   6.051   3.410  1.00 20.00     0.316 HD
ENDROOT
BRANCH   1   3
HETATM    3  C2  UNL     1     -32.940   7.130   1.827  1.00 20.00     0.229 A 
HETATM    4  C1  UNL     1     -31.668   6.898   1.057  1.00 20.00     0.047 A 
HETATM    5  C3  UNL     1     -31.982   8.281   1.581  1.00 20.00    -0.015 A 
HETATM    6  C4  UNL     1     -32.403   9.332   0.586  1.00 20.00     0.017 C 
HETATM    7  C5  UNL     1     -31.139   8.810   2.712  1.00 20.00     0.017 C 
ENDBRANCH   1   3
BRANCH   1   8
HETATM    8  C6  UNL     1     -34.227   5.616   3.174  1.00 20.00     0.386 C 
BRANCH   8   9
HETATM    9  C7  UNL     1     -35.351   6.115   4.048  1.00 20.00     0.413 C 
HETATM   10  F9  UNL     1     -35.769   5.138   4.883  1.00 20.00    -0.169 F 
HETATM   11  F10 UNL     1     -34.959   7.162   4.806  1.00 20.00    -0.169 F 
HETATM   12  F11 UNL     1     -36.412   6.506   3.311  1.00 20.00    -0.169 F 
ENDBRANCH   8   9
ENDBRANCH   1   8
TORSDOF 3
ENDMDL
MODEL 9
REMARK VINA RESULT:      -0.8      3.398      4.473
REMARK  3 active torsions:
REMARK  status: ('A' for Active; 'I' for Inactive)
REMARK    1  A    between atoms: C2_2  and  N8_8 
REMARK    2  A    between atoms: C6_6  and  C7_7 
REMARK    3  A    between atoms: C6_6  and  N8_8 
ROOT
HETATM    1  N8  UNL     1     -33.770   7.975   3.180  1.00 20.00     0.097 N 
HETATM    2  H23 UNL     1     -33.604   8.964   3.349  1.00 20.00     0.316 HD
ENDROOT
BRANCH   1   3
HETATM    3  C2  UNL     1     -32.524   7.366   2.702  1.00 20.00     0.229 A 
HETATM    4  C1  UNL     1     -31.872   7.874   1.444  1.00 20.00     0.047 A 
HETATM    5  C3  UNL     1     -32.491   6.495   1.459  1.00 20.00    -0.015 A 
HETATM    6  C4  UNL     1     -31.564   5.308   1.469  1.00 20.00     0.017 C 
HETATM    7  C5  UNL     1     -33.750   6.284   0.658  1.00 20.00     0.017 C 
ENDBRANCH   1   3
BRANCH   1   8
HETATM    8  C6  UNL     1     -34.213   7.335   4.407  1.00 20.00     0.386 C 
BRANCH   8   9
HETATM    9  C7  UNL     1     -35.113   6.157   4.126  1.00 20.00     0.413 C 
HETATM   10  F9  UNL     1     -35.774   5.791   5.246  1.00 20.00    -0.169 F 
HETATM   11  F10 UNL     1     -36.035   6.455   3.186  1.00 20.00    -0.169 F 
HETATM   12  F11 UNL     1     -34.408   5.089   3.699  1.00 20.00    -0.169 F 
ENDBRANCH   8   9
ENDBRANCH   1   8
TORSDOF 3
ENDMDL
