MODEL 1
REMARK VINA RESULT:      -1.2      0.000      0.000
REMARK  1 active torsions:
REMARK  status: ('A' for Active; 'I' for Inactive)
REMARK    1  A    between atoms: C6_6  and  N7_7 
ROOT
HETATM    1  C1  UNL     1     -33.853   3.837   4.386  1.00 20.00     0.015 C 
HETATM    2  C2  UNL     1     -34.006   4.957   3.977  1.00 20.00    -0.084 C 
HETATM    3  C4  UNL     1     -35.676   6.641   3.295  1.00 20.00     0.055 C 
HETATM    4  C5  UNL     1     -33.532   7.345   4.407  1.00 20.00     0.055 C 
HETATM    5  C6  UNL     1     -34.194   6.329   3.481  1.00 20.00     0.112 C 
ENDROOT
BRANCH   5   6
HETATM    6  N7  UNL     1     -33.545   6.390   2.166  1.00 20.00    -0.224 NA
HETATM    7  C3  UNL     1     -32.722   7.221   2.074  1.00 20.00     0.333 C 
HETATM    8  O8  UNL     1     -31.895   8.051   1.974  1.00 20.00    -0.260 OA
ENDBRANCH   5   6
TORSDOF 1
ENDMDL
MODEL 2
REMARK VINA RESULT:      -1.0      2.199      4.139
REMARK  1 active torsions:
REMARK  status: ('A' for Active; 'I' for Inactive)
REMARK    1  A    between atoms: C6_6  and  N7_7 
ROOT
HETATM    1  C1  UNL     1     -32.526   9.843   0.060  1.00 20.00     0.015 C 
HETATM    2  C2  UNL     1     -32.412   9.016   0.923  1.00 20.00    -0.084 C 
HETATM    3  C4  UNL     1     -32.178   6.601   1.380  1.00 20.00     0.055 C 
HETATM    4  C5  UNL     1     -31.063   8.297   2.867  1.00 20.00     0.055 C 
HETATM    5  C6  UNL     1     -32.269   8.001   1.980  1.00 20.00     0.112 C 
ENDROOT
BRANCH   5   6
HETATM    6  N7  UNL     1     -33.488   8.072   2.794  1.00 20.00    -0.224 NA
HETATM    7  C3  UNL     1     -33.833   7.042   3.236  1.00 20.00     0.333 C 
HETATM    8  O8  UNL     1     -34.184   6.012   3.682  1.00 20.00    -0.260 OA
ENDBRANCH   5   6
TORSDOF 1
ENDMDL
MODEL 3
REMARK VINA RESULT:      -0.9      1.845      2.874
REMARK  1 active torsions:
REMARK  status: ('A' for Active; 'I' for Inactive)
REMARK    1  A    between atoms: C6_6  and  N7_7 
ROOT
HETATM    1  C1  UNL     1     -34.380   6.863   3.826  1.00 20.00     0.015 C 
HETATM    2  C2  UNL     1     -33.652   6.729   2.880  1.00 20.00    -0.084 C 
HETATM    3  C4  UNL     1     -31.992   5.249   1.810  1.00 20.00     0.055 C 
HETATM    4  C5  UNL     1     -33.544   6.649   0.411  1.00 20.00     0.055 C 
HETATM    5  C6  UNL     1     -32.763   6.562   1.719  1.00 20.00     0.112 C 
ENDROOT
BRANCH   5   6
HETATM    6  N7  UNL     1     -31.797   7.666   1.771  1.00 20.00    -0.224 NA
HETATM    7  C3  UNL     1     -32.140   8.633   1.203  1.00 20.00     0.333 C 
HETATM    8  O8  UNL     1     -32.478   9.606   0.635  1.00 20.00    -0.260 OA
ENDBRANCH   5   6
TORSDOF 1
ENDMDL
MODEL 4
REMARK VINA RESULT:      -0.7      2.048      3.547
REMARK  1 active torsions:
REMARK  status: ('A' for Active; 'I' for Inactive)
REMARK    1  A    between atoms: C6_6  and  N7_7 
ROOT
HETATM    1  C1  UNL     1     -31.958   8.347   1.948  1.00 20.00     0.015 C 
HETATM    2  C2  UNL     1     -32.328   7.215   1.791  1.00 20.00    -0.084 C 
HETATM    3  C4  UNL     1     -33.918   5.766   0.581  1.00 20.00     0.055 C 
HETATM    4  C5  UNL     1     -31.621   4.928   1.173  1.00 20.00     0.055 C 
HETATM    5  C6  UNL     1     -32.779   5.828   1.595  1.00 20.00     0.112 C 
ENDROOT
BRANCH   5   6
HETATM    6  N7  UNL     1     -33.292   5.369   2.890  1.00 20.00    -0.224 NA
HETATM    7  C3  UNL     1     -34.125   6.056   3.349  1.00 20.00     0.333 C 
HETATM    8  O8  UNL     1     -34.961   6.741   3.814  1.00 20.00    -0.260 OA
ENDBRANCH   5   6
TORSDOF 1
ENDMDL
MODEL 5
REMARK VINA RESULT:      -0.6      2.214      3.510
REMARK  1 active torsions:
REMARK  status: ('A' for Active; 'I' for Inactive)
REMARK    1  A    between atoms: C6_6  and  N7_7 
ROOT
HETATM    1  C1  UNL     1     -32.040   8.001   1.678  1.00 20.00     0.015 C 
HETATM    2  C2  UNL     1     -32.828   7.619   2.501  1.00 20.00    -0.084 C 
HETATM    3  C4  UNL     1     -33.479   7.748   4.878  1.00 20.00     0.055 C 
HETATM    4  C5  UNL     1     -35.225   7.474   3.087  1.00 20.00     0.055 C 
HETATM    5  C6  UNL     1     -33.794   7.153   3.509  1.00 20.00     0.112 C 
ENDROOT
BRANCH   5   6
HETATM    6  N7  UNL     1     -33.638   5.697   3.595  1.00 20.00    -0.224 NA
HETATM    7  C3  UNL     1     -34.520   5.149   4.140  1.00 20.00     0.333 C 
HETATM    8  O8  UNL     1     -35.402   4.594   4.686  1.00 20.00    -0.260 OA
ENDBRANCH   5   6
TORSDOF 1
ENDMDL
MODEL 6
REMARK VINA RESULT:      -0.6      2.588      4.129
REMARK  1 active torsions:
REMARK  status: ('A' for Active; 'I' for Inactive)
REMARK    1  A    between atoms: C6_6  and  N7_7 
ROOT
HETATM    1  C1  UNL     1     -32.549   9.830   0.118  1.00 20.00     0.015 C 
HETATM    2  C2  UNL     1     -32.398   9.055   1.023  1.00 20.00    -0.084 C 
HETATM    3  C4  UNL     1     -31.279   8.685   3.192  1.00 20.00     0.055 C 
HETATM    4  C5  UNL     1     -33.557   7.713   2.746  1.00 20.00     0.055 C 
HETATM    5  C6  UNL     1     -32.216   8.108   2.134  1.00 20.00     0.112 C 
ENDROOT
BRANCH   5   6
HETATM    6  N7  UNL     1     -31.582   6.913   1.565  1.00 20.00    -0.224 NA
HETATM    7  C3  UNL     1     -32.328   6.037   1.333  1.00 20.00     0.333 C 
HETATM    8  O8  UNL     1     -33.069   5.156   1.098  1.00 20.00    -0.260 OA
ENDBRANCH   5   6
TORSDOF 1
ENDMDL
MODEL 7
REMARK VINA RESULT:      -0.5      2.178      3.012
REMARK  1 active torsions:
REMARK  status: ('A' for Active; 'I' for Inactive)
REMARK    1  A    between atoms: C6_6  and  N7_7 
ROOT
HETATM    1  C1  UNL     1     -34.336   7.254   3.800  1.00 20.00     0.015 C 
HETATM    2  C2  UNL     1     -33.398   7.532   3.102  1.00 20.00    -0.084 C 
HETATM    3  C4  UNL     1     -32.694   8.713   1.053  1.00 20.00     0.055 C 
HETATM    4  C5  UNL     1     -31.167   8.596   3.049  1.00 20.00     0.055 C 
HETATM    5  C6  UNL     1     -32.250   7.877   2.249  1.00 20.00     0.112 C 
ENDROOT
BRANCH   5   6
HETATM    6  N7  UNL     1     -31.708   6.610   1.746  1.00 20.00    -0.224 NA
HETATM    7  C3  UNL     1     -32.504   5.915   1.235  1.00 20.00     0.333 C 
HETATM    8  O8  UNL     1     -33.296   5.215   0.720  1.00 20.00    -0.260 OA
ENDBRANCH   5   6
TORSDOF 1
ENDMDL
MODEL 8
REMARK VINA RESULT:      -0.4      2.335      3.299
REMARK  1 active torsions:
REMARK  status: ('A' for Active; 'I' for Inactive)
REMARK    1  A    between atoms: C6_6  and  N7_7 
ROOT
HETATM    1  C1  UNL     1     -33.427   8.190   5.050  1.00 20.00     0.015 C 
HETATM    2  C2  UNL     1     -33.976   7.353   4.386  1.00 20.00    -0.084 C 
HETATM    3  C4  UNL     1     -35.947   6.872   2.980  1.00 20.00     0.055 C 
HETATM    4  C5  UNL     1     -33.724   5.811   2.470  1.00 20.00     0.055 C 
HETATM    5  C6  UNL     1     -34.648   6.330   3.568  1.00 20.00     0.112 C 
ENDROOT
BRANCH   5   6
HETATM    6  N7  UNL     1     -34.980   5.225   4.473  1.00 20.00    -0.224 NA
HETATM    7  C3  UNL     1     -34.257   4.304   4.395  1.00 20.00     0.333 C 
HETATM    8  O8  UNL     1     -33.535   3.378   4.322  1.00 20.00    -0.260 OA
ENDBRANCH   5   6
TORSDOF 1
ENDMDL
MODEL 9
REMARK VINA RESULT:      -0.3      0.727      2.202
REMARK  1 active torsions:
REMARK  status: ('A' for Active; 'I' for Inactive)
REMARK    1  A    between atoms: C6_6  and  N7_7 
ROOT
HETATM    1  C1  UNL     1     -33.336   8.223   5.096  1.00 20.00     0.015 C 
HETATM    2  C2  UNL     1     -33.860   7.380   4.420  1.00 20.00    -0.084 C 
HETATM    3  C4  UNL     1     -34.763   5.083   4.409  1.00 20.00     0.055 C 
HETATM    4  C5  UNL     1     -35.797   6.870   2.971  1.00 20.00     0.055 C 
HETATM    5  C6  UNL     1     -34.506   6.347   3.594  1.00 20.00     0.112 C 
ENDROOT
BRANCH   5   6
HETATM    6  N7  UNL     1     -33.560   6.018   2.523  1.00 20.00    -0.224 NA
HETATM    7  C3  UNL     1     -32.939   6.933   2.130  1.00 20.00     0.333 C 
HETATM    8  O8  UNL     1     -32.314   7.846   1.732  1.00 20.00    -0.260 OA
ENDBRANCH   5   6
TORSDOF 1
ENDMDL
