MODEL 1
REMARK VINA RESULT:       0.9      0.000      0.000
REMARK  0 active torsions:
REMARK  status: ('A' for Active; 'I' for Inactive)
ROOT
HETATM    1  C1  UNL     1     -32.234   6.289   1.645  1.00 20.00     0.042 C 
HETATM    2  C2  UNL     1     -34.160   3.994   4.057  1.00 20.00    -0.026 A 
HETATM    3  C3  UNL     1     -35.014   4.863   4.614  1.00 20.00    -0.026 A 
HETATM    4  C4  UNL     1     -33.155   5.856   2.684  1.00 20.00    -0.050 A 
HETATM    5  C5  UNL     1     -34.015   6.736   3.245  1.00 20.00    -0.067 A 
HETATM    6  C6  UNL     1     -32.013   7.595   1.456  1.00 20.00     0.079 C 
HETATM    7  C7  UNL     1     -33.139   4.389   3.030  1.00 20.00     0.065 A 
HETATM    8  C8  UNL     1     -35.039   6.323   4.273  1.00 20.00     0.061 A 
HETATM    9  C9  UNL     1     -34.007   8.205   2.859  1.00 20.00     0.074 C 
HETATM   10  C10 UNL     1     -31.723   9.498   0.416  1.00 20.00     0.345 C 
HETATM   11  C11 UNL     1     -32.666   8.647   2.270  1.00 20.00     0.184 C 
HETATM   12  O12 UNL     1     -31.315   8.121   0.393  1.00 20.00    -0.328 OA
HETATM   13  O13 UNL     1     -32.809   9.706   1.331  1.00 20.00    -0.354 OA
ENDROOT
TORSDOF 0
ENDMDL
MODEL 2
REMARK VINA RESULT:       2.3      0.384      2.129
REMARK  0 active torsions:
REMARK  status: ('A' for Active; 'I' for Inactive)
ROOT
HETATM    1  C1  UNL     1     -33.774   7.973   2.811  1.00 20.00     0.042 C 
HETATM    2  C2  UNL     1     -35.129   4.900   4.687  1.00 20.00    -0.026 A 
HETATM    3  C3  UNL     1     -34.293   3.946   4.258  1.00 20.00    -0.026 A 
HETATM    4  C4  UNL     1     -33.946   6.593   3.240  1.00 20.00    -0.050 A 
HETATM    5  C5  UNL     1     -33.100   5.632   2.803  1.00 20.00    -0.067 A 
HETATM    6  C6  UNL     1     -32.992   8.249   1.761  1.00 20.00     0.079 C 
HETATM    7  C7  UNL     1     -35.049   6.328   4.231  1.00 20.00     0.065 A 
HETATM    8  C8  UNL     1     -33.190   4.201   3.274  1.00 20.00     0.061 A 
HETATM    9  C9  UNL     1     -31.992   5.943   1.812  1.00 20.00     0.074 C 
HETATM   10  C10 UNL     1     -31.487   9.254   0.531  1.00 20.00     0.345 C 
HETATM   11  C11 UNL     1     -32.280   7.202   0.991  1.00 20.00     0.184 C 
HETATM   12  O12 UNL     1     -32.611   9.516   1.385  1.00 20.00    -0.328 OA
HETATM   13  O13 UNL     1     -31.090   7.876   0.598  1.00 20.00    -0.354 OA
ENDROOT
TORSDOF 0
ENDMDL
MODEL 3
REMARK VINA RESULT:       2.7      2.284      5.028
REMARK  0 active torsions:
REMARK  status: ('A' for Active; 'I' for Inactive)
ROOT
HETATM    1  C1  UNL     1     -34.277   7.804   3.119  1.00 20.00     0.042 C 
HETATM    2  C2  UNL     1     -32.093   9.834   0.690  1.00 20.00    -0.026 A 
HETATM    3  C3  UNL     1     -31.345   8.867   0.145  1.00 20.00    -0.026 A 
HETATM    4  C4  UNL     1     -33.245   8.128   2.147  1.00 20.00    -0.050 A 
HETATM    5  C5  UNL     1     -32.490   7.149   1.600  1.00 20.00    -0.067 A 
HETATM    6  C6  UNL     1     -34.283   6.601   3.705  1.00 20.00     0.079 C 
HETATM    7  C7  UNL     1     -33.127   9.576   1.746  1.00 20.00     0.065 A 
HETATM    8  C8  UNL     1     -31.457   7.423   0.534  1.00 20.00     0.061 A 
HETATM    9  C9  UNL     1     -32.648   5.699   2.022  1.00 20.00     0.074 C 
HETATM   10  C10 UNL     1     -35.042   4.710   4.502  1.00 20.00     0.345 C 
HETATM   11  C11 UNL     1     -33.269   5.560   3.414  1.00 20.00     0.184 C 
HETATM   12  O12 UNL     1     -35.306   6.122   4.490  1.00 20.00    -0.328 OA
HETATM   13  O13 UNL     1     -34.022   4.362   3.554  1.00 20.00    -0.354 OA
ENDROOT
TORSDOF 0
ENDMDL
MODEL 4
REMARK VINA RESULT:       2.7      2.283      4.583
REMARK  0 active torsions:
REMARK  status: ('A' for Active; 'I' for Inactive)
ROOT
HETATM    1  C1  UNL     1     -32.487   5.767   2.017  1.00 20.00     0.042 C 
HETATM    2  C2  UNL     1     -31.476   8.980   0.159  1.00 20.00    -0.026 A 
HETATM    3  C3  UNL     1     -32.194   9.897   0.820  1.00 20.00    -0.026 A 
HETATM    4  C4  UNL     1     -32.451   7.164   1.612  1.00 20.00    -0.050 A 
HETATM    5  C5  UNL     1     -33.179   8.087   2.281  1.00 20.00    -0.067 A 
HETATM    6  C6  UNL     1     -33.456   5.336   2.833  1.00 20.00     0.079 C 
HETATM    7  C7  UNL     1     -31.520   7.515   0.481  1.00 20.00     0.065 A 
HETATM    8  C8  UNL     1     -33.122   9.558   1.949  1.00 20.00     0.061 A 
HETATM    9  C9  UNL     1     -34.098   7.694   3.424  1.00 20.00     0.074 C 
HETATM   10  C10 UNL     1     -34.431   4.285   4.486  1.00 20.00     0.345 C 
HETATM   11  C11 UNL     1     -34.521   6.225   3.355  1.00 20.00     0.184 C 
HETATM   12  O12 UNL     1     -33.482   4.095   3.425  1.00 20.00    -0.328 OA
HETATM   13  O13 UNL     1     -34.769   5.671   4.642  1.00 20.00    -0.354 OA
ENDROOT
TORSDOF 0
ENDMDL
