MODEL 1
REMARK VINA RESULT:       1.0      0.000      0.000
REMARK  0 active torsions:
REMARK  status: ('A' for Active; 'I' for Inactive)
ROOT
HETATM    1  C1  UNL     1     -33.816   8.003   2.801  1.00 20.00     0.060 A 
HETATM    2  C2  UNL     1     -32.343   5.744   1.987  1.00 20.00     0.065 A 
HETATM    3  C3  UNL     1     -35.149   5.175   4.516  1.00 20.00     0.167 A 
HETATM    4  C4  UNL     1     -34.135   6.734   3.331  1.00 20.00     0.076 A 
HETATM    5  C5  UNL     1     -32.048   7.011   1.478  1.00 20.00     0.139 A 
HETATM    6  C6  UNL     1     -33.392   5.626   2.913  1.00 20.00     0.038 A 
HETATM    7  C7  UNL     1     -32.773   8.127   1.878  1.00 20.00     0.074 A 
HETATM    8  N8  UNL     1     -35.138   6.460   4.248  1.00 20.00    -0.253 NA
HETATM    9  F9  UNL     1     -31.047   7.133   0.592  1.00 20.00    -0.204 F 
HETATM   10  S10 UNL     1     -33.986   4.217   3.707  1.00 20.00    -0.080 SA
HETATM   11 CL11 UNL     1     -32.391   9.681   1.238  1.00 20.00    -0.081 Cl
ENDROOT
TORSDOF 0
ENDMDL
MODEL 2
REMARK VINA RESULT:       1.0      3.637      4.541
REMARK  0 active torsions:
REMARK  status: ('A' for Active; 'I' for Inactive)
ROOT
HETATM    1  C1  UNL     1     -32.715   5.497   2.511  1.00 20.00     0.060 A 
HETATM    2  C2  UNL     1     -34.352   7.596   3.434  1.00 20.00     0.065 A 
HETATM    3  C3  UNL     1     -31.619   8.494   0.919  1.00 20.00     0.167 A 
HETATM    4  C4  UNL     1     -32.499   6.810   2.038  1.00 20.00     0.076 A 
HETATM    5  C5  UNL     1     -34.544   6.289   3.886  1.00 20.00     0.139 A 
HETATM    6  C6  UNL     1     -33.323   7.836   2.509  1.00 20.00     0.038 A 
HETATM    7  C7  UNL     1     -33.738   5.252   3.432  1.00 20.00     0.074 A 
HETATM    8  N8  UNL     1     -31.529   7.202   1.128  1.00 20.00    -0.253 NA
HETATM    9  F9  UNL     1     -35.525   6.049   4.770  1.00 20.00    -0.204 F 
HETATM   10  S10 UNL     1     -32.847   9.322   1.776  1.00 20.00    -0.080 SA
HETATM   11 CL11 UNL     1     -33.992   3.645   4.003  1.00 20.00    -0.081 Cl
ENDROOT
TORSDOF 0
ENDMDL
MODEL 3
REMARK VINA RESULT:       1.4      1.017      1.085
REMARK  0 active torsions:
REMARK  status: ('A' for Active; 'I' for Inactive)
ROOT
HETATM    1  C1  UNL     1     -33.049   7.869   2.469  1.00 20.00     0.060 A 
HETATM    2  C2  UNL     1     -32.785   5.090   2.088  1.00 20.00     0.065 A 
HETATM    3  C3  UNL     1     -35.273   6.255   4.743  1.00 20.00     0.167 A 
HETATM    4  C4  UNL     1     -33.823   6.981   3.248  1.00 20.00     0.076 A 
HETATM    5  C5  UNL     1     -32.032   5.989   1.331  1.00 20.00     0.139 A 
HETATM    6  C6  UNL     1     -33.676   5.606   3.043  1.00 20.00     0.038 A 
HETATM    7  C7  UNL     1     -32.161   7.361   1.517  1.00 20.00     0.074 A 
HETATM    8  N8  UNL     1     -34.741   7.337   4.225  1.00 20.00    -0.253 NA
HETATM    9  F9  UNL     1     -31.178   5.506   0.416  1.00 20.00    -0.204 F 
HETATM   10  S10 UNL     1     -34.728   4.761   4.115  1.00 20.00    -0.080 SA
HETATM   11 CL11 UNL     1     -31.221   8.454   0.572  1.00 20.00    -0.081 Cl
ENDROOT
TORSDOF 0
ENDMDL
MODEL 4
REMARK VINA RESULT:       2.0      2.075      2.500
REMARK  0 active torsions:
REMARK  status: ('A' for Active; 'I' for Inactive)
ROOT
HETATM    1  C1  UNL     1     -33.108   5.091   2.093  1.00 20.00     0.060 A 
HETATM    2  C2  UNL     1     -32.507   7.828   2.384  1.00 20.00     0.065 A 
HETATM    3  C3  UNL     1     -35.245   6.397   4.632  1.00 20.00     0.167 A 
HETATM    4  C4  UNL     1     -33.814   5.863   3.041  1.00 20.00     0.076 A 
HETATM    5  C5  UNL     1     -31.824   7.041   1.453  1.00 20.00     0.139 A 
HETATM    6  C6  UNL     1     -33.499   7.219   3.169  1.00 20.00     0.038 A 
HETATM    7  C7  UNL     1     -32.119   5.690   1.308  1.00 20.00     0.074 A 
HETATM    8  N8  UNL     1     -34.815   5.407   3.886  1.00 20.00    -0.253 NA
HETATM    9  F9  UNL     1     -30.874   7.613   0.698  1.00 20.00    -0.204 F 
HETATM   10  S10 UNL     1     -34.499   7.917   4.387  1.00 20.00    -0.080 SA
HETATM   11 CL11 UNL     1     -31.266   4.738   0.153  1.00 20.00    -0.081 Cl
ENDROOT
TORSDOF 0
ENDMDL
MODEL 5
REMARK VINA RESULT:       2.1      3.769      4.687
REMARK  0 active torsions:
REMARK  status: ('A' for Active; 'I' for Inactive)
ROOT
HETATM    1  C1  UNL     1     -32.570   4.502   2.993  1.00 20.00     0.060 A 
HETATM    2  C2  UNL     1     -34.597   6.300   3.765  1.00 20.00     0.065 A 
HETATM    3  C3  UNL     1     -31.978   7.582   1.296  1.00 20.00     0.167 A 
HETATM    4  C4  UNL     1     -32.579   5.811   2.465  1.00 20.00     0.076 A 
HETATM    5  C5  UNL     1     -34.565   4.999   4.272  1.00 20.00     0.139 A 
HETATM    6  C6  UNL     1     -33.594   6.687   2.862  1.00 20.00     0.038 A 
HETATM    7  C7  UNL     1     -33.566   4.110   3.893  1.00 20.00     0.074 A 
HETATM    8  N8  UNL     1     -31.662   6.338   1.568  1.00 20.00    -0.253 NA
HETATM    9  F9  UNL     1     -35.519   4.620   5.136  1.00 20.00    -0.204 F 
HETATM   10  S10 UNL     1     -33.368   8.204   2.074  1.00 20.00    -0.080 SA
HETATM   11 CL11 UNL     1     -33.545   2.509   4.532  1.00 20.00    -0.081 Cl
ENDROOT
TORSDOF 0
ENDMDL
MODEL 6
REMARK VINA RESULT:       2.2      3.268      3.979
REMARK  0 active torsions:
REMARK  status: ('A' for Active; 'I' for Inactive)
ROOT
HETATM    1  C1  UNL     1     -34.302   7.079   3.683  1.00 20.00     0.060 A 
HETATM    2  C2  UNL     1     -32.786   5.135   2.319  1.00 20.00     0.065 A 
HETATM    3  C3  UNL     1     -32.101   8.795   1.462  1.00 20.00     0.167 A 
HETATM    4  C4  UNL     1     -33.341   7.485   2.731  1.00 20.00     0.076 A 
HETATM    5  C5  UNL     1     -33.743   4.761   3.265  1.00 20.00     0.139 A 
HETATM    6  C6  UNL     1     -32.600   6.504   2.066  1.00 20.00     0.038 A 
HETATM    7  C7  UNL     1     -34.491   5.718   3.939  1.00 20.00     0.074 A 
HETATM    8  N8  UNL     1     -33.043   8.792   2.375  1.00 20.00    -0.253 NA
HETATM    9  F9  UNL     1     -33.928   3.455   3.513  1.00 20.00    -0.204 F 
HETATM   10  S10 UNL     1     -31.509   7.267   0.971  1.00 20.00    -0.080 SA
HETATM   11 CL11 UNL     1     -35.668   5.234   5.102  1.00 20.00    -0.081 Cl
ENDROOT
TORSDOF 0
ENDMDL
MODEL 7
REMARK VINA RESULT:       2.5      1.708      2.244
REMARK  0 active torsions:
REMARK  status: ('A' for Active; 'I' for Inactive)
ROOT
HETATM    1  C1  UNL     1     -32.247   6.154   1.745  1.00 20.00     0.060 A 
HETATM    2  C2  UNL     1     -33.827   8.134   2.979  1.00 20.00     0.065 A 
HETATM    3  C3  UNL     1     -34.437   4.511   4.031  1.00 20.00     0.167 A 
HETATM    4  C4  UNL     1     -33.211   5.778   2.706  1.00 20.00     0.076 A 
HETATM    5  C5  UNL     1     -32.866   8.478   2.026  1.00 20.00     0.139 A 
HETATM    6  C6  UNL     1     -33.984   6.777   3.306  1.00 20.00     0.038 A 
HETATM    7  C7  UNL     1     -32.086   7.503   1.416  1.00 20.00     0.074 A 
HETATM    8  N8  UNL     1     -33.481   4.487   3.131  1.00 20.00    -0.253 NA
HETATM    9  F9  UNL     1     -32.709   9.772   1.707  1.00 20.00    -0.204 F 
HETATM   10  S10 UNL     1     -35.071   6.050   4.429  1.00 20.00    -0.080 SA
HETATM   11 CL11 UNL     1     -30.907   7.950   0.240  1.00 20.00    -0.081 Cl
ENDROOT
TORSDOF 0
ENDMDL
MODEL 8
REMARK VINA RESULT:       3.3      3.148      3.868
REMARK  0 active torsions:
REMARK  status: ('A' for Active; 'I' for Inactive)
ROOT
HETATM    1  C1  UNL     1     -32.865   8.149   3.571  1.00 20.00     0.060 A 
HETATM    2  C2  UNL     1     -34.247   5.768   2.968  1.00 20.00     0.065 A 
HETATM    3  C3  UNL     1     -31.430   6.796   0.599  1.00 20.00     0.167 A 
HETATM    4  C4  UNL     1     -32.499   7.399   2.432  1.00 20.00     0.076 A 
HETATM    5  C5  UNL     1     -34.588   6.528   4.089  1.00 20.00     0.139 A 
HETATM    6  C6  UNL     1     -33.198   6.221   2.151  1.00 20.00     0.038 A 
HETATM    7  C7  UNL     1     -33.908   7.703   4.388  1.00 20.00     0.074 A 
HETATM    8  N8  UNL     1     -31.490   7.715   1.535  1.00 20.00    -0.253 NA
HETATM    9  F9  UNL     1     -35.589   6.104   4.875  1.00 20.00    -0.204 F 
HETATM   10  S10 UNL     1     -32.552   5.511   0.720  1.00 20.00    -0.080 SA
HETATM   11 CL11 UNL     1     -34.347   8.627   5.776  1.00 20.00    -0.081 Cl
ENDROOT
TORSDOF 0
ENDMDL
