MODEL 1
REMARK VINA RESULT:       0.1      0.000      0.000
REMARK  0 active torsions:
REMARK  status: ('A' for Active; 'I' for Inactive)
ROOT
HETATM    1  C1  UNL     1     -32.416   5.418   1.591  1.00 20.00     0.035 A 
HETATM    2  C2  UNL     1     -31.762   6.479   0.956  1.00 20.00     0.026 A 
HETATM    3  C3  UNL     1     -32.907   8.081   2.370  1.00 20.00     0.045 A 
HETATM    4  C4  UNL     1     -33.332   5.683   2.632  1.00 20.00     0.077 A 
HETATM    5  C5  UNL     1     -33.561   7.011   3.003  1.00 20.00     0.039 A 
HETATM    6  C6  UNL     1     -32.006   7.792   1.342  1.00 20.00     0.035 A 
HETATM    7  C7  UNL     1     -34.803   5.340   4.239  1.00 20.00     0.253 A 
HETATM    8  N8  UNL     1     -34.050   4.737   3.349  1.00 20.00    -0.213 NA
HETATM    9  F9  UNL     1     -35.603   4.653   5.067  1.00 20.00    -0.176 F 
HETATM   10  S10 UNL     1     -34.711   7.047   4.286  1.00 20.00    -0.037 SA
HETATM   11 CL11 UNL     1     -31.185   9.081   0.547  1.00 20.00    -0.084 Cl
ENDROOT
TORSDOF 0
ENDMDL
MODEL 2
REMARK VINA RESULT:       0.6      3.887      4.789
REMARK  0 active torsions:
REMARK  status: ('A' for Active; 'I' for Inactive)
ROOT
HETATM    1  C1  UNL     1     -33.778   8.143   3.809  1.00 20.00     0.035 A 
HETATM    2  C2  UNL     1     -34.564   7.188   4.463  1.00 20.00     0.026 A 
HETATM    3  C3  UNL     1     -33.844   5.474   2.908  1.00 20.00     0.045 A 
HETATM    4  C4  UNL     1     -33.011   7.766   2.685  1.00 20.00     0.077 A 
HETATM    5  C5  UNL     1     -33.058   6.437   2.255  1.00 20.00     0.039 A 
HETATM    6  C6  UNL     1     -34.594   5.872   4.016  1.00 20.00     0.035 A 
HETATM    7  C7  UNL     1     -31.630   7.913   0.971  1.00 20.00     0.253 A 
HETATM    8  N8  UNL     1     -32.189   8.599   1.940  1.00 20.00    -0.213 NA
HETATM    9  F9  UNL     1     -30.787   8.483   0.099  1.00 20.00    -0.176 F 
HETATM   10  S10 UNL     1     -32.036   6.254   0.878  1.00 20.00    -0.037 SA
HETATM   11 CL11 UNL     1     -35.567   4.714   4.842  1.00 20.00    -0.084 Cl
ENDROOT
TORSDOF 0
ENDMDL
MODEL 3
REMARK VINA RESULT:       1.0      3.865      4.710
REMARK  0 active torsions:
REMARK  status: ('A' for Active; 'I' for Inactive)
ROOT
HETATM    1  C1  UNL     1     -34.277   7.477   3.706  1.00 20.00     0.035 A 
HETATM    2  C2  UNL     1     -34.433   6.166   4.166  1.00 20.00     0.026 A 
HETATM    3  C3  UNL     1     -32.848   5.359   2.518  1.00 20.00     0.045 A 
HETATM    4  C4  UNL     1     -33.397   7.743   2.636  1.00 20.00     0.077 A 
HETATM    5  C5  UNL     1     -32.697   6.678   2.061  1.00 20.00     0.039 A 
HETATM    6  C6  UNL     1     -33.726   5.123   3.578  1.00 20.00     0.035 A 
HETATM    7  C7  UNL     1     -32.270   8.861   1.103  1.00 20.00     0.253 A 
HETATM    8  N8  UNL     1     -33.141   8.987   2.077  1.00 20.00    -0.213 NA
HETATM    9  F9  UNL     1     -31.850   9.917   0.393  1.00 20.00    -0.176 F 
HETATM   10  S10 UNL     1     -31.701   7.280   0.788  1.00 20.00    -0.037 SA
HETATM   11 CL11 UNL     1     -33.933   3.515   4.165  1.00 20.00    -0.084 Cl
ENDROOT
TORSDOF 0
ENDMDL
MODEL 4
REMARK VINA RESULT:       1.6      1.269      1.975
REMARK  0 active torsions:
REMARK  status: ('A' for Active; 'I' for Inactive)
ROOT
HETATM    1  C1  UNL     1     -33.692   8.451   3.175  1.00 20.00     0.035 A 
HETATM    2  C2  UNL     1     -32.737   8.789   2.212  1.00 20.00     0.026 A 
HETATM    3  C3  UNL     1     -32.347   6.447   1.721  1.00 20.00     0.045 A 
HETATM    4  C4  UNL     1     -33.986   7.093   3.423  1.00 20.00     0.077 A 
HETATM    5  C5  UNL     1     -33.308   6.115   2.690  1.00 20.00     0.039 A 
HETATM    6  C6  UNL     1     -32.075   7.798   1.495  1.00 20.00     0.035 A 
HETATM    7  C7  UNL     1     -34.918   5.297   4.303  1.00 20.00     0.253 A 
HETATM    8  N8  UNL     1     -34.905   6.609   4.343  1.00 20.00    -0.213 NA
HETATM    9  F9  UNL     1     -35.721   4.576   5.098  1.00 20.00    -0.176 F 
HETATM   10  S10 UNL     1     -33.854   4.557   3.187  1.00 20.00    -0.037 SA
HETATM   11 CL11 UNL     1     -30.904   8.241   0.311  1.00 20.00    -0.084 Cl
ENDROOT
TORSDOF 0
ENDMDL
MODEL 5
REMARK VINA RESULT:       1.8      3.743      4.393
REMARK  0 active torsions:
REMARK  status: ('A' for Active; 'I' for Inactive)
ROOT
HETATM    1  C1  UNL     1     -32.807   5.208   2.052  1.00 20.00     0.035 A 
HETATM    2  C2  UNL     1     -33.735   4.794   3.013  1.00 20.00     0.026 A 
HETATM    3  C3  UNL     1     -34.234   7.098   3.579  1.00 20.00     0.045 A 
HETATM    4  C4  UNL     1     -32.581   6.586   1.846  1.00 20.00     0.077 A 
HETATM    5  C5  UNL     1     -33.300   7.507   2.614  1.00 20.00     0.039 A 
HETATM    6  C6  UNL     1     -34.438   5.729   3.765  1.00 20.00     0.035 A 
HETATM    7  C7  UNL     1     -31.748   8.451   1.013  1.00 20.00     0.253 A 
HETATM    8  N8  UNL     1     -31.697   7.143   0.933  1.00 20.00    -0.213 NA
HETATM    9  F9  UNL     1     -30.987   9.235   0.236  1.00 20.00    -0.176 F 
HETATM   10  S10 UNL     1     -32.835   9.104   2.160  1.00 20.00    -0.037 SA
HETATM   11 CL11 UNL     1     -35.579   5.193   4.940  1.00 20.00    -0.084 Cl
ENDROOT
TORSDOF 0
ENDMDL
MODEL 6
REMARK VINA RESULT:       2.1      1.748      2.311
REMARK  0 active torsions:
REMARK  status: ('A' for Active; 'I' for Inactive)
ROOT
HETATM    1  C1  UNL     1     -34.249   7.417   3.713  1.00 20.00     0.035 A 
HETATM    2  C2  UNL     1     -33.726   8.400   2.866  1.00 20.00     0.026 A 
HETATM    3  C3  UNL     1     -32.394   6.742   1.702  1.00 20.00     0.045 A 
HETATM    4  C4  UNL     1     -33.842   6.074   3.560  1.00 20.00     0.077 A 
HETATM    5  C5  UNL     1     -32.922   5.761   2.556  1.00 20.00     0.039 A 
HETATM    6  C6  UNL     1     -32.811   8.064   1.874  1.00 20.00     0.035 A 
HETATM    7  C7  UNL     1     -33.690   3.900   3.902  1.00 20.00     0.253 A 
HETATM    8  N8  UNL     1     -34.274   4.997   4.322  1.00 20.00    -0.213 NA
HETATM    9  F9  UNL     1     -33.932   2.711   4.471  1.00 20.00    -0.176 F 
HETATM   10  S10 UNL     1     -32.605   4.066   2.591  1.00 20.00    -0.037 SA
HETATM   11 CL11 UNL     1     -32.185   9.292   0.840  1.00 20.00    -0.084 Cl
ENDROOT
TORSDOF 0
ENDMDL
MODEL 7
REMARK VINA RESULT:       2.4      2.451      2.866
REMARK  0 active torsions:
REMARK  status: ('A' for Active; 'I' for Inactive)
ROOT
HETATM    1  C1  UNL     1     -31.801   7.502   1.863  1.00 20.00     0.035 A 
HETATM    2  C2  UNL     1     -31.713   6.485   0.907  1.00 20.00     0.026 A 
HETATM    3  C3  UNL     1     -33.539   5.286   1.957  1.00 20.00     0.045 A 
HETATM    4  C4  UNL     1     -32.769   7.417   2.887  1.00 20.00     0.077 A 
HETATM    5  C5  UNL     1     -33.622   6.310   2.915  1.00 20.00     0.039 A 
HETATM    6  C6  UNL     1     -32.572   5.393   0.955  1.00 20.00     0.035 A 
HETATM    7  C7  UNL     1     -33.955   7.944   4.671  1.00 20.00     0.253 A 
HETATM    8  N8  UNL     1     -32.973   8.345   3.899  1.00 20.00    -0.213 NA
HETATM    9  F9  UNL     1     -34.356   8.661   5.730  1.00 20.00    -0.176 F 
HETATM   10  S10 UNL     1     -34.696   6.460   4.255  1.00 20.00    -0.037 SA
HETATM   11 CL11 UNL     1     -32.446   4.156  -0.237  1.00 20.00    -0.084 Cl
ENDROOT
TORSDOF 0
ENDMDL
