MODEL 1
REMARK VINA RESULT:      -3.2      0.000      0.000
REMARK  1 active torsions:
REMARK  status: ('A' for Active; 'I' for Inactive)
REMARK    1  A    between atoms: C1_1  and  C2_2 
ROOT
HETATM    1  C2  UNL     1     -34.473   6.560   3.667  1.00 20.00     0.447 C 
HETATM    2  F5  UNL     1     -35.797   6.571   3.409  1.00 20.00    -0.166 F 
HETATM    3  F6  UNL     1     -34.156   5.348   4.168  1.00 20.00    -0.166 F 
HETATM    4  F7  UNL     1     -34.226   7.480   4.625  1.00 20.00    -0.166 F 
ENDROOT
BRANCH   1   5
HETATM    5  C1  UNL     1     -33.678   6.852   2.428  1.00 20.00     0.459 C 
HETATM    6  F3  UNL     1     -33.018   5.735   2.040  1.00 20.00    -0.205 F 
HETATM    7  F4  UNL     1     -32.740   7.790   2.701  1.00 20.00    -0.205 F 
ENDBRANCH   1   5
TORSDOF 1
ENDMDL
MODEL 2
REMARK VINA RESULT:      -3.2      0.045      1.418
REMARK  1 active torsions:
REMARK  status: ('A' for Active; 'I' for Inactive)
REMARK    1  A    between atoms: C1_1  and  C2_2 
ROOT
HETATM    1  C2  UNL     1     -34.471   6.522   3.658  1.00 20.00     0.447 C 
HETATM    2  F5  UNL     1     -34.170   5.292   4.120  1.00 20.00    -0.166 F 
HETATM    3  F6  UNL     1     -34.212   7.412   4.640  1.00 20.00    -0.166 F 
HETATM    4  F7  UNL     1     -35.798   6.561   3.408  1.00 20.00    -0.166 F 
ENDROOT
BRANCH   1   5
HETATM    5  C1  UNL     1     -33.685   6.845   2.422  1.00 20.00     0.459 C 
HETATM    6  F3  UNL     1     -33.024   5.739   2.004  1.00 20.00    -0.205 F 
HETATM    7  F4  UNL     1     -32.748   7.779   2.710  1.00 20.00    -0.205 F 
ENDBRANCH   1   5
TORSDOF 1
ENDMDL
MODEL 3
REMARK VINA RESULT:      -3.2      0.044      1.433
REMARK  1 active torsions:
REMARK  status: ('A' for Active; 'I' for Inactive)
REMARK    1  A    between atoms: C1_1  and  C2_2 
ROOT
HETATM    1  C2  UNL     1     -34.510   6.551   3.681  1.00 20.00     0.447 C 
HETATM    2  F5  UNL     1     -34.269   7.462   4.646  1.00 20.00    -0.166 F 
HETATM    3  F6  UNL     1     -35.831   6.574   3.406  1.00 20.00    -0.166 F 
HETATM    4  F7  UNL     1     -34.214   5.330   4.177  1.00 20.00    -0.166 F 
ENDROOT
BRANCH   1   5
HETATM    5  C1  UNL     1     -33.702   6.838   2.450  1.00 20.00     0.459 C 
HETATM    6  F3  UNL     1     -33.035   5.720   2.075  1.00 20.00    -0.205 F 
HETATM    7  F4  UNL     1     -32.768   7.779   2.728  1.00 20.00    -0.205 F 
ENDBRANCH   1   5
TORSDOF 1
ENDMDL
MODEL 4
REMARK VINA RESULT:      -3.1      1.901      3.016
REMARK  1 active torsions:
REMARK  status: ('A' for Active; 'I' for Inactive)
REMARK    1  A    between atoms: C1_1  and  C2_2 
ROOT
HETATM    1  C2  UNL     1     -32.760   5.938   1.590  1.00 20.00     0.447 C 
HETATM    2  F5  UNL     1     -31.569   5.356   1.340  1.00 20.00    -0.166 F 
HETATM    3  F6  UNL     1     -33.312   5.318   2.654  1.00 20.00    -0.166 F 
HETATM    4  F7  UNL     1     -33.562   5.723   0.525  1.00 20.00    -0.166 F 
ENDROOT
BRANCH   1   5
HETATM    5  C1  UNL     1     -32.600   7.407   1.850  1.00 20.00     0.459 C 
HETATM    6  F3  UNL     1     -31.283   7.721   1.885  1.00 20.00    -0.205 F 
HETATM    7  F4  UNL     1     -33.110   7.711   3.068  1.00 20.00    -0.205 F 
ENDBRANCH   1   5
TORSDOF 1
ENDMDL
MODEL 5
REMARK VINA RESULT:      -3.1      1.060      2.501
REMARK  1 active torsions:
REMARK  status: ('A' for Active; 'I' for Inactive)
REMARK    1  A    between atoms: C1_1  and  C2_2 
ROOT
HETATM    1  C2  UNL     1     -34.007   7.498   3.856  1.00 20.00     0.447 C 
HETATM    2  F5  UNL     1     -33.254   7.874   4.910  1.00 20.00    -0.166 F 
HETATM    3  F6  UNL     1     -33.176   7.199   2.835  1.00 20.00    -0.166 F 
HETATM    4  F7  UNL     1     -34.757   8.556   3.480  1.00 20.00    -0.166 F 
ENDROOT
BRANCH   1   5
HETATM    5  C1  UNL     1     -34.874   6.323   4.201  1.00 20.00     0.459 C 
HETATM    6  F3  UNL     1     -34.263   5.179   3.814  1.00 20.00    -0.205 F 
HETATM    7  F4  UNL     1     -36.039   6.401   3.513  1.00 20.00    -0.205 F 
ENDBRANCH   1   5
TORSDOF 1
ENDMDL
MODEL 6
REMARK VINA RESULT:      -3.1      1.058      2.517
REMARK  1 active torsions:
REMARK  status: ('A' for Active; 'I' for Inactive)
REMARK    1  A    between atoms: C1_1  and  C2_2 
ROOT
HETATM    1  C2  UNL     1     -34.003   7.499   3.848  1.00 20.00     0.447 C 
HETATM    2  F5  UNL     1     -33.173   7.205   2.827  1.00 20.00    -0.166 F 
HETATM    3  F6  UNL     1     -34.756   8.558   3.483  1.00 20.00    -0.166 F 
HETATM    4  F7  UNL     1     -33.249   7.874   4.904  1.00 20.00    -0.166 F 
ENDROOT
BRANCH   1   5
HETATM    5  C1  UNL     1     -34.867   6.324   4.199  1.00 20.00     0.459 C 
HETATM    6  F3  UNL     1     -34.256   5.180   3.810  1.00 20.00    -0.205 F 
HETATM    7  F4  UNL     1     -36.035   6.399   3.518  1.00 20.00    -0.205 F 
ENDBRANCH   1   5
TORSDOF 1
ENDMDL
MODEL 7
REMARK VINA RESULT:      -3.1      1.544      3.362
REMARK  1 active torsions:
REMARK  status: ('A' for Active; 'I' for Inactive)
REMARK    1  A    between atoms: C1_1  and  C2_2 
ROOT
HETATM    1  C2  UNL     1     -32.174   7.904   2.103  1.00 20.00     0.447 C 
HETATM    2  F5  UNL     1     -32.408   8.849   1.169  1.00 20.00    -0.166 F 
HETATM    3  F6  UNL     1     -31.388   8.446   3.057  1.00 20.00    -0.166 F 
HETATM    4  F7  UNL     1     -31.481   6.903   1.519  1.00 20.00    -0.166 F 
ENDROOT
BRANCH   1   5
HETATM    5  C1  UNL     1     -33.456   7.394   2.691  1.00 20.00     0.459 C 
HETATM    6  F3  UNL     1     -33.480   7.655   4.020  1.00 20.00    -0.205 F 
HETATM    7  F4  UNL     1     -33.516   6.048   2.552  1.00 20.00    -0.205 F 
ENDBRANCH   1   5
TORSDOF 1
ENDMDL
MODEL 8
REMARK VINA RESULT:      -3.1      1.110      2.631
REMARK  1 active torsions:
REMARK  status: ('A' for Active; 'I' for Inactive)
REMARK    1  A    between atoms: C1_1  and  C2_2 
ROOT
HETATM    1  C2  UNL     1     -34.567   6.452   3.690  1.00 20.00     0.447 C 
HETATM    2  F5  UNL     1     -34.214   7.502   4.458  1.00 20.00    -0.166 F 
HETATM    3  F6  UNL     1     -33.807   6.476   2.575  1.00 20.00    -0.166 F 
HETATM    4  F7  UNL     1     -35.853   6.623   3.315  1.00 20.00    -0.166 F 
ENDROOT
BRANCH   1   5
HETATM    5  C1  UNL     1     -34.394   5.157   4.428  1.00 20.00     0.459 C 
HETATM    6  F3  UNL     1     -33.772   4.259   3.627  1.00 20.00    -0.205 F 
HETATM    7  F4  UNL     1     -35.609   4.641   4.732  1.00 20.00    -0.205 F 
ENDBRANCH   1   5
TORSDOF 1
ENDMDL
MODEL 9
REMARK VINA RESULT:      -3.1      1.545      3.343
REMARK  1 active torsions:
REMARK  status: ('A' for Active; 'I' for Inactive)
REMARK    1  A    between atoms: C1_1  and  C2_2 
ROOT
HETATM    1  C2  UNL     1     -32.171   7.907   2.109  1.00 20.00     0.447 C 
HETATM    2  F5  UNL     1     -31.386   8.449   3.064  1.00 20.00    -0.166 F 
HETATM    3  F6  UNL     1     -31.479   6.910   1.517  1.00 20.00    -0.166 F 
HETATM    4  F7  UNL     1     -32.408   8.854   1.177  1.00 20.00    -0.166 F 
ENDROOT
BRANCH   1   5
HETATM    5  C1  UNL     1     -33.455   7.395   2.691  1.00 20.00     0.459 C 
HETATM    6  F3  UNL     1     -33.487   7.654   4.020  1.00 20.00    -0.205 F 
HETATM    7  F4  UNL     1     -33.514   6.049   2.550  1.00 20.00    -0.205 F 
ENDBRANCH   1   5
TORSDOF 1
ENDMDL
