MODEL 1
REMARK VINA RESULT:      -3.3      0.000      0.000
REMARK  0 active torsions:
REMARK  status: ('A' for Active; 'I' for Inactive)
ROOT
HETATM    1  C1  UNL     1     -33.248   7.123   2.842  1.00 20.00     0.317 C 
HETATM    2  C2  UNL     1     -34.111   7.193   3.858  1.00 20.00     0.253 C 
HETATM    3  F3  UNL     1     -33.341   6.140   1.921  1.00 20.00    -0.169 F 
HETATM    4  F4  UNL     1     -32.271   8.047   2.733  1.00 20.00    -0.169 F 
HETATM    5  F5  UNL     1     -33.984   8.192   4.758  1.00 20.00    -0.187 F 
HETATM    6 CL6  UNL     1     -35.379   6.048   4.054  1.00 20.00    -0.046 Cl
ENDROOT
TORSDOF 0
ENDMDL
MODEL 2
REMARK VINA RESULT:      -3.2      2.035      3.170
REMARK  0 active torsions:
REMARK  status: ('A' for Active; 'I' for Inactive)
ROOT
HETATM    1  C1  UNL     1     -34.186   6.879   3.701  1.00 20.00     0.317 C 
HETATM    2  C2  UNL     1     -33.328   6.760   2.686  1.00 20.00     0.253 C 
HETATM    3  F3  UNL     1     -34.222   8.003   4.450  1.00 20.00    -0.169 F 
HETATM    4  F4  UNL     1     -35.028   5.864   3.984  1.00 20.00    -0.169 F 
HETATM    5  F5  UNL     1     -33.323   5.619   1.963  1.00 20.00    -0.187 F 
HETATM    6 CL6  UNL     1     -32.228   8.016   2.273  1.00 20.00    -0.046 Cl
ENDROOT
TORSDOF 0
ENDMDL
MODEL 3
REMARK VINA RESULT:      -3.2      1.733      2.436
REMARK  0 active torsions:
REMARK  status: ('A' for Active; 'I' for Inactive)
ROOT
HETATM    1  C1  UNL     1     -34.086   7.037   3.730  1.00 20.00     0.317 C 
HETATM    2  C2  UNL     1     -33.159   7.071   2.771  1.00 20.00     0.253 C 
HETATM    3  F3  UNL     1     -34.948   6.001   3.824  1.00 20.00    -0.169 F 
HETATM    4  F4  UNL     1     -34.164   8.051   4.617  1.00 20.00    -0.169 F 
HETATM    5  F5  UNL     1     -32.317   8.125   2.711  1.00 20.00    -0.187 F 
HETATM    6 CL6  UNL     1     -33.006   5.811   1.610  1.00 20.00    -0.046 Cl
ENDROOT
TORSDOF 0
ENDMDL
MODEL 4
REMARK VINA RESULT:      -2.9      1.922      2.299
REMARK  0 active torsions:
REMARK  status: ('A' for Active; 'I' for Inactive)
ROOT
HETATM    1  C1  UNL     1     -32.795   6.416   1.994  1.00 20.00     0.317 C 
HETATM    2  C2  UNL     1     -33.571   6.226   3.063  1.00 20.00     0.253 C 
HETATM    3  F3  UNL     1     -32.453   7.662   1.599  1.00 20.00    -0.169 F 
HETATM    4  F4  UNL     1     -32.345   5.350   1.300  1.00 20.00    -0.169 F 
HETATM    5  F5  UNL     1     -33.890   4.964   3.425  1.00 20.00    -0.187 F 
HETATM    6 CL6  UNL     1     -34.178   7.541   3.992  1.00 20.00    -0.046 Cl
ENDROOT
TORSDOF 0
ENDMDL
MODEL 5
REMARK VINA RESULT:      -2.9      0.628      2.152
REMARK  0 active torsions:
REMARK  status: ('A' for Active; 'I' for Inactive)
ROOT
HETATM    1  C1  UNL     1     -33.528   7.579   3.807  1.00 20.00     0.317 C 
HETATM    2  C2  UNL     1     -34.091   6.441   3.395  1.00 20.00     0.253 C 
HETATM    3  F3  UNL     1     -33.986   8.220   4.904  1.00 20.00    -0.169 F 
HETATM    4  F4  UNL     1     -32.489   8.096   3.119  1.00 20.00    -0.169 F 
HETATM    5  F5  UNL     1     -33.604   5.831   2.293  1.00 20.00    -0.187 F 
HETATM    6 CL6  UNL     1     -35.417   5.729   4.228  1.00 20.00    -0.046 Cl
ENDROOT
TORSDOF 0
ENDMDL
MODEL 6
REMARK VINA RESULT:      -2.8      2.081      2.389
REMARK  0 active torsions:
REMARK  status: ('A' for Active; 'I' for Inactive)
ROOT
HETATM    1  C1  UNL     1     -34.079   6.076   3.390  1.00 20.00     0.317 C 
HETATM    2  C2  UNL     1     -33.671   7.334   3.574  1.00 20.00     0.253 C 
HETATM    3  F3  UNL     1     -33.517   5.297   2.441  1.00 20.00    -0.169 F 
HETATM    4  F4  UNL     1     -35.066   5.577   4.162  1.00 20.00    -0.169 F 
HETATM    5  F5  UNL     1     -34.260   8.080   4.534  1.00 20.00    -0.187 F 
HETATM    6 CL6  UNL     1     -32.417   8.030   2.625  1.00 20.00    -0.046 Cl
ENDROOT
TORSDOF 0
ENDMDL
MODEL 7
REMARK VINA RESULT:      -2.7      2.326      2.609
REMARK  0 active torsions:
REMARK  status: ('A' for Active; 'I' for Inactive)
ROOT
HETATM    1  C1  UNL     1     -34.384   6.167   3.597  1.00 20.00     0.317 C 
HETATM    2  C2  UNL     1     -34.676   5.036   4.243  1.00 20.00     0.253 C 
HETATM    3  F3  UNL     1     -33.310   6.241   2.782  1.00 20.00    -0.169 F 
HETATM    4  F4  UNL     1     -35.173   7.249   3.758  1.00 20.00    -0.169 F 
HETATM    5  F5  UNL     1     -35.760   5.004   5.049  1.00 20.00    -0.187 F 
HETATM    6 CL6  UNL     1     -33.712   3.621   4.080  1.00 20.00    -0.046 Cl
ENDROOT
TORSDOF 0
ENDMDL
MODEL 8
REMARK VINA RESULT:      -2.7      1.827      2.481
REMARK  0 active torsions:
REMARK  status: ('A' for Active; 'I' for Inactive)
ROOT
HETATM    1  C1  UNL     1     -33.579   7.407   3.438  1.00 20.00     0.317 C 
HETATM    2  C2  UNL     1     -33.677   6.132   3.058  1.00 20.00     0.253 C 
HETATM    3  F3  UNL     1     -32.858   8.292   2.715  1.00 20.00    -0.169 F 
HETATM    4  F4  UNL     1     -34.208   7.819   4.558  1.00 20.00    -0.169 F 
HETATM    5  F5  UNL     1     -34.407   5.278   3.808  1.00 20.00    -0.187 F 
HETATM    6 CL6  UNL     1     -32.899   5.543   1.640  1.00 20.00    -0.046 Cl
ENDROOT
TORSDOF 0
ENDMDL
MODEL 9
REMARK VINA RESULT:      -2.6      1.595      2.619
REMARK  0 active torsions:
REMARK  status: ('A' for Active; 'I' for Inactive)
ROOT
HETATM    1  C1  UNL     1     -32.118   7.666   2.105  1.00 20.00     0.317 C 
HETATM    2  C2  UNL     1     -33.041   6.703   2.141  1.00 20.00     0.253 C 
HETATM    3  F3  UNL     1     -31.982   8.534   3.131  1.00 20.00    -0.169 F 
HETATM    4  F4  UNL     1     -31.309   7.774   1.031  1.00 20.00    -0.169 F 
HETATM    5  F5  UNL     1     -33.145   5.856   1.094  1.00 20.00    -0.187 F 
HETATM    6 CL6  UNL     1     -34.104   6.511   3.480  1.00 20.00    -0.046 Cl
ENDROOT
TORSDOF 0
ENDMDL
