MODEL 1
REMARK VINA RESULT:      -2.0      0.000      0.000
REMARK  0 active torsions:
REMARK  status: ('A' for Active; 'I' for Inactive)
ROOT
HETATM    1  C1  UNL     1     -34.058   7.441   4.528  1.00 20.00     0.089 C 
HETATM    2  C2  UNL     1     -34.507   6.345   3.579  1.00 20.00     0.251 C 
HETATM    3  F3  UNL     1     -35.769   6.629   3.157  1.00 20.00    -0.208 F 
HETATM    4 CL4  UNL     1     -34.523   4.773   4.411  1.00 20.00    -0.066 Cl
HETATM    5 CL5  UNL     1     -33.434   6.274   2.164  1.00 20.00    -0.066 Cl
ENDROOT
TORSDOF 0
ENDMDL
MODEL 2
REMARK VINA RESULT:      -2.0      1.476      2.132
REMARK  0 active torsions:
REMARK  status: ('A' for Active; 'I' for Inactive)
ROOT
HETATM    1  C1  UNL     1     -34.618   5.034   4.358  1.00 20.00     0.089 C 
HETATM    2  C2  UNL     1     -34.547   6.352   3.609  1.00 20.00     0.251 C 
HETATM    3  F3  UNL     1     -35.796   6.667   3.172  1.00 20.00    -0.208 F 
HETATM    4 CL4  UNL     1     -33.467   6.209   2.204  1.00 20.00    -0.066 Cl
HETATM    5 CL5  UNL     1     -33.976   7.645   4.687  1.00 20.00    -0.066 Cl
ENDROOT
TORSDOF 0
ENDMDL
MODEL 3
REMARK VINA RESULT:      -1.9      1.472      2.138
REMARK  0 active torsions:
REMARK  status: ('A' for Active; 'I' for Inactive)
ROOT
HETATM    1  C1  UNL     1     -33.604   6.357   2.368  1.00 20.00     0.089 C 
HETATM    2  C2  UNL     1     -34.481   6.358   3.606  1.00 20.00     0.251 C 
HETATM    3  F3  UNL     1     -35.761   6.619   3.228  1.00 20.00    -0.208 F 
HETATM    4 CL4  UNL     1     -33.950   7.620   4.741  1.00 20.00    -0.066 Cl
HETATM    5 CL5  UNL     1     -34.433   4.767   4.399  1.00 20.00    -0.066 Cl
ENDROOT
TORSDOF 0
ENDMDL
MODEL 4
REMARK VINA RESULT:      -1.7      3.492      3.812
REMARK  0 active torsions:
REMARK  status: ('A' for Active; 'I' for Inactive)
ROOT
HETATM    1  C1  UNL     1     -32.138   6.493   1.349  1.00 20.00     0.089 C 
HETATM    2  C2  UNL     1     -32.188   7.846   2.035  1.00 20.00     0.251 C 
HETATM    3  F3  UNL     1     -30.974   8.089   2.597  1.00 20.00    -0.208 F 
HETATM    4 CL4  UNL     1     -33.422   7.846   3.315  1.00 20.00    -0.066 Cl
HETATM    5 CL5  UNL     1     -32.537   9.126   0.852  1.00 20.00    -0.066 Cl
ENDROOT
TORSDOF 0
ENDMDL
MODEL 5
REMARK VINA RESULT:      -1.7      3.431      3.829
REMARK  0 active torsions:
REMARK  status: ('A' for Active; 'I' for Inactive)
ROOT
HETATM    1  C1  UNL     1     -32.477   8.827   0.987  1.00 20.00     0.089 C 
HETATM    2  C2  UNL     1     -32.178   7.782   2.046  1.00 20.00     0.251 C 
HETATM    3  F3  UNL     1     -31.005   8.107   2.653  1.00 20.00    -0.208 F 
HETATM    4 CL4  UNL     1     -32.012   6.176   1.302  1.00 20.00    -0.066 Cl
HETATM    5 CL5  UNL     1     -33.467   7.755   3.270  1.00 20.00    -0.066 Cl
ENDROOT
TORSDOF 0
ENDMDL
MODEL 6
REMARK VINA RESULT:      -1.6      3.192      3.892
REMARK  0 active torsions:
REMARK  status: ('A' for Active; 'I' for Inactive)
ROOT
HETATM    1  C1  UNL     1     -33.081   8.020   3.224  1.00 20.00     0.089 C 
HETATM    2  C2  UNL     1     -32.222   7.802   1.992  1.00 20.00     0.251 C 
HETATM    3  F3  UNL     1     -30.915   7.850   2.363  1.00 20.00    -0.208 F 
HETATM    4 CL4  UNL     1     -32.525   9.078   0.792  1.00 20.00    -0.066 Cl
HETATM    5 CL5  UNL     1     -32.555   6.207   1.281  1.00 20.00    -0.066 Cl
ENDROOT
TORSDOF 0
ENDMDL
MODEL 7
REMARK VINA RESULT:      -1.5      2.636      3.448
REMARK  0 active torsions:
REMARK  status: ('A' for Active; 'I' for Inactive)
ROOT
HETATM    1  C1  UNL     1     -31.914   5.193   1.612  1.00 20.00     0.089 C 
HETATM    2  C2  UNL     1     -32.892   6.349   1.715  1.00 20.00     0.251 C 
HETATM    3  F3  UNL     1     -33.721   6.310   0.638  1.00 20.00    -0.208 F 
HETATM    4 CL4  UNL     1     -32.022   7.899   1.713  1.00 20.00    -0.066 Cl
HETATM    5 CL5  UNL     1     -33.869   6.202   3.193  1.00 20.00    -0.066 Cl
ENDROOT
TORSDOF 0
ENDMDL
MODEL 8
REMARK VINA RESULT:      -1.4      2.610      2.737
REMARK  0 active torsions:
REMARK  status: ('A' for Active; 'I' for Inactive)
ROOT
HETATM    1  C1  UNL     1     -32.096   7.751   1.753  1.00 20.00     0.089 C 
HETATM    2  C2  UNL     1     -32.841   6.428   1.724  1.00 20.00     0.251 C 
HETATM    3  F3  UNL     1     -33.681   6.430   0.654  1.00 20.00    -0.208 F 
HETATM    4 CL4  UNL     1     -33.802   6.225   3.206  1.00 20.00    -0.066 Cl
HETATM    5 CL5  UNL     1     -31.697   5.079   1.550  1.00 20.00    -0.066 Cl
ENDROOT
TORSDOF 0
ENDMDL
MODEL 9
REMARK VINA RESULT:      -1.3      1.892      2.041
REMARK  0 active torsions:
REMARK  status: ('A' for Active; 'I' for Inactive)
ROOT
HETATM    1  C1  UNL     1     -35.698   6.604   3.333  1.00 20.00     0.089 C 
HETATM    2  C2  UNL     1     -34.211   6.443   3.591  1.00 20.00     0.251 C 
HETATM    3  F3  UNL     1     -34.008   5.254   4.218  1.00 20.00    -0.208 F 
HETATM    4 CL4  UNL     1     -33.619   7.752   4.638  1.00 20.00    -0.066 Cl
HETATM    5 CL5  UNL     1     -33.315   6.439   2.056  1.00 20.00    -0.066 Cl
ENDROOT
TORSDOF 0
ENDMDL
