MODEL 1
REMARK VINA RESULT:      -0.8      0.000      0.000
REMARK  1 active torsions:
REMARK  status: ('A' for Active; 'I' for Inactive)
REMARK    1  A    between atoms: C5_5  and  C6_6 
ROOT
HETATM    1  C1  UNL     1     -34.088   4.522   4.189  1.00 20.00     0.084 C 
HETATM    2  C6  UNL     1     -34.246   5.980   3.991  1.00 20.00     0.222 C 
HETATM    3  N7  UNL     1     -33.983   3.376   4.340  1.00 20.00    -0.195 NA
HETATM    4 CL9  UNL     1     -35.971   6.286   3.592  1.00 20.00    -0.104 Cl
ENDROOT
BRANCH   2   5
HETATM    5  C5  UNL     1     -33.356   6.559   2.959  1.00 20.00    -0.019 A 
HETATM    6  C2  UNL     1     -32.865   5.833   1.836  1.00 20.00     0.017 A 
HETATM    7  C3  UNL     1     -32.057   6.607   1.032  1.00 20.00     0.050 A 
HETATM    8  S8  UNL     1     -31.894   8.202   1.633  1.00 20.00    -0.113 SA
HETATM    9  C4  UNL     1     -32.905   7.860   2.971  1.00 20.00     0.059 A 
ENDBRANCH   2   5
TORSDOF 1
ENDMDL
MODEL 2
REMARK VINA RESULT:      -0.6      3.513      4.418
REMARK  1 active torsions:
REMARK  status: ('A' for Active; 'I' for Inactive)
REMARK    1  A    between atoms: C5_5  and  C6_6 
ROOT
HETATM    1  C1  UNL     1     -32.075   8.449   1.076  1.00 20.00     0.084 C 
HETATM    2  C6  UNL     1     -31.963   7.251   1.939  1.00 20.00     0.222 C 
HETATM    3  N7  UNL     1     -32.162   9.376   0.383  1.00 20.00    -0.195 NA
HETATM    4 CL9  UNL     1     -31.786   5.825   0.861  1.00 20.00    -0.104 Cl
ENDROOT
BRANCH   2   5
HETATM    5  C5  UNL     1     -33.093   7.065   2.878  1.00 20.00    -0.019 A 
HETATM    6  C2  UNL     1     -33.443   7.999   3.895  1.00 20.00     0.017 A 
HETATM    7  C3  UNL     1     -34.533   7.583   4.628  1.00 20.00     0.050 A 
HETATM    8  S8  UNL     1     -35.129   6.071   4.088  1.00 20.00    -0.113 SA
HETATM    9  C4  UNL     1     -33.929   5.970   2.871  1.00 20.00     0.059 A 
ENDBRANCH   2   5
TORSDOF 1
ENDMDL
MODEL 3
REMARK VINA RESULT:      -0.3      0.686      1.356
REMARK  1 active torsions:
REMARK  status: ('A' for Active; 'I' for Inactive)
REMARK    1  A    between atoms: C5_5  and  C6_6 
ROOT
HETATM    1  C1  UNL     1     -34.082   4.512   4.202  1.00 20.00     0.084 C 
HETATM    2  C6  UNL     1     -34.259   5.971   4.027  1.00 20.00     0.222 C 
HETATM    3  N7  UNL     1     -33.962   3.365   4.336  1.00 20.00    -0.195 NA
HETATM    4 CL9  UNL     1     -35.989   6.261   3.636  1.00 20.00    -0.104 Cl
ENDROOT
BRANCH   2   5
HETATM    5  C5  UNL     1     -33.379   6.575   3.001  1.00 20.00    -0.019 A 
HETATM    6  C2  UNL     1     -32.891   7.912   3.061  1.00 20.00     0.017 A 
HETATM    7  C3  UNL     1     -32.093   8.221   1.981  1.00 20.00     0.050 A 
HETATM    8  S8  UNL     1     -31.935   6.901   0.901  1.00 20.00    -0.113 SA
HETATM    9  C4  UNL     1     -32.935   5.912   1.877  1.00 20.00     0.059 A 
ENDBRANCH   2   5
TORSDOF 1
ENDMDL
MODEL 4
REMARK VINA RESULT:       0.1      3.346      4.099
REMARK  1 active torsions:
REMARK  status: ('A' for Active; 'I' for Inactive)
REMARK    1  A    between atoms: C5_5  and  C6_6 
ROOT
HETATM    1  C1  UNL     1     -32.148   7.887   1.457  1.00 20.00     0.084 C 
HETATM    2  C6  UNL     1     -32.088   6.520   2.021  1.00 20.00     0.222 C 
HETATM    3  N7  UNL     1     -32.195   8.951   0.995  1.00 20.00    -0.195 NA
HETATM    4 CL9  UNL     1     -31.931   5.375   0.647  1.00 20.00    -0.104 Cl
ENDROOT
BRANCH   2   5
HETATM    5  C5  UNL     1     -33.241   6.160   2.879  1.00 20.00    -0.019 A 
HETATM    6  C2  UNL     1     -33.509   4.838   3.335  1.00 20.00     0.017 A 
HETATM    7  C3  UNL     1     -34.643   4.780   4.117  1.00 20.00     0.050 A 
HETATM    8  S8  UNL     1     -35.378   6.316   4.296  1.00 20.00    -0.113 SA
HETATM    9  C4  UNL     1     -34.179   7.063   3.328  1.00 20.00     0.059 A 
ENDBRANCH   2   5
TORSDOF 1
ENDMDL
MODEL 5
REMARK VINA RESULT:       0.4      3.510      4.301
REMARK  1 active torsions:
REMARK  status: ('A' for Active; 'I' for Inactive)
REMARK    1  A    between atoms: C5_5  and  C6_6 
ROOT
HETATM    1  C1  UNL     1     -32.099   8.669   0.887  1.00 20.00     0.084 C 
HETATM    2  C6  UNL     1     -31.891   7.525   1.803  1.00 20.00     0.222 C 
HETATM    3  N7  UNL     1     -32.264   9.553   0.153  1.00 20.00    -0.195 NA
HETATM    4 CL9  UNL     1     -31.902   6.029   0.808  1.00 20.00    -0.104 Cl
ENDROOT
BRANCH   2   5
HETATM    5  C5  UNL     1     -32.878   7.434   2.903  1.00 20.00    -0.019 A 
HETATM    6  C2  UNL     1     -33.983   6.535   2.906  1.00 20.00     0.017 A 
HETATM    7  C3  UNL     1     -34.745   6.655   4.049  1.00 20.00     0.050 A 
HETATM    8  S8  UNL     1     -34.125   7.847   5.110  1.00 20.00    -0.113 SA
HETATM    9  C4  UNL     1     -32.836   8.206   4.043  1.00 20.00     0.059 A 
ENDBRANCH   2   5
TORSDOF 1
ENDMDL
MODEL 6
REMARK VINA RESULT:       0.4      3.190      4.077
REMARK  1 active torsions:
REMARK  status: ('A' for Active; 'I' for Inactive)
REMARK    1  A    between atoms: C5_5  and  C6_6 
ROOT
HETATM    1  C1  UNL     1     -32.346   7.888   2.035  1.00 20.00     0.084 C 
HETATM    2  C6  UNL     1     -33.273   7.924   3.188  1.00 20.00     0.222 C 
HETATM    3  N7  UNL     1     -31.605   7.868   1.143  1.00 20.00    -0.195 NA
HETATM    4 CL9  UNL     1     -32.383   8.641   4.574  1.00 20.00    -0.104 Cl
ENDROOT
BRANCH   2   5
HETATM    5  C5  UNL     1     -33.847   6.608   3.554  1.00 20.00    -0.019 A 
HETATM    6  C2  UNL     1     -35.120   6.440   4.170  1.00 20.00     0.017 A 
HETATM    7  C3  UNL     1     -35.412   5.114   4.403  1.00 20.00     0.050 A 
HETATM    8  S8  UNL     1     -34.153   4.078   3.879  1.00 20.00    -0.113 SA
HETATM    9  C4  UNL     1     -33.213   5.404   3.339  1.00 20.00     0.059 A 
ENDBRANCH   2   5
TORSDOF 1
ENDMDL
MODEL 7
REMARK VINA RESULT:       0.5      2.305      2.640
REMARK  1 active torsions:
REMARK  status: ('A' for Active; 'I' for Inactive)
REMARK    1  A    between atoms: C5_5  and  C6_6 
ROOT
HETATM    1  C1  UNL     1     -33.701   8.000   4.884  1.00 20.00     0.084 C 
HETATM    2  C6  UNL     1     -34.315   7.385   3.686  1.00 20.00     0.222 C 
HETATM    3  N7  UNL     1     -33.227   8.468   5.835  1.00 20.00    -0.195 NA
HETATM    4 CL9  UNL     1     -35.306   5.993   4.242  1.00 20.00    -0.104 Cl
ENDROOT
BRANCH   2   5
HETATM    5  C5  UNL     1     -33.346   6.961   2.649  1.00 20.00    -0.019 A 
HETATM    6  C2  UNL     1     -32.362   7.821   2.083  1.00 20.00     0.017 A 
HETATM    7  C3  UNL     1     -31.591   7.175   1.141  1.00 20.00     0.050 A 
HETATM    8  S8  UNL     1     -32.055   5.539   0.944  1.00 20.00    -0.113 SA
HETATM    9  C4  UNL     1     -33.290   5.690   2.120  1.00 20.00     0.059 A 
ENDBRANCH   2   5
TORSDOF 1
ENDMDL
MODEL 8
REMARK VINA RESULT:       0.6      3.014      3.884
REMARK  1 active torsions:
REMARK  status: ('A' for Active; 'I' for Inactive)
REMARK    1  A    between atoms: C5_5  and  C6_6 
ROOT
HETATM    1  C1  UNL     1     -31.954   5.439   1.084  1.00 20.00     0.084 C 
HETATM    2  C6  UNL     1     -32.829   6.524   1.580  1.00 20.00     0.222 C 
HETATM    3  N7  UNL     1     -31.251   4.599   0.698  1.00 20.00    -0.195 NA
HETATM    4 CL9  UNL     1     -31.777   7.921   1.992  1.00 20.00    -0.104 Cl
ENDROOT
BRANCH   2   5
HETATM    5  C5  UNL     1     -33.679   6.147   2.733  1.00 20.00    -0.019 A 
HETATM    6  C2  UNL     1     -34.509   7.062   3.441  1.00 20.00     0.017 A 
HETATM    7  C3  UNL     1     -35.193   6.451   4.470  1.00 20.00     0.050 A 
HETATM    8  S8  UNL     1     -34.832   4.781   4.578  1.00 20.00    -0.113 SA
HETATM    9  C4  UNL     1     -33.759   4.871   3.247  1.00 20.00     0.059 A 
ENDBRANCH   2   5
TORSDOF 1
ENDMDL
MODEL 9
REMARK VINA RESULT:       0.9      2.228      2.444
REMARK  1 active torsions:
REMARK  status: ('A' for Active; 'I' for Inactive)
REMARK    1  A    between atoms: C5_5  and  C6_6 
ROOT
HETATM    1  C1  UNL     1     -34.437   6.781   3.668  1.00 20.00     0.084 C 
HETATM    2  C6  UNL     1     -33.063   7.331   3.683  1.00 20.00     0.222 C 
HETATM    3  N7  UNL     1     -35.519   6.360   3.672  1.00 20.00    -0.195 NA
HETATM    4 CL9  UNL     1     -32.947   8.453   5.081  1.00 20.00    -0.104 Cl
ENDROOT
BRANCH   2   5
HETATM    5  C5  UNL     1     -32.661   8.008   2.428  1.00 20.00    -0.019 A 
HETATM    6  C2  UNL     1     -31.725   7.468   1.500  1.00 20.00     0.017 A 
HETATM    7  C3  UNL     1     -31.531   8.300   0.418  1.00 20.00     0.050 A 
HETATM    8  S8  UNL     1     -32.475   9.725   0.527  1.00 20.00    -0.113 SA
HETATM    9  C4  UNL     1     -33.147   9.231   2.022  1.00 20.00     0.059 A 
ENDBRANCH   2   5
TORSDOF 1
ENDMDL
