MODEL 1
REMARK VINA RESULT:      -0.5      0.000      0.000
REMARK  1 active torsions:
REMARK  status: ('A' for Active; 'I' for Inactive)
REMARK    1  A    between atoms: C7_7  and  N8_8 
ROOT
HETATM    1  C1  UNL     1     -32.152   6.700   0.802  1.00 20.00     0.045 C 
HETATM    2  C2  UNL     1     -32.410   5.536   1.746  1.00 20.00     0.236 C 
HETATM    3  C3  UNL     1     -33.190   7.647   2.702  1.00 20.00     0.251 C 
HETATM    4  C4  UNL     1     -32.054   7.908   1.726  1.00 20.00     0.086 C 
HETATM    5  N8  UNL     1     -33.087   6.155   2.955  1.00 20.00    -0.066 N 
HETATM    6  S9  UNL     1     -32.279   9.467   0.839  1.00 20.00    -0.091 SA
HETATM    7  H24 UNL     1     -32.447   6.031   3.751  1.00 20.00     0.280 HD
ENDROOT
BRANCH   5   8
HETATM    8  C7  UNL     1     -34.384   5.515   3.331  1.00 20.00     0.180 C 
HETATM    9  C5  UNL     1     -35.219   6.529   4.096  1.00 20.00     0.039 C 
HETATM   10  C6  UNL     1     -34.087   4.273   4.157  1.00 20.00     0.039 C 
ENDBRANCH   5   8
TORSDOF 1
ENDMDL
MODEL 2
REMARK VINA RESULT:       0.1      0.626      1.325
REMARK  1 active torsions:
REMARK  status: ('A' for Active; 'I' for Inactive)
REMARK    1  A    between atoms: C7_7  and  N8_8 
ROOT
HETATM    1  C1  UNL     1     -32.595   6.622   1.074  1.00 20.00     0.045 C 
HETATM    2  C2  UNL     1     -32.871   5.661   2.220  1.00 20.00     0.236 C 
HETATM    3  C3  UNL     1     -33.078   7.988   2.940  1.00 20.00     0.251 C 
HETATM    4  C4  UNL     1     -32.116   7.892   1.766  1.00 20.00     0.086 C 
HETATM    5  N8  UNL     1     -33.192   6.550   3.407  1.00 20.00    -0.066 N 
HETATM    6  S9  UNL     1     -32.227   9.339   0.690  1.00 20.00    -0.091 SA
HETATM    7  H24 UNL     1     -32.446   6.402   4.101  1.00 20.00     0.280 HD
ENDROOT
BRANCH   5   8
HETATM    8  C7  UNL     1     -34.487   6.234   4.082  1.00 20.00     0.180 C 
HETATM    9  C5  UNL     1     -34.612   4.724   4.206  1.00 20.00     0.039 C 
HETATM   10  C6  UNL     1     -35.617   6.840   3.265  1.00 20.00     0.039 C 
ENDBRANCH   5   8
TORSDOF 1
ENDMDL
MODEL 3
REMARK VINA RESULT:       0.9      1.165      1.591
REMARK  1 active torsions:
REMARK  status: ('A' for Active; 'I' for Inactive)
REMARK    1  A    between atoms: C7_7  and  N8_8 
ROOT
HETATM    1  C1  UNL     1     -32.992   6.980   0.791  1.00 20.00     0.045 C 
HETATM    2  C2  UNL     1     -33.091   6.043   1.985  1.00 20.00     0.236 C 
HETATM    3  C3  UNL     1     -32.572   8.327   2.687  1.00 20.00     0.251 C 
HETATM    4  C4  UNL     1     -32.067   8.092   1.272  1.00 20.00     0.086 C 
HETATM    5  N8  UNL     1     -32.832   6.921   3.194  1.00 20.00    -0.066 N 
HETATM    6  S9  UNL     1     -32.204   9.581   0.257  1.00 20.00    -0.091 SA
HETATM    7  H24 UNL     1     -31.955   6.591   3.620  1.00 20.00     0.280 HD
ENDROOT
BRANCH   5   8
HETATM    8  C7  UNL     1     -33.888   6.845   4.250  1.00 20.00     0.180 C 
HETATM    9  C5  UNL     1     -35.210   6.496   3.585  1.00 20.00     0.039 C 
HETATM   10  C6  UNL     1     -33.943   8.181   4.974  1.00 20.00     0.039 C 
ENDBRANCH   5   8
TORSDOF 1
ENDMDL
MODEL 4
REMARK VINA RESULT:       1.0      2.022      2.534
REMARK  1 active torsions:
REMARK  status: ('A' for Active; 'I' for Inactive)
REMARK    1  A    between atoms: C7_7  and  N8_8 
ROOT
HETATM    1  C1  UNL     1     -31.528   7.229   1.824  1.00 20.00     0.045 C 
HETATM    2  C2  UNL     1     -32.550   8.222   2.355  1.00 20.00     0.236 C 
HETATM    3  C3  UNL     1     -33.508   5.982   2.150  1.00 20.00     0.251 C 
HETATM    4  C4  UNL     1     -32.374   6.154   1.153  1.00 20.00     0.086 C 
HETATM    5  N8  UNL     1     -33.811   7.408   2.571  1.00 20.00    -0.066 N 
HETATM    6  S9  UNL     1     -31.457   4.616   0.911  1.00 20.00    -0.091 SA
HETATM    7  H24 UNL     1     -34.517   7.769   1.915  1.00 20.00     0.280 HD
ENDROOT
BRANCH   5   8
HETATM    8  C7  UNL     1     -34.392   7.522   3.944  1.00 20.00     0.180 C 
HETATM    9  C5  UNL     1     -33.278   7.891   4.910  1.00 20.00     0.039 C 
HETATM   10  C6  UNL     1     -35.049   6.197   4.302  1.00 20.00     0.039 C 
ENDBRANCH   5   8
TORSDOF 1
ENDMDL
MODEL 5
REMARK VINA RESULT:       1.3      2.363      3.872
REMARK  1 active torsions:
REMARK  status: ('A' for Active; 'I' for Inactive)
REMARK    1  A    between atoms: C7_7  and  N8_8 
ROOT
HETATM    1  C1  UNL     1     -33.109   4.915   2.648  1.00 20.00     0.045 C 
HETATM    2  C2  UNL     1     -32.447   5.689   1.517  1.00 20.00     0.236 C 
HETATM    3  C3  UNL     1     -33.819   7.152   2.915  1.00 20.00     0.251 C 
HETATM    4  C4  UNL     1     -34.354   5.730   2.972  1.00 20.00     0.086 C 
HETATM    5  N8  UNL     1     -32.901   7.123   1.707  1.00 20.00    -0.066 N 
HETATM    6  S9  UNL     1     -35.025   5.333   4.602  1.00 20.00    -0.091 SA
HETATM    7  H24 UNL     1     -33.476   7.365   0.889  1.00 20.00     0.280 HD
ENDROOT
BRANCH   5   8
HETATM    8  C7  UNL     1     -31.788   8.120   1.771  1.00 20.00     0.180 C 
HETATM    9  C5  UNL     1     -31.688   8.642   3.195  1.00 20.00     0.039 C 
HETATM   10  C6  UNL     1     -32.075   9.228   0.770  1.00 20.00     0.039 C 
ENDBRANCH   5   8
TORSDOF 1
ENDMDL
MODEL 6
REMARK VINA RESULT:       1.3      2.480      4.407
REMARK  1 active torsions:
REMARK  status: ('A' for Active; 'I' for Inactive)
REMARK    1  A    between atoms: C7_7  and  N8_8 
ROOT
HETATM    1  C1  UNL     1     -33.285   8.052   3.978  1.00 20.00     0.045 C 
HETATM    2  C2  UNL     1     -32.146   8.585   3.121  1.00 20.00     0.236 C 
HETATM    3  C3  UNL     1     -33.439   6.887   1.928  1.00 20.00     0.251 C 
HETATM    4  C4  UNL     1     -33.536   6.653   3.428  1.00 20.00     0.086 C 
HETATM    5  N8  UNL     1     -32.264   7.838   1.806  1.00 20.00    -0.066 N 
HETATM    6  S9  UNL     1     -35.159   6.014   3.901  1.00 20.00    -0.091 SA
HETATM    7  H24 UNL     1     -31.419   7.258   1.715  1.00 20.00     0.280 HD
ENDROOT
BRANCH   5   8
HETATM    8  C7  UNL     1     -32.323   8.719   0.600  1.00 20.00     0.180 C 
HETATM    9  C5  UNL     1     -30.965   8.692  -0.084  1.00 20.00     0.039 C 
HETATM   10  C6  UNL     1     -32.716  10.119   1.044  1.00 20.00     0.039 C 
ENDBRANCH   5   8
TORSDOF 1
ENDMDL
MODEL 7
REMARK VINA RESULT:       1.3      2.733      3.782
REMARK  1 active torsions:
REMARK  status: ('A' for Active; 'I' for Inactive)
REMARK    1  A    between atoms: C7_7  and  N8_8 
ROOT
HETATM    1  C1  UNL     1     -32.631   4.500   2.491  1.00 20.00     0.045 C 
HETATM    2  C2  UNL     1     -33.051   5.796   1.815  1.00 20.00     0.236 C 
HETATM    3  C3  UNL     1     -34.082   5.567   4.020  1.00 20.00     0.251 C 
HETATM    4  C4  UNL     1     -33.780   4.193   3.444  1.00 20.00     0.086 C 
HETATM    5  N8  UNL     1     -33.971   6.476   2.811  1.00 20.00    -0.066 N 
HETATM    6  S9  UNL     1     -33.304   3.017   4.731  1.00 20.00    -0.091 SA
HETATM    7  H24 UNL     1     -34.904   6.513   2.379  1.00 20.00     0.280 HD
ENDROOT
BRANCH   5   8
HETATM    8  C7  UNL     1     -33.588   7.882   3.146  1.00 20.00     0.180 C 
HETATM    9  C5  UNL     1     -32.248   8.185   2.494  1.00 20.00     0.039 C 
HETATM   10  C6  UNL     1     -33.536   8.021   4.659  1.00 20.00     0.039 C 
ENDBRANCH   5   8
TORSDOF 1
ENDMDL
MODEL 8
REMARK VINA RESULT:       1.5      1.285      2.252
REMARK  1 active torsions:
REMARK  status: ('A' for Active; 'I' for Inactive)
REMARK    1  A    between atoms: C7_7  and  N8_8 
ROOT
HETATM    1  C1  UNL     1     -33.004   8.238   3.409  1.00 20.00     0.045 C 
HETATM    2  C2  UNL     1     -34.178   7.530   4.069  1.00 20.00     0.236 C 
HETATM    3  C3  UNL     1     -33.121   6.115   2.378  1.00 20.00     0.251 C 
HETATM    4  C4  UNL     1     -32.901   7.581   2.038  1.00 20.00     0.086 C 
HETATM    5  N8  UNL     1     -34.234   6.166   3.407  1.00 20.00    -0.066 N 
HETATM    6  S9  UNL     1     -31.289   7.855   1.269  1.00 20.00    -0.091 SA
HETATM    7  H24 UNL     1     -35.122   6.122   2.888  1.00 20.00     0.280 HD
ENDROOT
BRANCH   5   8
HETATM    8  C7  UNL     1     -34.227   5.016   4.362  1.00 20.00     0.180 C 
HETATM    9  C5  UNL     1     -33.722   3.783   3.629  1.00 20.00     0.039 C 
HETATM   10  C6  UNL     1     -35.637   4.828   4.900  1.00 20.00     0.039 C 
ENDBRANCH   5   8
TORSDOF 1
ENDMDL
MODEL 9
REMARK VINA RESULT:       1.5      1.266      2.039
REMARK  1 active torsions:
REMARK  status: ('A' for Active; 'I' for Inactive)
REMARK    1  A    between atoms: C7_7  and  N8_8 
ROOT
HETATM    1  C1  UNL     1     -33.076   7.973   3.699  1.00 20.00     0.045 C 
HETATM    2  C2  UNL     1     -34.343   7.224   4.084  1.00 20.00     0.236 C 
HETATM    3  C3  UNL     1     -33.244   6.185   2.163  1.00 20.00     0.251 C 
HETATM    4  C4  UNL     1     -32.903   7.666   2.216  1.00 20.00     0.086 C 
HETATM    5  N8  UNL     1     -34.432   6.074   3.099  1.00 20.00    -0.066 N 
HETATM    6  S9  UNL     1     -31.220   7.987   1.644  1.00 20.00    -0.091 SA
HETATM    7  H24 UNL     1     -35.276   6.233   2.530  1.00 20.00     0.280 HD
ENDROOT
BRANCH   5   8
HETATM    8  C7  UNL     1     -34.578   4.728   3.733  1.00 20.00     0.180 C 
HETATM    9  C5  UNL     1     -35.390   4.882   5.009  1.00 20.00     0.039 C 
HETATM   10  C6  UNL     1     -33.190   4.167   3.997  1.00 20.00     0.039 C 
ENDBRANCH   5   8
TORSDOF 1
ENDMDL
