MODEL 1
REMARK VINA RESULT:      -0.7      0.000      0.000
REMARK  1 active torsions:
REMARK  status: ('A' for Active; 'I' for Inactive)
REMARK    1  A    between atoms: C5_5  and  C6_6 
ROOT
HETATM    1  C1  UNL     1     -32.732   5.803   1.577  1.00 20.00     0.080 C 
HETATM    2  C5  UNL     1     -33.443   6.943   2.176  1.00 20.00     0.196 C 
HETATM    3  N7  UNL     1     -32.174   4.902   1.102  1.00 20.00    -0.196 NA
HETATM    4 CL8  UNL     1     -32.226   8.244   2.382  1.00 20.00    -0.109 Cl
ENDROOT
BRANCH   2   5
HETATM    5  C6  UNL     1     -34.191   6.591   3.498  1.00 20.00    -0.022 C 
HETATM    6  C2  UNL     1     -33.774   7.565   4.622  1.00 20.00     0.017 C 
HETATM    7  C3  UNL     1     -35.715   6.750   3.293  1.00 20.00     0.017 C 
HETATM    8  C4  UNL     1     -33.913   5.152   3.976  1.00 20.00     0.017 C 
ENDBRANCH   2   5
TORSDOF 1
ENDMDL
MODEL 2
REMARK VINA RESULT:      -0.4      1.897      2.456
REMARK  1 active torsions:
REMARK  status: ('A' for Active; 'I' for Inactive)
REMARK    1  A    between atoms: C5_5  and  C6_6 
ROOT
HETATM    1  C1  UNL     1     -32.488   7.704   1.899  1.00 20.00     0.080 C 
HETATM    2  C5  UNL     1     -32.932   6.422   2.470  1.00 20.00     0.196 C 
HETATM    3  N7  UNL     1     -32.134   8.716   1.453  1.00 20.00    -0.196 NA
HETATM    4 CL8  UNL     1     -33.321   5.359   1.078  1.00 20.00    -0.109 Cl
ENDROOT
BRANCH   2   5
HETATM    5  C6  UNL     1     -34.112   6.562   3.480  1.00 20.00    -0.022 C 
HETATM    6  C2  UNL     1     -35.406   6.960   2.736  1.00 20.00     0.017 C 
HETATM    7  C3  UNL     1     -34.375   5.201   4.164  1.00 20.00     0.017 C 
HETATM    8  C4  UNL     1     -33.839   7.612   4.575  1.00 20.00     0.017 C 
ENDBRANCH   2   5
TORSDOF 1
ENDMDL
MODEL 3
REMARK VINA RESULT:      -0.4      2.133      3.164
REMARK  1 active torsions:
REMARK  status: ('A' for Active; 'I' for Inactive)
REMARK    1  A    between atoms: C5_5  and  C6_6 
ROOT
HETATM    1  C1  UNL     1     -33.706   4.663   3.738  1.00 20.00     0.080 C 
HETATM    2  C5  UNL     1     -33.491   6.062   3.338  1.00 20.00     0.196 C 
HETATM    3  N7  UNL     1     -33.872   3.559   4.056  1.00 20.00    -0.196 NA
HETATM    4 CL8  UNL     1     -35.069   6.892   3.538  1.00 20.00    -0.109 Cl
ENDROOT
BRANCH   2   5
HETATM    5  C6  UNL     1     -32.897   6.219   1.904  1.00 20.00    -0.022 C 
HETATM    6  C2  UNL     1     -32.269   7.621   1.738  1.00 20.00     0.017 C 
HETATM    7  C3  UNL     1     -31.771   5.183   1.692  1.00 20.00     0.017 C 
HETATM    8  C4  UNL     1     -33.951   6.025   0.796  1.00 20.00     0.017 C 
ENDBRANCH   2   5
TORSDOF 1
ENDMDL
MODEL 4
REMARK VINA RESULT:      -0.4      2.135      3.158
REMARK  1 active torsions:
REMARK  status: ('A' for Active; 'I' for Inactive)
REMARK    1  A    between atoms: C5_5  and  C6_6 
ROOT
HETATM    1  C1  UNL     1     -33.713   4.667   3.749  1.00 20.00     0.080 C 
HETATM    2  C5  UNL     1     -33.499   6.065   3.344  1.00 20.00     0.196 C 
HETATM    3  N7  UNL     1     -33.878   3.564   4.071  1.00 20.00    -0.196 NA
HETATM    4 CL8  UNL     1     -35.085   6.888   3.514  1.00 20.00    -0.109 Cl
ENDROOT
BRANCH   2   5
HETATM    5  C6  UNL     1     -32.882   6.218   1.920  1.00 20.00    -0.022 C 
HETATM    6  C2  UNL     1     -33.983   6.082   0.845  1.00 20.00     0.017 C 
HETATM    7  C3  UNL     1     -32.262   7.626   1.770  1.00 20.00     0.017 C 
HETATM    8  C4  UNL     1     -31.787   5.172   1.629  1.00 20.00     0.017 C 
ENDBRANCH   2   5
TORSDOF 1
ENDMDL
MODEL 5
REMARK VINA RESULT:      -0.4      2.530      3.594
REMARK  1 active torsions:
REMARK  status: ('A' for Active; 'I' for Inactive)
REMARK    1  A    between atoms: C5_5  and  C6_6 
ROOT
HETATM    1  C1  UNL     1     -33.941   7.083   3.827  1.00 20.00     0.080 C 
HETATM    2  C5  UNL     1     -33.960   5.994   2.836  1.00 20.00     0.196 C 
HETATM    3  N7  UNL     1     -33.929   7.943   4.606  1.00 20.00    -0.196 NA
HETATM    4 CL8  UNL     1     -33.746   4.470   3.758  1.00 20.00    -0.109 Cl
ENDROOT
BRANCH   2   5
HETATM    5  C6  UNL     1     -32.913   6.169   1.694  1.00 20.00    -0.022 C 
HETATM    6  C2  UNL     1     -31.833   5.069   1.788  1.00 20.00     0.017 C 
HETATM    7  C3  UNL     1     -33.609   6.015   0.322  1.00 20.00     0.017 C 
HETATM    8  C4  UNL     1     -32.213   7.542   1.732  1.00 20.00     0.017 C 
ENDBRANCH   2   5
TORSDOF 1
ENDMDL
MODEL 6
REMARK VINA RESULT:       0.0      2.484      3.545
REMARK  1 active torsions:
REMARK  status: ('A' for Active; 'I' for Inactive)
REMARK    1  A    between atoms: C5_5  and  C6_6 
ROOT
HETATM    1  C1  UNL     1     -34.098   6.701   3.062  1.00 20.00     0.080 C 
HETATM    2  C5  UNL     1     -33.322   6.868   1.823  1.00 20.00     0.196 C 
HETATM    3  N7  UNL     1     -34.713   6.573   4.038  1.00 20.00    -0.196 NA
HETATM    4 CL8  UNL     1     -32.586   5.270   1.471  1.00 20.00    -0.109 Cl
ENDROOT
BRANCH   2   5
HETATM    5  C6  UNL     1     -32.274   8.021   1.891  1.00 20.00    -0.022 C 
HETATM    6  C2  UNL     1     -32.157   8.551   3.337  1.00 20.00     0.017 C 
HETATM    7  C3  UNL     1     -30.883   7.484   1.484  1.00 20.00     0.017 C 
HETATM    8  C4  UNL     1     -32.628   9.203   0.967  1.00 20.00     0.017 C 
ENDBRANCH   2   5
TORSDOF 1
ENDMDL
MODEL 7
REMARK VINA RESULT:       0.0      2.482      3.447
REMARK  1 active torsions:
REMARK  status: ('A' for Active; 'I' for Inactive)
REMARK    1  A    between atoms: C5_5  and  C6_6 
ROOT
HETATM    1  C1  UNL     1     -34.111   6.693   3.064  1.00 20.00     0.080 C 
HETATM    2  C5  UNL     1     -33.322   6.878   1.835  1.00 20.00     0.196 C 
HETATM    3  N7  UNL     1     -34.735   6.551   4.032  1.00 20.00    -0.196 NA
HETATM    4 CL8  UNL     1     -32.609   5.277   1.449  1.00 20.00    -0.109 Cl
ENDROOT
BRANCH   2   5
HETATM    5  C6  UNL     1     -32.257   8.012   1.939  1.00 20.00    -0.022 C 
HETATM    6  C2  UNL     1     -30.874   7.487   1.493  1.00 20.00     0.017 C 
HETATM    7  C3  UNL     1     -32.637   9.171   0.990  1.00 20.00     0.017 C 
HETATM    8  C4  UNL     1     -32.124   8.577   3.367  1.00 20.00     0.017 C 
ENDBRANCH   2   5
TORSDOF 1
ENDMDL
MODEL 8
REMARK VINA RESULT:       0.1      2.482      3.442
REMARK  1 active torsions:
REMARK  status: ('A' for Active; 'I' for Inactive)
REMARK    1  A    between atoms: C5_5  and  C6_6 
ROOT
HETATM    1  C1  UNL     1     -34.092   6.687   3.058  1.00 20.00     0.080 C 
HETATM    2  C5  UNL     1     -33.310   6.862   1.824  1.00 20.00     0.196 C 
HETATM    3  N7  UNL     1     -34.712   6.551   4.030  1.00 20.00    -0.196 NA
HETATM    4 CL8  UNL     1     -32.589   5.262   1.452  1.00 20.00    -0.109 Cl
ENDROOT
BRANCH   2   5
HETATM    5  C6  UNL     1     -32.251   8.004   1.910  1.00 20.00    -0.022 C 
HETATM    6  C2  UNL     1     -32.657   9.178   0.992  1.00 20.00     0.017 C 
HETATM    7  C3  UNL     1     -32.192   8.550   3.355  1.00 20.00     0.017 C 
HETATM    8  C4  UNL     1     -30.838   7.539   1.508  1.00 20.00     0.017 C 
ENDBRANCH   2   5
TORSDOF 1
ENDMDL
MODEL 9
REMARK VINA RESULT:       0.3      2.053      3.227
REMARK  1 active torsions:
REMARK  status: ('A' for Active; 'I' for Inactive)
REMARK    1  A    between atoms: C5_5  and  C6_6 
ROOT
HETATM    1  C1  UNL     1     -34.541   6.405   3.658  1.00 20.00     0.080 C 
HETATM    2  C5  UNL     1     -33.109   6.648   3.421  1.00 20.00     0.196 C 
HETATM    3  N7  UNL     1     -35.669   6.208   3.845  1.00 20.00    -0.196 NA
HETATM    4 CL8  UNL     1     -32.721   8.202   4.230  1.00 20.00    -0.109 Cl
ENDROOT
BRANCH   2   5
HETATM    5  C6  UNL     1     -32.711   6.629   1.913  1.00 20.00    -0.022 C 
HETATM    6  C2  UNL     1     -31.968   7.932   1.541  1.00 20.00     0.017 C 
HETATM    7  C3  UNL     1     -31.742   5.455   1.645  1.00 20.00     0.017 C 
HETATM    8  C4  UNL     1     -33.927   6.479   0.977  1.00 20.00     0.017 C 
ENDBRANCH   2   5
TORSDOF 1
ENDMDL
