MODEL 1
REMARK VINA RESULT:       0.9      0.000      0.000
REMARK  0 active torsions:
REMARK  status: ('A' for Active; 'I' for Inactive)
ROOT
HETATM    1  C1  UNL     1     -32.467   9.073   0.847  1.00 20.00     0.085 C 
HETATM    2  C2  UNL     1     -33.737   8.405   2.850  1.00 20.00     0.051 C 
HETATM    3  C3  UNL     1     -32.636   6.665   1.338  1.00 20.00     0.051 C 
HETATM    4  C4  UNL     1     -33.962   7.418   3.993  1.00 20.00     0.076 C 
HETATM    5  C5  UNL     1     -32.774   5.541   2.363  1.00 20.00     0.076 C 
HETATM    6  C6  UNL     1     -32.543   8.080   1.935  1.00 20.00     0.127 C 
HETATM    7  N7  UNL     1     -32.406   9.854  -0.008  1.00 20.00    -0.195 NA
HETATM    8  S8  UNL     1     -34.260   5.736   3.386  1.00 20.00    -0.169 SA
HETATM    9 CL9  UNL     1     -31.004   8.256   2.854  1.00 20.00    -0.103 Cl
ENDROOT
TORSDOF 0
ENDMDL
MODEL 2
REMARK VINA RESULT:       1.8      3.513      4.122
REMARK  0 active torsions:
REMARK  status: ('A' for Active; 'I' for Inactive)
ROOT
HETATM    1  C1  UNL     1     -34.101   4.695   4.078  1.00 20.00     0.085 C 
HETATM    2  C2  UNL     1     -33.170   6.976   4.134  1.00 20.00     0.051 C 
HETATM    3  C3  UNL     1     -33.313   5.657   1.950  1.00 20.00     0.051 C 
HETATM    4  C4  UNL     1     -32.913   8.306   3.432  1.00 20.00     0.076 C 
HETATM    5  C5  UNL     1     -33.068   6.884   1.076  1.00 20.00     0.076 C 
HETATM    6  C6  UNL     1     -33.969   5.949   3.312  1.00 20.00     0.127 C 
HETATM    7  N7  UNL     1     -34.207   3.709   4.679  1.00 20.00    -0.195 NA
HETATM    8  S8  UNL     1     -31.984   8.090   1.890  1.00 20.00    -0.169 SA
HETATM    9 CL9  UNL     1     -35.652   6.540   3.065  1.00 20.00    -0.103 Cl
ENDROOT
TORSDOF 0
ENDMDL
MODEL 3
REMARK VINA RESULT:       2.3      2.737      3.366
REMARK  0 active torsions:
REMARK  status: ('A' for Active; 'I' for Inactive)
ROOT
HETATM    1  C1  UNL     1     -31.879   4.931   0.954  1.00 20.00     0.085 C 
HETATM    2  C2  UNL     1     -33.459   5.367   2.795  1.00 20.00     0.051 C 
HETATM    3  C3  UNL     1     -32.023   7.237   1.810  1.00 20.00     0.051 C 
HETATM    4  C4  UNL     1     -34.394   6.330   3.521  1.00 20.00     0.076 C 
HETATM    5  C5  UNL     1     -32.847   8.347   2.458  1.00 20.00     0.076 C 
HETATM    6  C6  UNL     1     -32.794   5.936   1.528  1.00 20.00     0.127 C 
HETATM    7  N7  UNL     1     -31.160   4.141   0.502  1.00 20.00    -0.195 NA
HETATM    8  S8  UNL     1     -33.536   7.834   4.056  1.00 20.00    -0.169 SA
HETATM    9 CL9  UNL     1     -34.042   6.227   0.262  1.00 20.00    -0.103 Cl
ENDROOT
TORSDOF 0
ENDMDL
MODEL 4
REMARK VINA RESULT:       2.3      2.091      2.913
REMARK  0 active torsions:
REMARK  status: ('A' for Active; 'I' for Inactive)
ROOT
HETATM    1  C1  UNL     1     -32.197   7.331   1.942  1.00 20.00     0.085 C 
HETATM    2  C2  UNL     1     -32.707   5.118   2.899  1.00 20.00     0.051 C 
HETATM    3  C3  UNL     1     -34.234   7.125   3.314  1.00 20.00     0.051 C 
HETATM    4  C4  UNL     1     -33.740   4.104   3.382  1.00 20.00     0.076 C 
HETATM    5  C5  UNL     1     -35.387   6.267   3.830  1.00 20.00     0.076 C 
HETATM    6  C6  UNL     1     -33.293   6.419   2.321  1.00 20.00     0.127 C 
HETATM    7  N7  UNL     1     -31.336   8.049   1.643  1.00 20.00    -0.195 NA
HETATM    8  S8  UNL     1     -34.797   4.783   4.690  1.00 20.00    -0.169 SA
HETATM    9 CL9  UNL     1     -34.174   6.066   0.791  1.00 20.00    -0.103 Cl
ENDROOT
TORSDOF 0
ENDMDL
MODEL 5
REMARK VINA RESULT:       3.2      2.900      3.827
REMARK  0 active torsions:
REMARK  status: ('A' for Active; 'I' for Inactive)
ROOT
HETATM    1  C1  UNL     1     -34.593   6.781   3.697  1.00 20.00     0.085 C 
HETATM    2  C2  UNL     1     -32.599   6.765   2.249  1.00 20.00     0.051 C 
HETATM    3  C3  UNL     1     -34.068   8.845   2.458  1.00 20.00     0.051 C 
HETATM    4  C4  UNL     1     -31.446   7.521   1.596  1.00 20.00     0.076 C 
HETATM    5  C5  UNL     1     -33.029   9.765   1.821  1.00 20.00     0.076 C 
HETATM    6  C6  UNL     1     -33.491   7.611   3.174  1.00 20.00     0.127 C 
HETATM    7  N7  UNL     1     -35.460   6.128   4.108  1.00 20.00    -0.195 NA
HETATM    8  S8  UNL     1     -32.031   8.901   0.576  1.00 20.00    -0.169 SA
HETATM    9 CL9  UNL     1     -32.553   8.128   4.622  1.00 20.00    -0.103 Cl
ENDROOT
TORSDOF 0
ENDMDL
MODEL 6
REMARK VINA RESULT:       3.4      2.850      3.866
REMARK  0 active torsions:
REMARK  status: ('A' for Active; 'I' for Inactive)
ROOT
HETATM    1  C1  UNL     1     -33.753   7.355   3.379  1.00 20.00     0.085 C 
HETATM    2  C2  UNL     1     -32.201   7.379   1.465  1.00 20.00     0.051 C 
HETATM    3  C3  UNL     1     -33.624   9.422   2.043  1.00 20.00     0.051 C 
HETATM    4  C4  UNL     1     -31.277   8.160   0.535  1.00 20.00     0.076 C 
HETATM    5  C5  UNL     1     -32.810  10.363   1.158  1.00 20.00     0.076 C 
HETATM    6  C6  UNL     1     -32.847   8.210   2.588  1.00 20.00     0.127 C 
HETATM    7  N7  UNL     1     -34.466   6.684   4.002  1.00 20.00    -0.195 NA
HETATM    8  S8  UNL     1     -32.144   9.515  -0.301  1.00 20.00    -0.169 SA
HETATM    9 CL9  UNL     1     -31.581   8.765   3.743  1.00 20.00    -0.103 Cl
ENDROOT
TORSDOF 0
ENDMDL
