MODEL 1
REMARK VINA RESULT:      -2.1      0.000      0.000
REMARK  2 active torsions:
REMARK  status: ('A' for Active; 'I' for Inactive)
REMARK    1  A    between atoms: C4_4  and  C5_5 
REMARK    2  A    between atoms: C4_4  and  C6_6 
ROOT
HETATM    1  C1  UNL     1     -32.214   7.511   1.526  1.00 20.00     0.079 C 
HETATM    2  C5  UNL     1     -32.878   6.204   1.586  1.00 20.00     0.189 C 
HETATM    3  N7  UNL     1     -31.692   8.547   1.479  1.00 20.00    -0.196 NA
HETATM    4 CL8  UNL     1     -31.695   4.986   1.017  1.00 20.00    -0.109 Cl
ENDROOT
BRANCH   2   5
HETATM    5  C4  UNL     1     -33.336   5.841   3.004  1.00 20.00     0.039 C 
BRANCH   5   6
HETATM    6  C6  UNL     1     -34.484   6.713   3.560  1.00 20.00    -0.020 C 
HETATM    7  C2  UNL     1     -35.536   5.890   4.302  1.00 20.00     0.009 C 
HETATM    8  C3  UNL     1     -33.912   7.783   4.495  1.00 20.00     0.009 C 
ENDBRANCH   5   6
ENDBRANCH   2   5
TORSDOF 2
ENDMDL
MODEL 2
REMARK VINA RESULT:      -2.0      3.143      4.283
REMARK  2 active torsions:
REMARK  status: ('A' for Active; 'I' for Inactive)
REMARK    1  A    between atoms: C4_4  and  C5_5 
REMARK    2  A    between atoms: C4_4  and  C6_6 
ROOT
HETATM    1  C1  UNL     1     -33.841   4.143   4.089  1.00 20.00     0.079 C 
HETATM    2  C5  UNL     1     -34.317   5.335   3.377  1.00 20.00     0.189 C 
HETATM    3  N7  UNL     1     -33.462   3.200   4.648  1.00 20.00    -0.196 NA
HETATM    4 CL8  UNL     1     -35.666   6.017   4.337  1.00 20.00    -0.109 Cl
ENDROOT
BRANCH   2   5
HETATM    5  C4  UNL     1     -33.224   6.398   3.213  1.00 20.00     0.039 C 
BRANCH   5   6
HETATM    6  C6  UNL     1     -32.825   6.701   1.752  1.00 20.00    -0.020 C 
HETATM    7  C2  UNL     1     -31.902   7.914   1.638  1.00 20.00     0.009 C 
HETATM    8  C3  UNL     1     -32.142   5.474   1.140  1.00 20.00     0.009 C 
ENDBRANCH   5   6
ENDBRANCH   2   5
TORSDOF 2
ENDMDL
MODEL 3
REMARK VINA RESULT:      -1.7      1.866      2.290
REMARK  2 active torsions:
REMARK  status: ('A' for Active; 'I' for Inactive)
REMARK    1  A    between atoms: C4_4  and  C5_5 
REMARK    2  A    between atoms: C4_4  and  C6_6 
ROOT
HETATM    1  C1  UNL     1     -32.272   8.821   0.961  1.00 20.00     0.079 C 
HETATM    2  C5  UNL     1     -32.048   7.735   1.923  1.00 20.00     0.189 C 
HETATM    3  N7  UNL     1     -32.448   9.676   0.197  1.00 20.00    -0.196 NA
HETATM    4 CL8  UNL     1     -31.885   8.490   3.539  1.00 20.00    -0.109 Cl
ENDROOT
BRANCH   2   5
HETATM    5  C4  UNL     1     -33.202   6.725   1.950  1.00 20.00     0.039 C 
BRANCH   5   6
HETATM    6  C6  UNL     1     -33.659   6.296   3.362  1.00 20.00    -0.020 C 
HETATM    7  C2  UNL     1     -35.017   6.886   3.740  1.00 20.00     0.009 C 
HETATM    8  C3  UNL     1     -33.720   4.767   3.441  1.00 20.00     0.009 C 
ENDBRANCH   5   6
ENDBRANCH   2   5
TORSDOF 2
ENDMDL
MODEL 4
REMARK VINA RESULT:      -1.7      2.934      3.989
REMARK  2 active torsions:
REMARK  status: ('A' for Active; 'I' for Inactive)
REMARK    1  A    between atoms: C4_4  and  C5_5 
REMARK    2  A    between atoms: C4_4  and  C6_6 
ROOT
HETATM    1  C1  UNL     1     -34.449   5.168   4.070  1.00 20.00     0.079 C 
HETATM    2  C5  UNL     1     -34.667   6.543   3.603  1.00 20.00     0.189 C 
HETATM    3  N7  UNL     1     -34.281   4.081   4.437  1.00 20.00    -0.196 NA
HETATM    4 CL8  UNL     1     -33.876   7.632   4.784  1.00 20.00    -0.109 Cl
ENDROOT
BRANCH   2   5
HETATM    5  C4  UNL     1     -34.073   6.791   2.210  1.00 20.00     0.039 C 
BRANCH   5   6
HETATM    6  C6  UNL     1     -32.543   6.608   2.113  1.00 20.00    -0.020 C 
HETATM    7  C2  UNL     1     -32.148   5.490   1.148  1.00 20.00     0.009 C 
HETATM    8  C3  UNL     1     -31.894   7.924   1.671  1.00 20.00     0.009 C 
ENDBRANCH   5   6
ENDBRANCH   2   5
TORSDOF 2
ENDMDL
MODEL 5
REMARK VINA RESULT:      -1.5      0.994      1.416
REMARK  2 active torsions:
REMARK  status: ('A' for Active; 'I' for Inactive)
REMARK    1  A    between atoms: C4_4  and  C5_5 
REMARK    2  A    between atoms: C4_4  and  C6_6 
ROOT
HETATM    1  C1  UNL     1     -32.249   7.710   1.560  1.00 20.00     0.079 C 
HETATM    2  C5  UNL     1     -32.974   6.454   1.789  1.00 20.00     0.189 C 
HETATM    3  N7  UNL     1     -31.680   8.705   1.380  1.00 20.00    -0.196 NA
HETATM    4 CL8  UNL     1     -31.920   5.126   1.213  1.00 20.00    -0.109 Cl
ENDROOT
BRANCH   2   5
HETATM    5  C4  UNL     1     -33.309   6.230   3.269  1.00 20.00     0.039 C 
BRANCH   5   6
HETATM    6  C6  UNL     1     -34.404   5.172   3.535  1.00 20.00    -0.020 C 
HETATM    7  C2  UNL     1     -33.871   3.958   4.296  1.00 20.00     0.009 C 
HETATM    8  C3  UNL     1     -35.555   5.808   4.320  1.00 20.00     0.009 C 
ENDBRANCH   5   6
ENDBRANCH   2   5
TORSDOF 2
ENDMDL
MODEL 6
REMARK VINA RESULT:      -1.4      2.007      2.488
REMARK  2 active torsions:
REMARK  status: ('A' for Active; 'I' for Inactive)
REMARK    1  A    between atoms: C4_4  and  C5_5 
REMARK    2  A    between atoms: C4_4  and  C6_6 
ROOT
HETATM    1  C1  UNL     1     -32.083   6.462   1.472  1.00 20.00     0.079 C 
HETATM    2  C5  UNL     1     -32.158   7.846   1.956  1.00 20.00     0.189 C 
HETATM    3  N7  UNL     1     -32.023   5.367   1.094  1.00 20.00    -0.196 NA
HETATM    4 CL8  UNL     1     -32.029   8.912   0.524  1.00 20.00    -0.109 Cl
ENDROOT
BRANCH   2   5
HETATM    5  C4  UNL     1     -33.472   8.142   2.691  1.00 20.00     0.039 C 
BRANCH   5   6
HETATM    6  C6  UNL     1     -33.724   7.278   3.947  1.00 20.00    -0.020 C 
HETATM    7  C2  UNL     1     -33.685   8.098   5.237  1.00 20.00     0.009 C 
HETATM    8  C3  UNL     1     -35.079   6.574   3.824  1.00 20.00     0.009 C 
ENDBRANCH   5   6
ENDBRANCH   2   5
TORSDOF 2
ENDMDL
MODEL 7
REMARK VINA RESULT:      -1.1      1.986      2.109
REMARK  2 active torsions:
REMARK  status: ('A' for Active; 'I' for Inactive)
REMARK    1  A    between atoms: C4_4  and  C5_5 
REMARK    2  A    between atoms: C4_4  and  C6_6 
ROOT
HETATM    1  C1  UNL     1     -32.296   6.139   1.638  1.00 20.00     0.079 C 
HETATM    2  C5  UNL     1     -32.562   7.429   2.286  1.00 20.00     0.189 C 
HETATM    3  N7  UNL     1     -32.087   5.118   1.130  1.00 20.00    -0.196 NA
HETATM    4 CL8  UNL     1     -31.921   8.703   1.204  1.00 20.00    -0.109 Cl
ENDROOT
BRANCH   2   5
HETATM    5  C4  UNL     1     -34.058   7.671   2.523  1.00 20.00     0.039 C 
BRANCH   5   6
HETATM    6  C6  UNL     1     -34.530   7.461   3.979  1.00 20.00    -0.020 C 
HETATM    7  C2  UNL     1     -34.979   6.024   4.245  1.00 20.00     0.009 C 
HETATM    8  C3  UNL     1     -33.401   7.836   4.944  1.00 20.00     0.009 C 
ENDBRANCH   5   6
ENDBRANCH   2   5
TORSDOF 2
ENDMDL
MODEL 8
REMARK VINA RESULT:      -1.0      2.244      2.933
REMARK  2 active torsions:
REMARK  status: ('A' for Active; 'I' for Inactive)
REMARK    1  A    between atoms: C4_4  and  C5_5 
REMARK    2  A    between atoms: C4_4  and  C6_6 
ROOT
HETATM    1  C1  UNL     1     -32.253   9.093   0.841  1.00 20.00     0.079 C 
HETATM    2  C5  UNL     1     -32.014   8.027   1.820  1.00 20.00     0.189 C 
HETATM    3  N7  UNL     1     -32.443   9.934   0.063  1.00 20.00    -0.196 NA
HETATM    4 CL8  UNL     1     -31.238   8.785   3.245  1.00 20.00    -0.109 Cl
ENDROOT
BRANCH   2   5
HETATM    5  C4  UNL     1     -33.309   7.330   2.259  1.00 20.00     0.039 C 
BRANCH   5   6
HETATM    6  C6  UNL     1     -33.362   5.814   1.971  1.00 20.00    -0.020 C 
HETATM    7  C2  UNL     1     -32.084   5.300   1.308  1.00 20.00     0.009 C 
HETATM    8  C3  UNL     1     -33.609   5.050   3.276  1.00 20.00     0.009 C 
ENDBRANCH   5   6
ENDBRANCH   2   5
TORSDOF 2
ENDMDL
MODEL 9
REMARK VINA RESULT:      -0.9      2.253      3.962
REMARK  2 active torsions:
REMARK  status: ('A' for Active; 'I' for Inactive)
REMARK    1  A    between atoms: C4_4  and  C5_5 
REMARK    2  A    between atoms: C4_4  and  C6_6 
ROOT
HETATM    1  C1  UNL     1     -33.685   7.166   3.390  1.00 20.00     0.079 C 
HETATM    2  C5  UNL     1     -32.497   7.038   2.537  1.00 20.00     0.189 C 
HETATM    3  N7  UNL     1     -34.621   7.268   4.068  1.00 20.00    -0.196 NA
HETATM    4 CL8  UNL     1     -32.998   6.142   1.070  1.00 20.00    -0.109 Cl
ENDROOT
BRANCH   2   5
HETATM    5  C4  UNL     1     -31.919   8.398   2.127  1.00 20.00     0.039 C 
BRANCH   5   6
HETATM    6  C6  UNL     1     -32.315   8.874   0.712  1.00 20.00    -0.020 C 
HETATM    7  C2  UNL     1     -32.785  10.329   0.695  1.00 20.00     0.009 C 
HETATM    8  C3  UNL     1     -31.127   8.705  -0.240  1.00 20.00     0.009 C 
ENDBRANCH   5   6
ENDBRANCH   2   5
TORSDOF 2
ENDMDL
