MODEL 1
REMARK VINA RESULT:      -1.0      0.000      0.000
REMARK  1 active torsions:
REMARK  status: ('A' for Active; 'I' for Inactive)
REMARK    1  A    between atoms: C4_4  and  C5_5 
ROOT
HETATM    1  C1  UNL     1     -34.118   5.037   3.962  1.00 20.00     0.085 C 
HETATM    2  C3  UNL     1     -35.656   6.791   3.192  1.00 20.00     0.049 C 
HETATM    3  C5  UNL     1     -34.192   6.414   3.441  1.00 20.00     0.121 C 
HETATM    4  N6  UNL     1     -34.062   3.951   4.368  1.00 20.00    -0.195 NA
HETATM    5 CL7  UNL     1     -33.550   7.497   4.722  1.00 20.00    -0.103 Cl
ENDROOT
BRANCH   3   6
HETATM    6  C4  UNL     1     -33.381   6.572   2.138  1.00 20.00     0.036 C 
HETATM    7  C2  UNL     1     -32.367   7.713   2.123  1.00 20.00     0.008 C 
ENDBRANCH   3   6
TORSDOF 1
ENDMDL
MODEL 2
REMARK VINA RESULT:      -0.9      2.078      2.978
REMARK  1 active torsions:
REMARK  status: ('A' for Active; 'I' for Inactive)
REMARK    1  A    between atoms: C4_4  and  C5_5 
ROOT
HETATM    1  C1  UNL     1     -33.634   6.099   2.537  1.00 20.00     0.085 C 
HETATM    2  C3  UNL     1     -34.056   7.436   4.554  1.00 20.00     0.049 C 
HETATM    3  C5  UNL     1     -34.573   6.310   3.654  1.00 20.00     0.121 C 
HETATM    4  N6  UNL     1     -32.891   5.933   1.661  1.00 20.00    -0.195 NA
HETATM    5 CL7  UNL     1     -36.131   6.842   2.939  1.00 20.00    -0.103 Cl
ENDROOT
BRANCH   3   6
HETATM    6  C4  UNL     1     -34.766   5.023   4.483  1.00 20.00     0.036 C 
HETATM    7  C2  UNL     1     -33.815   3.875   4.157  1.00 20.00     0.008 C 
ENDBRANCH   3   6
TORSDOF 1
ENDMDL
MODEL 3
REMARK VINA RESULT:      -0.8      3.194      4.185
REMARK  1 active torsions:
REMARK  status: ('A' for Active; 'I' for Inactive)
REMARK    1  A    between atoms: C4_4  and  C5_5 
ROOT
HETATM    1  C1  UNL     1     -32.446   8.941   1.019  1.00 20.00     0.085 C 
HETATM    2  C3  UNL     1     -32.106   6.556   1.499  1.00 20.00     0.049 C 
HETATM    3  C5  UNL     1     -32.320   7.948   2.102  1.00 20.00     0.121 C 
HETATM    4  N6  UNL     1     -32.548   9.720   0.165  1.00 20.00    -0.195 NA
HETATM    5 CL7  UNL     1     -30.852   8.378   3.042  1.00 20.00    -0.103 Cl
ENDROOT
BRANCH   3   6
HETATM    6  C4  UNL     1     -33.565   7.940   3.012  1.00 20.00     0.036 C 
HETATM    7  C2  UNL     1     -34.089   6.562   3.405  1.00 20.00     0.008 C 
ENDBRANCH   3   6
TORSDOF 1
ENDMDL
MODEL 4
REMARK VINA RESULT:      -0.6      3.479      4.252
REMARK  1 active torsions:
REMARK  status: ('A' for Active; 'I' for Inactive)
REMARK    1  A    between atoms: C4_4  and  C5_5 
ROOT
HETATM    1  C1  UNL     1     -32.429   9.072   1.009  1.00 20.00     0.085 C 
HETATM    2  C3  UNL     1     -31.027   8.435   2.923  1.00 20.00     0.049 C 
HETATM    3  C5  UNL     1     -32.189   8.020   2.014  1.00 20.00     0.121 C 
HETATM    4  N6  UNL     1     -32.614   9.899   0.216  1.00 20.00    -0.195 NA
HETATM    5 CL7  UNL     1     -33.670   7.907   3.022  1.00 20.00    -0.103 Cl
ENDROOT
BRANCH   3   6
HETATM    6  C4  UNL     1     -31.876   6.663   1.352  1.00 20.00     0.036 C 
HETATM    7  C2  UNL     1     -32.945   5.586   1.512  1.00 20.00     0.008 C 
ENDBRANCH   3   6
TORSDOF 1
ENDMDL
MODEL 5
REMARK VINA RESULT:      -0.6      2.927      3.655
REMARK  1 active torsions:
REMARK  status: ('A' for Active; 'I' for Inactive)
REMARK    1  A    between atoms: C4_4  and  C5_5 
ROOT
HETATM    1  C1  UNL     1     -32.326   7.365   1.701  1.00 20.00     0.085 C 
HETATM    2  C3  UNL     1     -33.790   5.795   0.507  1.00 20.00     0.049 C 
HETATM    3  C5  UNL     1     -32.833   5.981   1.689  1.00 20.00     0.121 C 
HETATM    4  N6  UNL     1     -31.931   8.457   1.709  1.00 20.00    -0.195 NA
HETATM    5 CL7  UNL     1     -31.419   4.904   1.434  1.00 20.00    -0.103 Cl
ENDROOT
BRANCH   3   6
HETATM    6  C4  UNL     1     -33.554   5.630   3.007  1.00 20.00     0.036 C 
HETATM    7  C2  UNL     1     -34.417   6.737   3.606  1.00 20.00     0.008 C 
ENDBRANCH   3   6
TORSDOF 1
ENDMDL
MODEL 6
REMARK VINA RESULT:      -0.6      2.538      3.358
REMARK  1 active torsions:
REMARK  status: ('A' for Active; 'I' for Inactive)
REMARK    1  A    between atoms: C4_4  and  C5_5 
ROOT
HETATM    1  C1  UNL     1     -33.362   7.524   3.048  1.00 20.00     0.085 C 
HETATM    2  C3  UNL     1     -31.118   8.364   2.509  1.00 20.00     0.049 C 
HETATM    3  C5  UNL     1     -32.378   7.685   1.963  1.00 20.00     0.121 C 
HETATM    4  N6  UNL     1     -34.137   7.402   3.904  1.00 20.00    -0.195 NA
HETATM    5 CL7  UNL     1     -31.926   6.037   1.413  1.00 20.00    -0.103 Cl
ENDROOT
BRANCH   3   6
HETATM    6  C4  UNL     1     -32.953   8.510   0.793  1.00 20.00     0.036 C 
HETATM    7  C2  UNL     1     -32.204   9.797   0.459  1.00 20.00     0.008 C 
ENDBRANCH   3   6
TORSDOF 1
ENDMDL
MODEL 7
REMARK VINA RESULT:      -0.5      2.374      3.455
REMARK  1 active torsions:
REMARK  status: ('A' for Active; 'I' for Inactive)
REMARK    1  A    between atoms: C4_4  and  C5_5 
ROOT
HETATM    1  C1  UNL     1     -32.462   6.543   1.679  1.00 20.00     0.085 C 
HETATM    2  C3  UNL     1     -31.064   8.222   2.802  1.00 20.00     0.049 C 
HETATM    3  C5  UNL     1     -32.448   7.914   2.221  1.00 20.00     0.121 C 
HETATM    4  N6  UNL     1     -32.472   5.463   1.256  1.00 20.00    -0.195 NA
HETATM    5 CL7  UNL     1     -32.732   9.029   0.843  1.00 20.00    -0.103 Cl
ENDROOT
BRANCH   3   6
HETATM    6  C4  UNL     1     -33.526   8.106   3.308  1.00 20.00     0.036 C 
HETATM    7  C2  UNL     1     -34.293   6.849   3.709  1.00 20.00     0.008 C 
ENDBRANCH   3   6
TORSDOF 1
ENDMDL
MODEL 8
REMARK VINA RESULT:      -0.5      2.383      3.032
REMARK  1 active torsions:
REMARK  status: ('A' for Active; 'I' for Inactive)
REMARK    1  A    between atoms: C4_4  and  C5_5 
ROOT
HETATM    1  C1  UNL     1     -33.903   7.348   4.385  1.00 20.00     0.085 C 
HETATM    2  C3  UNL     1     -35.895   6.760   3.072  1.00 20.00     0.049 C 
HETATM    3  C5  UNL     1     -34.545   6.271   3.609  1.00 20.00     0.121 C 
HETATM    4  N6  UNL     1     -33.402   8.195   4.999  1.00 20.00    -0.195 NA
HETATM    5 CL7  UNL     1     -33.481   5.928   2.204  1.00 20.00    -0.103 Cl
ENDROOT
BRANCH   3   6
HETATM    6  C4  UNL     1     -34.749   5.001   4.460  1.00 20.00     0.036 C 
HETATM    7  C2  UNL     1     -33.795   3.847   4.167  1.00 20.00     0.008 C 
ENDBRANCH   3   6
TORSDOF 1
ENDMDL
MODEL 9
REMARK VINA RESULT:      -0.4      2.301      2.988
REMARK  1 active torsions:
REMARK  status: ('A' for Active; 'I' for Inactive)
REMARK    1  A    between atoms: C4_4  and  C5_5 
ROOT
HETATM    1  C1  UNL     1     -33.696   6.493   2.856  1.00 20.00     0.085 C 
HETATM    2  C3  UNL     1     -31.859   5.318   1.725  1.00 20.00     0.049 C 
HETATM    3  C5  UNL     1     -32.762   6.556   1.717  1.00 20.00     0.121 C 
HETATM    4  N6  UNL     1     -34.429   6.443   3.755  1.00 20.00    -0.195 NA
HETATM    5 CL7  UNL     1     -33.752   6.511   0.220  1.00 20.00    -0.103 Cl
ENDROOT
BRANCH   3   6
HETATM    6  C4  UNL     1     -31.900   7.834   1.761  1.00 20.00     0.036 C 
HETATM    7  C2  UNL     1     -32.313   8.946   0.801  1.00 20.00     0.008 C 
ENDBRANCH   3   6
TORSDOF 1
ENDMDL
