MODEL 1
REMARK VINA RESULT:      -1.8      0.000      0.000
REMARK  1 active torsions:
REMARK  status: ('A' for Active; 'I' for Inactive)
REMARK    1  A    between atoms: C5_5  and  C6_6 
ROOT
HETATM    1  C1  UNL     1     -33.880   3.988   4.094  1.00 20.00     0.080 C 
HETATM    2  C6  UNL     1     -34.285   5.166   3.320  1.00 20.00     0.195 C 
HETATM    3  N7  UNL     1     -33.565   3.055   4.708  1.00 20.00    -0.196 NA
HETATM    4 CL9  UNL     1     -35.494   6.064   4.276  1.00 20.00    -0.109 Cl
ENDROOT
BRANCH   2   5
HETATM    5  C5  UNL     1     -33.104   6.064   3.006  1.00 20.00     0.044 C 
HETATM    6  C2  UNL     1     -32.743   6.125   1.538  1.00 20.00     0.035 C 
HETATM    7  C3  UNL     1     -31.927   7.399   1.475  1.00 20.00     0.168 C 
HETATM    8  O8  UNL     1     -32.450   8.278   2.482  1.00 20.00    -0.391 OA
HETATM    9  C4  UNL     1     -33.350   7.530   3.315  1.00 20.00     0.174 C 
ENDBRANCH   2   5
TORSDOF 1
ENDMDL
MODEL 2
REMARK VINA RESULT:      -1.4      1.841      2.174
REMARK  1 active torsions:
REMARK  status: ('A' for Active; 'I' for Inactive)
REMARK    1  A    between atoms: C5_5  and  C6_6 
ROOT
HETATM    1  C1  UNL     1     -34.930   5.987   4.165  1.00 20.00     0.080 C 
HETATM    2  C6  UNL     1     -34.455   7.317   3.771  1.00 20.00     0.195 C 
HETATM    3  N7  UNL     1     -35.309   4.936   4.482  1.00 20.00    -0.196 NA
HETATM    4 CL9  UNL     1     -33.471   7.968   5.109  1.00 20.00    -0.109 Cl
ENDROOT
BRANCH   2   5
HETATM    5  C5  UNL     1     -33.627   7.264   2.501  1.00 20.00     0.044 C 
HETATM    6  C2  UNL     1     -32.363   8.093   2.548  1.00 20.00     0.035 C 
HETATM    7  C3  UNL     1     -31.551   7.478   1.427  1.00 20.00     0.168 C 
HETATM    8  O8  UNL     1     -31.914   6.092   1.364  1.00 20.00    -0.391 OA
HETATM    9  C4  UNL     1     -33.070   5.886   2.191  1.00 20.00     0.174 C 
ENDBRANCH   2   5
TORSDOF 1
ENDMDL
MODEL 3
REMARK VINA RESULT:      -1.4      3.280      4.205
REMARK  1 active torsions:
REMARK  status: ('A' for Active; 'I' for Inactive)
REMARK    1  A    between atoms: C5_5  and  C6_6 
ROOT
HETATM    1  C1  UNL     1     -32.321   7.583   1.799  1.00 20.00     0.080 C 
HETATM    2  C6  UNL     1     -33.056   6.313   1.802  1.00 20.00     0.195 C 
HETATM    3  N7  UNL     1     -31.737   8.586   1.791  1.00 20.00    -0.196 NA
HETATM    4 CL9  UNL     1     -31.940   5.031   1.259  1.00 20.00    -0.109 Cl
ENDROOT
BRANCH   2   5
HETATM    5  C5  UNL     1     -33.594   5.980   3.181  1.00 20.00     0.044 C 
HETATM    6  C2  UNL     1     -34.976   6.530   3.457  1.00 20.00     0.035 C 
HETATM    7  C3  UNL     1     -35.423   5.666   4.618  1.00 20.00     0.168 C 
HETATM    8  O8  UNL     1     -34.800   4.385   4.447  1.00 20.00    -0.391 OA
HETATM    9  C4  UNL     1     -33.810   4.496   3.412  1.00 20.00     0.174 C 
ENDBRANCH   2   5
TORSDOF 1
ENDMDL
MODEL 4
REMARK VINA RESULT:      -1.3      1.834      1.984
REMARK  1 active torsions:
REMARK  status: ('A' for Active; 'I' for Inactive)
REMARK    1  A    between atoms: C5_5  and  C6_6 
ROOT
HETATM    1  C1  UNL     1     -34.997   6.073   4.142  1.00 20.00     0.080 C 
HETATM    2  C6  UNL     1     -34.249   7.256   3.704  1.00 20.00     0.195 C 
HETATM    3  N7  UNL     1     -35.592   5.140   4.493  1.00 20.00    -0.196 NA
HETATM    4 CL9  UNL     1     -33.860   8.227   5.149  1.00 20.00    -0.109 Cl
ENDROOT
BRANCH   2   5
HETATM    5  C5  UNL     1     -32.972   6.875   2.978  1.00 20.00     0.044 C 
HETATM    6  C2  UNL     1     -33.167   5.867   1.868  1.00 20.00     0.035 C 
HETATM    7  C3  UNL     1     -31.905   6.060   1.053  1.00 20.00     0.168 C 
HETATM    8  O8  UNL     1     -31.530   7.438   1.188  1.00 20.00    -0.391 OA
HETATM    9  C4  UNL     1     -32.327   8.026   2.228  1.00 20.00     0.174 C 
ENDBRANCH   2   5
TORSDOF 1
ENDMDL
MODEL 5
REMARK VINA RESULT:      -1.0      3.528      4.437
REMARK  1 active torsions:
REMARK  status: ('A' for Active; 'I' for Inactive)
REMARK    1  A    between atoms: C5_5  and  C6_6 
ROOT
HETATM    1  C1  UNL     1     -32.266   9.052   0.849  1.00 20.00     0.080 C 
HETATM    2  C6  UNL     1     -32.020   8.010   1.853  1.00 20.00     0.195 C 
HETATM    3  N7  UNL     1     -32.456   9.877   0.056  1.00 20.00    -0.196 NA
HETATM    4 CL9  UNL     1     -31.213   8.772   3.249  1.00 20.00    -0.109 Cl
ENDROOT
BRANCH   2   5
HETATM    5  C5  UNL     1     -33.309   7.347   2.299  1.00 20.00     0.044 C 
HETATM    6  C2  UNL     1     -33.189   5.859   2.543  1.00 20.00     0.035 C 
HETATM    7  C3  UNL     1     -34.402   5.590   3.409  1.00 20.00     0.168 C 
HETATM    8  O8  UNL     1     -34.636   6.780   4.175  1.00 20.00    -0.391 OA
HETATM    9  C4  UNL     1     -33.812   7.831   3.648  1.00 20.00     0.174 C 
ENDBRANCH   2   5
TORSDOF 1
ENDMDL
MODEL 6
REMARK VINA RESULT:      -0.7      2.826      3.574
REMARK  1 active torsions:
REMARK  status: ('A' for Active; 'I' for Inactive)
REMARK    1  A    between atoms: C5_5  and  C6_6 
ROOT
HETATM    1  C1  UNL     1     -31.966   6.051   1.347  1.00 20.00     0.080 C 
HETATM    2  C6  UNL     1     -32.183   7.321   2.048  1.00 20.00     0.195 C 
HETATM    3  N7  UNL     1     -31.790   5.048   0.789  1.00 20.00    -0.196 NA
HETATM    4 CL9  UNL     1     -32.081   8.636   0.848  1.00 20.00    -0.109 Cl
ENDROOT
BRANCH   2   5
HETATM    5  C5  UNL     1     -33.532   7.356   2.740  1.00 20.00     0.044 C 
HETATM    6  C2  UNL     1     -34.110   5.991   3.042  1.00 20.00     0.035 C 
HETATM    7  C3  UNL     1     -35.130   6.319   4.112  1.00 20.00     0.168 C 
HETATM    8  O8  UNL     1     -34.620   7.445   4.840  1.00 20.00    -0.391 OA
HETATM    9  C4  UNL     1     -33.494   7.977   4.125  1.00 20.00     0.174 C 
ENDBRANCH   2   5
TORSDOF 1
ENDMDL
MODEL 7
REMARK VINA RESULT:      -0.3      3.101      3.859
REMARK  1 active torsions:
REMARK  status: ('A' for Active; 'I' for Inactive)
REMARK    1  A    between atoms: C5_5  and  C6_6 
ROOT
HETATM    1  C1  UNL     1     -33.167   8.028   4.196  1.00 20.00     0.080 C 
HETATM    2  C6  UNL     1     -33.630   7.477   2.918  1.00 20.00     0.195 C 
HETATM    3  N7  UNL     1     -32.798   8.469   5.205  1.00 20.00    -0.196 NA
HETATM    4 CL9  UNL     1     -32.235   7.421   1.807  1.00 20.00    -0.109 Cl
ENDROOT
BRANCH   2   5
HETATM    5  C5  UNL     1     -34.213   6.087   3.086  1.00 20.00     0.044 C 
HETATM    6  C2  UNL     1     -33.210   5.041   3.521  1.00 20.00     0.035 C 
HETATM    7  C3  UNL     1     -34.115   3.955   4.065  1.00 20.00     0.168 C 
HETATM    8  O8  UNL     1     -35.273   4.610   4.602  1.00 20.00    -0.391 OA
HETATM    9  C4  UNL     1     -35.249   5.986   4.191  1.00 20.00     0.174 C 
ENDBRANCH   2   5
TORSDOF 1
ENDMDL
MODEL 8
REMARK VINA RESULT:      -0.0      2.931      3.756
REMARK  1 active torsions:
REMARK  status: ('A' for Active; 'I' for Inactive)
REMARK    1  A    between atoms: C5_5  and  C6_6 
ROOT
HETATM    1  C1  UNL     1     -33.344   7.446   3.191  1.00 20.00     0.080 C 
HETATM    2  C6  UNL     1     -32.296   7.478   2.165  1.00 20.00     0.195 C 
HETATM    3  N7  UNL     1     -34.171   7.416   4.005  1.00 20.00    -0.196 NA
HETATM    4 CL9  UNL     1     -32.129   5.832   1.498  1.00 20.00    -0.109 Cl
ENDROOT
BRANCH   2   5
HETATM    5  C5  UNL     1     -32.629   8.455   1.054  1.00 20.00     0.044 C 
HETATM    6  C2  UNL     1     -32.860   9.874   1.524  1.00 20.00     0.035 C 
HETATM    7  C3  UNL     1     -32.673  10.657   0.240  1.00 20.00     0.168 C 
HETATM    8  O8  UNL     1     -31.714   9.938  -0.548  1.00 20.00    -0.391 OA
HETATM    9  C4  UNL     1     -31.504   8.651   0.053  1.00 20.00     0.174 C 
ENDBRANCH   2   5
TORSDOF 1
ENDMDL
MODEL 9
REMARK VINA RESULT:       0.1      2.786      3.380
REMARK  1 active torsions:
REMARK  status: ('A' for Active; 'I' for Inactive)
REMARK    1  A    between atoms: C5_5  and  C6_6 
ROOT
HETATM    1  C1  UNL     1     -33.322   7.390   3.204  1.00 20.00     0.080 C 
HETATM    2  C6  UNL     1     -32.243   7.195   2.229  1.00 20.00     0.195 C 
HETATM    3  N7  UNL     1     -34.176   7.538   3.976  1.00 20.00    -0.196 NA
HETATM    4 CL9  UNL     1     -32.743   5.902   1.108  1.00 20.00    -0.109 Cl
ENDROOT
BRANCH   2   5
HETATM    5  C5  UNL     1     -31.951   8.466   1.455  1.00 20.00     0.044 C 
HETATM    6  C2  UNL     1     -32.316   8.397  -0.011  1.00 20.00     0.035 C 
HETATM    7  C3  UNL     1     -32.389   9.865  -0.379  1.00 20.00     0.168 C 
HETATM    8  O8  UNL     1     -32.822  10.566   0.796  1.00 20.00    -0.391 OA
HETATM    9  C4  UNL     1     -32.767   9.663   1.910  1.00 20.00     0.174 C 
ENDBRANCH   2   5
TORSDOF 1
ENDMDL
