MODEL 1
REMARK VINA RESULT:       0.1      0.000      0.000
REMARK  0 active torsions:
REMARK  status: ('A' for Active; 'I' for Inactive)
ROOT
HETATM    1  C1  UNL     1     -32.446   9.093   0.867  1.00 20.00     0.085 C 
HETATM    2  C2  UNL     1     -33.720   8.355   2.856  1.00 20.00     0.067 C 
HETATM    3  C3  UNL     1     -32.591   6.674   1.366  1.00 20.00     0.067 C 
HETATM    4  C4  UNL     1     -33.950   7.216   3.845  1.00 20.00     0.170 C 
HETATM    5  C5  UNL     1     -32.886   5.631   2.441  1.00 20.00     0.170 C 
HETATM    6  C6  UNL     1     -32.512   8.094   1.945  1.00 20.00     0.129 C 
HETATM    7  N7  UNL     1     -32.395   9.881   0.017  1.00 20.00    -0.195 NA
HETATM    8  O8  UNL     1     -34.069   5.968   3.162  1.00 20.00    -0.391 OA
HETATM    9 CL9  UNL     1     -30.990   8.281   2.888  1.00 20.00    -0.103 Cl
ENDROOT
TORSDOF 0
ENDMDL
MODEL 2
REMARK VINA RESULT:       0.9      3.367      3.990
REMARK  0 active torsions:
REMARK  status: ('A' for Active; 'I' for Inactive)
ROOT
HETATM    1  C1  UNL     1     -34.071   4.823   3.972  1.00 20.00     0.085 C 
HETATM    2  C2  UNL     1     -33.202   7.123   4.244  1.00 20.00     0.067 C 
HETATM    3  C3  UNL     1     -33.136   5.990   2.001  1.00 20.00     0.067 C 
HETATM    4  C4  UNL     1     -32.825   8.414   3.522  1.00 20.00     0.170 C 
HETATM    5  C5  UNL     1     -32.762   7.345   1.408  1.00 20.00     0.170 C 
HETATM    6  C6  UNL     1     -33.917   6.130   3.316  1.00 20.00     0.129 C 
HETATM    7  N7  UNL     1     -34.193   3.792   4.490  1.00 20.00    -0.195 NA
HETATM    8  O8  UNL     1     -32.048   8.134   2.358  1.00 20.00    -0.391 OA
HETATM    9 CL9  UNL     1     -35.584   6.713   2.972  1.00 20.00    -0.103 Cl
ENDROOT
TORSDOF 0
ENDMDL
MODEL 3
REMARK VINA RESULT:       1.0      2.158      2.914
REMARK  0 active torsions:
REMARK  status: ('A' for Active; 'I' for Inactive)
ROOT
HETATM    1  C1  UNL     1     -32.299   7.293   2.114  1.00 20.00     0.085 C 
HETATM    2  C2  UNL     1     -32.864   5.104   3.119  1.00 20.00     0.067 C 
HETATM    3  C3  UNL     1     -34.425   7.060   3.358  1.00 20.00     0.067 C 
HETATM    4  C4  UNL     1     -33.987   4.233   3.675  1.00 20.00     0.170 C 
HETATM    5  C5  UNL     1     -35.459   6.077   3.900  1.00 20.00     0.170 C 
HETATM    6  C6  UNL     1     -33.400   6.375   2.443  1.00 20.00     0.129 C 
HETATM    7  N7  UNL     1     -31.431   8.018   1.854  1.00 20.00    -0.195 NA
HETATM    8  O8  UNL     1     -34.821   4.984   4.558  1.00 20.00    -0.391 OA
HETATM    9 CL9  UNL     1     -34.175   5.947   0.876  1.00 20.00    -0.103 Cl
ENDROOT
TORSDOF 0
ENDMDL
MODEL 4
REMARK VINA RESULT:       1.2      1.761      2.146
REMARK  0 active torsions:
REMARK  status: ('A' for Active; 'I' for Inactive)
ROOT
HETATM    1  C1  UNL     1     -32.791   7.694   2.227  1.00 20.00     0.085 C 
HETATM    2  C2  UNL     1     -34.953   7.071   3.257  1.00 20.00     0.067 C 
HETATM    3  C3  UNL     1     -33.015   5.469   3.285  1.00 20.00     0.067 C 
HETATM    4  C4  UNL     1     -35.648   6.133   4.240  1.00 20.00     0.170 C 
HETATM    5  C5  UNL     1     -33.821   4.623   4.266  1.00 20.00     0.170 C 
HETATM    6  C6  UNL     1     -33.423   6.949   3.326  1.00 20.00     0.129 C 
HETATM    7  N7  UNL     1     -32.292   8.283   1.360  1.00 20.00    -0.195 NA
HETATM    8  O8  UNL     1     -35.221   4.785   4.043  1.00 20.00    -0.391 OA
HETATM    9 CL9  UNL     1     -32.823   7.702   4.847  1.00 20.00    -0.103 Cl
ENDROOT
TORSDOF 0
ENDMDL
MODEL 5
REMARK VINA RESULT:       1.6      2.698      3.281
REMARK  0 active torsions:
REMARK  status: ('A' for Active; 'I' for Inactive)
ROOT
HETATM    1  C1  UNL     1     -31.929   4.985   0.970  1.00 20.00     0.085 C 
HETATM    2  C2  UNL     1     -33.526   5.401   2.813  1.00 20.00     0.067 C 
HETATM    3  C3  UNL     1     -32.124   7.273   1.891  1.00 20.00     0.067 C 
HETATM    4  C4  UNL     1     -34.319   6.464   3.568  1.00 20.00     0.170 C 
HETATM    5  C5  UNL     1     -32.998   8.229   2.699  1.00 20.00     0.170 C 
HETATM    6  C6  UNL     1     -32.857   5.967   1.552  1.00 20.00     0.129 C 
HETATM    7  N7  UNL     1     -31.197   4.211   0.510  1.00 20.00    -0.195 NA
HETATM    8  O8  UNL     1     -33.496   7.589   3.873  1.00 20.00    -0.391 OA
HETATM    9 CL9  UNL     1     -34.104   6.279   0.293  1.00 20.00    -0.103 Cl
ENDROOT
TORSDOF 0
ENDMDL
MODEL 6
REMARK VINA RESULT:       2.0      2.742      3.667
REMARK  0 active torsions:
REMARK  status: ('A' for Active; 'I' for Inactive)
ROOT
HETATM    1  C1  UNL     1     -34.617   6.756   3.695  1.00 20.00     0.085 C 
HETATM    2  C2  UNL     1     -32.551   6.672   2.336  1.00 20.00     0.067 C 
HETATM    3  C3  UNL     1     -33.950   8.759   2.405  1.00 20.00     0.067 C 
HETATM    4  C4  UNL     1     -31.480   7.499   1.632  1.00 20.00     0.170 C 
HETATM    5  C5  UNL     1     -32.798   9.467   1.696  1.00 20.00     0.170 C 
HETATM    6  C6  UNL     1     -33.472   7.540   3.206  1.00 20.00     0.129 C 
HETATM    7  N7  UNL     1     -35.520   6.138   4.080  1.00 20.00    -0.195 NA
HETATM    8  O8  UNL     1     -32.072   8.555   0.875  1.00 20.00    -0.391 OA
HETATM    9 CL9  UNL     1     -32.583   8.087   4.672  1.00 20.00    -0.103 Cl
ENDROOT
TORSDOF 0
ENDMDL
MODEL 7
REMARK VINA RESULT:       2.2      2.675      3.740
REMARK  0 active torsions:
REMARK  status: ('A' for Active; 'I' for Inactive)
ROOT
HETATM    1  C1  UNL     1     -33.567   7.325   3.149  1.00 20.00     0.085 C 
HETATM    2  C2  UNL     1     -31.956   7.469   1.276  1.00 20.00     0.067 C 
HETATM    3  C3  UNL     1     -33.446   9.416   1.832  1.00 20.00     0.067 C 
HETATM    4  C4  UNL     1     -31.192   8.411   0.350  1.00 20.00     0.170 C 
HETATM    5  C5  UNL     1     -32.597  10.247   0.874  1.00 20.00     0.170 C 
HETATM    6  C6  UNL     1     -32.668   8.224   2.408  1.00 20.00     0.129 C 
HETATM    7  N7  UNL     1     -34.275   6.616   3.734  1.00 20.00    -0.195 NA
HETATM    8  O8  UNL     1     -32.054   9.428  -0.161  1.00 20.00    -0.391 OA
HETATM    9 CL9  UNL     1     -31.456   8.810   3.603  1.00 20.00    -0.103 Cl
ENDROOT
TORSDOF 0
ENDMDL
MODEL 8
REMARK VINA RESULT:       2.8      2.563      3.279
REMARK  0 active torsions:
REMARK  status: ('A' for Active; 'I' for Inactive)
ROOT
HETATM    1  C1  UNL     1     -33.411   5.006   0.397  1.00 20.00     0.085 C 
HETATM    2  C2  UNL     1     -32.349   7.163   0.978  1.00 20.00     0.067 C 
HETATM    3  C3  UNL     1     -33.850   5.995   2.622  1.00 20.00     0.067 C 
HETATM    4  C4  UNL     1     -31.948   8.096   2.118  1.00 20.00     0.170 C 
HETATM    5  C5  UNL     1     -33.362   6.995   3.668  1.00 20.00     0.170 C 
HETATM    6  C6  UNL     1     -32.829   5.798   1.492  1.00 20.00     0.129 C 
HETATM    7  N7  UNL     1     -33.870   4.381  -0.466  1.00 20.00    -0.195 NA
HETATM    8  O8  UNL     1     -33.013   8.236   3.057  1.00 20.00    -0.391 OA
HETATM    9 CL9  UNL     1     -31.425   4.850   2.099  1.00 20.00    -0.103 Cl
ENDROOT
TORSDOF 0
ENDMDL
MODEL 9
REMARK VINA RESULT:       3.0      3.019      3.767
REMARK  0 active torsions:
REMARK  status: ('A' for Active; 'I' for Inactive)
ROOT
HETATM    1  C1  UNL     1     -35.013   6.263   3.573  1.00 20.00     0.085 C 
HETATM    2  C2  UNL     1     -33.562   6.312   1.569  1.00 20.00     0.067 C 
HETATM    3  C3  UNL     1     -32.995   7.695   3.591  1.00 20.00     0.067 C 
HETATM    4  C4  UNL     1     -32.174   6.656   1.035  1.00 20.00     0.170 C 
HETATM    5  C5  UNL     1     -31.640   7.960   2.941  1.00 20.00     0.170 C 
HETATM    6  C6  UNL     1     -33.624   6.382   3.102  1.00 20.00     0.129 C 
HETATM    7  N7  UNL     1     -36.108   6.168   3.944  1.00 20.00    -0.195 NA
HETATM    8  O8  UNL     1     -31.746   7.929   1.519  1.00 20.00    -0.391 OA
HETATM    9 CL9  UNL     1     -32.738   4.984   3.809  1.00 20.00    -0.103 Cl
ENDROOT
TORSDOF 0
ENDMDL
