MODEL 1
REMARK VINA RESULT:      -2.0      0.000      0.000
REMARK  4 active torsions:
REMARK  status: ('A' for Active; 'I' for Inactive)
REMARK    1  A    between atoms: C4_4  and  C6_6 
REMARK    2  A    between atoms: C4_4  and  N7_7 
REMARK    3  A    between atoms: C5_5  and  C6_6 
REMARK    4  A    between atoms: C5_5  and  O8_8 
ROOT
HETATM    1  C1  UNL     1     -32.326   8.691   1.324  1.00 20.00     0.157 C 
HETATM    2  N7  UNL     1     -32.243   7.882   2.171  1.00 20.00    -0.275 NA
HETATM    3  S9  UNL     1     -32.413   9.799   0.183  1.00 20.00    -0.055 SA
ENDROOT
BRANCH   2   4
HETATM    4  C4  UNL     1     -33.352   6.926   2.222  1.00 20.00     0.157 C 
BRANCH   4   5
HETATM    5  C6  UNL     1     -33.815   6.701   3.665  1.00 20.00     0.025 C 
HETATM    6  C2  UNL     1     -33.714   7.985   4.495  1.00 20.00     0.014 C 
BRANCH   5   7
HETATM    7  C5  UNL     1     -35.230   6.111   3.720  1.00 20.00     0.172 C 
BRANCH   7   8
HETATM    8  O8  UNL     1     -35.220   4.903   4.469  1.00 20.00    -0.396 OA
HETATM    9  C3  UNL     1     -34.052   4.137   4.206  1.00 20.00     0.201 C 
ENDBRANCH   7   8
ENDBRANCH   5   7
ENDBRANCH   4   5
ENDBRANCH   2   4
TORSDOF 4
ENDMDL
MODEL 2
REMARK VINA RESULT:      -1.9      0.938      1.196
REMARK  4 active torsions:
REMARK  status: ('A' for Active; 'I' for Inactive)
REMARK    1  A    between atoms: C4_4  and  C6_6 
REMARK    2  A    between atoms: C4_4  and  N7_7 
REMARK    3  A    between atoms: C5_5  and  C6_6 
REMARK    4  A    between atoms: C5_5  and  O8_8 
ROOT
HETATM    1  C1  UNL     1     -32.281   8.608   1.324  1.00 20.00     0.157 C 
HETATM    2  N7  UNL     1     -32.196   7.760   2.132  1.00 20.00    -0.275 NA
HETATM    3  S9  UNL     1     -32.374   9.773   0.243  1.00 20.00    -0.055 SA
ENDROOT
BRANCH   2   4
HETATM    4  C4  UNL     1     -33.081   6.613   1.918  1.00 20.00     0.157 C 
BRANCH   4   5
HETATM    5  C6  UNL     1     -33.562   6.035   3.253  1.00 20.00     0.025 C 
HETATM    6  C2  UNL     1     -34.760   6.815   3.804  1.00 20.00     0.014 C 
BRANCH   5   7
HETATM    7  C5  UNL     1     -33.874   4.538   3.143  1.00 20.00     0.172 C 
BRANCH   7   8
HETATM    8  O8  UNL     1     -34.149   4.006   4.433  1.00 20.00    -0.396 OA
HETATM    9  C3  UNL     1     -33.241   2.966   4.772  1.00 20.00     0.201 C 
ENDBRANCH   7   8
ENDBRANCH   5   7
ENDBRANCH   4   5
ENDBRANCH   2   4
TORSDOF 4
ENDMDL
MODEL 3
REMARK VINA RESULT:      -1.5      1.202      1.843
REMARK  4 active torsions:
REMARK  status: ('A' for Active; 'I' for Inactive)
REMARK    1  A    between atoms: C4_4  and  C6_6 
REMARK    2  A    between atoms: C4_4  and  N7_7 
REMARK    3  A    between atoms: C5_5  and  C6_6 
REMARK    4  A    between atoms: C5_5  and  O8_8 
ROOT
HETATM    1  C1  UNL     1     -32.125   9.298   0.556  1.00 20.00     0.157 C 
HETATM    2  N7  UNL     1     -31.633   8.330   1.004  1.00 20.00    -0.275 NA
HETATM    3  S9  UNL     1     -32.778  10.605  -0.077  1.00 20.00    -0.055 SA
ENDROOT
BRANCH   2   4
HETATM    4  C4  UNL     1     -32.038   8.009   2.374  1.00 20.00     0.157 C 
BRANCH   4   5
HETATM    5  C6  UNL     1     -33.281   7.113   2.381  1.00 20.00     0.025 C 
HETATM    6  C2  UNL     1     -32.976   5.723   1.814  1.00 20.00     0.014 C 
BRANCH   5   7
HETATM    7  C5  UNL     1     -33.905   7.020   3.779  1.00 20.00     0.172 C 
BRANCH   7   8
HETATM    8  O8  UNL     1     -35.223   6.496   3.686  1.00 20.00    -0.396 OA
HETATM    9  C3  UNL     1     -35.370   5.314   4.462  1.00 20.00     0.201 C 
ENDBRANCH   7   8
ENDBRANCH   5   7
ENDBRANCH   4   5
ENDBRANCH   2   4
TORSDOF 4
ENDMDL
MODEL 4
REMARK VINA RESULT:      -1.4      3.704      4.806
REMARK  4 active torsions:
REMARK  status: ('A' for Active; 'I' for Inactive)
REMARK    1  A    between atoms: C4_4  and  C6_6 
REMARK    2  A    between atoms: C4_4  and  N7_7 
REMARK    3  A    between atoms: C5_5  and  C6_6 
REMARK    4  A    between atoms: C5_5  and  O8_8 
ROOT
HETATM    1  C1  UNL     1     -33.829   4.169   4.069  1.00 20.00     0.157 C 
HETATM    2  N7  UNL     1     -34.271   5.170   3.644  1.00 20.00    -0.275 NA
HETATM    3  S9  UNL     1     -33.254   2.807   4.663  1.00 20.00    -0.055 SA
ENDROOT
BRANCH   2   4
HETATM    4  C4  UNL     1     -33.437   5.836   2.642  1.00 20.00     0.157 C 
BRANCH   4   5
HETATM    5  C6  UNL     1     -33.510   7.359   2.793  1.00 20.00     0.025 C 
HETATM    6  C2  UNL     1     -34.011   7.763   4.184  1.00 20.00     0.014 C 
BRANCH   5   7
HETATM    7  C5  UNL     1     -32.168   8.026   2.468  1.00 20.00     0.172 C 
BRANCH   7   8
HETATM    8  O8  UNL     1     -32.030   8.172   1.060  1.00 20.00    -0.396 OA
HETATM    9  C3  UNL     1     -32.342   9.493   0.640  1.00 20.00     0.201 C 
ENDBRANCH   7   8
ENDBRANCH   5   7
ENDBRANCH   4   5
ENDBRANCH   2   4
TORSDOF 4
ENDMDL
MODEL 5
REMARK VINA RESULT:      -1.2      3.516      4.578
REMARK  4 active torsions:
REMARK  status: ('A' for Active; 'I' for Inactive)
REMARK    1  A    between atoms: C4_4  and  C6_6 
REMARK    2  A    between atoms: C4_4  and  N7_7 
REMARK    3  A    between atoms: C5_5  and  C6_6 
REMARK    4  A    between atoms: C5_5  and  O8_8 
ROOT
HETATM    1  C1  UNL     1     -33.764   3.973   4.093  1.00 20.00     0.157 C 
HETATM    2  N7  UNL     1     -34.233   4.814   3.422  1.00 20.00    -0.275 NA
HETATM    3  S9  UNL     1     -33.119   2.817   4.979  1.00 20.00    -0.055 SA
ENDROOT
BRANCH   2   4
HETATM    4  C4  UNL     1     -34.799   5.947   4.157  1.00 20.00     0.157 C 
BRANCH   4   5
HETATM    5  C6  UNL     1     -34.210   7.271   3.661  1.00 20.00     0.025 C 
HETATM    6  C2  UNL     1     -33.525   8.042   4.795  1.00 20.00     0.014 C 
BRANCH   5   7
HETATM    7  C5  UNL     1     -33.259   7.060   2.477  1.00 20.00     0.172 C 
BRANCH   7   8
HETATM    8  O8  UNL     1     -32.244   8.056   2.488  1.00 20.00    -0.396 OA
HETATM    9  C3  UNL     1     -32.019   8.585   1.188  1.00 20.00     0.201 C 
ENDBRANCH   7   8
ENDBRANCH   5   7
ENDBRANCH   4   5
ENDBRANCH   2   4
TORSDOF 4
ENDMDL
MODEL 6
REMARK VINA RESULT:      -0.9      3.566      4.885
REMARK  4 active torsions:
REMARK  status: ('A' for Active; 'I' for Inactive)
REMARK    1  A    between atoms: C4_4  and  C6_6 
REMARK    2  A    between atoms: C4_4  and  N7_7 
REMARK    3  A    between atoms: C5_5  and  C6_6 
REMARK    4  A    between atoms: C5_5  and  O8_8 
ROOT
HETATM    1  C1  UNL     1     -34.265   4.821   3.990  1.00 20.00     0.157 C 
HETATM    2  N7  UNL     1     -34.783   5.789   3.574  1.00 20.00    -0.275 NA
HETATM    3  S9  UNL     1     -33.585   3.493   4.547  1.00 20.00    -0.055 SA
ENDROOT
BRANCH   2   4
HETATM    4  C4  UNL     1     -33.977   7.008   3.663  1.00 20.00     0.157 C 
BRANCH   4   5
HETATM    5  C6  UNL     1     -32.770   6.937   2.722  1.00 20.00     0.025 C 
HETATM    6  C2  UNL     1     -33.080   6.105   1.472  1.00 20.00     0.014 C 
BRANCH   5   7
HETATM    7  C5  UNL     1     -32.259   8.334   2.349  1.00 20.00     0.172 C 
BRANCH   7   8
HETATM    8  O8  UNL     1     -32.002   8.398   0.952  1.00 20.00    -0.396 OA
HETATM    9  C3  UNL     1     -32.361   9.664   0.415  1.00 20.00     0.201 C 
ENDBRANCH   7   8
ENDBRANCH   5   7
ENDBRANCH   4   5
ENDBRANCH   2   4
TORSDOF 4
ENDMDL
MODEL 7
REMARK VINA RESULT:      -0.9      3.441      4.897
REMARK  4 active torsions:
REMARK  status: ('A' for Active; 'I' for Inactive)
REMARK    1  A    between atoms: C4_4  and  C6_6 
REMARK    2  A    between atoms: C4_4  and  N7_7 
REMARK    3  A    between atoms: C5_5  and  C6_6 
REMARK    4  A    between atoms: C5_5  and  O8_8 
ROOT
HETATM    1  C1  UNL     1     -34.448   6.651   4.086  1.00 20.00     0.157 C 
HETATM    2  N7  UNL     1     -33.775   7.597   3.912  1.00 20.00    -0.275 NA
HETATM    3  S9  UNL     1     -35.358   5.371   4.351  1.00 20.00    -0.055 SA
ENDROOT
BRANCH   2   4
HETATM    4  C4  UNL     1     -33.582   7.968   2.508  1.00 20.00     0.157 C 
BRANCH   4   5
HETATM    5  C6  UNL     1     -32.257   7.415   1.974  1.00 20.00     0.025 C 
HETATM    6  C2  UNL     1     -32.430   6.013   1.380  1.00 20.00     0.014 C 
BRANCH   5   7
HETATM    7  C5  UNL     1     -31.610   8.372   0.964  1.00 20.00     0.172 C 
BRANCH   7   8
HETATM    8  O8  UNL     1     -32.336   9.593   0.924  1.00 20.00    -0.396 OA
HETATM    9  C3  UNL     1     -32.633   9.978  -0.412  1.00 20.00     0.201 C 
ENDBRANCH   7   8
ENDBRANCH   5   7
ENDBRANCH   4   5
ENDBRANCH   2   4
TORSDOF 4
ENDMDL
MODEL 8
REMARK VINA RESULT:      -0.6      3.406      4.783
REMARK  4 active torsions:
REMARK  status: ('A' for Active; 'I' for Inactive)
REMARK    1  A    between atoms: C4_4  and  C6_6 
REMARK    2  A    between atoms: C4_4  and  N7_7 
REMARK    3  A    between atoms: C5_5  and  C6_6 
REMARK    4  A    between atoms: C5_5  and  O8_8 
ROOT
HETATM    1  C1  UNL     1     -33.861   6.084   2.726  1.00 20.00     0.157 C 
HETATM    2  N7  UNL     1     -33.206   5.783   1.799  1.00 20.00    -0.275 NA
HETATM    3  S9  UNL     1     -34.770   6.471   3.975  1.00 20.00    -0.055 SA
ENDROOT
BRANCH   2   4
HETATM    4  C4  UNL     1     -31.936   6.503   1.681  1.00 20.00     0.157 C 
BRANCH   4   5
HETATM    5  C6  UNL     1     -32.158   8.018   1.744  1.00 20.00     0.025 C 
HETATM    6  C2  UNL     1     -31.629   8.610   3.055  1.00 20.00     0.014 C 
BRANCH   5   7
HETATM    7  C5  UNL     1     -31.554   8.730   0.527  1.00 20.00     0.172 C 
BRANCH   7   8
HETATM    8  O8  UNL     1     -32.571   9.436  -0.173  1.00 20.00    -0.396 OA
HETATM    9  C3  UNL     1     -32.690  10.773   0.293  1.00 20.00     0.201 C 
ENDBRANCH   7   8
ENDBRANCH   5   7
ENDBRANCH   4   5
ENDBRANCH   2   4
TORSDOF 4
ENDMDL
MODEL 9
REMARK VINA RESULT:      -0.6      1.862      2.329
REMARK  4 active torsions:
REMARK  status: ('A' for Active; 'I' for Inactive)
REMARK    1  A    between atoms: C4_4  and  C6_6 
REMARK    2  A    between atoms: C4_4  and  N7_7 
REMARK    3  A    between atoms: C5_5  and  C6_6 
REMARK    4  A    between atoms: C5_5  and  O8_8 
ROOT
HETATM    1  C1  UNL     1     -32.231   8.933   1.072  1.00 20.00     0.157 C 
HETATM    2  N7  UNL     1     -32.017   8.109   1.880  1.00 20.00    -0.275 NA
HETATM    3  S9  UNL     1     -32.496  10.043  -0.040  1.00 20.00    -0.055 SA
ENDROOT
BRANCH   2   4
HETATM    4  C4  UNL     1     -33.000   8.039   2.964  1.00 20.00     0.157 C 
BRANCH   4   5
HETATM    5  C6  UNL     1     -33.471   6.597   3.183  1.00 20.00     0.025 C 
HETATM    6  C2  UNL     1     -34.868   6.551   3.811  1.00 20.00     0.014 C 
BRANCH   5   7
HETATM    7  C5  UNL     1     -33.415   5.780   1.886  1.00 20.00     0.172 C 
BRANCH   7   8
HETATM    8  O8  UNL     1     -32.167   5.105   1.794  1.00 20.00    -0.396 OA
HETATM    9  C3  UNL     1     -31.895   4.693   0.461  1.00 20.00     0.201 C 
ENDBRANCH   7   8
ENDBRANCH   5   7
ENDBRANCH   4   5
ENDBRANCH   2   4
TORSDOF 4
ENDMDL
