MODEL 1
REMARK VINA RESULT:      -1.0      0.000      0.000
REMARK  0 active torsions:
REMARK  status: ('A' for Active; 'I' for Inactive)
ROOT
HETATM    1  C1  UNL     1     -33.199   5.696   0.982  1.00 20.00     0.022 A 
HETATM    2  C2  UNL     1     -32.802   8.278   2.700  1.00 20.00     0.120 C 
HETATM    3  C3  UNL     1     -31.371   7.173   1.293  1.00 20.00     0.101 C 
HETATM    4  C4  UNL     1     -32.026   5.871   1.597  1.00 20.00     0.025 A 
HETATM    5  C5  UNL     1     -33.503   7.167   3.014  1.00 20.00    -0.048 C 
HETATM    6  C6  UNL     1     -35.792   6.279   3.848  1.00 20.00     0.014 A 
HETATM    7  C7  UNL     1     -33.717   4.745   3.290  1.00 20.00     0.021 C 
HETATM    8  C8  UNL     1     -34.486   6.980   4.100  1.00 20.00     0.021 A 
HETATM    9  C9  UNL     1     -34.601   5.472   4.293  1.00 20.00    -0.005 A 
HETATM   10  C10 UNL     1     -33.224   5.847   2.408  1.00 20.00     0.004 A 
HETATM   11  N11 UNL     1     -31.752   8.314   1.794  1.00 20.00    -0.276 NA
ENDROOT
TORSDOF 0
ENDMDL
MODEL 2
REMARK VINA RESULT:      -0.8      0.912      2.351
REMARK  0 active torsions:
REMARK  status: ('A' for Active; 'I' for Inactive)
ROOT
HETATM    1  C1  UNL     1     -32.886   7.862   4.158  1.00 20.00     0.022 A 
HETATM    2  C2  UNL     1     -32.389   5.883   1.789  1.00 20.00     0.120 C 
HETATM    3  C3  UNL     1     -32.358   8.173   1.868  1.00 20.00     0.101 C 
HETATM    4  C4  UNL     1     -33.375   8.181   2.956  1.00 20.00     0.025 A 
HETATM    5  C5  UNL     1     -33.273   5.764   2.802  1.00 20.00    -0.048 C 
HETATM    6  C6  UNL     1     -34.140   4.196   4.676  1.00 20.00     0.014 A 
HETATM    7  C7  UNL     1     -35.104   6.606   4.190  1.00 20.00     0.021 C 
HETATM    8  C8  UNL     1     -34.029   4.569   3.223  1.00 20.00     0.021 A 
HETATM    9  C9  UNL     1     -35.187   5.091   4.066  1.00 20.00    -0.005 A 
HETATM   10  C10 UNL     1     -33.791   6.930   3.552  1.00 20.00     0.004 A 
HETATM   11  N11 UNL     1     -31.874   7.088   1.332  1.00 20.00    -0.276 NA
ENDROOT
TORSDOF 0
ENDMDL
MODEL 3
REMARK VINA RESULT:      -0.1      1.842      3.858
REMARK  0 active torsions:
REMARK  status: ('A' for Active; 'I' for Inactive)
ROOT
HETATM    1  C1  UNL     1     -35.491   6.776   3.398  1.00 20.00     0.022 A 
HETATM    2  C2  UNL     1     -33.308   4.583   2.947  1.00 20.00     0.120 C 
HETATM    3  C3  UNL     1     -34.929   4.784   4.554  1.00 20.00     0.101 C 
HETATM    4  C4  UNL     1     -34.875   6.270   4.470  1.00 20.00     0.025 A 
HETATM    5  C5  UNL     1     -33.205   5.915   2.749  1.00 20.00    -0.048 C 
HETATM    6  C6  UNL     1     -32.522   7.751   1.050  1.00 20.00     0.014 A 
HETATM    7  C7  UNL     1     -33.405   8.239   3.490  1.00 20.00     0.021 C 
HETATM    8  C8  UNL     1     -32.161   6.654   2.013  1.00 20.00     0.021 A 
HETATM    9  C9  UNL     1     -32.264   8.097   2.493  1.00 20.00    -0.005 A 
HETATM   10  C10 UNL     1     -34.063   6.897   3.448  1.00 20.00     0.004 A 
HETATM   11  N11 UNL     1     -34.208   3.986   3.819  1.00 20.00    -0.276 NA
ENDROOT
TORSDOF 0
ENDMDL
MODEL 4
REMARK VINA RESULT:       0.5      1.629      3.463
REMARK  0 active torsions:
REMARK  status: ('A' for Active; 'I' for Inactive)
ROOT
HETATM    1  C1  UNL     1     -32.970   4.669   3.718  1.00 20.00     0.022 A 
HETATM    2  C2  UNL     1     -34.523   7.370   3.987  1.00 20.00     0.120 C 
HETATM    3  C3  UNL     1     -35.211   5.204   4.279  1.00 20.00     0.101 C 
HETATM    4  C4  UNL     1     -34.228   4.721   3.270  1.00 20.00     0.025 A 
HETATM    5  C5  UNL     1     -33.564   7.045   3.094  1.00 20.00    -0.048 C 
HETATM    6  C6  UNL     1     -31.310   7.790   2.051  1.00 20.00     0.014 A 
HETATM    7  C7  UNL     1     -32.608   5.594   1.370  1.00 20.00     0.021 C 
HETATM    8  C8  UNL     1     -32.798   7.941   2.206  1.00 20.00     0.021 A 
HETATM    9  C9  UNL     1     -32.223   7.045   1.114  1.00 20.00    -0.005 A 
HETATM   10  C10 UNL     1     -33.266   5.647   2.712  1.00 20.00     0.004 A 
HETATM   11  N11 UNL     1     -35.335   6.451   4.637  1.00 20.00    -0.276 NA
ENDROOT
TORSDOF 0
ENDMDL
MODEL 5
REMARK VINA RESULT:       1.6      1.498      3.232
REMARK  0 active torsions:
REMARK  status: ('A' for Active; 'I' for Inactive)
ROOT
HETATM    1  C1  UNL     1     -32.722   8.594   1.959  1.00 20.00     0.022 A 
HETATM    2  C2  UNL     1     -34.330   6.500   3.635  1.00 20.00     0.120 C 
HETATM    3  C3  UNL     1     -33.225   8.404   4.268  1.00 20.00     0.101 C 
HETATM    4  C4  UNL     1     -32.245   8.244   3.158  1.00 20.00     0.025 A 
HETATM    5  C5  UNL     1     -33.534   6.278   2.567  1.00 20.00    -0.048 C 
HETATM    6  C6  UNL     1     -33.390   5.149   0.237  1.00 20.00     0.014 A 
HETATM    7  C7  UNL     1     -31.413   6.488   1.364  1.00 20.00     0.021 C 
HETATM    8  C8  UNL     1     -33.429   5.061   1.738  1.00 20.00     0.021 A 
HETATM    9  C9  UNL     1     -32.096   5.175   1.008  1.00 20.00    -0.005 A 
HETATM   10  C10 UNL     1     -32.447   7.202   2.173  1.00 20.00     0.004 A 
HETATM   11  N11 UNL     1     -34.224   7.595   4.480  1.00 20.00    -0.276 NA
ENDROOT
TORSDOF 0
ENDMDL
