MODEL 1
REMARK VINA RESULT:      -1.6      0.000      0.000
REMARK  2 active torsions:
REMARK  status: ('A' for Active; 'I' for Inactive)
REMARK    1  A    between atoms: C1_1  and  C3_3 
REMARK       I    between atoms: C1_1  and  N8_8 
REMARK    2  A    between atoms: N8_8  and  O10_10 
ROOT
HETATM    1  C1  UNL     1     -32.758   6.413   2.060  1.00 20.00     0.247 C 
HETATM    2  C6  UNL     1     -33.811   4.552   3.333  1.00 20.00     0.189 C 
HETATM    3  N8  UNL     1     -33.585   5.959   3.057  1.00 20.00    -0.231 N 
HETATM    4  O9  UNL     1     -32.126   5.675   1.301  1.00 20.00    -0.271 OA
ENDROOT
BRANCH   1   5
HETATM    5  C3  UNL     1     -32.635   7.912   1.933  1.00 20.00     0.084 A 
HETATM    6  C2  UNL     1     -31.292   8.519   2.129  1.00 20.00     0.019 A 
HETATM    7  C4  UNL     1     -31.900   8.451   0.757  1.00 20.00    -0.005 A 
HETATM    8  C5  UNL     1     -32.399   9.689   0.097  1.00 20.00     0.011 C 
ENDBRANCH   1   5
BRANCH   3   9
HETATM    9  O10 UNL     1     -34.302   6.809   3.920  1.00 20.00    -0.281 OA
HETATM   10  C7  UNL     1     -35.574   6.226   4.193  1.00 20.00     0.238 C 
ENDBRANCH   3   9
TORSDOF 2
ENDMDL
MODEL 2
REMARK VINA RESULT:      -0.7      1.529      2.553
REMARK  2 active torsions:
REMARK  status: ('A' for Active; 'I' for Inactive)
REMARK    1  A    between atoms: C1_1  and  C3_3 
REMARK       I    between atoms: C1_1  and  N8_8 
REMARK    2  A    between atoms: N8_8  and  O10_10 
ROOT
HETATM    1  C1  UNL     1     -33.975   6.558   3.599  1.00 20.00     0.247 C 
HETATM    2  C6  UNL     1     -35.537   4.989   4.738  1.00 20.00     0.189 C 
HETATM    3  N8  UNL     1     -34.364   5.284   3.935  1.00 20.00    -0.231 N 
HETATM    4  O9  UNL     1     -34.580   7.575   3.942  1.00 20.00    -0.271 OA
ENDROOT
BRANCH   1   5
HETATM    5  C3  UNL     1     -32.736   6.666   2.744  1.00 20.00     0.084 A 
HETATM    6  C2  UNL     1     -32.802   6.144   1.354  1.00 20.00     0.019 A 
HETATM    7  C4  UNL     1     -32.760   7.624   1.605  1.00 20.00    -0.005 A 
HETATM    8  C5  UNL     1     -31.532   8.403   1.289  1.00 20.00     0.011 C 
ENDBRANCH   1   5
BRANCH   3   9
HETATM    9  O10 UNL     1     -33.667   4.128   3.539  1.00 20.00    -0.281 OA
HETATM   10  C7  UNL     1     -33.464   3.295   4.677  1.00 20.00     0.238 C 
ENDBRANCH   3   9
TORSDOF 2
ENDMDL
MODEL 3
REMARK VINA RESULT:       0.0      1.930      3.967
REMARK  2 active torsions:
REMARK  status: ('A' for Active; 'I' for Inactive)
REMARK    1  A    between atoms: C1_1  and  C3_3 
REMARK       I    between atoms: C1_1  and  N8_8 
REMARK    2  A    between atoms: N8_8  and  O10_10 
ROOT
HETATM    1  C1  UNL     1     -32.259   8.026   2.979  1.00 20.00     0.247 C 
HETATM    2  C6  UNL     1     -31.531   8.210   0.606  1.00 20.00     0.189 C 
HETATM    3  N8  UNL     1     -32.279   7.582   1.680  1.00 20.00    -0.231 N 
HETATM    4  O9  UNL     1     -31.606   8.998   3.364  1.00 20.00    -0.271 OA
ENDROOT
BRANCH   1   5
HETATM    5  C3  UNL     1     -33.090   7.236   3.961  1.00 20.00     0.084 A 
HETATM    6  C2  UNL     1     -33.866   7.990   4.980  1.00 20.00     0.019 A 
HETATM    7  C4  UNL     1     -34.571   7.316   3.837  1.00 20.00    -0.005 A 
HETATM    8  C5  UNL     1     -35.384   6.092   4.078  1.00 20.00     0.011 C 
ENDBRANCH   1   5
BRANCH   3   9
HETATM    9  O10 UNL     1     -33.028   6.471   1.249  1.00 20.00    -0.281 OA
HETATM   10  C7  UNL     1     -32.169   5.338   1.164  1.00 20.00     0.238 C 
ENDBRANCH   3   9
TORSDOF 2
ENDMDL
MODEL 4
REMARK VINA RESULT:       0.1      2.267      4.168
REMARK  2 active torsions:
REMARK  status: ('A' for Active; 'I' for Inactive)
REMARK    1  A    between atoms: C1_1  and  C3_3 
REMARK       I    between atoms: C1_1  and  N8_8 
REMARK    2  A    between atoms: N8_8  and  O10_10 
ROOT
HETATM    1  C1  UNL     1     -32.472   7.435   1.740  1.00 20.00     0.247 C 
HETATM    2  C6  UNL     1     -31.064   8.540   0.010  1.00 20.00     0.189 C 
HETATM    3  N8  UNL     1     -32.106   8.546   1.021  1.00 20.00    -0.231 N 
HETATM    4  O9  UNL     1     -31.955   6.325   1.601  1.00 20.00    -0.271 OA
ENDROOT
BRANCH   1   5
HETATM    5  C3  UNL     1     -33.587   7.631   2.738  1.00 20.00     0.084 A 
HETATM    6  C2  UNL     1     -34.145   6.424   3.404  1.00 20.00     0.019 A 
HETATM    7  C4  UNL     1     -33.283   7.384   4.175  1.00 20.00    -0.005 A 
HETATM    8  C5  UNL     1     -33.889   8.271   5.205  1.00 20.00     0.011 C 
ENDBRANCH   1   5
BRANCH   3   9
HETATM    9  O10 UNL     1     -32.701   9.811   1.187  1.00 20.00    -0.281 OA
HETATM   10  C7  UNL     1     -32.702  10.491  -0.065  1.00 20.00     0.238 C 
ENDBRANCH   3   9
TORSDOF 2
ENDMDL
MODEL 5
REMARK VINA RESULT:       0.3      1.560      4.195
REMARK  2 active torsions:
REMARK  status: ('A' for Active; 'I' for Inactive)
REMARK    1  A    between atoms: C1_1  and  C3_3 
REMARK       I    between atoms: C1_1  and  N8_8 
REMARK    2  A    between atoms: N8_8  and  O10_10 
ROOT
HETATM    1  C1  UNL     1     -33.079   6.026   2.510  1.00 20.00     0.247 C 
HETATM    2  C6  UNL     1     -32.377   8.197   1.515  1.00 20.00     0.189 C 
HETATM    3  N8  UNL     1     -32.703   7.341   2.641  1.00 20.00    -0.231 N 
HETATM    4  O9  UNL     1     -33.176   5.443   1.429  1.00 20.00    -0.271 OA
ENDROOT
BRANCH   1   5
HETATM    5  C3  UNL     1     -33.394   5.299   3.794  1.00 20.00     0.084 A 
HETATM    6  C2  UNL     1     -34.806   4.903   4.040  1.00 20.00     0.019 A 
HETATM    7  C4  UNL     1     -33.776   3.863   3.702  1.00 20.00    -0.005 A 
HETATM    8  C5  UNL     1     -33.295   2.918   4.747  1.00 20.00     0.011 C 
ENDBRANCH   1   5
BRANCH   3   9
HETATM    9  O10 UNL     1     -32.594   7.999   3.880  1.00 20.00    -0.281 OA
HETATM   10  C7  UNL     1     -33.900   8.284   4.371  1.00 20.00     0.238 C 
ENDBRANCH   3   9
TORSDOF 2
ENDMDL
MODEL 6
REMARK VINA RESULT:       0.4      1.344      4.354
REMARK  2 active torsions:
REMARK  status: ('A' for Active; 'I' for Inactive)
REMARK    1  A    between atoms: C1_1  and  C3_3 
REMARK       I    between atoms: C1_1  and  N8_8 
REMARK    2  A    between atoms: N8_8  and  O10_10 
ROOT
HETATM    1  C1  UNL     1     -33.601   7.551   3.221  1.00 20.00     0.247 C 
HETATM    2  C6  UNL     1     -32.174   8.271   1.312  1.00 20.00     0.189 C 
HETATM    3  N8  UNL     1     -32.638   7.291   2.277  1.00 20.00    -0.231 N 
HETATM    4  O9  UNL     1     -34.166   8.639   3.344  1.00 20.00    -0.271 OA
ENDROOT
BRANCH   1   5
HETATM    5  C3  UNL     1     -33.942   6.412   4.149  1.00 20.00     0.084 A 
HETATM    6  C2  UNL     1     -35.365   5.986   4.234  1.00 20.00     0.019 A 
HETATM    7  C4  UNL     1     -34.355   5.119   3.537  1.00 20.00    -0.005 A 
HETATM    8  C5  UNL     1     -33.904   3.846   4.162  1.00 20.00     0.011 C 
ENDBRANCH   1   5
BRANCH   3   9
HETATM    9  O10 UNL     1     -31.996   6.045   2.144  1.00 20.00    -0.281 OA
HETATM   10  C7  UNL     1     -32.333   5.483   0.879  1.00 20.00     0.238 C 
ENDBRANCH   3   9
TORSDOF 2
ENDMDL
MODEL 7
REMARK VINA RESULT:       0.4      1.500      2.315
REMARK  2 active torsions:
REMARK  status: ('A' for Active; 'I' for Inactive)
REMARK    1  A    between atoms: C1_1  and  C3_3 
REMARK       I    between atoms: C1_1  and  N8_8 
REMARK    2  A    between atoms: N8_8  and  O10_10 
ROOT
HETATM    1  C1  UNL     1     -33.607   5.241   3.226  1.00 20.00     0.247 C 
HETATM    2  C6  UNL     1     -35.631   5.815   4.557  1.00 20.00     0.189 C 
HETATM    3  N8  UNL     1     -34.457   6.168   3.779  1.00 20.00    -0.231 N 
HETATM    4  O9  UNL     1     -33.755   4.023   3.333  1.00 20.00    -0.271 OA
ENDROOT
BRANCH   1   5
HETATM    5  C3  UNL     1     -32.430   5.797   2.463  1.00 20.00     0.084 A 
HETATM    6  C2  UNL     1     -32.316   5.462   1.019  1.00 20.00     0.019 A 
HETATM    7  C4  UNL     1     -32.698   6.851   1.446  1.00 20.00    -0.005 A 
HETATM    8  C5  UNL     1     -31.730   7.973   1.295  1.00 20.00     0.011 C 
ENDBRANCH   1   5
BRANCH   3   9
HETATM    9  O10 UNL     1     -34.281   7.558   3.653  1.00 20.00    -0.281 OA
HETATM   10  C7  UNL     1     -33.683   8.060   4.845  1.00 20.00     0.238 C 
ENDBRANCH   3   9
TORSDOF 2
ENDMDL
MODEL 8
REMARK VINA RESULT:       0.5      1.836      2.661
REMARK  2 active torsions:
REMARK  status: ('A' for Active; 'I' for Inactive)
REMARK    1  A    between atoms: C1_1  and  C3_3 
REMARK       I    between atoms: C1_1  and  N8_8 
REMARK    2  A    between atoms: N8_8  and  O10_10 
ROOT
HETATM    1  C1  UNL     1     -32.829   7.773   3.134  1.00 20.00     0.247 C 
HETATM    2  C6  UNL     1     -34.059   8.025   5.283  1.00 20.00     0.189 C 
HETATM    3  N8  UNL     1     -33.913   7.508   3.934  1.00 20.00    -0.231 N 
HETATM    4  O9  UNL     1     -31.875   8.474   3.478  1.00 20.00    -0.271 OA
ENDROOT
BRANCH   1   5
HETATM    5  C3  UNL     1     -32.859   7.160   1.755  1.00 20.00     0.084 A 
HETATM    6  C2  UNL     1     -31.630   7.257   0.924  1.00 20.00     0.019 A 
HETATM    7  C4  UNL     1     -32.040   5.940   1.520  1.00 20.00    -0.005 A 
HETATM    8  C5  UNL     1     -32.582   4.861   0.650  1.00 20.00     0.011 C 
ENDBRANCH   1   5
BRANCH   3   9
HETATM    9  O10 UNL     1     -34.998   6.707   3.533  1.00 20.00    -0.281 OA
HETATM   10  C7  UNL     1     -34.958   5.478   4.253  1.00 20.00     0.238 C 
ENDBRANCH   3   9
TORSDOF 2
ENDMDL
MODEL 9
REMARK VINA RESULT:       0.5      1.838      3.703
REMARK  2 active torsions:
REMARK  status: ('A' for Active; 'I' for Inactive)
REMARK    1  A    between atoms: C1_1  and  C3_3 
REMARK       I    between atoms: C1_1  and  N8_8 
REMARK    2  A    between atoms: N8_8  and  O10_10 
ROOT
HETATM    1  C1  UNL     1     -33.465   5.559   2.625  1.00 20.00     0.247 C 
HETATM    2  C6  UNL     1     -31.804   4.889   0.896  1.00 20.00     0.189 C 
HETATM    3  N8  UNL     1     -32.641   5.866   1.570  1.00 20.00    -0.231 N 
HETATM    4  O9  UNL     1     -33.577   4.429   3.104  1.00 20.00    -0.271 OA
ENDROOT
BRANCH   1   5
HETATM    5  C3  UNL     1     -34.271   6.703   3.187  1.00 20.00     0.084 A 
HETATM    6  C2  UNL     1     -35.292   6.392   4.223  1.00 20.00     0.019 A 
HETATM    7  C4  UNL     1     -34.021   7.099   4.600  1.00 20.00    -0.005 A 
HETATM    8  C5  UNL     1     -34.048   8.543   4.962  1.00 20.00     0.011 C 
ENDBRANCH   1   5
BRANCH   3   9
HETATM    9  O10 UNL     1     -32.518   7.159   1.029  1.00 20.00    -0.281 OA
HETATM   10  C7  UNL     1     -31.589   7.903   1.811  1.00 20.00     0.238 C 
ENDBRANCH   3   9
TORSDOF 2
ENDMDL
