MODEL 1
REMARK VINA RESULT:       2.3      0.000      0.000
REMARK  1 active torsions:
REMARK  status: ('A' for Active; 'I' for Inactive)
REMARK    1  A    between atoms: C3_3  and  C8_8 
ROOT
HETATM    1  C1  UNL     1     -32.400   8.251   3.056  1.00 20.00    -0.028 C 
HETATM    2  C2  UNL     1     -31.814   7.758   1.953  1.00 20.00    -0.016 C 
HETATM    3  C4  UNL     1     -33.695   7.737   3.629  1.00 20.00     0.042 C 
HETATM    4  C5  UNL     1     -31.728   5.291   1.476  1.00 20.00     0.020 C 
HETATM    5  C6  UNL     1     -32.546   4.424   2.444  1.00 20.00     0.016 C 
HETATM    6  C7  UNL     1     -32.358   6.641   1.092  1.00 20.00     0.070 C 
HETATM    7  C8  UNL     1     -33.270   5.217   3.541  1.00 20.00     0.086 C 
HETATM    8  C9  UNL     1     -34.172   6.385   3.056  1.00 20.00     0.063 C 
HETATM    9  S11 UNL     1     -34.172   6.549   1.236  1.00 20.00    -0.154 SA
ENDROOT
BRANCH   7  10
HETATM   10  C3  UNL     1     -34.110   4.250   4.324  1.00 20.00     0.224 C 
HETATM   11  O10 UNL     1     -35.286   4.483   4.588  1.00 20.00    -0.279 OA
HETATM   12 CL12 UNL     1     -33.220   2.828   4.776  1.00 20.00    -0.043 Cl
ENDBRANCH   7  10
TORSDOF 1
ENDMDL
MODEL 2
REMARK VINA RESULT:       3.1      1.102      1.102
REMARK  1 active torsions:
REMARK  status: ('A' for Active; 'I' for Inactive)
REMARK    1  A    between atoms: C3_3  and  C8_8 
ROOT
HETATM    1  C1  UNL     1     -32.343   8.260   3.163  1.00 20.00    -0.028 C 
HETATM    2  C2  UNL     1     -31.767   7.815   2.036  1.00 20.00    -0.016 C 
HETATM    3  C4  UNL     1     -33.642   7.734   3.716  1.00 20.00     0.042 C 
HETATM    4  C5  UNL     1     -31.711   5.374   1.439  1.00 20.00     0.020 C 
HETATM    5  C6  UNL     1     -32.535   4.470   2.366  1.00 20.00     0.016 C 
HETATM    6  C7  UNL     1     -32.327   6.747   1.124  1.00 20.00     0.070 C 
HETATM    7  C8  UNL     1     -33.246   5.216   3.504  1.00 20.00     0.086 C 
HETATM    8  C9  UNL     1     -34.137   6.417   3.080  1.00 20.00     0.063 C 
HETATM    9  S11 UNL     1     -34.142   6.670   1.271  1.00 20.00    -0.154 SA
ENDROOT
BRANCH   7  10
HETATM   10  C3  UNL     1     -34.095   4.221   4.242  1.00 20.00     0.224 C 
HETATM   11  O10 UNL     1     -33.721   3.067   4.430  1.00 20.00    -0.279 OA
HETATM   12 CL12 UNL     1     -35.604   4.908   4.763  1.00 20.00    -0.043 Cl
ENDBRANCH   7  10
TORSDOF 1
ENDMDL
MODEL 3
REMARK VINA RESULT:       3.8      3.056      4.453
REMARK  1 active torsions:
REMARK  status: ('A' for Active; 'I' for Inactive)
REMARK    1  A    between atoms: C3_3  and  C8_8 
ROOT
HETATM    1  C1  UNL     1     -33.747   4.345   3.645  1.00 20.00    -0.028 C 
HETATM    2  C2  UNL     1     -34.515   5.049   4.492  1.00 20.00    -0.016 C 
HETATM    3  C4  UNL     1     -33.376   4.803   2.259  1.00 20.00     0.042 C 
HETATM    4  C5  UNL     1     -34.294   7.540   4.740  1.00 20.00     0.020 C 
HETATM    5  C6  UNL     1     -33.349   8.202   3.726  1.00 20.00     0.016 C 
HETATM    6  C7  UNL     1     -35.154   6.387   4.197  1.00 20.00     0.070 C 
HETATM    7  C8  UNL     1     -32.697   7.222   2.741  1.00 20.00     0.086 C 
HETATM    8  C9  UNL     1     -33.668   6.290   1.962  1.00 20.00     0.063 C 
HETATM    9  S11 UNL     1     -35.415   6.587   2.405  1.00 20.00    -0.154 SA
ENDROOT
BRANCH   7  10
HETATM   10  C3  UNL     1     -31.905   8.028   1.752  1.00 20.00     0.224 C 
HETATM   11  O10 UNL     1     -30.791   7.675   1.377  1.00 20.00    -0.279 OA
HETATM   12 CL12 UNL     1     -32.752   9.458   1.246  1.00 20.00    -0.043 Cl
ENDBRANCH   7  10
TORSDOF 1
ENDMDL
MODEL 4
REMARK VINA RESULT:       4.2      1.546      2.527
REMARK  1 active torsions:
REMARK  status: ('A' for Active; 'I' for Inactive)
REMARK    1  A    between atoms: C3_3  and  C8_8 
ROOT
HETATM    1  C1  UNL     1     -33.134   7.886   0.108  1.00 20.00    -0.028 C 
HETATM    2  C2  UNL     1     -32.208   8.578   0.791  1.00 20.00    -0.016 C 
HETATM    3  C4  UNL     1     -33.586   6.494   0.466  1.00 20.00     0.042 C 
HETATM    4  C5  UNL     1     -32.111   8.559   3.302  1.00 20.00     0.020 C 
HETATM    5  C6  UNL     1     -33.068   7.562   3.972  1.00 20.00     0.016 C 
HETATM    6  C7  UNL     1     -31.450   8.078   1.999  1.00 20.00     0.070 C 
HETATM    7  C8  UNL     1     -33.925   6.755   2.987  1.00 20.00     0.086 C 
HETATM    8  C9  UNL     1     -33.153   6.006   1.866  1.00 20.00     0.063 C 
HETATM    9  S11 UNL     1     -31.348   6.259   1.982  1.00 20.00    -0.154 SA
ENDROOT
BRANCH   7  10
HETATM   10  C3  UNL     1     -34.713   5.754   3.783  1.00 20.00     0.224 C 
HETATM   11  O10 UNL     1     -35.796   6.037   4.285  1.00 20.00    -0.279 OA
HETATM   12 CL12 UNL     1     -33.907   4.217   3.882  1.00 20.00    -0.043 Cl
ENDBRANCH   7  10
TORSDOF 1
ENDMDL
MODEL 5
REMARK VINA RESULT:       4.5      3.766      4.675
REMARK  1 active torsions:
REMARK  status: ('A' for Active; 'I' for Inactive)
REMARK    1  A    between atoms: C3_3  and  C8_8 
ROOT
HETATM    1  C1  UNL     1     -33.954   7.220   3.872  1.00 20.00    -0.028 C 
HETATM    2  C2  UNL     1     -34.262   6.128   3.156  1.00 20.00    -0.016 C 
HETATM    3  C4  UNL     1     -32.731   8.069   3.639  1.00 20.00     0.042 C 
HETATM    4  C5  UNL     1     -33.952   6.034   0.663  1.00 20.00     0.020 C 
HETATM    5  C6  UNL     1     -33.222   7.244   0.064  1.00 20.00     0.016 C 
HETATM    6  C7  UNL     1     -33.436   5.552   2.029  1.00 20.00     0.070 C 
HETATM    7  C8  UNL     1     -32.815   8.307   1.094  1.00 20.00     0.086 C 
HETATM    8  C9  UNL     1     -31.992   7.798   2.310  1.00 20.00     0.063 C 
HETATM    9  S11 UNL     1     -31.681   6.000   2.231  1.00 20.00    -0.154 SA
ENDROOT
BRANCH   7  10
HETATM   10  C3  UNL     1     -32.017   9.357   0.375  1.00 20.00     0.224 C 
HETATM   11  O10 UNL     1     -30.988   9.081  -0.235  1.00 20.00    -0.279 OA
HETATM   12 CL12 UNL     1     -32.727  10.936   0.526  1.00 20.00    -0.043 Cl
ENDBRANCH   7  10
TORSDOF 1
ENDMDL
MODEL 6
REMARK VINA RESULT:       4.9      3.256      4.133
REMARK  1 active torsions:
REMARK  status: ('A' for Active; 'I' for Inactive)
REMARK    1  A    between atoms: C3_3  and  C8_8 
ROOT
HETATM    1  C1  UNL     1     -35.546   6.769   3.920  1.00 20.00    -0.028 C 
HETATM    2  C2  UNL     1     -35.323   5.469   3.667  1.00 20.00    -0.016 C 
HETATM    3  C4  UNL     1     -34.459   7.800   4.076  1.00 20.00     0.042 C 
HETATM    4  C5  UNL     1     -33.559   4.708   2.047  1.00 20.00     0.020 C 
HETATM    5  C6  UNL     1     -32.651   5.827   1.518  1.00 20.00     0.016 C 
HETATM    6  C7  UNL     1     -33.966   4.820   3.526  1.00 20.00     0.070 C 
HETATM    7  C8  UNL     1     -32.985   7.221   2.067  1.00 20.00     0.086 C 
HETATM    8  C9  UNL     1     -33.056   7.345   3.615  1.00 20.00     0.063 C 
HETATM    9  S11 UNL     1     -32.709   5.760   4.453  1.00 20.00    -0.154 SA
ENDROOT
BRANCH   7  10
HETATM   10  C3  UNL     1     -31.945   8.175   1.553  1.00 20.00     0.224 C 
HETATM   11  O10 UNL     1     -30.750   8.014   1.784  1.00 20.00    -0.279 OA
HETATM   12 CL12 UNL     1     -32.646   9.472   0.633  1.00 20.00    -0.043 Cl
ENDBRANCH   7  10
TORSDOF 1
ENDMDL
MODEL 7
REMARK VINA RESULT:       5.3      2.658      3.643
REMARK  1 active torsions:
REMARK  status: ('A' for Active; 'I' for Inactive)
REMARK    1  A    between atoms: C3_3  and  C8_8 
ROOT
HETATM    1  C1  UNL     1     -32.690   9.607   0.671  1.00 20.00    -0.028 C 
HETATM    2  C2  UNL     1     -33.206   9.718   1.904  1.00 20.00    -0.016 C 
HETATM    3  C4  UNL     1     -31.673   8.572   0.267  1.00 20.00     0.042 C 
HETATM    4  C5  UNL     1     -33.847   7.707   3.269  1.00 20.00     0.020 C 
HETATM    5  C6  UNL     1     -33.436   6.361   2.656  1.00 20.00     0.016 C 
HETATM    6  C7  UNL     1     -32.841   8.857   3.092  1.00 20.00     0.070 C 
HETATM    7  C8  UNL     1     -32.710   6.478   1.308  1.00 20.00     0.086 C 
HETATM    8  C9  UNL     1     -31.475   7.422   1.279  1.00 20.00     0.063 C 
HETATM    9  S11 UNL     1     -31.155   8.192   2.904  1.00 20.00    -0.154 SA
ENDROOT
BRANCH   7  10
HETATM   10  C3  UNL     1     -32.275   5.100   0.902  1.00 20.00     0.224 C 
HETATM   11  O10 UNL     1     -31.196   4.633   1.255  1.00 20.00    -0.279 OA
HETATM   12 CL12 UNL     1     -33.461   4.305  -0.088  1.00 20.00    -0.043 Cl
ENDBRANCH   7  10
TORSDOF 1
ENDMDL
