MODEL 1
REMARK VINA RESULT:      -1.7      0.000      0.000
REMARK  2 active torsions:
REMARK  status: ('A' for Active; 'I' for Inactive)
REMARK    1  A    between atoms: C4_4  and  C5_5 
REMARK    2  A    between atoms: C6_6  and  C10_10 
ROOT
HETATM    1  C1  UNL     1     -34.630   7.050   4.210  1.00 20.00    -0.003 C 
HETATM    2  C2  UNL     1     -33.711   7.811   3.404  1.00 20.00     0.010 C 
HETATM    3  C3  UNL     1     -34.786   5.733   4.040  1.00 20.00    -0.021 C 
HETATM    4  C4  UNL     1     -32.884   7.210   2.538  1.00 20.00    -0.016 C 
HETATM    5  C6  UNL     1     -34.037   4.946   2.994  1.00 20.00     0.016 C 
HETATM    6  C7  UNL     1     -32.849   5.714   2.315  1.00 20.00     0.025 C 
HETATM    7  C8  UNL     1     -32.816   5.350   0.821  1.00 20.00     0.016 C 
ENDROOT
BRANCH   4   8
HETATM    8  C5  UNL     1     -31.926   8.088   1.855  1.00 20.00     0.266 C 
HETATM    9  O11 UNL     1     -32.273   8.940   1.045  1.00 20.00    -0.302 OA
ENDBRANCH   4   8
BRANCH   5  10
HETATM   10  C10 UNL     1     -33.539   3.623   3.592  1.00 20.00     0.005 C 
HETATM   11  C9  UNL     1     -33.634   3.627   5.081  1.00 20.00     0.006 C 
ENDBRANCH   5  10
TORSDOF 2
ENDMDL
MODEL 2
REMARK VINA RESULT:      -1.6      2.352      4.119
REMARK  2 active torsions:
REMARK  status: ('A' for Active; 'I' for Inactive)
REMARK    1  A    between atoms: C4_4  and  C5_5 
REMARK    2  A    between atoms: C6_6  and  C10_10 
ROOT
HETATM    1  C1  UNL     1     -32.630   8.581   4.435  1.00 20.00    -0.003 C 
HETATM    2  C2  UNL     1     -33.733   7.662   4.550  1.00 20.00     0.010 C 
HETATM    3  C3  UNL     1     -31.851   8.608   3.348  1.00 20.00    -0.021 C 
HETATM    4  C4  UNL     1     -34.102   6.887   3.521  1.00 20.00    -0.016 C 
HETATM    5  C6  UNL     1     -32.049   7.683   2.173  1.00 20.00     0.016 C 
HETATM    6  C7  UNL     1     -33.401   6.887   2.180  1.00 20.00     0.025 C 
HETATM    7  C8  UNL     1     -33.139   5.464   1.661  1.00 20.00     0.016 C 
ENDROOT
BRANCH   4   8
HETATM    8  C5  UNL     1     -35.305   6.073   3.734  1.00 20.00     0.266 C 
HETATM    9  O11 UNL     1     -35.308   5.073   4.442  1.00 20.00    -0.302 OA
ENDBRANCH   4   8
BRANCH   5  10
HETATM   10  C10 UNL     1     -31.902   8.466   0.861  1.00 20.00     0.005 C 
HETATM   11  C9  UNL     1     -32.620   9.772   0.921  1.00 20.00     0.006 C 
ENDBRANCH   5  10
TORSDOF 2
ENDMDL
MODEL 3
REMARK VINA RESULT:      -1.2      1.158      2.618
REMARK  2 active torsions:
REMARK  status: ('A' for Active; 'I' for Inactive)
REMARK    1  A    between atoms: C4_4  and  C5_5 
REMARK    2  A    between atoms: C6_6  and  C10_10 
ROOT
HETATM    1  C1  UNL     1     -32.690   5.441   1.367  1.00 20.00    -0.003 C 
HETATM    2  C2  UNL     1     -32.119   6.730   1.078  1.00 20.00     0.010 C 
HETATM    3  C3  UNL     1     -33.425   5.231   2.465  1.00 20.00    -0.021 C 
HETATM    4  C4  UNL     1     -32.405   7.803   1.829  1.00 20.00    -0.016 C 
HETATM    5  C6  UNL     1     -33.700   6.306   3.487  1.00 20.00     0.016 C 
HETATM    6  C7  UNL     1     -33.318   7.760   3.036  1.00 20.00     0.025 C 
HETATM    7  C8  UNL     1     -32.725   8.510   4.239  1.00 20.00     0.016 C 
ENDROOT
BRANCH   4   8
HETATM    8  C5  UNL     1     -31.841   9.076   1.366  1.00 20.00     0.266 C 
HETATM    9  O11 UNL     1     -32.356   9.739   0.473  1.00 20.00    -0.302 OA
ENDBRANCH   4   8
BRANCH   5  10
HETATM   10  C10 UNL     1     -35.173   6.256   3.915  1.00 20.00     0.005 C 
HETATM   11  C9  UNL     1     -35.475   5.016   4.687  1.00 20.00     0.006 C 
ENDBRANCH   5  10
TORSDOF 2
ENDMDL
MODEL 4
REMARK VINA RESULT:      -0.3      2.335      4.573
REMARK  2 active torsions:
REMARK  status: ('A' for Active; 'I' for Inactive)
REMARK    1  A    between atoms: C4_4  and  C5_5 
REMARK    2  A    between atoms: C6_6  and  C10_10 
ROOT
HETATM    1  C1  UNL     1     -32.335   4.929   1.221  1.00 20.00    -0.003 C 
HETATM    2  C2  UNL     1     -32.936   4.226   2.324  1.00 20.00     0.010 C 
HETATM    3  C3  UNL     1     -32.442   6.256   1.093  1.00 20.00    -0.021 C 
HETATM    4  C4  UNL     1     -33.517   4.886   3.336  1.00 20.00    -0.016 C 
HETATM    5  C6  UNL     1     -33.204   7.116   2.072  1.00 20.00     0.016 C 
HETATM    6  C7  UNL     1     -33.614   6.395   3.404  1.00 20.00     0.025 C 
HETATM    7  C8  UNL     1     -35.019   6.869   3.809  1.00 20.00     0.016 C 
ENDROOT
BRANCH   4   8
HETATM    8  C5  UNL     1     -33.997   4.057   4.447  1.00 20.00     0.266 C 
HETATM    9  O11 UNL     1     -33.418   3.039   4.809  1.00 20.00    -0.302 OA
ENDBRANCH   4   8
BRANCH   5  10
HETATM   10  C10 UNL     1     -32.403   8.387   2.383  1.00 20.00     0.005 C 
HETATM   11  C9  UNL     1     -32.008   9.103   1.136  1.00 20.00     0.006 C 
ENDBRANCH   5  10
TORSDOF 2
ENDMDL
MODEL 5
REMARK VINA RESULT:      -0.1      2.360      4.233
REMARK  2 active torsions:
REMARK  status: ('A' for Active; 'I' for Inactive)
REMARK    1  A    between atoms: C4_4  and  C5_5 
REMARK    2  A    between atoms: C6_6  and  C10_10 
ROOT
HETATM    1  C1  UNL     1     -32.485   5.849   1.668  1.00 20.00    -0.003 C 
HETATM    2  C2  UNL     1     -32.721   4.622   2.382  1.00 20.00     0.010 C 
HETATM    3  C3  UNL     1     -33.130   6.978   1.983  1.00 20.00    -0.021 C 
HETATM    4  C4  UNL     1     -33.501   4.589   3.472  1.00 20.00    -0.016 C 
HETATM    5  C6  UNL     1     -34.157   7.056   3.086  1.00 20.00     0.016 C 
HETATM    6  C7  UNL     1     -34.207   5.806   4.031  1.00 20.00     0.025 C 
HETATM    7  C8  UNL     1     -35.674   5.514   4.386  1.00 20.00     0.016 C 
ENDROOT
BRANCH   4   8
HETATM    8  C5  UNL     1     -33.575   3.299   4.166  1.00 20.00     0.266 C 
HETATM    9  O11 UNL     1     -32.829   3.005   5.093  1.00 20.00    -0.302 OA
ENDBRANCH   4   8
BRANCH   5  10
HETATM   10  C10 UNL     1     -33.943   8.334   3.908  1.00 20.00     0.005 C 
HETATM   11  C9  UNL     1     -33.054   8.087   5.080  1.00 20.00     0.006 C 
ENDBRANCH   5  10
TORSDOF 2
ENDMDL
MODEL 6
REMARK VINA RESULT:       0.0      2.081      3.600
REMARK  2 active torsions:
REMARK  status: ('A' for Active; 'I' for Inactive)
REMARK    1  A    between atoms: C4_4  and  C5_5 
REMARK    2  A    between atoms: C6_6  and  C10_10 
ROOT
HETATM    1  C1  UNL     1     -32.740   8.081   2.486  1.00 20.00    -0.003 C 
HETATM    2  C2  UNL     1     -33.800   7.706   3.386  1.00 20.00     0.010 C 
HETATM    3  C3  UNL     1     -32.032   7.164   1.818  1.00 20.00    -0.021 C 
HETATM    4  C4  UNL     1     -34.204   6.433   3.493  1.00 20.00    -0.016 C 
HETATM    5  C6  UNL     1     -32.269   5.681   1.958  1.00 20.00     0.016 C 
HETATM    6  C7  UNL     1     -33.589   5.291   2.713  1.00 20.00     0.025 C 
HETATM    7  C8  UNL     1     -33.307   4.067   3.599  1.00 20.00     0.016 C 
ENDROOT
BRANCH   4   8
HETATM    8  C5  UNL     1     -35.361   6.201   4.365  1.00 20.00     0.266 C 
HETATM    9  O11 UNL     1     -35.734   5.078   4.682  1.00 20.00    -0.302 OA
ENDBRANCH   4   8
BRANCH   5  10
HETATM   10  C10 UNL     1     -32.232   5.013   0.577  1.00 20.00     0.005 C 
HETATM   11  C9  UNL     1     -33.601   4.878  -0.001  1.00 20.00     0.006 C 
ENDBRANCH   5  10
TORSDOF 2
ENDMDL
