MODEL 1
REMARK VINA RESULT:       2.7      0.000      0.000
REMARK  1 active torsions:
REMARK  status: ('A' for Active; 'I' for Inactive)
REMARK    1  A    between atoms: C3_3  and  C8_8 
ROOT
HETATM    1  C1  UNL     1     -33.075   7.981   4.284  1.00 20.00    -0.029 C 
HETATM    2  C2  UNL     1     -34.155   7.241   4.012  1.00 20.00    -0.030 C 
HETATM    3  C4  UNL     1     -32.129   8.528   3.264  1.00 20.00     0.045 C 
HETATM    4  C5  UNL     1     -34.557   6.823   2.636  1.00 20.00     0.037 C 
HETATM    5  C6  UNL     1     -31.187   6.646   1.761  1.00 20.00     0.019 C 
HETATM    6  C7  UNL     1     -32.300   5.644   2.089  1.00 20.00     0.012 C 
HETATM    7  C8  UNL     1     -32.216   7.825   1.892  1.00 20.00     0.031 C 
HETATM    8  C9  UNL     1     -33.352   6.726   1.695  1.00 20.00    -0.026 C 
HETATM    9  C11 UNL     1     -33.835   6.518   0.251  1.00 20.00     0.016 C 
ENDROOT
BRANCH   7  10
HETATM   10  C3  UNL     1     -32.103   8.894   0.754  1.00 20.00     0.132 C 
HETATM   11  C10 UNL     1     -32.944  10.133   0.903  1.00 20.00     0.091 C 
HETATM   12  O12 UNL     1     -31.361   8.731  -0.214  1.00 20.00    -0.298 OA
ENDBRANCH   7  10
TORSDOF 1
ENDMDL
MODEL 2
REMARK VINA RESULT:       4.9      1.475      3.308
REMARK  1 active torsions:
REMARK  status: ('A' for Active; 'I' for Inactive)
REMARK    1  A    between atoms: C3_3  and  C8_8 
ROOT
HETATM    1  C1  UNL     1     -32.149   9.744   0.130  1.00 20.00    -0.029 C 
HETATM    2  C2  UNL     1     -33.058  10.270   0.958  1.00 20.00    -0.030 C 
HETATM    3  C4  UNL     1     -31.676   8.327   0.162  1.00 20.00     0.045 C 
HETATM    4  C5  UNL     1     -33.715   9.514   2.066  1.00 20.00     0.037 C 
HETATM    5  C6  UNL     1     -30.773   7.696   2.502  1.00 20.00     0.019 C 
HETATM    6  C7  UNL     1     -31.486   8.840   3.232  1.00 20.00     0.012 C 
HETATM    7  C8  UNL     1     -31.971   7.600   1.492  1.00 20.00     0.031 C 
HETATM    8  C9  UNL     1     -32.829   8.378   2.585  1.00 20.00    -0.026 C 
HETATM    9  C11 UNL     1     -33.629   7.497   3.557  1.00 20.00     0.016 C 
ENDROOT
BRANCH   7  10
HETATM   10  C3  UNL     1     -32.429   6.134   1.190  1.00 20.00     0.132 C 
HETATM   11  C10 UNL     1     -33.686   5.970   0.378  1.00 20.00     0.091 C 
HETATM   12  O12 UNL     1     -31.793   5.162   1.595  1.00 20.00    -0.298 OA
ENDBRANCH   7  10
TORSDOF 1
ENDMDL
MODEL 3
REMARK VINA RESULT:       5.0      1.410      3.277
REMARK  1 active torsions:
REMARK  status: ('A' for Active; 'I' for Inactive)
REMARK    1  A    between atoms: C3_3  and  C8_8 
ROOT
HETATM    1  C1  UNL     1     -34.550   7.287   4.027  1.00 20.00    -0.029 C 
HETATM    2  C2  UNL     1     -33.666   8.212   4.417  1.00 20.00    -0.030 C 
HETATM    3  C4  UNL     1     -34.291   6.229   3.003  1.00 20.00     0.045 C 
HETATM    4  C5  UNL     1     -32.289   8.343   3.854  1.00 20.00     0.037 C 
HETATM    5  C6  UNL     1     -33.504   7.267   0.769  1.00 20.00     0.019 C 
HETATM    6  C7  UNL     1     -33.077   8.604   1.385  1.00 20.00     0.012 C 
HETATM    7  C8  UNL     1     -33.082   6.529   2.089  1.00 20.00     0.031 C 
HETATM    8  C9  UNL     1     -32.209   7.820   2.417  1.00 20.00    -0.026 C 
HETATM    9  C11 UNL     1     -30.741   7.764   1.964  1.00 20.00     0.016 C 
ENDROOT
BRANCH   7  10
HETATM   10  C3  UNL     1     -32.276   5.209   1.847  1.00 20.00     0.132 C 
HETATM   11  C10 UNL     1     -32.377   4.149   2.911  1.00 20.00     0.091 C 
HETATM   12  O12 UNL     1     -31.595   5.044   0.836  1.00 20.00    -0.298 OA
ENDBRANCH   7  10
TORSDOF 1
ENDMDL
MODEL 4
REMARK VINA RESULT:       5.1      2.216      3.778
REMARK  1 active torsions:
REMARK  status: ('A' for Active; 'I' for Inactive)
REMARK    1  A    between atoms: C3_3  and  C8_8 
ROOT
HETATM    1  C1  UNL     1     -32.843   8.499   2.952  1.00 20.00    -0.029 C 
HETATM    2  C2  UNL     1     -31.733   8.251   2.248  1.00 20.00    -0.030 C 
HETATM    3  C4  UNL     1     -33.832   7.466   3.389  1.00 20.00     0.045 C 
HETATM    4  C5  UNL     1     -31.336   6.895   1.764  1.00 20.00     0.037 C 
HETATM    5  C6  UNL     1     -34.708   6.101   1.375  1.00 20.00     0.019 C 
HETATM    6  C7  UNL     1     -33.543   6.468   0.449  1.00 20.00     0.012 C 
HETATM    7  C8  UNL     1     -33.735   6.138   2.607  1.00 20.00     0.031 C 
HETATM    8  C9  UNL     1     -32.551   5.986   1.552  1.00 20.00    -0.026 C 
HETATM    9  C11 UNL     1     -32.083   4.548   1.277  1.00 20.00     0.016 C 
ENDROOT
BRANCH   7  10
HETATM   10  C3  UNL     1     -33.919   4.939   3.596  1.00 20.00     0.132 C 
HETATM   11  C10 UNL     1     -35.120   4.987   4.501  1.00 20.00     0.091 C 
HETATM   12  O12 UNL     1     -33.123   4.002   3.630  1.00 20.00    -0.298 OA
ENDBRANCH   7  10
TORSDOF 1
ENDMDL
MODEL 5
REMARK VINA RESULT:       5.2      2.098      3.598
REMARK  1 active torsions:
REMARK  status: ('A' for Active; 'I' for Inactive)
REMARK    1  A    between atoms: C3_3  and  C8_8 
ROOT
HETATM    1  C1  UNL     1     -32.003   8.458   1.324  1.00 20.00    -0.029 C 
HETATM    2  C2  UNL     1     -31.100   7.473   1.275  1.00 20.00    -0.030 C 
HETATM    3  C4  UNL     1     -33.312   8.389   2.043  1.00 20.00     0.045 C 
HETATM    4  C5  UNL     1     -31.288   6.135   1.912  1.00 20.00     0.037 C 
HETATM    5  C6  UNL     1     -34.704   6.357   1.255  1.00 20.00     0.019 C 
HETATM    6  C7  UNL     1     -33.510   5.599   0.664  1.00 20.00     0.012 C 
HETATM    7  C8  UNL     1     -33.770   6.950   2.369  1.00 20.00     0.031 C 
HETATM    8  C9  UNL     1     -32.768   5.760   2.026  1.00 20.00    -0.026 C 
HETATM    9  C11 UNL     1     -32.919   4.493   2.884  1.00 20.00     0.016 C 
ENDROOT
BRANCH   7  10
HETATM   10  C3  UNL     1     -34.395   6.917   3.803  1.00 20.00     0.132 C 
HETATM   11  C10 UNL     1     -33.746   7.788   4.845  1.00 20.00     0.091 C 
HETATM   12  O12 UNL     1     -35.371   6.216   4.067  1.00 20.00    -0.298 OA
ENDBRANCH   7  10
TORSDOF 1
ENDMDL
MODEL 6
REMARK VINA RESULT:       5.6      1.685      3.276
REMARK  1 active torsions:
REMARK  status: ('A' for Active; 'I' for Inactive)
REMARK    1  A    between atoms: C3_3  and  C8_8 
ROOT
HETATM    1  C1  UNL     1     -33.413   4.332   2.428  1.00 20.00    -0.029 C 
HETATM    2  C2  UNL     1     -33.653   4.178   3.735  1.00 20.00    -0.030 C 
HETATM    3  C4  UNL     1     -33.079   5.629   1.763  1.00 20.00     0.045 C 
HETATM    4  C5  UNL     1     -33.654   5.298   4.722  1.00 20.00     0.037 C 
HETATM    5  C6  UNL     1     -34.886   7.415   2.243  1.00 20.00     0.019 C 
HETATM    6  C7  UNL     1     -35.458   6.700   3.472  1.00 20.00     0.012 C 
HETATM    7  C8  UNL     1     -33.456   6.873   2.597  1.00 20.00     0.031 C 
HETATM    8  C9  UNL     1     -34.018   6.634   4.068  1.00 20.00    -0.026 C 
HETATM    9  C11 UNL     1     -33.786   7.781   5.065  1.00 20.00     0.016 C 
ENDROOT
BRANCH   7  10
HETATM   10  C3  UNL     1     -32.323   7.945   2.471  1.00 20.00     0.132 C 
HETATM   11  C10 UNL     1     -31.945   8.369   1.077  1.00 20.00     0.091 C 
HETATM   12  O12 UNL     1     -31.769   8.420   3.461  1.00 20.00    -0.298 OA
ENDBRANCH   7  10
TORSDOF 1
ENDMDL
