MODEL 1
REMARK VINA RESULT:      -0.6      0.000      0.000
REMARK  1 active torsions:
REMARK  status: ('A' for Active; 'I' for Inactive)
REMARK    1  A    between atoms: C2_2  and  C4_4 
ROOT
HETATM    1  C1  UNL     1     -33.691   5.420   2.466  1.00 20.00     0.076 A 
HETATM    2  C2  UNL     1     -34.184   6.269   3.369  1.00 20.00     0.053 A 
HETATM    3  C3  UNL     1     -32.371   7.639   2.146  1.00 20.00     0.255 A 
HETATM    4  O5  UNL     1     -31.604   8.513   1.768  1.00 20.00    -0.272 OA
HETATM    5  S7  UNL     1     -32.425   6.023   1.443  1.00 20.00    -0.051 SA
HETATM    6  S8  UNL     1     -33.538   7.864   3.447  1.00 20.00    -0.037 SA
ENDROOT
BRANCH   2   7
HETATM    7  C4  UNL     1     -35.248   5.883   4.286  1.00 20.00     0.278 C 
HETATM    8  O6  UNL     1     -35.419   4.726   4.662  1.00 20.00    -0.301 OA
ENDBRANCH   2   7
TORSDOF 1
ENDMDL
MODEL 2
REMARK VINA RESULT:      -0.4      1.199      4.208
REMARK  1 active torsions:
REMARK  status: ('A' for Active; 'I' for Inactive)
REMARK    1  A    between atoms: C2_2  and  C4_4 
ROOT
HETATM    1  C1  UNL     1     -33.324   8.159   3.061  1.00 20.00     0.076 A 
HETATM    2  C2  UNL     1     -32.635   7.563   2.086  1.00 20.00     0.053 A 
HETATM    3  C3  UNL     1     -33.785   5.613   3.326  1.00 20.00     0.255 A 
HETATM    4  O5  UNL     1     -34.178   4.517   3.697  1.00 20.00    -0.272 OA
HETATM    5  S7  UNL     1     -34.238   7.125   4.112  1.00 20.00    -0.051 SA
HETATM    6  S8  UNL     1     -32.708   5.847   1.951  1.00 20.00    -0.037 SA
ENDROOT
BRANCH   2   7
HETATM    7  C4  UNL     1     -31.829   8.321   1.139  1.00 20.00     0.278 C 
HETATM    8  O6  UNL     1     -32.247   9.317   0.553  1.00 20.00    -0.301 OA
ENDBRANCH   2   7
TORSDOF 1
ENDMDL
MODEL 3
REMARK VINA RESULT:      -0.3      0.962      1.767
REMARK  1 active torsions:
REMARK  status: ('A' for Active; 'I' for Inactive)
REMARK    1  A    between atoms: C2_2  and  C4_4 
ROOT
HETATM    1  C1  UNL     1     -33.828   7.716   4.135  1.00 20.00     0.076 A 
HETATM    2  C2  UNL     1     -34.213   6.579   3.552  1.00 20.00     0.053 A 
HETATM    3  C3  UNL     1     -32.259   7.407   2.083  1.00 20.00     0.255 A 
HETATM    4  O5  UNL     1     -31.400   7.537   1.224  1.00 20.00    -0.272 OA
HETATM    5  S7  UNL     1     -32.504   8.559   3.396  1.00 20.00    -0.051 SA
HETATM    6  S8  UNL     1     -33.381   6.050   2.140  1.00 20.00    -0.037 SA
ENDROOT
BRANCH   2   7
HETATM    7  C4  UNL     1     -35.312   5.780   4.076  1.00 20.00     0.278 C 
HETATM    8  O6  UNL     1     -35.159   4.647   4.526  1.00 20.00    -0.301 OA
ENDBRANCH   2   7
TORSDOF 1
ENDMDL
MODEL 4
REMARK VINA RESULT:      -0.2      1.171      3.839
REMARK  1 active torsions:
REMARK  status: ('A' for Active; 'I' for Inactive)
REMARK    1  A    between atoms: C2_2  and  C4_4 
ROOT
HETATM    1  C1  UNL     1     -32.629   6.074   1.831  1.00 20.00     0.076 A 
HETATM    2  C2  UNL     1     -32.699   7.353   2.203  1.00 20.00     0.053 A 
HETATM    3  C3  UNL     1     -34.487   6.181   3.648  1.00 20.00     0.255 A 
HETATM    4  O5  UNL     1     -35.378   5.919   4.443  1.00 20.00    -0.272 OA
HETATM    5  S7  UNL     1     -33.716   4.975   2.619  1.00 20.00    -0.051 SA
HETATM    6  S8  UNL     1     -33.838   7.803   3.413  1.00 20.00    -0.037 SA
ENDROOT
BRANCH   2   7
HETATM    7  C4  UNL     1     -31.840   8.373   1.615  1.00 20.00     0.278 C 
HETATM    8  O6  UNL     1     -32.234   9.169   0.767  1.00 20.00    -0.301 OA
ENDBRANCH   2   7
TORSDOF 1
ENDMDL
MODEL 5
REMARK VINA RESULT:      -0.1      1.144      1.987
REMARK  1 active torsions:
REMARK  status: ('A' for Active; 'I' for Inactive)
REMARK    1  A    between atoms: C2_2  and  C4_4 
ROOT
HETATM    1  C1  UNL     1     -34.236   6.663   4.024  1.00 20.00     0.076 A 
HETATM    2  C2  UNL     1     -33.816   5.589   3.353  1.00 20.00     0.053 A 
HETATM    3  C3  UNL     1     -32.679   7.566   2.146  1.00 20.00     0.255 A 
HETATM    4  O5  UNL     1     -32.024   8.271   1.392  1.00 20.00    -0.272 OA
HETATM    5  S7  UNL     1     -33.652   8.201   3.472  1.00 20.00    -0.051 SA
HETATM    6  S8  UNL     1     -32.748   5.809   2.020  1.00 20.00    -0.037 SA
ENDROOT
BRANCH   2   7
HETATM    7  C4  UNL     1     -34.235   4.242   3.719  1.00 20.00     0.278 C 
HETATM    8  O6  UNL     1     -33.569   3.510   4.447  1.00 20.00    -0.301 OA
ENDBRANCH   2   7
TORSDOF 1
ENDMDL
MODEL 6
REMARK VINA RESULT:       0.1      1.470      4.077
REMARK  1 active torsions:
REMARK  status: ('A' for Active; 'I' for Inactive)
REMARK    1  A    between atoms: C2_2  and  C4_4 
ROOT
HETATM    1  C1  UNL     1     -34.174   7.475   3.433  1.00 20.00     0.076 A 
HETATM    2  C2  UNL     1     -33.182   7.091   2.628  1.00 20.00     0.053 A 
HETATM    3  C3  UNL     1     -34.035   4.888   3.667  1.00 20.00     0.255 A 
HETATM    4  O5  UNL     1     -34.209   3.719   3.980  1.00 20.00    -0.272 OA
HETATM    5  S7  UNL     1     -34.993   6.221   4.310  1.00 20.00    -0.051 SA
HETATM    6  S8  UNL     1     -32.801   5.415   2.524  1.00 20.00    -0.037 SA
ENDROOT
BRANCH   2   7
HETATM    7  C4  UNL     1     -32.418   8.048   1.838  1.00 20.00     0.278 C 
HETATM    8  O6  UNL     1     -31.282   7.820   1.430  1.00 20.00    -0.301 OA
ENDBRANCH   2   7
TORSDOF 1
ENDMDL
MODEL 7
REMARK VINA RESULT:       0.1      1.738      2.037
REMARK  1 active torsions:
REMARK  status: ('A' for Active; 'I' for Inactive)
REMARK    1  A    between atoms: C2_2  and  C4_4 
ROOT
HETATM    1  C1  UNL     1     -33.298   7.743   2.998  1.00 20.00     0.076 A 
HETATM    2  C2  UNL     1     -33.972   6.616   3.234  1.00 20.00     0.053 A 
HETATM    3  C3  UNL     1     -32.161   5.920   1.532  1.00 20.00     0.255 A 
HETATM    4  O5  UNL     1     -31.441   5.307   0.757  1.00 20.00    -0.272 OA
HETATM    5  S7  UNL     1     -31.979   7.639   1.876  1.00 20.00    -0.051 SA
HETATM    6  S8  UNL     1     -33.487   5.176   2.423  1.00 20.00    -0.037 SA
ENDROOT
BRANCH   2   7
HETATM    7  C4  UNL     1     -35.099   6.572   4.156  1.00 20.00     0.278 C 
HETATM    8  O6  UNL     1     -35.627   5.523   4.516  1.00 20.00    -0.301 OA
ENDBRANCH   2   7
TORSDOF 1
ENDMDL
MODEL 8
REMARK VINA RESULT:       0.7      2.354      3.479
REMARK  1 active torsions:
REMARK  status: ('A' for Active; 'I' for Inactive)
REMARK    1  A    between atoms: C2_2  and  C4_4 
ROOT
HETATM    1  C1  UNL     1     -32.070   7.172   1.582  1.00 20.00     0.076 A 
HETATM    2  C2  UNL     1     -32.747   6.029   1.699  1.00 20.00     0.053 A 
HETATM    3  C3  UNL     1     -33.581   7.456   3.681  1.00 20.00     0.255 A 
HETATM    4  O5  UNL     1     -34.150   7.876   4.678  1.00 20.00    -0.272 OA
HETATM    5  S7  UNL     1     -32.391   8.391   2.775  1.00 20.00    -0.051 SA
HETATM    6  S8  UNL     1     -33.864   5.857   2.999  1.00 20.00    -0.037 SA
ENDROOT
BRANCH   2   7
HETATM    7  C4  UNL     1     -32.567   4.929   0.761  1.00 20.00     0.278 C 
HETATM    8  O6  UNL     1     -31.461   4.548   0.384  1.00 20.00    -0.301 OA
ENDBRANCH   2   7
TORSDOF 1
ENDMDL
MODEL 9
REMARK VINA RESULT:       1.0      2.343      3.308
REMARK  1 active torsions:
REMARK  status: ('A' for Active; 'I' for Inactive)
REMARK    1  A    between atoms: C2_2  and  C4_4 
ROOT
HETATM    1  C1  UNL     1     -34.076   5.496   2.704  1.00 20.00     0.076 A 
HETATM    2  C2  UNL     1     -33.075   6.198   2.169  1.00 20.00     0.053 A 
HETATM    3  C3  UNL     1     -33.869   7.647   4.151  1.00 20.00     0.255 A 
HETATM    4  O5  UNL     1     -34.015   8.526   4.988  1.00 20.00    -0.272 OA
HETATM    5  S7  UNL     1     -34.858   6.190   4.088  1.00 20.00    -0.051 SA
HETATM    6  S8  UNL     1     -32.646   7.705   2.883  1.00 20.00    -0.037 SA
ENDROOT
BRANCH   2   7
HETATM    7  C4  UNL     1     -32.339   5.723   1.005  1.00 20.00     0.278 C 
HETATM    8  O6  UNL     1     -31.419   4.913   1.081  1.00 20.00    -0.301 OA
ENDBRANCH   2   7
TORSDOF 1
ENDMDL
