MODEL 1
REMARK VINA RESULT:       1.1      0.000      0.000
REMARK  2 active torsions:
REMARK  status: ('A' for Active; 'I' for Inactive)
REMARK    1  A    between atoms: C3_3  and  C8_8 
REMARK    2  A    between atoms: C8_8  and  C10_10 
ROOT
HETATM    1  C1  UNL     1     -35.339   5.989   4.069  1.00 20.00    -0.026 C 
HETATM    2  C2  UNL     1     -34.188   5.299   4.049  1.00 20.00    -0.024 C 
HETATM    3  C4  UNL     1     -33.655   7.464   4.608  1.00 20.00     0.018 C 
HETATM    4  C5  UNL     1     -34.531   7.638   2.397  1.00 20.00     0.025 C 
HETATM    5  C6  UNL     1     -34.991   7.444   3.864  1.00 20.00     0.010 C 
HETATM    6  C7  UNL     1     -33.075   6.293   3.796  1.00 20.00     0.024 C 
HETATM    7  C8  UNL     1     -33.194   6.829   2.335  1.00 20.00     0.020 C 
ENDROOT
BRANCH   7   8
HETATM    8  C3  UNL     1     -32.020   7.735   2.055  1.00 20.00     0.241 C 
HETATM    9  O11 UNL     1     -32.079   8.706   1.310  1.00 20.00    -0.306 OA
ENDBRANCH   7   8
BRANCH   7  10
HETATM   10  C10 UNL     1     -33.204   5.745   1.257  1.00 20.00     0.013 C 
HETATM   11  C9  UNL     1     -31.852   5.140   1.075  1.00 20.00     0.006 C 
ENDBRANCH   7  10
TORSDOF 2
ENDMDL
MODEL 2
REMARK VINA RESULT:       1.9      1.527      3.412
REMARK  2 active torsions:
REMARK  status: ('A' for Active; 'I' for Inactive)
REMARK    1  A    between atoms: C3_3  and  C8_8 
REMARK    2  A    between atoms: C8_8  and  C10_10 
ROOT
HETATM    1  C1  UNL     1     -33.184   5.397   0.708  1.00 20.00    -0.026 C 
HETATM    2  C2  UNL     1     -33.818   6.579   0.731  1.00 20.00    -0.024 C 
HETATM    3  C4  UNL     1     -31.757   6.912   1.694  1.00 20.00     0.018 C 
HETATM    4  C5  UNL     1     -32.843   5.383   3.168  1.00 20.00     0.025 C 
HETATM    5  C6  UNL     1     -32.132   5.432   1.791  1.00 20.00     0.010 C 
HETATM    6  C7  UNL     1     -33.211   7.390   1.855  1.00 20.00     0.024 C 
HETATM    7  C8  UNL     1     -33.608   6.746   3.220  1.00 20.00     0.020 C 
ENDROOT
BRANCH   7   8
HETATM    8  C3  UNL     1     -33.092   7.620   4.337  1.00 20.00     0.241 C 
HETATM    9  O11 UNL     1     -33.811   8.347   5.013  1.00 20.00    -0.306 OA
ENDBRANCH   7   8
BRANCH   7  10
HETATM   10  C10 UNL     1     -35.113   6.575   3.430  1.00 20.00     0.013 C 
HETATM   11  C9  UNL     1     -35.414   5.421   4.328  1.00 20.00     0.006 C 
ENDBRANCH   7  10
TORSDOF 2
ENDMDL
MODEL 3
REMARK VINA RESULT:       1.9      1.836      3.456
REMARK  2 active torsions:
REMARK  status: ('A' for Active; 'I' for Inactive)
REMARK    1  A    between atoms: C3_3  and  C8_8 
REMARK    2  A    between atoms: C8_8  and  C10_10 
ROOT
HETATM    1  C1  UNL     1     -31.426   6.980   1.682  1.00 20.00    -0.026 C 
HETATM    2  C2  UNL     1     -31.918   5.779   1.340  1.00 20.00    -0.024 C 
HETATM    3  C4  UNL     1     -33.680   7.256   1.301  1.00 20.00     0.018 C 
HETATM    4  C5  UNL     1     -33.001   7.228   3.586  1.00 20.00     0.025 C 
HETATM    5  C6  UNL     1     -32.578   7.802   2.210  1.00 20.00     0.010 C 
HETATM    6  C7  UNL     1     -33.395   5.790   1.672  1.00 20.00     0.024 C 
HETATM    7  C8  UNL     1     -33.567   5.816   3.223  1.00 20.00     0.020 C 
ENDROOT
BRANCH   7   8
HETATM    8  C3  UNL     1     -35.037   5.717   3.549  1.00 20.00     0.241 C 
HETATM    9  O11 UNL     1     -35.645   6.564   4.194  1.00 20.00    -0.306 OA
ENDBRANCH   7   8
BRANCH   7  10
HETATM   10  C10 UNL     1     -32.856   4.683   3.963  1.00 20.00     0.013 C 
HETATM   11  C9  UNL     1     -33.795   3.572   4.299  1.00 20.00     0.006 C 
ENDBRANCH   7  10
TORSDOF 2
ENDMDL
MODEL 4
REMARK VINA RESULT:       1.9      1.979      3.778
REMARK  2 active torsions:
REMARK  status: ('A' for Active; 'I' for Inactive)
REMARK    1  A    between atoms: C3_3  and  C8_8 
REMARK    2  A    between atoms: C8_8  and  C10_10 
ROOT
HETATM    1  C1  UNL     1     -32.488   7.806   0.958  1.00 20.00    -0.026 C 
HETATM    2  C2  UNL     1     -32.087   7.912   2.234  1.00 20.00    -0.024 C 
HETATM    3  C4  UNL     1     -31.870   5.699   1.650  1.00 20.00     0.018 C 
HETATM    4  C5  UNL     1     -34.215   6.106   1.504  1.00 20.00     0.025 C 
HETATM    5  C6  UNL     1     -32.895   6.368   0.735  1.00 20.00     0.010 C 
HETATM    6  C7  UNL     1     -32.260   6.550   2.871  1.00 20.00     0.024 C 
HETATM    7  C8  UNL     1     -33.784   6.238   3.002  1.00 20.00     0.020 C 
ENDROOT
BRANCH   7   8
HETATM    8  C3  UNL     1     -33.950   4.930   3.735  1.00 20.00     0.241 C 
HETATM    9  O11 UNL     1     -34.963   4.628   4.356  1.00 20.00    -0.306 OA
ENDBRANCH   7   8
BRANCH   7  10
HETATM   10  C10 UNL     1     -34.588   7.295   3.760  1.00 20.00     0.013 C 
HETATM   11  C9  UNL     1     -33.791   7.899   4.869  1.00 20.00     0.006 C 
ENDBRANCH   7  10
TORSDOF 2
ENDMDL
MODEL 5
REMARK VINA RESULT:       1.9      1.501      2.541
REMARK  2 active torsions:
REMARK  status: ('A' for Active; 'I' for Inactive)
REMARK    1  A    between atoms: C3_3  and  C8_8 
REMARK    2  A    between atoms: C8_8  and  C10_10 
ROOT
HETATM    1  C1  UNL     1     -34.012   7.249   4.877  1.00 20.00    -0.026 C 
HETATM    2  C2  UNL     1     -33.980   8.170   3.902  1.00 20.00    -0.024 C 
HETATM    3  C4  UNL     1     -35.421   6.518   3.208  1.00 20.00     0.018 C 
HETATM    4  C5  UNL     1     -33.309   5.420   3.352  1.00 20.00     0.025 C 
HETATM    5  C6  UNL     1     -34.456   5.949   4.249  1.00 20.00     0.010 C 
HETATM    6  C7  UNL     1     -34.370   7.474   2.616  1.00 20.00     0.024 C 
HETATM    7  C8  UNL     1     -33.234   6.484   2.208  1.00 20.00     0.020 C 
ENDROOT
BRANCH   7   8
HETATM    8  C3  UNL     1     -33.580   5.875   0.871  1.00 20.00     0.241 C 
HETATM    9  O11 UNL     1     -33.006   4.896   0.406  1.00 20.00    -0.306 OA
ENDBRANCH   7   8
BRANCH   7  10
HETATM   10  C10 UNL     1     -31.850   7.120   2.078  1.00 20.00     0.013 C 
HETATM   11  C9  UNL     1     -31.885   8.337   1.215  1.00 20.00     0.006 C 
ENDBRANCH   7  10
TORSDOF 2
ENDMDL
MODEL 6
REMARK VINA RESULT:       2.4      1.143      3.009
REMARK  2 active torsions:
REMARK  status: ('A' for Active; 'I' for Inactive)
REMARK    1  A    between atoms: C3_3  and  C8_8 
REMARK    2  A    between atoms: C8_8  and  C10_10 
ROOT
HETATM    1  C1  UNL     1     -32.883   4.969   2.676  1.00 20.00    -0.026 C 
HETATM    2  C2  UNL     1     -33.804   5.831   3.130  1.00 20.00    -0.024 C 
HETATM    3  C4  UNL     1     -33.654   6.155   0.859  1.00 20.00     0.018 C 
HETATM    4  C5  UNL     1     -31.500   6.772   1.674  1.00 20.00     0.025 C 
HETATM    5  C6  UNL     1     -32.361   5.519   1.370  1.00 20.00     0.010 C 
HETATM    6  C7  UNL     1     -33.872   6.976   2.142  1.00 20.00     0.024 C 
HETATM    7  C8  UNL     1     -32.547   7.796   2.223  1.00 20.00     0.020 C 
ENDROOT
BRANCH   7   8
HETATM    8  C3  UNL     1     -32.665   8.996   1.316  1.00 20.00     0.241 C 
HETATM    9  O11 UNL     1     -31.922   9.197   0.361  1.00 20.00    -0.306 OA
ENDBRANCH   7   8
BRANCH   7  10
HETATM   10  C10 UNL     1     -32.199   8.310   3.620  1.00 20.00     0.013 C 
HETATM   11  C9  UNL     1     -33.385   8.282   4.526  1.00 20.00     0.006 C 
ENDBRANCH   7  10
TORSDOF 2
ENDMDL
MODEL 7
REMARK VINA RESULT:       2.7      1.429      2.477
REMARK  2 active torsions:
REMARK  status: ('A' for Active; 'I' for Inactive)
REMARK    1  A    between atoms: C3_3  and  C8_8 
REMARK    2  A    between atoms: C8_8  and  C10_10 
ROOT
HETATM    1  C1  UNL     1     -34.043   7.956   5.010  1.00 20.00    -0.026 C 
HETATM    2  C2  UNL     1     -32.778   7.693   4.647  1.00 20.00    -0.024 C 
HETATM    3  C4  UNL     1     -33.908   8.296   2.737  1.00 20.00     0.018 C 
HETATM    4  C5  UNL     1     -34.983   6.284   3.432  1.00 20.00     0.025 C 
HETATM    5  C6  UNL     1     -34.905   7.792   3.781  1.00 20.00     0.010 C 
HETATM    6  C7  UNL     1     -32.803   7.321   3.180  1.00 20.00     0.024 C 
HETATM    7  C8  UNL     1     -33.514   5.941   3.017  1.00 20.00     0.020 C 
ENDROOT
BRANCH   7   8
HETATM    8  C3  UNL     1     -33.439   5.525   1.569  1.00 20.00     0.241 C 
HETATM    9  O11 UNL     1     -32.385   5.407   0.954  1.00 20.00    -0.306 OA
ENDBRANCH   7   8
BRANCH   7  10
HETATM   10  C10 UNL     1     -32.911   4.810   3.851  1.00 20.00     0.013 C 
HETATM   11  C9  UNL     1     -33.959   3.861   4.330  1.00 20.00     0.006 C 
ENDBRANCH   7  10
TORSDOF 2
ENDMDL
MODEL 8
REMARK VINA RESULT:       2.7      2.041      3.902
REMARK  2 active torsions:
REMARK  status: ('A' for Active; 'I' for Inactive)
REMARK    1  A    between atoms: C3_3  and  C8_8 
REMARK    2  A    between atoms: C8_8  and  C10_10 
ROOT
HETATM    1  C1  UNL     1     -32.773  10.055   0.605  1.00 20.00    -0.026 C 
HETATM    2  C2  UNL     1     -32.144   9.904   1.780  1.00 20.00    -0.024 C 
HETATM    3  C4  UNL     1     -31.110   8.496   0.286  1.00 20.00     0.018 C 
HETATM    4  C5  UNL     1     -33.331   7.641   0.443  1.00 20.00     0.025 C 
HETATM    5  C6  UNL     1     -32.528   8.801  -0.199  1.00 20.00     0.010 C 
HETATM    6  C7  UNL     1     -31.506   8.531   1.772  1.00 20.00     0.024 C 
HETATM    7  C8  UNL     1     -32.629   7.448   1.828  1.00 20.00     0.020 C 
ENDROOT
BRANCH   7   8
HETATM    8  C3  UNL     1     -31.985   6.087   1.929  1.00 20.00     0.241 C 
HETATM    9  O11 UNL     1     -32.013   5.258   1.027  1.00 20.00    -0.306 OA
ENDBRANCH   7   8
BRANCH   7  10
HETATM   10  C10 UNL     1     -33.592   7.589   3.007  1.00 20.00     0.013 C 
HETATM   11  C9  UNL     1     -34.193   6.275   3.384  1.00 20.00     0.006 C 
ENDBRANCH   7  10
TORSDOF 2
ENDMDL
MODEL 9
REMARK VINA RESULT:       2.8      1.900      3.470
REMARK  2 active torsions:
REMARK  status: ('A' for Active; 'I' for Inactive)
REMARK    1  A    between atoms: C3_3  and  C8_8 
REMARK    2  A    between atoms: C8_8  and  C10_10 
ROOT
HETATM    1  C1  UNL     1     -31.474   8.611   0.633  1.00 20.00    -0.026 C 
HETATM    2  C2  UNL     1     -32.789   8.840   0.773  1.00 20.00    -0.024 C 
HETATM    3  C4  UNL     1     -31.956   8.439   2.878  1.00 20.00     0.018 C 
HETATM    4  C5  UNL     1     -31.613   6.383   1.720  1.00 20.00     0.025 C 
HETATM    5  C6  UNL     1     -31.029   7.813   1.835  1.00 20.00     0.010 C 
HETATM    6  C7  UNL     1     -33.226   8.164   2.055  1.00 20.00     0.024 C 
HETATM    7  C8  UNL     1     -33.153   6.617   1.864  1.00 20.00     0.020 C 
ENDROOT
BRANCH   7   8
HETATM    8  C3  UNL     1     -33.693   5.950   3.106  1.00 20.00     0.241 C 
HETATM    9  O11 UNL     1     -34.672   6.358   3.720  1.00 20.00    -0.306 OA
ENDBRANCH   7   8
BRANCH   7  10
HETATM   10  C10 UNL     1     -33.949   6.082   0.674  1.00 20.00     0.013 C 
HETATM   11  C9  UNL     1     -33.391   4.791   0.174  1.00 20.00     0.006 C 
ENDBRANCH   7  10
TORSDOF 2
ENDMDL
