MODEL 1
REMARK VINA RESULT:      -2.0      0.000      0.000
REMARK  2 active torsions:
REMARK  status: ('A' for Active; 'I' for Inactive)
REMARK    1  A    between atoms: C1_1  and  C5_5 
REMARK    2  A    between atoms: C1_1  and  C6_6 
ROOT
HETATM    1  C1  UNL     1     -33.481   5.849   2.893  1.00 20.00     0.184 C 
HETATM    2  O7  UNL     1     -33.254   4.769   3.441  1.00 20.00    -0.293 OA
ENDROOT
BRANCH   1   3
HETATM    3  C5  UNL     1     -34.456   6.860   3.493  1.00 20.00     0.052 C 
HETATM    4  C2  UNL     1     -35.611   6.122   4.160  1.00 20.00     0.017 C 
HETATM    5  C3  UNL     1     -33.750   7.778   4.488  1.00 20.00     0.017 C 
ENDBRANCH   1   3
BRANCH   1   6
HETATM    6  C6  UNL     1     -32.791   6.236   1.595  1.00 20.00     0.235 C 
HETATM    7  C4  UNL     1     -32.101   7.584   1.714  1.00 20.00     0.079 C 
HETATM    8  F8  UNL     1     -33.666   6.302   0.554  1.00 20.00    -0.217 F 
HETATM    9 CL9  UNL     1     -31.605   4.955   1.243  1.00 20.00    -0.075 Cl
ENDBRANCH   1   6
TORSDOF 2
ENDMDL
MODEL 2
REMARK VINA RESULT:      -1.9      1.399      1.561
REMARK  2 active torsions:
REMARK  status: ('A' for Active; 'I' for Inactive)
REMARK    1  A    between atoms: C1_1  and  C5_5 
REMARK    2  A    between atoms: C1_1  and  C6_6 
ROOT
HETATM    1  C1  UNL     1     -33.434   5.739   2.932  1.00 20.00     0.184 C 
HETATM    2  O7  UNL     1     -33.313   4.684   3.557  1.00 20.00    -0.293 OA
ENDROOT
BRANCH   1   3
HETATM    3  C5  UNL     1     -34.343   6.862   3.428  1.00 20.00     0.052 C 
HETATM    4  C2  UNL     1     -35.619   6.266   4.011  1.00 20.00     0.017 C 
HETATM    5  C3  UNL     1     -33.628   7.730   4.460  1.00 20.00     0.017 C 
ENDBRANCH   1   3
BRANCH   1   6
HETATM    6  C6  UNL     1     -32.672   5.982   1.639  1.00 20.00     0.235 C 
HETATM    7  C4  UNL     1     -33.543   5.719   0.423  1.00 20.00     0.079 C 
HETATM    8  F8  UNL     1     -31.568   5.191   1.544  1.00 20.00    -0.217 F 
HETATM    9 CL9  UNL     1     -32.138   7.680   1.670  1.00 20.00    -0.075 Cl
ENDBRANCH   1   6
TORSDOF 2
ENDMDL
MODEL 3
REMARK VINA RESULT:      -1.5      2.092      3.518
REMARK  2 active torsions:
REMARK  status: ('A' for Active; 'I' for Inactive)
REMARK    1  A    between atoms: C1_1  and  C5_5 
REMARK    2  A    between atoms: C1_1  and  C6_6 
ROOT
HETATM    1  C1  UNL     1     -33.588   5.702   3.006  1.00 20.00     0.184 C 
HETATM    2  O7  UNL     1     -33.121   4.645   3.435  1.00 20.00    -0.293 OA
ENDROOT
BRANCH   1   3
HETATM    3  C5  UNL     1     -33.060   6.349   1.727  1.00 20.00     0.052 C 
HETATM    4  C2  UNL     1     -32.261   7.598   2.080  1.00 20.00     0.017 C 
HETATM    5  C3  UNL     1     -32.207   5.366   0.928  1.00 20.00     0.017 C 
ENDBRANCH   1   3
BRANCH   1   6
HETATM    6  C6  UNL     1     -34.725   6.410   3.723  1.00 20.00     0.235 C 
HETATM    7  C4  UNL     1     -35.483   5.461   4.636  1.00 20.00     0.079 C 
HETATM    8  F8  UNL     1     -35.617   6.953   2.849  1.00 20.00    -0.217 F 
HETATM    9 CL9  UNL     1     -33.994   7.732   4.665  1.00 20.00    -0.075 Cl
ENDBRANCH   1   6
TORSDOF 2
ENDMDL
MODEL 4
REMARK VINA RESULT:      -1.5      1.859      2.242
REMARK  2 active torsions:
REMARK  status: ('A' for Active; 'I' for Inactive)
REMARK    1  A    between atoms: C1_1  and  C5_5 
REMARK    2  A    between atoms: C1_1  and  C6_6 
ROOT
HETATM    1  C1  UNL     1     -33.385   6.504   3.003  1.00 20.00     0.184 C 
HETATM    2  O7  UNL     1     -33.205   7.497   3.711  1.00 20.00    -0.293 OA
ENDROOT
BRANCH   1   3
HETATM    3  C5  UNL     1     -34.431   5.449   3.356  1.00 20.00     0.052 C 
HETATM    4  C2  UNL     1     -33.751   4.262   4.027  1.00 20.00     0.017 C 
HETATM    5  C3  UNL     1     -35.517   6.033   4.255  1.00 20.00     0.017 C 
ENDBRANCH   1   3
BRANCH   1   6
HETATM    6  C6  UNL     1     -32.582   6.288   1.731  1.00 20.00     0.235 C 
HETATM    7  C4  UNL     1     -33.454   5.758   0.606  1.00 20.00     0.079 C 
HETATM    8  F8  UNL     1     -31.559   5.408   1.920  1.00 20.00    -0.217 F 
HETATM    9 CL9  UNL     1     -31.882   7.865   1.291  1.00 20.00    -0.075 Cl
ENDBRANCH   1   6
TORSDOF 2
ENDMDL
MODEL 5
REMARK VINA RESULT:      -1.5      1.241      1.607
REMARK  2 active torsions:
REMARK  status: ('A' for Active; 'I' for Inactive)
REMARK    1  A    between atoms: C1_1  and  C5_5 
REMARK    2  A    between atoms: C1_1  and  C6_6 
ROOT
HETATM    1  C1  UNL     1     -33.382   6.649   3.075  1.00 20.00     0.184 C 
HETATM    2  O7  UNL     1     -33.079   7.489   3.925  1.00 20.00    -0.293 OA
ENDROOT
BRANCH   1   3
HETATM    3  C5  UNL     1     -34.437   5.579   3.348  1.00 20.00     0.052 C 
HETATM    4  C2  UNL     1     -33.781   4.374   4.011  1.00 20.00     0.017 C 
HETATM    5  C3  UNL     1     -35.564   6.131   4.217  1.00 20.00     0.017 C 
ENDBRANCH   1   3
BRANCH   1   6
HETATM    6  C6  UNL     1     -32.728   6.644   1.703  1.00 20.00     0.235 C 
HETATM    7  C4  UNL     1     -31.973   7.936   1.443  1.00 20.00     0.079 C 
HETATM    8  F8  UNL     1     -33.641   6.483   0.705  1.00 20.00    -0.217 F 
HETATM    9 CL9  UNL     1     -31.617   5.253   1.668  1.00 20.00    -0.075 Cl
ENDBRANCH   1   6
TORSDOF 2
ENDMDL
MODEL 6
REMARK VINA RESULT:      -1.4      2.265      2.338
REMARK  2 active torsions:
REMARK  status: ('A' for Active; 'I' for Inactive)
REMARK    1  A    between atoms: C1_1  and  C5_5 
REMARK    2  A    between atoms: C1_1  and  C6_6 
ROOT
HETATM    1  C1  UNL     1     -33.196   7.031   2.568  1.00 20.00     0.184 C 
HETATM    2  O7  UNL     1     -33.236   5.886   2.113  1.00 20.00    -0.293 OA
ENDROOT
BRANCH   1   3
HETATM    3  C5  UNL     1     -34.196   7.508   3.620  1.00 20.00     0.052 C 
HETATM    4  C2  UNL     1     -35.177   6.386   3.938  1.00 20.00     0.017 C 
HETATM    5  C3  UNL     1     -33.479   7.978   4.883  1.00 20.00     0.017 C 
ENDBRANCH   1   3
BRANCH   1   6
HETATM    6  C6  UNL     1     -32.139   8.024   2.113  1.00 20.00     0.235 C 
HETATM    7  C4  UNL     1     -31.181   7.397   1.116  1.00 20.00     0.079 C 
HETATM    8  F8  UNL     1     -31.407   8.500   3.158  1.00 20.00    -0.217 F 
HETATM    9 CL9  UNL     1     -33.006   9.393   1.374  1.00 20.00    -0.075 Cl
ENDBRANCH   1   6
TORSDOF 2
ENDMDL
MODEL 7
REMARK VINA RESULT:      -1.4      2.163      2.451
REMARK  2 active torsions:
REMARK  status: ('A' for Active; 'I' for Inactive)
REMARK    1  A    between atoms: C1_1  and  C5_5 
REMARK    2  A    between atoms: C1_1  and  C6_6 
ROOT
HETATM    1  C1  UNL     1     -33.073   6.505   2.180  1.00 20.00     0.184 C 
HETATM    2  O7  UNL     1     -33.221   5.797   1.182  1.00 20.00    -0.293 OA
ENDROOT
BRANCH   1   3
HETATM    3  C5  UNL     1     -33.767   6.182   3.501  1.00 20.00     0.052 C 
HETATM    4  C2  UNL     1     -35.146   6.829   3.525  1.00 20.00     0.017 C 
HETATM    5  C3  UNL     1     -33.871   4.673   3.709  1.00 20.00     0.017 C 
ENDBRANCH   1   3
BRANCH   1   6
HETATM    6  C6  UNL     1     -32.179   7.734   2.148  1.00 20.00     0.235 C 
HETATM    7  C4  UNL     1     -32.663   8.748   1.127  1.00 20.00     0.079 C 
HETATM    8  F8  UNL     1     -30.889   7.416   1.846  1.00 20.00    -0.217 F 
HETATM    9 CL9  UNL     1     -32.208   8.432   3.786  1.00 20.00    -0.075 Cl
ENDBRANCH   1   6
TORSDOF 2
ENDMDL
MODEL 8
REMARK VINA RESULT:      -1.1      2.387      3.688
REMARK  2 active torsions:
REMARK  status: ('A' for Active; 'I' for Inactive)
REMARK    1  A    between atoms: C1_1  and  C5_5 
REMARK    2  A    between atoms: C1_1  and  C6_6 
ROOT
HETATM    1  C1  UNL     1     -33.193   7.100   2.507  1.00 20.00     0.184 C 
HETATM    2  O7  UNL     1     -33.288   6.017   1.927  1.00 20.00    -0.293 OA
ENDROOT
BRANCH   1   3
HETATM    3  C5  UNL     1     -32.162   8.145   2.086  1.00 20.00     0.052 C 
HETATM    4  C2  UNL     1     -30.921   7.448   1.541  1.00 20.00     0.017 C 
HETATM    5  C3  UNL     1     -32.745   9.103   1.050  1.00 20.00     0.017 C 
ENDBRANCH   1   3
BRANCH   1   6
HETATM    6  C6  UNL     1     -34.109   7.456   3.667  1.00 20.00     0.235 C 
HETATM    7  C4  UNL     1     -34.965   6.273   4.082  1.00 20.00     0.079 C 
HETATM    8  F8  UNL     1     -34.940   8.490   3.358  1.00 20.00    -0.217 F 
HETATM    9 CL9  UNL     1     -33.059   7.970   5.010  1.00 20.00    -0.075 Cl
ENDBRANCH   1   6
TORSDOF 2
ENDMDL
MODEL 9
REMARK VINA RESULT:      -1.1      1.977      2.508
REMARK  2 active torsions:
REMARK  status: ('A' for Active; 'I' for Inactive)
REMARK    1  A    between atoms: C1_1  and  C5_5 
REMARK    2  A    between atoms: C1_1  and  C6_6 
ROOT
HETATM    1  C1  UNL     1     -33.490   6.205   2.982  1.00 20.00     0.184 C 
HETATM    2  O7  UNL     1     -33.137   5.638   1.946  1.00 20.00    -0.293 OA
ENDROOT
BRANCH   1   3
HETATM    3  C5  UNL     1     -34.131   5.436   4.135  1.00 20.00     0.052 C 
HETATM    4  C2  UNL     1     -35.624   5.740   4.184  1.00 20.00     0.017 C 
HETATM    5  C3  UNL     1     -33.886   3.936   3.997  1.00 20.00     0.017 C 
ENDBRANCH   1   3
BRANCH   1   6
HETATM    6  C6  UNL     1     -33.292   7.700   3.170  1.00 20.00     0.235 C 
HETATM    7  C4  UNL     1     -32.850   8.029   4.585  1.00 20.00     0.079 C 
HETATM    8  F8  UNL     1     -34.432   8.400   2.912  1.00 20.00    -0.217 F 
HETATM    9 CL9  UNL     1     -32.053   8.205   1.995  1.00 20.00    -0.075 Cl
ENDBRANCH   1   6
TORSDOF 2
ENDMDL
