MODEL 1
REMARK VINA RESULT:      -1.1      0.000      0.000
REMARK  2 active torsions:
REMARK  status: ('A' for Active; 'I' for Inactive)
REMARK    1  A    between atoms: C1_1  and  C5_5 
REMARK    2  A    between atoms: C5_5  and  C6_6 
ROOT
HETATM    1  C5  UNL     1     -33.103   6.481   3.385  1.00 20.00     0.190 C 
HETATM    2 CL9  UNL     1     -33.721   8.055   3.967  1.00 20.00    -0.114 Cl
ENDROOT
BRANCH   1   3
HETATM    3  C1  UNL     1     -34.207   5.479   3.694  1.00 20.00     0.144 C 
HETATM    4  C2  UNL     1     -35.581   6.043   3.944  1.00 20.00     0.092 C 
HETATM    5  O7  UNL     1     -33.996   4.268   3.766  1.00 20.00    -0.297 OA
ENDBRANCH   1   3
BRANCH   1   6
HETATM    6  C6  UNL     1     -32.723   6.518   1.894  1.00 20.00     0.119 C 
HETATM    7  C3  UNL     1     -32.050   7.839   1.518  1.00 20.00     0.053 C 
HETATM    8  C4  UNL     1     -31.812   5.356   1.494  1.00 20.00     0.053 C 
HETATM    9  F8  UNL     1     -33.862   6.415   1.146  1.00 20.00    -0.242 F 
ENDBRANCH   1   6
TORSDOF 2
ENDMDL
MODEL 2
REMARK VINA RESULT:      -0.9      2.037      2.359
REMARK  2 active torsions:
REMARK  status: ('A' for Active; 'I' for Inactive)
REMARK    1  A    between atoms: C1_1  and  C5_5 
REMARK    2  A    between atoms: C5_5  and  C6_6 
ROOT
HETATM    1  C5  UNL     1     -33.196   6.586   1.793  1.00 20.00     0.190 C 
HETATM    2 CL9  UNL     1     -32.376   5.188   1.039  1.00 20.00    -0.114 Cl
ENDROOT
BRANCH   1   3
HETATM    3  C1  UNL     1     -33.807   6.046   3.079  1.00 20.00     0.144 C 
HETATM    4  C2  UNL     1     -34.862   6.897   3.736  1.00 20.00     0.092 C 
HETATM    5  O7  UNL     1     -33.447   4.982   3.582  1.00 20.00    -0.297 OA
ENDBRANCH   1   3
BRANCH   1   6
HETATM    6  C6  UNL     1     -32.236   7.766   2.032  1.00 20.00     0.119 C 
HETATM    7  C3  UNL     1     -32.503   8.915   1.057  1.00 20.00     0.053 C 
HETATM    8  C4  UNL     1     -32.308   8.296   3.466  1.00 20.00     0.053 C 
HETATM    9  F8  UNL     1     -30.955   7.343   1.821  1.00 20.00    -0.242 F 
ENDBRANCH   1   6
TORSDOF 2
ENDMDL
MODEL 3
REMARK VINA RESULT:      -0.8      2.507      3.847
REMARK  2 active torsions:
REMARK  status: ('A' for Active; 'I' for Inactive)
REMARK    1  A    between atoms: C1_1  and  C5_5 
REMARK    2  A    between atoms: C5_5  and  C6_6 
ROOT
HETATM    1  C5  UNL     1     -32.818   6.921   2.910  1.00 20.00     0.190 C 
HETATM    2 CL9  UNL     1     -33.265   5.933   1.488  1.00 20.00    -0.114 Cl
ENDROOT
BRANCH   1   3
HETATM    3  C1  UNL     1     -32.005   8.081   2.351  1.00 20.00     0.144 C 
HETATM    4  C2  UNL     1     -32.220   8.420   0.899  1.00 20.00     0.092 C 
HETATM    5  O7  UNL     1     -31.190   8.703   3.033  1.00 20.00    -0.297 OA
ENDBRANCH   1   3
BRANCH   1   6
HETATM    6  C6  UNL     1     -34.049   7.381   3.712  1.00 20.00     0.119 C 
HETATM    7  C3  UNL     1     -35.059   6.245   3.891  1.00 20.00     0.053 C 
HETATM    8  C4  UNL     1     -33.674   7.943   5.085  1.00 20.00     0.053 C 
HETATM    9  F8  UNL     1     -34.678   8.379   3.023  1.00 20.00    -0.242 F 
ENDBRANCH   1   6
TORSDOF 2
ENDMDL
MODEL 4
REMARK VINA RESULT:      -0.7      2.308      2.677
REMARK  2 active torsions:
REMARK  status: ('A' for Active; 'I' for Inactive)
REMARK    1  A    between atoms: C1_1  and  C5_5 
REMARK    2  A    between atoms: C5_5  and  C6_6 
ROOT
HETATM    1  C5  UNL     1     -33.460   7.150   2.215  1.00 20.00     0.190 C 
HETATM    2 CL9  UNL     1     -33.083   5.426   1.928  1.00 20.00    -0.114 Cl
ENDROOT
BRANCH   1   3
HETATM    3  C1  UNL     1     -34.001   7.210   3.637  1.00 20.00     0.144 C 
HETATM    4  C2  UNL     1     -35.130   6.270   3.971  1.00 20.00     0.092 C 
HETATM    5  O7  UNL     1     -33.566   8.001   4.474  1.00 20.00    -0.297 OA
ENDBRANCH   1   3
BRANCH   1   6
HETATM    6  C6  UNL     1     -32.237   8.060   1.998  1.00 20.00     0.119 C 
HETATM    7  C3  UNL     1     -31.103   7.316   1.288  1.00 20.00     0.053 C 
HETATM    8  C4  UNL     1     -32.582   9.324   1.208  1.00 20.00     0.053 C 
HETATM    9  F8  UNL     1     -31.762   8.459   3.215  1.00 20.00    -0.242 F 
ENDBRANCH   1   6
TORSDOF 2
ENDMDL
MODEL 5
REMARK VINA RESULT:      -0.7      2.035      3.469
REMARK  2 active torsions:
REMARK  status: ('A' for Active; 'I' for Inactive)
REMARK    1  A    between atoms: C1_1  and  C5_5 
REMARK    2  A    between atoms: C5_5  and  C6_6 
ROOT
HETATM    1  C5  UNL     1     -33.208   5.904   3.307  1.00 20.00     0.190 C 
HETATM    2 CL9  UNL     1     -33.577   4.155   3.366  1.00 20.00    -0.114 Cl
ENDROOT
BRANCH   1   3
HETATM    3  C1  UNL     1     -32.797   6.177   1.867  1.00 20.00     0.144 C 
HETATM    4  C2  UNL     1     -32.012   7.438   1.615  1.00 20.00     0.092 C 
HETATM    5  O7  UNL     1     -33.107   5.428   0.940  1.00 20.00    -0.297 OA
ENDBRANCH   1   3
BRANCH   1   6
HETATM    6  C6  UNL     1     -34.397   6.767   3.768  1.00 20.00     0.119 C 
HETATM    7  C3  UNL     1     -35.496   5.915   4.406  1.00 20.00     0.053 C 
HETATM    8  C4  UNL     1     -33.976   7.863   4.749  1.00 20.00     0.053 C 
HETATM    9  F8  UNL     1     -34.942   7.385   2.679  1.00 20.00    -0.242 F 
ENDBRANCH   1   6
TORSDOF 2
ENDMDL
MODEL 6
REMARK VINA RESULT:      -0.7      1.999      3.113
REMARK  2 active torsions:
REMARK  status: ('A' for Active; 'I' for Inactive)
REMARK    1  A    between atoms: C1_1  and  C5_5 
REMARK    2  A    between atoms: C5_5  and  C6_6 
ROOT
HETATM    1  C5  UNL     1     -33.400   7.017   2.112  1.00 20.00     0.190 C 
HETATM    2 CL9  UNL     1     -32.081   8.212   2.290  1.00 20.00    -0.114 Cl
ENDROOT
BRANCH   1   3
HETATM    3  C1  UNL     1     -32.767   5.825   1.407  1.00 20.00     0.144 C 
HETATM    4  C2  UNL     1     -33.644   5.063   0.448  1.00 20.00     0.092 C 
HETATM    5  O7  UNL     1     -31.606   5.475   1.620  1.00 20.00    -0.297 OA
ENDBRANCH   1   3
BRANCH   1   6
HETATM    6  C6  UNL     1     -34.038   6.647   3.463  1.00 20.00     0.119 C 
HETATM    7  C3  UNL     1     -33.588   7.596   4.576  1.00 20.00     0.053 C 
HETATM    8  C4  UNL     1     -35.567   6.631   3.401  1.00 20.00     0.053 C 
HETATM    9  F8  UNL     1     -33.634   5.390   3.813  1.00 20.00    -0.242 F 
ENDBRANCH   1   6
TORSDOF 2
ENDMDL
MODEL 7
REMARK VINA RESULT:      -0.6      0.954      1.411
REMARK  2 active torsions:
REMARK  status: ('A' for Active; 'I' for Inactive)
REMARK    1  A    between atoms: C1_1  and  C5_5 
REMARK    2  A    between atoms: C5_5  and  C6_6 
ROOT
HETATM    1  C5  UNL     1     -33.102   6.480   3.376  1.00 20.00     0.190 C 
HETATM    2 CL9  UNL     1     -33.869   8.037   3.807  1.00 20.00    -0.114 Cl
ENDROOT
BRANCH   1   3
HETATM    3  C1  UNL     1     -34.142   5.418   3.702  1.00 20.00     0.144 C 
HETATM    4  C2  UNL     1     -35.524   5.908   4.050  1.00 20.00     0.092 C 
HETATM    5  O7  UNL     1     -33.875   4.216   3.711  1.00 20.00    -0.297 OA
ENDBRANCH   1   3
BRANCH   1   6
HETATM    6  C6  UNL     1     -32.642   6.442   1.908  1.00 20.00     0.119 C 
HETATM    7  C3  UNL     1     -33.809   6.154   0.961  1.00 20.00     0.053 C 
HETATM    8  C4  UNL     1     -31.952   7.739   1.478  1.00 20.00     0.053 C 
HETATM    9  F8  UNL     1     -31.736   5.431   1.755  1.00 20.00    -0.242 F 
ENDBRANCH   1   6
TORSDOF 2
ENDMDL
MODEL 8
REMARK VINA RESULT:      -0.6      2.278      3.296
REMARK  2 active torsions:
REMARK  status: ('A' for Active; 'I' for Inactive)
REMARK    1  A    between atoms: C1_1  and  C5_5 
REMARK    2  A    between atoms: C5_5  and  C6_6 
ROOT
HETATM    1  C5  UNL     1     -33.296   7.224   2.053  1.00 20.00     0.190 C 
HETATM    2 CL9  UNL     1     -33.895   7.393   3.730  1.00 20.00    -0.114 Cl
ENDROOT
BRANCH   1   3
HETATM    3  C1  UNL     1     -32.151   8.221   1.934  1.00 20.00     0.144 C 
HETATM    4  C2  UNL     1     -32.034   8.964   0.629  1.00 20.00     0.092 C 
HETATM    5  O7  UNL     1     -31.339   8.401   2.841  1.00 20.00    -0.297 OA
ENDBRANCH   1   3
BRANCH   1   6
HETATM    6  C6  UNL     1     -32.872   5.780   1.728  1.00 20.00     0.119 C 
HETATM    7  C3  UNL     1     -33.181   4.829   2.887  1.00 20.00     0.053 C 
HETATM    8  C4  UNL     1     -33.533   5.251   0.453  1.00 20.00     0.053 C 
HETATM    9  F8  UNL     1     -31.522   5.751   1.527  1.00 20.00    -0.242 F 
ENDBRANCH   1   6
TORSDOF 2
ENDMDL
MODEL 9
REMARK VINA RESULT:      -0.4      1.945      3.134
REMARK  2 active torsions:
REMARK  status: ('A' for Active; 'I' for Inactive)
REMARK    1  A    between atoms: C1_1  and  C5_5 
REMARK    2  A    between atoms: C5_5  and  C6_6 
ROOT
HETATM    1  C5  UNL     1     -33.435   6.994   2.091  1.00 20.00     0.190 C 
HETATM    2 CL9  UNL     1     -32.086   8.126   2.407  1.00 20.00    -0.114 Cl
ENDROOT
BRANCH   1   3
HETATM    3  C1  UNL     1     -32.799   5.800   1.392  1.00 20.00     0.144 C 
HETATM    4  C2  UNL     1     -33.657   5.063   0.397  1.00 20.00     0.092 C 
HETATM    5  O7  UNL     1     -31.652   5.428   1.637  1.00 20.00    -0.297 OA
ENDBRANCH   1   3
BRANCH   1   6
HETATM    6  C6  UNL     1     -34.186   6.608   3.378  1.00 20.00     0.119 C 
HETATM    7  C3  UNL     1     -33.874   5.171   3.802  1.00 20.00     0.053 C 
HETATM    8  C4  UNL     1     -33.878   7.555   4.540  1.00 20.00     0.053 C 
HETATM    9  F8  UNL     1     -35.530   6.679   3.143  1.00 20.00    -0.242 F 
ENDBRANCH   1   6
TORSDOF 2
ENDMDL
