MODEL 1
REMARK VINA RESULT:       1.5      0.000      0.000
REMARK  2 active torsions:
REMARK  status: ('A' for Active; 'I' for Inactive)
REMARK    1  A    between atoms: C6_6  and  S8_8 
REMARK    2  A    between atoms: C7_7  and  S9_9 
ROOT
HETATM    1  C1  UNL     1     -33.792   6.411   1.030  1.00 20.00     0.011 C 
HETATM    2  C2  UNL     1     -31.460   6.686   1.433  1.00 20.00     0.020 C 
HETATM    3  C3  UNL     1     -32.916   5.291   2.942  1.00 20.00     0.020 C 
HETATM    4  C4  UNL     1     -32.568   5.614   1.475  1.00 20.00    -0.012 C 
HETATM    5  C5  UNL     1     -33.635   7.454   2.145  1.00 20.00     0.013 C 
HETATM    6  C6  UNL     1     -32.186   7.955   1.929  1.00 20.00     0.050 C 
HETATM    7  C7  UNL     1     -33.627   6.574   3.421  1.00 20.00     0.050 C 
ENDROOT
BRANCH   6   8
HETATM    8  S8  UNL     1     -32.098   9.310   0.715  1.00 20.00    -0.177 SA
HETATM    9  H20 UNL     1     -30.763   9.309   0.607  1.00 20.00     0.102 HD
ENDBRANCH   6   8
BRANCH   7  10
HETATM   10  S9  UNL     1     -35.308   6.236   4.037  1.00 20.00    -0.177 SA
HETATM   11  H21 UNL     1     -35.579   5.260   3.162  1.00 20.00     0.102 HD
ENDBRANCH   7  10
TORSDOF 2
ENDMDL
MODEL 2
REMARK VINA RESULT:       2.1      1.175      3.539
REMARK  2 active torsions:
REMARK  status: ('A' for Active; 'I' for Inactive)
REMARK    1  A    between atoms: C6_6  and  S8_8 
REMARK    2  A    between atoms: C7_7  and  S9_9 
ROOT
HETATM    1  C1  UNL     1     -31.677   8.320   2.734  1.00 20.00     0.011 C 
HETATM    2  C2  UNL     1     -32.311   6.218   1.812  1.00 20.00     0.020 C 
HETATM    3  C3  UNL     1     -31.508   8.118   0.367  1.00 20.00     0.020 C 
HETATM    4  C4  UNL     1     -31.247   7.323   1.661  1.00 20.00    -0.012 C 
HETATM    5  C5  UNL     1     -33.090   8.477   2.155  1.00 20.00     0.013 C 
HETATM    6  C6  UNL     1     -33.597   7.014   2.120  1.00 20.00     0.050 C 
HETATM    7  C7  UNL     1     -32.801   8.894   0.691  1.00 20.00     0.050 C 
ENDROOT
BRANCH   6   8
HETATM    8  S8  UNL     1     -34.352   6.508   3.698  1.00 20.00    -0.177 SA
HETATM    9  H20 UNL     1     -35.600   6.872   3.374  1.00 20.00     0.102 HD
ENDBRANCH   6   8
BRANCH   7  10
HETATM   10  S9  UNL     1     -32.582  10.694   0.516  1.00 20.00    -0.177 SA
HETATM   11  H21 UNL     1     -31.245  10.660   0.443  1.00 20.00     0.102 HD
ENDBRANCH   7  10
TORSDOF 2
ENDMDL
MODEL 3
REMARK VINA RESULT:       2.2      1.631      2.702
REMARK  2 active torsions:
REMARK  status: ('A' for Active; 'I' for Inactive)
REMARK    1  A    between atoms: C6_6  and  S8_8 
REMARK    2  A    between atoms: C7_7  and  S9_9 
ROOT
HETATM    1  C1  UNL     1     -33.158   7.098   4.537  1.00 20.00     0.011 C 
HETATM    2  C2  UNL     1     -34.379   8.100   2.754  1.00 20.00     0.020 C 
HETATM    3  C3  UNL     1     -35.276   6.128   4.039  1.00 20.00     0.020 C 
HETATM    4  C4  UNL     1     -34.582   7.499   4.160  1.00 20.00    -0.012 C 
HETATM    5  C5  UNL     1     -32.980   6.209   3.299  1.00 20.00     0.013 C 
HETATM    6  C6  UNL     1     -33.295   7.189   2.141  1.00 20.00     0.050 C 
HETATM    7  C7  UNL     1     -34.182   5.239   3.413  1.00 20.00     0.050 C 
ENDROOT
BRANCH   6   8
HETATM    8  S8  UNL     1     -31.827   8.132   1.616  1.00 20.00    -0.177 SA
HETATM    9  H20 UNL     1     -31.216   8.103   2.807  1.00 20.00     0.102 HD
ENDBRANCH   6   8
BRANCH   7  10
HETATM   10  S9  UNL     1     -33.803   3.789   4.450  1.00 20.00    -0.177 SA
HETATM   11  H21 UNL     1     -34.884   3.896   5.232  1.00 20.00     0.102 HD
ENDBRANCH   7  10
TORSDOF 2
ENDMDL
MODEL 4
REMARK VINA RESULT:       2.7      1.987      3.922
REMARK  2 active torsions:
REMARK  status: ('A' for Active; 'I' for Inactive)
REMARK    1  A    between atoms: C6_6  and  S8_8 
REMARK    2  A    between atoms: C7_7  and  S9_9 
ROOT
HETATM    1  C1  UNL     1     -34.562   5.855   2.316  1.00 20.00     0.011 C 
HETATM    2  C2  UNL     1     -35.091   5.461   4.605  1.00 20.00     0.020 C 
HETATM    3  C3  UNL     1     -34.467   7.749   3.758  1.00 20.00     0.020 C 
HETATM    4  C4  UNL     1     -35.315   6.492   3.481  1.00 20.00    -0.012 C 
HETATM    5  C5  UNL     1     -33.239   5.781   3.091  1.00 20.00     0.013 C 
HETATM    6  C6  UNL     1     -33.642   4.990   4.360  1.00 20.00     0.050 C 
HETATM    7  C7  UNL     1     -33.025   7.254   3.521  1.00 20.00     0.050 C 
ENDROOT
BRANCH   6   8
HETATM    8  S8  UNL     1     -33.542   3.189   4.111  1.00 20.00    -0.177 SA
HETATM    9  H20 UNL     1     -34.521   3.123   3.199  1.00 20.00     0.102 HD
ENDBRANCH   6   8
BRANCH   7  10
HETATM   10  S9  UNL     1     -32.167   8.229   2.243  1.00 20.00    -0.177 SA
HETATM   11  H21 UNL     1     -31.605   7.181   1.629  1.00 20.00     0.102 HD
ENDBRANCH   7  10
TORSDOF 2
ENDMDL
MODEL 5
REMARK VINA RESULT:       2.8      1.755      3.291
REMARK  2 active torsions:
REMARK  status: ('A' for Active; 'I' for Inactive)
REMARK    1  A    between atoms: C6_6  and  S8_8 
REMARK    2  A    between atoms: C7_7  and  S9_9 
ROOT
HETATM    1  C1  UNL     1     -33.699   6.914   1.104  1.00 20.00     0.011 C 
HETATM    2  C2  UNL     1     -33.120   7.821   3.229  1.00 20.00     0.020 C 
HETATM    3  C3  UNL     1     -31.372   7.012   1.606  1.00 20.00     0.020 C 
HETATM    4  C4  UNL     1     -32.668   7.833   1.755  1.00 20.00    -0.012 C 
HETATM    5  C5  UNL     1     -33.377   5.738   2.036  1.00 20.00     0.013 C 
HETATM    6  C6  UNL     1     -33.580   6.362   3.439  1.00 20.00     0.050 C 
HETATM    7  C7  UNL     1     -31.851   5.563   1.832  1.00 20.00     0.050 C 
ENDROOT
BRANCH   6   8
HETATM    8  S8  UNL     1     -35.312   6.266   3.993  1.00 20.00    -0.177 SA
HETATM    9  H20 UNL     1     -35.638   5.211   3.234  1.00 20.00     0.102 HD
ENDBRANCH   6   8
BRANCH   7  10
HETATM   10  S9  UNL     1     -31.463   4.485   0.415  1.00 20.00    -0.177 SA
HETATM   11  H21 UNL     1     -32.490   3.646   0.599  1.00 20.00     0.102 HD
ENDBRANCH   7  10
TORSDOF 2
ENDMDL
MODEL 6
REMARK VINA RESULT:       3.3      1.857      2.663
REMARK  2 active torsions:
REMARK  status: ('A' for Active; 'I' for Inactive)
REMARK    1  A    between atoms: C6_6  and  S8_8 
REMARK    2  A    between atoms: C7_7  and  S9_9 
ROOT
HETATM    1  C1  UNL     1     -31.489   7.902   2.636  1.00 20.00     0.011 C 
HETATM    2  C2  UNL     1     -33.614   8.951   2.391  1.00 20.00     0.020 C 
HETATM    3  C3  UNL     1     -33.393   6.492   2.888  1.00 20.00     0.020 C 
HETATM    4  C4  UNL     1     -32.885   7.900   3.253  1.00 20.00    -0.012 C 
HETATM    5  C5  UNL     1     -32.009   7.570   1.230  1.00 20.00     0.013 C 
HETATM    6  C6  UNL     1     -33.036   8.703   0.981  1.00 20.00     0.050 C 
HETATM    7  C7  UNL     1     -32.816   6.271   1.475  1.00 20.00     0.050 C 
ENDROOT
BRANCH   6   8
HETATM    8  S8  UNL     1     -32.259  10.198   0.290  1.00 20.00    -0.177 SA
HETATM    9  H20 UNL     1     -32.481   9.885  -0.993  1.00 20.00     0.102 HD
ENDBRANCH   6   8
BRANCH   7  10
HETATM   10  S9  UNL     1     -31.770   4.781   1.387  1.00 20.00    -0.177 SA
HETATM   11  H21 UNL     1     -31.344   4.989   0.135  1.00 20.00     0.102 HD
ENDBRANCH   7  10
TORSDOF 2
ENDMDL
MODEL 7
REMARK VINA RESULT:       3.3      1.425      3.402
REMARK  2 active torsions:
REMARK  status: ('A' for Active; 'I' for Inactive)
REMARK    1  A    between atoms: C6_6  and  S8_8 
REMARK    2  A    between atoms: C7_7  and  S9_9 
ROOT
HETATM    1  C1  UNL     1     -31.443   7.507   2.102  1.00 20.00     0.011 C 
HETATM    2  C2  UNL     1     -33.487   6.433   2.687  1.00 20.00     0.020 C 
HETATM    3  C3  UNL     1     -33.054   7.291   0.360  1.00 20.00     0.020 C 
HETATM    4  C4  UNL     1     -32.455   6.508   1.544  1.00 20.00    -0.012 C 
HETATM    5  C5  UNL     1     -32.498   8.602   2.309  1.00 20.00     0.013 C 
HETATM    6  C6  UNL     1     -33.546   7.888   3.198  1.00 20.00     0.050 C 
HETATM    7  C7  UNL     1     -33.116   8.737   0.895  1.00 20.00     0.050 C 
ENDROOT
BRANCH   6   8
HETATM    8  S8  UNL     1     -33.143   8.007   4.970  1.00 20.00    -0.177 SA
HETATM    9  H20 UNL     1     -34.077   8.923   5.260  1.00 20.00     0.102 HD
ENDBRANCH   6   8
BRANCH   7  10
HETATM   10  S9  UNL     1     -32.186   9.898  -0.158  1.00 20.00    -0.177 SA
HETATM   11  H21 UNL     1     -32.575  11.005   0.487  1.00 20.00     0.102 HD
ENDBRANCH   7  10
TORSDOF 2
ENDMDL
MODEL 8
REMARK VINA RESULT:       3.9      1.931      3.118
REMARK  2 active torsions:
REMARK  status: ('A' for Active; 'I' for Inactive)
REMARK    1  A    between atoms: C6_6  and  S8_8 
REMARK    2  A    between atoms: C7_7  and  S9_9 
ROOT
HETATM    1  C1  UNL     1     -33.803   6.591   1.048  1.00 20.00     0.011 C 
HETATM    2  C2  UNL     1     -32.693   5.314   2.724  1.00 20.00     0.020 C 
HETATM    3  C3  UNL     1     -33.077   7.791   2.973  1.00 20.00     0.020 C 
HETATM    4  C4  UNL     1     -33.722   6.452   2.566  1.00 20.00    -0.012 C 
HETATM    5  C5  UNL     1     -32.296   6.840   0.896  1.00 20.00     0.013 C 
HETATM    6  C6  UNL     1     -31.684   5.599   1.592  1.00 20.00     0.050 C 
HETATM    7  C7  UNL     1     -32.065   8.049   1.837  1.00 20.00     0.050 C 
ENDROOT
BRANCH   6   8
HETATM    8  S8  UNL     1     -31.516   4.185   0.456  1.00 20.00    -0.177 SA
HETATM    9  H20 UNL     1     -30.265   4.469   0.070  1.00 20.00     0.102 HD
ENDBRANCH   6   8
BRANCH   7  10
HETATM   10  S9  UNL     1     -32.365   9.641   1.002  1.00 20.00    -0.177 SA
HETATM   11  H21 UNL     1     -32.727  10.306   2.106  1.00 20.00     0.102 HD
ENDBRANCH   7  10
TORSDOF 2
ENDMDL
MODEL 9
REMARK VINA RESULT:       4.0      1.268      1.746
REMARK  2 active torsions:
REMARK  status: ('A' for Active; 'I' for Inactive)
REMARK    1  A    between atoms: C6_6  and  S8_8 
REMARK    2  A    between atoms: C7_7  and  S9_9 
ROOT
HETATM    1  C1  UNL     1     -32.285   6.804   1.614  1.00 20.00     0.011 C 
HETATM    2  C2  UNL     1     -31.338   8.961   1.968  1.00 20.00     0.020 C 
HETATM    3  C3  UNL     1     -32.374   7.638   3.844  1.00 20.00     0.020 C 
HETATM    4  C4  UNL     1     -31.434   7.569   2.624  1.00 20.00    -0.012 C 
HETATM    5  C5  UNL     1     -33.442   7.811   1.686  1.00 20.00     0.013 C 
HETATM    6  C6  UNL     1     -32.737   9.148   1.346  1.00 20.00     0.050 C 
HETATM    7  C7  UNL     1     -33.762   7.838   3.202  1.00 20.00     0.050 C 
ENDROOT
BRANCH   6   8
HETATM    8  S8  UNL     1     -32.653   9.446  -0.449  1.00 20.00    -0.177 SA
HETATM    9  H20 UNL     1     -31.802  10.478  -0.375  1.00 20.00     0.102 HD
ENDBRANCH   6   8
BRANCH   7  10
HETATM   10  S9  UNL     1     -34.935   6.529   3.683  1.00 20.00    -0.177 SA
HETATM   11  H21 UNL     1     -34.305   5.540   3.036  1.00 20.00     0.102 HD
ENDBRANCH   7  10
TORSDOF 2
ENDMDL
