MODEL 1
REMARK VINA RESULT:      -0.6      0.000      0.000
REMARK  0 active torsions:
REMARK  status: ('A' for Active; 'I' for Inactive)
ROOT
HETATM    1  C1  UNL     1     -32.299   8.265   2.375  1.00 20.00     0.096 A 
HETATM    2  C2  UNL     1     -32.104   6.197   1.493  1.00 20.00     0.096 A 
HETATM    3  C3  UNL     1     -33.227   7.458   2.982  1.00 20.00    -0.025 A 
HETATM    4  C4  UNL     1     -33.105   6.163   2.430  1.00 20.00    -0.025 A 
HETATM    5  C5  UNL     1     -34.251   7.662   4.023  1.00 20.00     0.114 A 
HETATM    6  C6  UNL     1     -34.011   5.117   2.937  1.00 20.00     0.114 A 
HETATM    7  N7  UNL     1     -31.620   7.485   1.466  1.00 20.00    -0.374 N 
HETATM    8  S8  UNL     1     -35.043   5.992   4.211  1.00 20.00    -0.160 SA
HETATM    9  H15 UNL     1     -30.873   7.811   0.868  1.00 20.00     0.164 HD
ENDROOT
TORSDOF 0
ENDMDL
MODEL 2
REMARK VINA RESULT:      -0.6      2.357      2.984
REMARK  0 active torsions:
REMARK  status: ('A' for Active; 'I' for Inactive)
ROOT
HETATM    1  C1  UNL     1     -34.335   7.602   4.267  1.00 20.00     0.096 A 
HETATM    2  C2  UNL     1     -34.508   5.526   3.398  1.00 20.00     0.096 A 
HETATM    3  C3  UNL     1     -33.428   7.496   3.244  1.00 20.00    -0.025 A 
HETATM    4  C4  UNL     1     -33.535   6.196   2.700  1.00 20.00    -0.025 A 
HETATM    5  C5  UNL     1     -32.435   8.406   2.644  1.00 20.00     0.114 A 
HETATM    6  C6  UNL     1     -32.646   5.851   1.577  1.00 20.00     0.114 A 
HETATM    7  N7  UNL     1     -34.988   6.394   4.353  1.00 20.00    -0.374 N 
HETATM    8  S8  UNL     1     -31.652   7.395   1.296  1.00 20.00    -0.160 SA
HETATM    9  H15 UNL     1     -35.716   6.176   5.020  1.00 20.00     0.164 HD
ENDROOT
TORSDOF 0
ENDMDL
MODEL 3
REMARK VINA RESULT:      -0.6      2.358      3.547
REMARK  0 active torsions:
REMARK  status: ('A' for Active; 'I' for Inactive)
ROOT
HETATM    1  C1  UNL     1     -34.510   5.487   3.407  1.00 20.00     0.096 A 
HETATM    2  C2  UNL     1     -34.376   7.569   4.269  1.00 20.00     0.096 A 
HETATM    3  C3  UNL     1     -33.543   6.169   2.714  1.00 20.00    -0.025 A 
HETATM    4  C4  UNL     1     -33.459   7.474   3.253  1.00 20.00    -0.025 A 
HETATM    5  C5  UNL     1     -32.638   5.834   1.599  1.00 20.00     0.114 A 
HETATM    6  C6  UNL     1     -32.476   8.396   2.658  1.00 20.00     0.114 A 
HETATM    7  N7  UNL     1     -35.013   6.352   4.353  1.00 20.00    -0.374 N 
HETATM    8  S8  UNL     1     -31.666   7.392   1.321  1.00 20.00    -0.160 SA
HETATM    9  H15 UNL     1     -35.743   6.124   5.014  1.00 20.00     0.164 HD
ENDROOT
TORSDOF 0
ENDMDL
MODEL 4
REMARK VINA RESULT:      -0.6      0.034      1.924
REMARK  0 active torsions:
REMARK  status: ('A' for Active; 'I' for Inactive)
ROOT
HETATM    1  C1  UNL     1     -32.121   6.240   1.466  1.00 20.00     0.096 A 
HETATM    2  C2  UNL     1     -32.312   8.294   2.383  1.00 20.00     0.096 A 
HETATM    3  C3  UNL     1     -33.109   6.188   2.415  1.00 20.00    -0.025 A 
HETATM    4  C4  UNL     1     -33.229   7.474   2.990  1.00 20.00    -0.025 A 
HETATM    5  C5  UNL     1     -34.007   5.131   2.916  1.00 20.00     0.114 A 
HETATM    6  C6  UNL     1     -34.241   7.658   4.045  1.00 20.00     0.114 A 
HETATM    7  N7  UNL     1     -31.640   7.531   1.456  1.00 20.00    -0.374 N 
HETATM    8  S8  UNL     1     -35.026   5.982   4.216  1.00 20.00    -0.160 SA
HETATM    9  H15 UNL     1     -30.902   7.868   0.853  1.00 20.00     0.164 HD
ENDROOT
TORSDOF 0
ENDMDL
MODEL 5
REMARK VINA RESULT:      -0.3      2.466      3.104
REMARK  0 active torsions:
REMARK  status: ('A' for Active; 'I' for Inactive)
ROOT
HETATM    1  C1  UNL     1     -35.026   6.407   4.428  1.00 20.00     0.096 A 
HETATM    2  C2  UNL     1     -34.204   4.513   3.515  1.00 20.00     0.096 A 
HETATM    3  C3  UNL     1     -34.064   6.761   3.518  1.00 20.00    -0.025 A 
HETATM    4  C4  UNL     1     -33.548   5.576   2.946  1.00 20.00    -0.025 A 
HETATM    5  C5  UNL     1     -33.503   8.042   3.052  1.00 20.00     0.114 A 
HETATM    6  C6  UNL     1     -32.490   5.712   1.929  1.00 20.00     0.114 A 
HETATM    7  N7  UNL     1     -35.103   5.032   4.419  1.00 20.00    -0.374 N 
HETATM    8  S8  UNL     1     -32.231   7.547   1.790  1.00 20.00    -0.160 SA
HETATM    9  H15 UNL     1     -35.729   4.485   4.992  1.00 20.00     0.164 HD
ENDROOT
TORSDOF 0
ENDMDL
MODEL 6
REMARK VINA RESULT:       1.7      2.362      3.406
REMARK  0 active torsions:
REMARK  status: ('A' for Active; 'I' for Inactive)
ROOT
HETATM    1  C1  UNL     1     -33.268   4.525   2.460  1.00 20.00     0.096 A 
HETATM    2  C2  UNL     1     -34.274   5.741   4.073  1.00 20.00     0.096 A 
HETATM    3  C3  UNL     1     -32.854   5.826   2.328  1.00 20.00    -0.025 A 
HETATM    4  C4  UNL     1     -33.485   6.588   3.337  1.00 20.00    -0.025 A 
HETATM    5  C5  UNL     1     -31.946   6.533   1.407  1.00 20.00     0.114 A 
HETATM    6  C6  UNL     1     -33.186   8.030   3.391  1.00 20.00     0.114 A 
HETATM    7  N7  UNL     1     -34.136   4.485   3.528  1.00 20.00    -0.374 N 
HETATM    8  S8  UNL     1     -31.996   8.297   1.989  1.00 20.00    -0.160 SA
HETATM    9  H15 UNL     1     -34.601   3.653   3.863  1.00 20.00     0.164 HD
ENDROOT
TORSDOF 0
ENDMDL
MODEL 7
REMARK VINA RESULT:       2.3      1.946      2.825
REMARK  0 active torsions:
REMARK  status: ('A' for Active; 'I' for Inactive)
ROOT
HETATM    1  C1  UNL     1     -34.296   7.411   4.080  1.00 20.00     0.096 A 
HETATM    2  C2  UNL     1     -32.733   8.665   3.041  1.00 20.00     0.096 A 
HETATM    3  C3  UNL     1     -33.679   6.624   3.143  1.00 20.00    -0.025 A 
HETATM    4  C4  UNL     1     -32.700   7.409   2.491  1.00 20.00    -0.025 A 
HETATM    5  C5  UNL     1     -33.825   5.221   2.712  1.00 20.00     0.114 A 
HETATM    6  C6  UNL     1     -31.903   6.764   1.432  1.00 20.00     0.114 A 
HETATM    7  N7  UNL     1     -33.711   8.656   4.009  1.00 20.00    -0.374 N 
HETATM    8  S8  UNL     1     -32.556   5.026   1.369  1.00 20.00    -0.160 SA
HETATM    9  H15 UNL     1     -33.963   9.447   4.586  1.00 20.00     0.164 HD
ENDROOT
TORSDOF 0
ENDMDL
