MODEL 1
REMARK VINA RESULT:       3.0      0.000      0.000
REMARK  1 active torsions:
REMARK  status: ('A' for Active; 'I' for Inactive)
REMARK    1  A    between atoms: C6_6  and  C10_10 
ROOT
HETATM    1  C1  UNL     1     -33.520   3.772   4.312  1.00 20.00     0.059 C 
HETATM    2  C10 UNL     1     -33.042   5.129   4.505  1.00 20.00     0.133 C 
HETATM    3  N11 UNL     1     -33.868   2.671   4.187  1.00 20.00    -0.197 NA
ENDROOT
BRANCH   2   4
HETATM    4  C6  UNL     1     -34.018   5.979   3.658  1.00 20.00    -0.025 C 
HETATM    5  C4  UNL     1     -33.839   5.612   2.170  1.00 20.00     0.011 C 
HETATM    6  C2  UNL     1     -32.708   6.501   1.649  1.00 20.00     0.002 C 
HETATM    7  C3  UNL     1     -32.470   7.581   2.706  1.00 20.00     0.010 C 
HETATM    8  C5  UNL     1     -33.674   7.508   3.669  1.00 20.00    -0.040 C 
HETATM    9  C7  UNL     1     -33.296   8.057   5.053  1.00 20.00     0.015 C 
HETATM   10  C8  UNL     1     -34.814   8.392   3.113  1.00 20.00     0.015 C 
HETATM   11  C9  UNL     1     -35.443   5.651   4.129  1.00 20.00     0.017 C 
ENDBRANCH   2   4
TORSDOF 1
ENDMDL
MODEL 2
REMARK VINA RESULT:       3.1      1.414      2.091
REMARK  1 active torsions:
REMARK  status: ('A' for Active; 'I' for Inactive)
REMARK    1  A    between atoms: C6_6  and  C10_10 
ROOT
HETATM    1  C1  UNL     1     -34.471   5.569   4.250  1.00 20.00     0.059 C 
HETATM    2  C10 UNL     1     -33.273   6.371   4.073  1.00 20.00     0.133 C 
HETATM    3  N11 UNL     1     -35.410   4.911   4.432  1.00 20.00    -0.197 NA
ENDROOT
BRANCH   2   4
HETATM    4  C6  UNL     1     -33.536   7.123   2.747  1.00 20.00    -0.025 C 
HETATM    5  C4  UNL     1     -33.813   6.092   1.633  1.00 20.00     0.011 C 
HETATM    6  C2  UNL     1     -32.445   5.701   1.070  1.00 20.00     0.002 C 
HETATM    7  C3  UNL     1     -31.437   6.718   1.607  1.00 20.00     0.010 C 
HETATM    8  C5  UNL     1     -32.272   7.872   2.202  1.00 20.00    -0.040 C 
HETATM    9  C7  UNL     1     -31.471   8.621   3.279  1.00 20.00     0.015 C 
HETATM   10  C8  UNL     1     -32.601   8.884   1.080  1.00 20.00     0.015 C 
HETATM   11  C9  UNL     1     -34.758   8.028   2.965  1.00 20.00     0.017 C 
ENDBRANCH   2   4
TORSDOF 1
ENDMDL
MODEL 3
REMARK VINA RESULT:       3.1      1.471      3.066
REMARK  1 active torsions:
REMARK  status: ('A' for Active; 'I' for Inactive)
REMARK    1  A    between atoms: C6_6  and  C10_10 
ROOT
HETATM    1  C1  UNL     1     -35.357   5.791   4.038  1.00 20.00     0.059 C 
HETATM    2  C10 UNL     1     -34.818   6.739   3.080  1.00 20.00     0.133 C 
HETATM    3  N11 UNL     1     -35.830   5.054   4.801  1.00 20.00    -0.197 NA
ENDROOT
BRANCH   2   4
HETATM    4  C6  UNL     1     -33.349   6.286   2.912  1.00 20.00    -0.025 C 
HETATM    5  C4  UNL     1     -32.421   7.361   3.514  1.00 20.00     0.011 C 
HETATM    6  C2  UNL     1     -32.173   8.377   2.398  1.00 20.00     0.002 C 
HETATM    7  C3  UNL     1     -32.663   7.738   1.098  1.00 20.00     0.010 C 
HETATM    8  C5  UNL     1     -32.885   6.244   1.415  1.00 20.00    -0.040 C 
HETATM    9  C7  UNL     1     -33.916   5.632   0.454  1.00 20.00     0.015 C 
HETATM   10  C8  UNL     1     -31.553   5.485   1.213  1.00 20.00     0.015 C 
HETATM   11  C9  UNL     1     -33.189   4.953   3.658  1.00 20.00     0.017 C 
ENDBRANCH   2   4
TORSDOF 1
ENDMDL
MODEL 4
REMARK VINA RESULT:       3.5      1.761      3.215
REMARK  1 active torsions:
REMARK  status: ('A' for Active; 'I' for Inactive)
REMARK    1  A    between atoms: C6_6  and  C10_10 
ROOT
HETATM    1  C1  UNL     1     -32.651   5.056   0.778  1.00 20.00     0.059 C 
HETATM    2  C10 UNL     1     -33.871   5.622   1.326  1.00 20.00     0.133 C 
HETATM    3  N11 UNL     1     -31.700   4.592   0.300  1.00 20.00    -0.197 NA
ENDROOT
BRANCH   2   4
HETATM    4  C6  UNL     1     -33.424   6.180   2.698  1.00 20.00    -0.025 C 
HETATM    5  C4  UNL     1     -32.709   5.060   3.484  1.00 20.00     0.011 C 
HETATM    6  C2  UNL     1     -33.809   4.295   4.222  1.00 20.00     0.002 C 
HETATM    7  C3  UNL     1     -35.077   5.145   4.135  1.00 20.00     0.010 C 
HETATM    8  C5  UNL     1     -34.625   6.535   3.640  1.00 20.00    -0.040 C 
HETATM    9  C7  UNL     1     -35.781   7.263   2.937  1.00 20.00     0.015 C 
HETATM   10  C8  UNL     1     -34.210   7.391   4.859  1.00 20.00     0.015 C 
HETATM   11  C9  UNL     1     -32.466   7.350   2.430  1.00 20.00     0.017 C 
ENDBRANCH   2   4
TORSDOF 1
ENDMDL
MODEL 5
REMARK VINA RESULT:       3.5      3.013      4.413
REMARK  1 active torsions:
REMARK  status: ('A' for Active; 'I' for Inactive)
REMARK    1  A    between atoms: C6_6  and  C10_10 
ROOT
HETATM    1  C1  UNL     1     -32.589   9.513   0.505  1.00 20.00     0.059 C 
HETATM    2  C10 UNL     1     -32.985   8.123   0.648  1.00 20.00     0.133 C 
HETATM    3  N11 UNL     1     -32.295  10.625   0.348  1.00 20.00    -0.197 NA
ENDROOT
BRANCH   2   4
HETATM    4  C6  UNL     1     -32.397   7.721   2.021  1.00 20.00    -0.025 C 
HETATM    5  C4  UNL     1     -31.915   6.256   1.949  1.00 20.00     0.011 C 
HETATM    6  C2  UNL     1     -33.134   5.394   2.285  1.00 20.00     0.002 C 
HETATM    7  C3  UNL     1     -34.196   6.332   2.861  1.00 20.00     0.010 C 
HETATM    8  C5  UNL     1     -33.473   7.663   3.159  1.00 20.00    -0.040 C 
HETATM    9  C7  UNL     1     -34.467   8.834   3.145  1.00 20.00     0.015 C 
HETATM   10  C8  UNL     1     -32.857   7.592   4.575  1.00 20.00     0.015 C 
HETATM   11  C9  UNL     1     -31.221   8.664   2.314  1.00 20.00     0.017 C 
ENDBRANCH   2   4
TORSDOF 1
ENDMDL
MODEL 6
REMARK VINA RESULT:       3.5      1.978      3.476
REMARK  1 active torsions:
REMARK  status: ('A' for Active; 'I' for Inactive)
REMARK    1  A    between atoms: C6_6  and  C10_10 
ROOT
HETATM    1  C1  UNL     1     -33.757   4.945   0.014  1.00 20.00     0.059 C 
HETATM    2  C10 UNL     1     -33.991   6.257   0.592  1.00 20.00     0.133 C 
HETATM    3  N11 UNL     1     -33.606   3.905  -0.478  1.00 20.00    -0.197 NA
ENDROOT
BRANCH   2   4
HETATM    4  C6  UNL     1     -32.915   6.361   1.698  1.00 20.00    -0.025 C 
HETATM    5  C4  UNL     1     -33.488   5.782   3.009  1.00 20.00     0.011 C 
HETATM    6  C2  UNL     1     -34.220   6.937   3.696  1.00 20.00     0.002 C 
HETATM    7  C3  UNL     1     -33.800   8.219   2.976  1.00 20.00     0.010 C 
HETATM    8  C5  UNL     1     -32.586   7.839   2.101  1.00 20.00    -0.040 C 
HETATM    9  C7  UNL     1     -32.454   8.801   0.911  1.00 20.00     0.015 C 
HETATM   10  C8  UNL     1     -31.299   7.967   2.948  1.00 20.00     0.015 C 
HETATM   11  C9  UNL     1     -31.697   5.549   1.234  1.00 20.00     0.017 C 
ENDBRANCH   2   4
TORSDOF 1
ENDMDL
MODEL 7
REMARK VINA RESULT:       3.6      1.947      2.947
REMARK  1 active torsions:
REMARK  status: ('A' for Active; 'I' for Inactive)
REMARK    1  A    between atoms: C6_6  and  C10_10 
ROOT
HETATM    1  C1  UNL     1     -31.653   4.689   0.935  1.00 20.00     0.059 C 
HETATM    2  C10 UNL     1     -31.845   5.351   2.214  1.00 20.00     0.133 C 
HETATM    3  N11 UNL     1     -31.462   4.138  -0.068  1.00 20.00    -0.197 NA
ENDROOT
BRANCH   2   4
HETATM    4  C6  UNL     1     -33.098   6.227   1.981  1.00 20.00    -0.025 C 
HETATM    5  C4  UNL     1     -32.652   7.686   1.749  1.00 20.00     0.011 C 
HETATM    6  C2  UNL     1     -32.540   8.319   3.137  1.00 20.00     0.002 C 
HETATM    7  C3  UNL     1     -33.222   7.363   4.117  1.00 20.00     0.010 C 
HETATM    8  C5  UNL     1     -34.006   6.354   3.252  1.00 20.00    -0.040 C 
HETATM    9  C7  UNL     1     -34.212   5.034   4.012  1.00 20.00     0.015 C 
HETATM   10  C8  UNL     1     -35.405   6.937   2.945  1.00 20.00     0.015 C 
HETATM   11  C9  UNL     1     -33.822   5.678   0.743  1.00 20.00     0.017 C 
ENDBRANCH   2   4
TORSDOF 1
ENDMDL
MODEL 8
REMARK VINA RESULT:       3.8      2.708      4.073
REMARK  1 active torsions:
REMARK  status: ('A' for Active; 'I' for Inactive)
REMARK    1  A    between atoms: C6_6  and  C10_10 
ROOT
HETATM    1  C1  UNL     1     -32.423   9.027   1.008  1.00 20.00     0.059 C 
HETATM    2  C10 UNL     1     -33.527   8.562   1.830  1.00 20.00     0.133 C 
HETATM    3  N11 UNL     1     -31.571   9.429   0.331  1.00 20.00    -0.197 NA
ENDROOT
BRANCH   2   4
HETATM    4  C6  UNL     1     -32.885   7.458   2.703  1.00 20.00    -0.025 C 
HETATM    5  C4  UNL     1     -31.760   6.775   1.898  1.00 20.00     0.011 C 
HETATM    6  C2  UNL     1     -32.434   5.662   1.093  1.00 20.00     0.002 C 
HETATM    7  C3  UNL     1     -33.841   5.489   1.666  1.00 20.00     0.010 C 
HETATM    8  C5  UNL     1     -33.857   6.265   3.000  1.00 20.00    -0.040 C 
HETATM    9  C7  UNL     1     -35.287   6.693   3.361  1.00 20.00     0.015 C 
HETATM   10  C8  UNL     1     -33.351   5.335   4.127  1.00 20.00     0.015 C 
HETATM   11  C9  UNL     1     -32.318   8.136   3.960  1.00 20.00     0.017 C 
ENDBRANCH   2   4
TORSDOF 1
ENDMDL
MODEL 9
REMARK VINA RESULT:       4.1      2.391      3.661
REMARK  1 active torsions:
REMARK  status: ('A' for Active; 'I' for Inactive)
REMARK    1  A    between atoms: C6_6  and  C10_10 
ROOT
HETATM    1  C1  UNL     1     -31.706   7.593   1.376  1.00 20.00     0.059 C 
HETATM    2  C10 UNL     1     -32.126   6.415   2.113  1.00 20.00     0.133 C 
HETATM    3  N11 UNL     1     -31.327   8.518   0.785  1.00 20.00    -0.197 NA
ENDROOT
BRANCH   2   4
HETATM    4  C6  UNL     1     -33.636   6.655   2.346  1.00 20.00    -0.025 C 
HETATM    5  C4  UNL     1     -33.863   8.151   2.652  1.00 20.00     0.011 C 
HETATM    6  C2  UNL     1     -33.667   8.306   4.162  1.00 20.00     0.002 C 
HETATM    7  C3  UNL     1     -33.659   6.898   4.757  1.00 20.00     0.010 C 
HETATM    8  C5  UNL     1     -34.177   5.962   3.644  1.00 20.00    -0.040 C 
HETATM    9  C7  UNL     1     -33.661   4.531   3.854  1.00 20.00     0.015 C 
HETATM   10  C8  UNL     1     -35.722   5.913   3.708  1.00 20.00     0.015 C 
HETATM   11  C9  UNL     1     -34.372   6.247   1.061  1.00 20.00     0.017 C 
ENDBRANCH   2   4
TORSDOF 1
ENDMDL
