MODEL 1
REMARK VINA RESULT:      -1.2      0.000      0.000
REMARK  2 active torsions:
REMARK  status: ('A' for Active; 'I' for Inactive)
REMARK    1  A    between atoms: C1_1  and  C5_5 
REMARK    2  A    between atoms: C1_1  and  C6_6 
ROOT
HETATM    1  C1  UNL     1     -33.465   5.825   2.879  1.00 20.00     0.182 C 
HETATM    2  O7  UNL     1     -33.362   4.726   3.432  1.00 20.00    -0.293 OA
ENDROOT
BRANCH   1   3
HETATM    3  C5  UNL     1     -34.339   6.889   3.502  1.00 20.00     0.335 C 
HETATM    4  F8  UNL     1     -33.632   7.618   4.406  1.00 20.00    -0.225 F 
HETATM    5 CL9  UNL     1     -35.674   6.078   4.337  1.00 20.00    -0.081 Cl
ENDBRANCH   1   3
BRANCH   1   6
HETATM    6  C6  UNL     1     -32.695   6.153   1.582  1.00 20.00     0.014 C 
HETATM    7  C2  UNL     1     -32.069   7.552   1.649  1.00 20.00     0.023 C 
HETATM    8  C3  UNL     1     -33.667   6.113   0.388  1.00 20.00     0.023 C 
HETATM    9  C4  UNL     1     -31.607   5.093   1.367  1.00 20.00     0.023 C 
ENDBRANCH   1   6
TORSDOF 2
ENDMDL
MODEL 2
REMARK VINA RESULT:      -1.1      0.054      1.453
REMARK  2 active torsions:
REMARK  status: ('A' for Active; 'I' for Inactive)
REMARK    1  A    between atoms: C1_1  and  C5_5 
REMARK    2  A    between atoms: C1_1  and  C6_6 
ROOT
HETATM    1  C1  UNL     1     -33.457   5.805   2.868  1.00 20.00     0.182 C 
HETATM    2  O7  UNL     1     -33.351   4.719   3.446  1.00 20.00    -0.293 OA
ENDROOT
BRANCH   1   3
HETATM    3  C5  UNL     1     -34.314   6.889   3.480  1.00 20.00     0.335 C 
HETATM    4  F8  UNL     1     -33.598   7.612   4.382  1.00 20.00    -0.225 F 
HETATM    5 CL9  UNL     1     -35.667   6.109   4.315  1.00 20.00    -0.081 Cl
ENDBRANCH   1   3
BRANCH   1   6
HETATM    6  C6  UNL     1     -32.707   6.096   1.551  1.00 20.00     0.014 C 
HETATM    7  C2  UNL     1     -33.654   6.016   0.347  1.00 20.00     0.023 C 
HETATM    8  C3  UNL     1     -31.590   5.054   1.359  1.00 20.00     0.023 C 
HETATM    9  C4  UNL     1     -32.073   7.490   1.637  1.00 20.00     0.023 C 
ENDBRANCH   1   6
TORSDOF 2
ENDMDL
MODEL 3
REMARK VINA RESULT:      -1.0      1.620      2.156
REMARK  2 active torsions:
REMARK  status: ('A' for Active; 'I' for Inactive)
REMARK    1  A    between atoms: C1_1  and  C5_5 
REMARK    2  A    between atoms: C1_1  and  C6_6 
ROOT
HETATM    1  C1  UNL     1     -33.561   6.645   3.160  1.00 20.00     0.182 C 
HETATM    2  O7  UNL     1     -33.303   7.523   3.990  1.00 20.00    -0.293 OA
ENDROOT
BRANCH   1   3
HETATM    3  C5  UNL     1     -34.675   5.664   3.441  1.00 20.00     0.335 C 
HETATM    4  F8  UNL     1     -35.560   6.188   4.331  1.00 20.00    -0.225 F 
HETATM    5 CL9  UNL     1     -33.955   4.204   4.139  1.00 20.00    -0.081 Cl
ENDBRANCH   1   3
BRANCH   1   6
HETATM    6  C6  UNL     1     -32.793   6.546   1.825  1.00 20.00     0.014 C 
HETATM    7  C2  UNL     1     -31.786   5.389   1.852  1.00 20.00     0.023 C 
HETATM    8  C3  UNL     1     -32.021   7.856   1.582  1.00 20.00     0.023 C 
HETATM    9  C4  UNL     1     -33.800   6.348   0.685  1.00 20.00     0.023 C 
ENDBRANCH   1   6
TORSDOF 2
ENDMDL
MODEL 4
REMARK VINA RESULT:      -1.0      1.620      1.620
REMARK  2 active torsions:
REMARK  status: ('A' for Active; 'I' for Inactive)
REMARK    1  A    between atoms: C1_1  and  C5_5 
REMARK    2  A    between atoms: C1_1  and  C6_6 
ROOT
HETATM    1  C1  UNL     1     -33.547   6.667   3.169  1.00 20.00     0.182 C 
HETATM    2  O7  UNL     1     -33.282   7.524   4.018  1.00 20.00    -0.293 OA
ENDROOT
BRANCH   1   3
HETATM    3  C5  UNL     1     -34.667   5.687   3.430  1.00 20.00     0.335 C 
HETATM    4  F8  UNL     1     -35.567   6.212   4.305  1.00 20.00    -0.225 F 
HETATM    5 CL9  UNL     1     -33.960   4.227   4.142  1.00 20.00    -0.081 Cl
ENDBRANCH   1   3
BRANCH   1   6
HETATM    6  C6  UNL     1     -32.783   6.593   1.830  1.00 20.00     0.014 C 
HETATM    7  C2  UNL     1     -32.011   7.891   1.562  1.00 20.00     0.023 C 
HETATM    8  C3  UNL     1     -33.786   6.380   0.681  1.00 20.00     0.023 C 
HETATM    9  C4  UNL     1     -31.820   5.399   1.871  1.00 20.00     0.023 C 
ENDBRANCH   1   6
TORSDOF 2
ENDMDL
MODEL 5
REMARK VINA RESULT:      -0.8      2.569      3.614
REMARK  2 active torsions:
REMARK  status: ('A' for Active; 'I' for Inactive)
REMARK    1  A    between atoms: C1_1  and  C5_5 
REMARK    2  A    between atoms: C1_1  and  C6_6 
ROOT
HETATM    1  C1  UNL     1     -33.250   6.714   2.461  1.00 20.00     0.182 C 
HETATM    2  O7  UNL     1     -32.681   7.784   2.221  1.00 20.00    -0.293 OA
ENDROOT
BRANCH   1   3
HETATM    3  C5  UNL     1     -32.910   5.493   1.639  1.00 20.00     0.335 C 
HETATM    4  F8  UNL     1     -31.590   5.491   1.310  1.00 20.00    -0.225 F 
HETATM    5 CL9  UNL     1     -33.871   5.551   0.152  1.00 20.00    -0.081 Cl
ENDBRANCH   1   3
BRANCH   1   6
HETATM    6  C6  UNL     1     -34.278   6.585   3.605  1.00 20.00     0.014 C 
HETATM    7  C2  UNL     1     -34.301   5.159   4.168  1.00 20.00     0.023 C 
HETATM    8  C3  UNL     1     -35.683   6.917   3.068  1.00 20.00     0.023 C 
HETATM    9  C4  UNL     1     -33.923   7.589   4.710  1.00 20.00     0.023 C 
ENDBRANCH   1   6
TORSDOF 2
ENDMDL
MODEL 6
REMARK VINA RESULT:      -0.7      1.448      2.031
REMARK  2 active torsions:
REMARK  status: ('A' for Active; 'I' for Inactive)
REMARK    1  A    between atoms: C1_1  and  C5_5 
REMARK    2  A    between atoms: C1_1  and  C6_6 
ROOT
HETATM    1  C1  UNL     1     -33.239   7.066   2.608  1.00 20.00     0.182 C 
HETATM    2  O7  UNL     1     -33.329   5.896   2.223  1.00 20.00    -0.293 OA
ENDROOT
BRANCH   1   3
HETATM    3  C5  UNL     1     -34.177   7.566   3.683  1.00 20.00     0.335 C 
HETATM    4  F8  UNL     1     -33.494   7.821   4.831  1.00 20.00    -0.225 F 
HETATM    5 CL9  UNL     1     -35.373   6.298   3.996  1.00 20.00    -0.081 Cl
ENDBRANCH   1   3
BRANCH   1   6
HETATM    6  C6  UNL     1     -32.170   8.024   2.042  1.00 20.00     0.014 C 
HETATM    7  C2  UNL     1     -32.805   9.095   1.147  1.00 20.00     0.023 C 
HETATM    8  C3  UNL     1     -31.162   7.222   1.198  1.00 20.00     0.023 C 
HETATM    9  C4  UNL     1     -31.422   8.681   3.210  1.00 20.00     0.023 C 
ENDBRANCH   1   6
TORSDOF 2
ENDMDL
MODEL 7
REMARK VINA RESULT:      -0.7      3.141      3.705
REMARK  2 active torsions:
REMARK  status: ('A' for Active; 'I' for Inactive)
REMARK    1  A    between atoms: C1_1  and  C5_5 
REMARK    2  A    between atoms: C1_1  and  C6_6 
ROOT
HETATM    1  C1  UNL     1     -32.183   7.887   1.714  1.00 20.00     0.182 C 
HETATM    2  O7  UNL     1     -31.736   8.394   2.748  1.00 20.00    -0.293 OA
ENDROOT
BRANCH   1   3
HETATM    3  C5  UNL     1     -32.081   8.647   0.412  1.00 20.00     0.335 C 
HETATM    4  F8  UNL     1     -30.786   8.718   0.001  1.00 20.00    -0.225 F 
HETATM    5 CL9  UNL     1     -32.684  10.290   0.690  1.00 20.00    -0.081 Cl
ENDBRANCH   1   3
BRANCH   1   6
HETATM    6  C6  UNL     1     -32.815   6.479   1.712  1.00 20.00     0.014 C 
HETATM    7  C2  UNL     1     -31.737   5.390   1.639  1.00 20.00     0.023 C 
HETATM    8  C3  UNL     1     -33.735   6.334   0.486  1.00 20.00     0.023 C 
HETATM    9  C4  UNL     1     -33.657   6.309   2.983  1.00 20.00     0.023 C 
ENDBRANCH   1   6
TORSDOF 2
ENDMDL
MODEL 8
REMARK VINA RESULT:      -0.6      2.580      3.523
REMARK  2 active torsions:
REMARK  status: ('A' for Active; 'I' for Inactive)
REMARK    1  A    between atoms: C1_1  and  C5_5 
REMARK    2  A    between atoms: C1_1  and  C6_6 
ROOT
HETATM    1  C1  UNL     1     -33.316   6.650   2.465  1.00 20.00     0.182 C 
HETATM    2  O7  UNL     1     -33.190   5.757   1.622  1.00 20.00    -0.293 OA
ENDROOT
BRANCH   1   3
HETATM    3  C5  UNL     1     -32.480   7.904   2.347  1.00 20.00     0.335 C 
HETATM    4  F8  UNL     1     -33.198   8.905   1.771  1.00 20.00    -0.225 F 
HETATM    5 CL9  UNL     1     -31.085   7.534   1.320  1.00 20.00    -0.081 Cl
ENDBRANCH   1   3
BRANCH   1   6
HETATM    6  C6  UNL     1     -34.333   6.534   3.619  1.00 20.00     0.014 C 
HETATM    7  C2  UNL     1     -34.351   5.114   4.199  1.00 20.00     0.023 C 
HETATM    8  C3  UNL     1     -35.743   6.861   3.093  1.00 20.00     0.023 C 
HETATM    9  C4  UNL     1     -33.967   7.549   4.710  1.00 20.00     0.023 C 
ENDBRANCH   1   6
TORSDOF 2
ENDMDL
MODEL 9
REMARK VINA RESULT:      -0.6      2.584      3.515
REMARK  2 active torsions:
REMARK  status: ('A' for Active; 'I' for Inactive)
REMARK    1  A    between atoms: C1_1  and  C5_5 
REMARK    2  A    between atoms: C1_1  and  C6_6 
ROOT
HETATM    1  C1  UNL     1     -33.307   6.658   2.446  1.00 20.00     0.182 C 
HETATM    2  O7  UNL     1     -33.173   5.772   1.596  1.00 20.00    -0.293 OA
ENDROOT
BRANCH   1   3
HETATM    3  C5  UNL     1     -32.473   7.914   2.346  1.00 20.00     0.335 C 
HETATM    4  F8  UNL     1     -33.194   8.923   1.787  1.00 20.00    -0.225 F 
HETATM    5 CL9  UNL     1     -31.081   7.563   1.308  1.00 20.00    -0.081 Cl
ENDBRANCH   1   3
BRANCH   1   6
HETATM    6  C6  UNL     1     -34.333   6.530   3.592  1.00 20.00     0.014 C 
HETATM    7  C2  UNL     1     -35.752   6.846   3.102  1.00 20.00     0.023 C 
HETATM    8  C3  UNL     1     -33.974   7.524   4.712  1.00 20.00     0.023 C 
HETATM    9  C4  UNL     1     -34.271   5.105   4.159  1.00 20.00     0.023 C 
ENDBRANCH   1   6
TORSDOF 2
ENDMDL
