MODEL 1
REMARK VINA RESULT:      -1.3      0.000      0.000
REMARK  1 active torsions:
REMARK  status: ('A' for Active; 'I' for Inactive)
REMARK    1  A    between atoms: C1_1  and  C5_5 
ROOT
HETATM    1  C1  UNL     1     -32.461   7.860   1.706  1.00 20.00     0.141 A 
HETATM    2  C2  UNL     1     -33.788   6.740   3.016  1.00 20.00     0.187 A 
HETATM    3  N6  UNL     1     -33.428   7.962   2.691  1.00 20.00    -0.211 NA
HETATM    4  N7  UNL     1     -32.062   6.669   1.261  1.00 20.00    -0.193 NA
HETATM    5  S8  UNL     1     -32.946   5.540   2.124  1.00 20.00     0.046 SA
HETATM    6 CL9  UNL     1     -34.960   6.342   4.189  1.00 20.00    -0.053 Cl
ENDROOT
BRANCH   1   7
HETATM    7  C5  UNL     1     -31.840   9.142   1.122  1.00 20.00     0.058 A 
HETATM    8  C3  UNL     1     -32.746  10.316   0.833  1.00 20.00     0.013 A 
HETATM    9  C4  UNL     1     -32.175   9.524  -0.301  1.00 20.00     0.013 A 
ENDBRANCH   1   7
TORSDOF 1
ENDMDL
MODEL 2
REMARK VINA RESULT:      -0.6      3.100      4.141
REMARK  1 active torsions:
REMARK  status: ('A' for Active; 'I' for Inactive)
REMARK    1  A    between atoms: C1_1  and  C5_5 
ROOT
HETATM    1  C1  UNL     1     -33.447   6.835   2.909  1.00 20.00     0.141 A 
HETATM    2  C2  UNL     1     -32.197   5.878   1.408  1.00 20.00     0.187 A 
HETATM    3  N6  UNL     1     -33.182   5.648   2.248  1.00 20.00    -0.211 NA
HETATM    4  N7  UNL     1     -32.748   7.937   2.640  1.00 20.00    -0.193 NA
HETATM    5  S8  UNL     1     -31.646   7.502   1.460  1.00 20.00     0.046 SA
HETATM    6 CL9  UNL     1     -31.511   4.720   0.360  1.00 20.00    -0.053 Cl
ENDROOT
BRANCH   1   7
HETATM    7  C5  UNL     1     -34.561   6.876   3.970  1.00 20.00     0.058 A 
HETATM    8  C3  UNL     1     -35.181   5.572   4.416  1.00 20.00     0.013 A 
HETATM    9  C4  UNL     1     -35.967   6.509   3.555  1.00 20.00     0.013 A 
ENDBRANCH   1   7
TORSDOF 1
ENDMDL
MODEL 3
REMARK VINA RESULT:      -0.6      1.947      2.557
REMARK  1 active torsions:
REMARK  status: ('A' for Active; 'I' for Inactive)
REMARK    1  A    between atoms: C1_1  and  C5_5 
ROOT
HETATM    1  C1  UNL     1     -33.285   6.490   2.456  1.00 20.00     0.141 A 
HETATM    2  C2  UNL     1     -33.806   4.802   3.726  1.00 20.00     0.187 A 
HETATM    3  N6  UNL     1     -32.971   5.182   2.783  1.00 20.00    -0.211 NA
HETATM    4  N7  UNL     1     -34.282   7.127   3.069  1.00 20.00    -0.193 NA
HETATM    5  S8  UNL     1     -34.919   6.033   4.163  1.00 20.00     0.046 SA
HETATM    6 CL9  UNL     1     -33.819   3.265   4.464  1.00 20.00    -0.053 Cl
ENDROOT
BRANCH   1   7
HETATM    7  C5  UNL     1     -32.472   7.211   1.367  1.00 20.00     0.058 A 
HETATM    8  C3  UNL     1     -31.264   8.018   1.783  1.00 20.00     0.013 A 
HETATM    9  C4  UNL     1     -32.502   8.721   1.324  1.00 20.00     0.013 A 
ENDBRANCH   1   7
TORSDOF 1
ENDMDL
MODEL 4
REMARK VINA RESULT:      -0.4      3.143      5.214
REMARK  1 active torsions:
REMARK  status: ('A' for Active; 'I' for Inactive)
REMARK    1  A    between atoms: C1_1  and  C5_5 
ROOT
HETATM    1  C1  UNL     1     -33.986   5.120   3.809  1.00 20.00     0.141 A 
HETATM    2  C2  UNL     1     -33.144   6.770   2.667  1.00 20.00     0.187 A 
HETATM    3  N6  UNL     1     -33.012   5.480   2.893  1.00 20.00    -0.211 NA
HETATM    4  N7  UNL     1     -34.838   6.023   4.292  1.00 20.00    -0.193 NA
HETATM    5  S8  UNL     1     -34.425   7.473   3.566  1.00 20.00     0.046 SA
HETATM    6 CL9  UNL     1     -32.173   7.684   1.605  1.00 20.00    -0.053 Cl
ENDROOT
BRANCH   1   7
HETATM    7  C5  UNL     1     -34.078   3.656   4.274  1.00 20.00     0.058 A 
HETATM    8  C3  UNL     1     -33.191   3.202   5.410  1.00 20.00     0.013 A 
HETATM    9  C4  UNL     1     -32.904   2.740   4.016  1.00 20.00     0.013 A 
ENDBRANCH   1   7
TORSDOF 1
ENDMDL
MODEL 5
REMARK VINA RESULT:      -0.4      2.499      4.129
REMARK  1 active torsions:
REMARK  status: ('A' for Active; 'I' for Inactive)
REMARK    1  A    between atoms: C1_1  and  C5_5 
ROOT
HETATM    1  C1  UNL     1     -33.421   6.672   2.862  1.00 20.00     0.141 A 
HETATM    2  C2  UNL     1     -32.096   7.661   1.448  1.00 20.00     0.187 A 
HETATM    3  N6  UNL     1     -32.888   7.889   2.473  1.00 20.00    -0.211 NA
HETATM    4  N7  UNL     1     -33.099   5.549   2.222  1.00 20.00    -0.193 NA
HETATM    5  S8  UNL     1     -32.036   6.003   1.012  1.00 20.00     0.046 SA
HETATM    6 CL9  UNL     1     -31.203   8.851   0.615  1.00 20.00    -0.053 Cl
ENDROOT
BRANCH   1   7
HETATM    7  C5  UNL     1     -34.399   6.622   4.049  1.00 20.00     0.058 A 
HETATM    8  C3  UNL     1     -35.056   5.304   4.388  1.00 20.00     0.013 A 
HETATM    9  C4  UNL     1     -35.867   6.397   3.766  1.00 20.00     0.013 A 
ENDBRANCH   1   7
TORSDOF 1
ENDMDL
MODEL 6
REMARK VINA RESULT:      -0.2      1.370      1.720
REMARK  1 active torsions:
REMARK  status: ('A' for Active; 'I' for Inactive)
REMARK    1  A    between atoms: C1_1  and  C5_5 
ROOT
HETATM    1  C1  UNL     1     -32.695   7.867   2.093  1.00 20.00     0.141 A 
HETATM    2  C2  UNL     1     -33.510   6.074   3.016  1.00 20.00     0.187 A 
HETATM    3  N6  UNL     1     -32.792   6.490   1.995  1.00 20.00    -0.211 NA
HETATM    4  N7  UNL     1     -33.276   8.524   3.096  1.00 20.00    -0.193 NA
HETATM    5  S8  UNL     1     -34.027   7.357   4.031  1.00 20.00     0.046 SA
HETATM    6 CL9  UNL     1     -33.908   4.447   3.337  1.00 20.00    -0.053 Cl
ENDROOT
BRANCH   1   7
HETATM    7  C5  UNL     1     -31.908   8.645   1.024  1.00 20.00     0.058 A 
HETATM    8  C3  UNL     1     -32.368  10.038   0.659  1.00 20.00     0.013 A 
HETATM    9  C4  UNL     1     -32.569   8.914  -0.308  1.00 20.00     0.013 A 
ENDBRANCH   1   7
TORSDOF 1
ENDMDL
MODEL 7
REMARK VINA RESULT:       0.1      2.677      3.929
REMARK  1 active torsions:
REMARK  status: ('A' for Active; 'I' for Inactive)
REMARK    1  A    between atoms: C1_1  and  C5_5 
ROOT
HETATM    1  C1  UNL     1     -32.563   7.839   2.303  1.00 20.00     0.141 A 
HETATM    2  C2  UNL     1     -32.421   9.358   0.752  1.00 20.00     0.187 A 
HETATM    3  N6  UNL     1     -33.059   9.054   1.861  1.00 20.00    -0.211 NA
HETATM    4  N7  UNL     1     -31.610   7.202   1.624  1.00 20.00    -0.193 NA
HETATM    5  S8  UNL     1     -31.267   8.170   0.302  1.00 20.00     0.046 SA
HETATM    6 CL9  UNL     1     -32.679  10.767  -0.172  1.00 20.00    -0.053 Cl
ENDROOT
BRANCH   1   7
HETATM    7  C5  UNL     1     -33.127   7.218   3.593  1.00 20.00     0.058 A 
HETATM    8  C3  UNL     1     -34.302   6.274   3.487  1.00 20.00     0.013 A 
HETATM    9  C4  UNL     1     -34.500   7.642   4.059  1.00 20.00     0.013 A 
ENDBRANCH   1   7
TORSDOF 1
ENDMDL
MODEL 8
REMARK VINA RESULT:       0.8      2.620      3.229
REMARK  1 active torsions:
REMARK  status: ('A' for Active; 'I' for Inactive)
REMARK    1  A    between atoms: C1_1  and  C5_5 
ROOT
HETATM    1  C1  UNL     1     -32.984   6.385   2.268  1.00 20.00     0.141 A 
HETATM    2  C2  UNL     1     -34.496   6.056   3.797  1.00 20.00     0.187 A 
HETATM    3  N6  UNL     1     -33.853   5.458   2.818  1.00 20.00    -0.211 NA
HETATM    4  N7  UNL     1     -32.917   7.626   2.747  1.00 20.00    -0.193 NA
HETATM    5  S8  UNL     1     -34.024   7.692   4.000  1.00 20.00     0.046 SA
HETATM    6 CL9  UNL     1     -35.678   5.324   4.785  1.00 20.00    -0.053 Cl
ENDROOT
BRANCH   1   7
HETATM    7  C5  UNL     1     -32.089   5.971   1.086  1.00 20.00     0.058 A 
HETATM    8  C3  UNL     1     -32.451   4.729   0.306  1.00 20.00     0.013 A 
HETATM    9  C4  UNL     1     -31.261   4.714   1.213  1.00 20.00     0.013 A 
ENDBRANCH   1   7
TORSDOF 1
ENDMDL
MODEL 9
REMARK VINA RESULT:       0.9      2.986      4.966
REMARK  1 active torsions:
REMARK  status: ('A' for Active; 'I' for Inactive)
REMARK    1  A    between atoms: C1_1  and  C5_5 
ROOT
HETATM    1  C1  UNL     1     -33.762   4.928   3.645  1.00 20.00     0.141 A 
HETATM    2  C2  UNL     1     -34.004   7.070   3.348  1.00 20.00     0.187 A 
HETATM    3  N6  UNL     1     -34.337   6.082   4.150  1.00 20.00    -0.211 NA
HETATM    4  N7  UNL     1     -33.025   4.961   2.535  1.00 20.00    -0.193 NA
HETATM    5  S8  UNL     1     -33.022   6.559   2.037  1.00 20.00     0.046 SA
HETATM    6 CL9  UNL     1     -34.471   8.697   3.551  1.00 20.00    -0.053 Cl
ENDROOT
BRANCH   1   7
HETATM    7  C5  UNL     1     -33.981   3.593   4.377  1.00 20.00     0.058 A 
HETATM    8  C3  UNL     1     -33.013   3.200   5.469  1.00 20.00     0.013 A 
HETATM    9  C4  UNL     1     -32.986   2.477   4.160  1.00 20.00     0.013 A 
ENDBRANCH   1   7
TORSDOF 1
ENDMDL
