MODEL 1
REMARK VINA RESULT:      -0.1      0.000      0.000
REMARK  3 active torsions:
REMARK  status: ('A' for Active; 'I' for Inactive)
REMARK    1  A    between atoms: C4_4  and  N8_8 
REMARK    2  A    between atoms: C6_6  and  C7_7 
REMARK    3  A    between atoms: C6_6  and  N8_8 
ROOT
HETATM    1  C1  UNL     1     -34.170   7.165   3.663  1.00 20.00     0.047 C 
HETATM    2  C2  UNL     1     -35.387   6.458   4.240  1.00 20.00     0.076 C 
HETATM    3  C3  UNL     1     -33.387   4.872   3.394  1.00 20.00     0.109 C 
HETATM    4  C4  UNL     1     -33.554   6.196   2.656  1.00 20.00     0.232 C 
HETATM    5  S9  UNL     1     -34.887   4.721   4.408  1.00 20.00    -0.167 SA
ENDROOT
BRANCH   4   6
HETATM    6  N8  UNL     1     -32.277   6.678   2.142  1.00 20.00     0.090 N 
HETATM    7  C5  UNL     1     -31.970   6.054   0.853  1.00 20.00     0.310 C 
BRANCH   6   8
HETATM    8  C6  UNL     1     -32.292   8.136   2.007  1.00 20.00     0.287 C 
BRANCH   8   9
HETATM    9  C7  UNL     1     -31.848   8.600   0.630  1.00 20.00     0.144 C 
HETATM   10 CL10 UNL     1     -32.524  10.200   0.237  1.00 20.00    -0.129 Cl
ENDBRANCH   8   9
ENDBRANCH   6   8
ENDBRANCH   4   6
TORSDOF 3
ENDMDL
MODEL 2
REMARK VINA RESULT:       0.1      3.653      5.034
REMARK  3 active torsions:
REMARK  status: ('A' for Active; 'I' for Inactive)
REMARK    1  A    between atoms: C4_4  and  N8_8 
REMARK    2  A    between atoms: C6_6  and  C7_7 
REMARK    3  A    between atoms: C6_6  and  N8_8 
ROOT
HETATM    1  C1  UNL     1     -32.642   5.612   1.967  1.00 20.00     0.047 C 
HETATM    2  C2  UNL     1     -32.047   6.522   0.903  1.00 20.00     0.076 C 
HETATM    3  C3  UNL     1     -32.930   7.731   3.137  1.00 20.00     0.109 C 
HETATM    4  C4  UNL     1     -33.662   6.458   2.728  1.00 20.00     0.232 C 
HETATM    5  S9  UNL     1     -31.892   8.144   1.704  1.00 20.00    -0.167 SA
ENDROOT
BRANCH   4   6
HETATM    6  N8  UNL     1     -34.195   5.759   3.890  1.00 20.00     0.090 N 
HETATM    7  C5  UNL     1     -35.580   6.162   4.146  1.00 20.00     0.310 C 
BRANCH   6   8
HETATM    8  C6  UNL     1     -34.119   4.309   3.702  1.00 20.00     0.287 C 
BRANCH   8   9
HETATM    9  C7  UNL     1     -33.514   3.595   4.900  1.00 20.00     0.144 C 
HETATM   10 CL10 UNL     1     -33.242   1.869   4.555  1.00 20.00    -0.129 Cl
ENDBRANCH   8   9
ENDBRANCH   6   8
ENDBRANCH   4   6
TORSDOF 3
ENDMDL
MODEL 3
REMARK VINA RESULT:       0.3      0.964      1.405
REMARK  3 active torsions:
REMARK  status: ('A' for Active; 'I' for Inactive)
REMARK    1  A    between atoms: C4_4  and  N8_8 
REMARK    2  A    between atoms: C6_6  and  C7_7 
REMARK    3  A    between atoms: C6_6  and  N8_8 
ROOT
HETATM    1  C1  UNL     1     -34.496   7.142   4.009  1.00 20.00     0.047 C 
HETATM    2  C2  UNL     1     -35.264   5.856   4.276  1.00 20.00     0.076 C 
HETATM    3  C3  UNL     1     -32.999   5.608   2.848  1.00 20.00     0.109 C 
HETATM    4  C4  UNL     1     -33.750   6.925   2.693  1.00 20.00     0.232 C 
HETATM    5  S9  UNL     1     -34.153   4.524   3.740  1.00 20.00    -0.167 SA
ENDROOT
BRANCH   4   6
HETATM    6  N8  UNL     1     -32.836   8.022   2.394  1.00 20.00     0.090 N 
HETATM    7  C5  UNL     1     -32.108   8.430   3.598  1.00 20.00     0.310 C 
BRANCH   6   8
HETATM    8  C6  UNL     1     -31.896   7.638   1.340  1.00 20.00     0.287 C 
BRANCH   8   9
HETATM    9  C7  UNL     1     -31.368   8.833   0.564  1.00 20.00     0.144 C 
HETATM   10 CL10 UNL     1     -32.633  10.064   0.331  1.00 20.00    -0.129 Cl
ENDBRANCH   8   9
ENDBRANCH   6   8
ENDBRANCH   4   6
TORSDOF 3
ENDMDL
MODEL 4
REMARK VINA RESULT:       0.7      3.302      4.718
REMARK  3 active torsions:
REMARK  status: ('A' for Active; 'I' for Inactive)
REMARK    1  A    between atoms: C4_4  and  N8_8 
REMARK    2  A    between atoms: C6_6  and  C7_7 
REMARK    3  A    between atoms: C6_6  and  N8_8 
ROOT
HETATM    1  C1  UNL     1     -32.736   5.860   1.989  1.00 20.00     0.047 C 
HETATM    2  C2  UNL     1     -32.146   6.344   0.673  1.00 20.00     0.076 C 
HETATM    3  C3  UNL     1     -32.415   8.197   2.603  1.00 20.00     0.109 C 
HETATM    4  C4  UNL     1     -33.438   7.066   2.609  1.00 20.00     0.232 C 
HETATM    5  S9  UNL     1     -31.551   8.025   1.014  1.00 20.00    -0.167 SA
ENDROOT
BRANCH   4   6
HETATM    6  N8  UNL     1     -33.912   6.790   3.960  1.00 20.00     0.090 N 
HETATM    7  C5  UNL     1     -33.880   8.005   4.778  1.00 20.00     0.310 C 
BRANCH   6   8
HETATM    8  C6  UNL     1     -35.267   6.237   3.929  1.00 20.00     0.287 C 
BRANCH   8   9
HETATM    9  C7  UNL     1     -35.369   4.900   4.645  1.00 20.00     0.144 C 
HETATM   10 CL10 UNL     1     -33.956   3.872   4.302  1.00 20.00    -0.129 Cl
ENDBRANCH   8   9
ENDBRANCH   6   8
ENDBRANCH   4   6
TORSDOF 3
ENDMDL
MODEL 5
REMARK VINA RESULT:       0.7      0.756      1.419
REMARK  3 active torsions:
REMARK  status: ('A' for Active; 'I' for Inactive)
REMARK    1  A    between atoms: C4_4  and  N8_8 
REMARK    2  A    between atoms: C6_6  and  C7_7 
REMARK    3  A    between atoms: C6_6  and  N8_8 
ROOT
HETATM    1  C1  UNL     1     -33.439   4.758   3.090  1.00 20.00     0.047 C 
HETATM    2  C2  UNL     1     -34.402   4.491   4.237  1.00 20.00     0.076 C 
HETATM    3  C3  UNL     1     -34.374   7.002   3.274  1.00 20.00     0.109 C 
HETATM    4  C4  UNL     1     -33.060   6.234   3.188  1.00 20.00     0.232 C 
HETATM    5  S9  UNL     1     -35.431   5.983   4.345  1.00 20.00    -0.167 SA
ENDROOT
BRANCH   4   6
HETATM    6  N8  UNL     1     -32.266   6.673   2.047  1.00 20.00     0.090 N 
HETATM    7  C5  UNL     1     -32.764   6.070   0.808  1.00 20.00     0.310 C 
BRANCH   6   8
HETATM    8  C6  UNL     1     -32.278   8.133   1.939  1.00 20.00     0.287 C 
BRANCH   8   9
HETATM    9  C7  UNL     1     -31.756   8.624   0.599  1.00 20.00     0.144 C 
HETATM   10 CL10 UNL     1     -32.612  10.094   0.071  1.00 20.00    -0.129 Cl
ENDBRANCH   8   9
ENDBRANCH   6   8
ENDBRANCH   4   6
TORSDOF 3
ENDMDL
MODEL 6
REMARK VINA RESULT:       0.8      3.649      4.854
REMARK  3 active torsions:
REMARK  status: ('A' for Active; 'I' for Inactive)
REMARK    1  A    between atoms: C4_4  and  N8_8 
REMARK    2  A    between atoms: C6_6  and  C7_7 
REMARK    3  A    between atoms: C6_6  and  N8_8 
ROOT
HETATM    1  C1  UNL     1     -33.336   7.828   3.273  1.00 20.00     0.047 C 
HETATM    2  C2  UNL     1     -32.237   8.305   2.336  1.00 20.00     0.076 C 
HETATM    3  C3  UNL     1     -33.100   5.785   1.963  1.00 20.00     0.109 C 
HETATM    4  C4  UNL     1     -33.166   6.314   3.392  1.00 20.00     0.232 C 
HETATM    5  S9  UNL     1     -32.109   7.015   1.064  1.00 20.00    -0.167 SA
ENDROOT
BRANCH   4   6
HETATM    6  N8  UNL     1     -34.259   5.697   4.133  1.00 20.00     0.090 N 
HETATM    7  C5  UNL     1     -35.545   6.275   3.735  1.00 20.00     0.310 C 
BRANCH   6   8
HETATM    8  C6  UNL     1     -34.270   4.247   3.926  1.00 20.00     0.287 C 
BRANCH   8   9
HETATM    9  C7  UNL     1     -33.356   3.511   4.890  1.00 20.00     0.144 C 
HETATM   10 CL10 UNL     1     -33.334   1.762   4.555  1.00 20.00    -0.129 Cl
ENDBRANCH   8   9
ENDBRANCH   6   8
ENDBRANCH   4   6
TORSDOF 3
ENDMDL
MODEL 7
REMARK VINA RESULT:       1.3      3.510      4.934
REMARK  3 active torsions:
REMARK  status: ('A' for Active; 'I' for Inactive)
REMARK    1  A    between atoms: C4_4  and  N8_8 
REMARK    2  A    between atoms: C6_6  and  C7_7 
REMARK    3  A    between atoms: C6_6  and  N8_8 
ROOT
HETATM    1  C1  UNL     1     -31.510   7.491   1.493  1.00 20.00     0.047 C 
HETATM    2  C2  UNL     1     -31.392   8.437   0.308  1.00 20.00     0.076 C 
HETATM    3  C3  UNL     1     -33.299   9.028   2.110  1.00 20.00     0.109 C 
HETATM    4  C4  UNL     1     -32.970   7.549   1.939  1.00 20.00     0.232 C 
HETATM    5  S9  UNL     1     -32.457   9.848   0.724  1.00 20.00    -0.167 SA
ENDROOT
BRANCH   4   6
HETATM    6  N8  UNL     1     -33.194   6.812   3.177  1.00 20.00     0.090 N 
HETATM    7  C5  UNL     1     -34.230   7.461   3.985  1.00 20.00     0.310 C 
BRANCH   6   8
HETATM    8  C6  UNL     1     -33.570   5.426   2.893  1.00 20.00     0.287 C 
BRANCH   8   9
HETATM    9  C7  UNL     1     -34.333   4.781   4.038  1.00 20.00     0.144 C 
HETATM   10 CL10 UNL     1     -33.553   3.268   4.564  1.00 20.00    -0.129 Cl
ENDBRANCH   8   9
ENDBRANCH   6   8
ENDBRANCH   4   6
TORSDOF 3
ENDMDL
MODEL 8
REMARK VINA RESULT:       1.5      3.398      4.670
REMARK  3 active torsions:
REMARK  status: ('A' for Active; 'I' for Inactive)
REMARK    1  A    between atoms: C4_4  and  N8_8 
REMARK    2  A    between atoms: C6_6  and  C7_7 
REMARK    3  A    between atoms: C6_6  and  N8_8 
ROOT
HETATM    1  C1  UNL     1     -33.210   9.222   1.977  1.00 20.00     0.047 C 
HETATM    2  C2  UNL     1     -32.438   9.869   0.837  1.00 20.00     0.076 C 
HETATM    3  C3  UNL     1     -31.891   7.281   1.318  1.00 20.00     0.109 C 
HETATM    4  C4  UNL     1     -32.311   8.114   2.524  1.00 20.00     0.232 C 
HETATM    5  S9  UNL     1     -31.593   8.497   0.001  1.00 20.00    -0.167 SA
ENDROOT
BRANCH   4   6
HETATM    6  N8  UNL     1     -32.994   7.296   3.518  1.00 20.00     0.090 N 
HETATM    7  C5  UNL     1     -33.999   8.085   4.235  1.00 20.00     0.310 C 
BRANCH   6   8
HETATM    8  C6  UNL     1     -33.620   6.132   2.889  1.00 20.00     0.287 C 
BRANCH   8   9
HETATM    9  C7  UNL     1     -34.515   5.361   3.845  1.00 20.00     0.144 C 
HETATM   10 CL10 UNL     1     -33.849   3.748   4.197  1.00 20.00    -0.129 Cl
ENDBRANCH   8   9
ENDBRANCH   6   8
ENDBRANCH   4   6
TORSDOF 3
ENDMDL
MODEL 9
REMARK VINA RESULT:       2.0      2.343      2.830
REMARK  3 active torsions:
REMARK  status: ('A' for Active; 'I' for Inactive)
REMARK    1  A    between atoms: C4_4  and  N8_8 
REMARK    2  A    between atoms: C6_6  and  C7_7 
REMARK    3  A    between atoms: C6_6  and  N8_8 
ROOT
HETATM    1  C1  UNL     1     -33.527   7.572   3.489  1.00 20.00     0.047 C 
HETATM    2  C2  UNL     1     -34.706   7.288   4.407  1.00 20.00     0.076 C 
HETATM    3  C3  UNL     1     -33.852   5.228   2.904  1.00 20.00     0.109 C 
HETATM    4  C4  UNL     1     -33.671   6.618   2.304  1.00 20.00     0.232 C 
HETATM    5  S9  UNL     1     -34.927   5.487   4.346  1.00 20.00    -0.167 SA
ENDROOT
BRANCH   4   6
HETATM    6  N8  UNL     1     -32.513   6.664   1.420  1.00 20.00     0.090 N 
HETATM    7  C5  UNL     1     -31.607   7.747   1.811  1.00 20.00     0.310 C 
BRANCH   6   8
HETATM    8  C6  UNL     1     -31.804   5.383   1.429  1.00 20.00     0.287 C 
BRANCH   8   9
HETATM    9  C7  UNL     1     -32.181   4.497   0.254  1.00 20.00     0.144 C 
HETATM   10 CL10 UNL     1     -30.772   3.594  -0.355  1.00 20.00    -0.129 Cl
ENDBRANCH   8   9
ENDBRANCH   6   8
ENDBRANCH   4   6
TORSDOF 3
ENDMDL
