MODEL 1
REMARK VINA RESULT:       2.5      0.000      0.000
REMARK  3 active torsions:
REMARK  status: ('A' for Active; 'I' for Inactive)
REMARK    1  A    between atoms: C10_10  and  C12_12 
REMARK    2  A    between atoms: C11_11  and  C12_12 
REMARK    3  A    between atoms: C12_12  and  N13_13 
ROOT
HETATM    1  C1  UNL     1     -32.430   9.952   0.442  1.00 20.00     0.130 C 
HETATM    2  C2  UNL     1     -33.018   9.887   1.832  1.00 20.00     0.106 C 
HETATM    3  C3  UNL     1     -32.064   8.633  -0.198  1.00 20.00     0.106 C 
HETATM    4  C8  UNL     1     -32.181   8.996   2.734  1.00 20.00     0.242 C 
HETATM    5  C9  UNL     1     -31.252   7.775   0.756  1.00 20.00     0.242 C 
HETATM    6  N13 UNL     1     -31.940   7.649   2.094  1.00 20.00    -0.065 N 
HETATM    7  O14 UNL     1     -32.355  11.012  -0.178  1.00 20.00    -0.298 OA
HETATM    8  H34 UNL     1     -31.240   7.154   2.728  1.00 20.00     0.280 HD
ENDROOT
BRANCH   6   9
HETATM    9  C12 UNL     1     -33.148   6.753   2.080  1.00 20.00     0.196 C 
BRANCH   9  10
HETATM   10  C10 UNL     1     -33.855   6.876   3.419  1.00 20.00     0.017 A 
HETATM   11  C4  UNL     1     -35.358   6.888   3.484  1.00 20.00     0.007 A 
HETATM   12  C5  UNL     1     -34.593   5.700   3.997  1.00 20.00     0.007 A 
ENDBRANCH   9  10
BRANCH   9  13
HETATM   13  C11 UNL     1     -32.690   5.331   1.799  1.00 20.00     0.017 A 
HETATM   14  C6  UNL     1     -33.103   4.638   0.530  1.00 20.00     0.007 A 
HETATM   15  C7  UNL     1     -31.674   5.061   0.724  1.00 20.00     0.007 A 
ENDBRANCH   9  13
ENDBRANCH   6   9
TORSDOF 3
ENDMDL
MODEL 2
REMARK VINA RESULT:       3.0      2.646      4.828
REMARK  3 active torsions:
REMARK  status: ('A' for Active; 'I' for Inactive)
REMARK    1  A    between atoms: C10_10  and  C12_12 
REMARK    2  A    between atoms: C11_11  and  C12_12 
REMARK    3  A    between atoms: C12_12  and  N13_13 
ROOT
HETATM    1  C1  UNL     1     -35.281   5.172   4.391  1.00 20.00     0.130 C 
HETATM    2  C2  UNL     1     -34.095   4.380   3.891  1.00 20.00     0.106 C 
HETATM    3  C3  UNL     1     -35.438   6.571   3.842  1.00 20.00     0.106 C 
HETATM    4  C8  UNL     1     -32.821   5.203   3.974  1.00 20.00     0.242 C 
HETATM    5  C9  UNL     1     -34.130   7.336   3.926  1.00 20.00     0.242 C 
HETATM    6  N13 UNL     1     -32.998   6.548   3.311  1.00 20.00    -0.065 N 
HETATM    7  O14 UNL     1     -36.133   4.666   5.121  1.00 20.00    -0.298 OA
HETATM    8  H34 UNL     1     -32.112   7.097   3.538  1.00 20.00     0.280 HD
ENDROOT
BRANCH   6   9
HETATM    9  C12 UNL     1     -33.040   6.489   1.808  1.00 20.00     0.196 C 
BRANCH   9  10
HETATM   10  C10 UNL     1     -32.824   5.048   1.376  1.00 20.00     0.017 A 
HETATM   11  C4  UNL     1     -33.187   4.613  -0.017  1.00 20.00     0.007 A 
HETATM   12  C5  UNL     1     -31.743   4.707   0.388  1.00 20.00     0.007 A 
ENDBRANCH   9  10
BRANCH   9  13
HETATM   13  C11 UNL     1     -31.971   7.421   1.260  1.00 20.00     0.017 A 
HETATM   14  C6  UNL     1     -32.300   8.857   0.960  1.00 20.00     0.007 A 
HETATM   15  C7  UNL     1     -31.407   8.516   2.120  1.00 20.00     0.007 A 
ENDBRANCH   9  13
ENDBRANCH   6   9
TORSDOF 3
ENDMDL
MODEL 3
REMARK VINA RESULT:       3.6      1.825      3.259
REMARK  3 active torsions:
REMARK  status: ('A' for Active; 'I' for Inactive)
REMARK    1  A    between atoms: C10_10  and  C12_12 
REMARK    2  A    between atoms: C11_11  and  C12_12 
REMARK    3  A    between atoms: C12_12  and  N13_13 
ROOT
HETATM    1  C1  UNL     1     -32.099   8.004   1.011  1.00 20.00     0.130 C 
HETATM    2  C2  UNL     1     -31.164   7.256   1.933  1.00 20.00     0.106 C 
HETATM    3  C3  UNL     1     -33.535   7.535   0.981  1.00 20.00     0.106 C 
HETATM    4  C8  UNL     1     -31.299   5.756   1.742  1.00 20.00     0.242 C 
HETATM    5  C9  UNL     1     -33.609   6.027   0.815  1.00 20.00     0.242 C 
HETATM    6  N13 UNL     1     -32.744   5.325   1.834  1.00 20.00    -0.065 N 
HETATM    7  O14 UNL     1     -31.737   9.009   0.401  1.00 20.00    -0.298 OA
HETATM    8  H34 UNL     1     -32.752   4.296   1.553  1.00 20.00     0.280 HD
ENDROOT
BRANCH   6   9
HETATM    9  C12 UNL     1     -33.302   5.347   3.231  1.00 20.00     0.196 C 
BRANCH   9  10
HETATM   10  C10 UNL     1     -33.729   3.936   3.602  1.00 20.00     0.017 A 
HETATM   11  C4  UNL     1     -32.704   2.924   4.034  1.00 20.00     0.007 A 
HETATM   12  C5  UNL     1     -33.676   3.482   5.035  1.00 20.00     0.007 A 
ENDBRANCH   9  10
BRANCH   9  13
HETATM   13  C11 UNL     1     -34.460   6.330   3.271  1.00 20.00     0.017 A 
HETATM   14  C6  UNL     1     -35.443   6.297   4.409  1.00 20.00     0.007 A 
HETATM   15  C7  UNL     1     -34.476   7.441   4.283  1.00 20.00     0.007 A 
ENDBRANCH   9  13
ENDBRANCH   6   9
TORSDOF 3
ENDMDL
MODEL 4
REMARK VINA RESULT:       3.9      2.500      4.623
REMARK  3 active torsions:
REMARK  status: ('A' for Active; 'I' for Inactive)
REMARK    1  A    between atoms: C10_10  and  C12_12 
REMARK    2  A    between atoms: C11_11  and  C12_12 
REMARK    3  A    between atoms: C12_12  and  N13_13 
ROOT
HETATM    1  C1  UNL     1     -35.119   5.698   4.154  1.00 20.00     0.130 C 
HETATM    2  C2  UNL     1     -33.617   5.535   4.159  1.00 20.00     0.106 C 
HETATM    3  C3  UNL     1     -35.682   6.734   3.209  1.00 20.00     0.106 C 
HETATM    4  C8  UNL     1     -32.925   6.883   4.268  1.00 20.00     0.242 C 
HETATM    5  C9  UNL     1     -34.937   8.051   3.343  1.00 20.00     0.242 C 
HETATM    6  N13 UNL     1     -33.445   7.846   3.228  1.00 20.00    -0.065 N 
HETATM    7  O14 UNL     1     -35.851   4.953   4.803  1.00 20.00    -0.298 OA
HETATM    8  H34 UNL     1     -33.009   8.789   3.469  1.00 20.00     0.280 HD
ENDROOT
BRANCH   6   9
HETATM    9  C12 UNL     1     -32.974   7.550   1.830  1.00 20.00     0.196 C 
BRANCH   9  10
HETATM   10  C10 UNL     1     -32.235   6.223   1.841  1.00 20.00     0.017 A 
HETATM   11  C4  UNL     1     -32.842   5.012   1.188  1.00 20.00     0.007 A 
HETATM   12  C5  UNL     1     -31.642   5.675   0.572  1.00 20.00     0.007 A 
ENDBRANCH   9  10
BRANCH   9  13
HETATM   13  C11 UNL     1     -32.092   8.698   1.366  1.00 20.00     0.017 A 
HETATM   14  C6  UNL     1     -32.207   9.223  -0.038  1.00 20.00     0.007 A 
HETATM   15  C7  UNL     1     -32.685  10.056   1.117  1.00 20.00     0.007 A 
ENDBRANCH   9  13
ENDBRANCH   6   9
TORSDOF 3
ENDMDL
MODEL 5
REMARK VINA RESULT:       4.1      0.680      2.587
REMARK  3 active torsions:
REMARK  status: ('A' for Active; 'I' for Inactive)
REMARK    1  A    between atoms: C10_10  and  C12_12 
REMARK    2  A    between atoms: C11_11  and  C12_12 
REMARK    3  A    between atoms: C12_12  and  N13_13 
ROOT
HETATM    1  C1  UNL     1     -32.430   9.711   0.358  1.00 20.00     0.130 C 
HETATM    2  C2  UNL     1     -33.258   9.737   1.622  1.00 20.00     0.106 C 
HETATM    3  C3  UNL     1     -31.639   8.451   0.095  1.00 20.00     0.106 C 
HETATM    4  C8  UNL     1     -32.437   9.285   2.818  1.00 20.00     0.242 C 
HETATM    5  C9  UNL     1     -30.861   8.033   1.330  1.00 20.00     0.242 C 
HETATM    6  N13 UNL     1     -31.758   7.964   2.542  1.00 20.00    -0.065 N 
HETATM    7  O14 UNL     1     -32.483  10.623  -0.466  1.00 20.00    -0.298 OA
HETATM    8  H34 UNL     1     -31.106   7.801   3.370  1.00 20.00     0.280 HD
ENDROOT
BRANCH   6   9
HETATM    9  C12 UNL     1     -32.690   6.783   2.547  1.00 20.00     0.196 C 
BRANCH   9  10
HETATM   10  C10 UNL     1     -32.735   6.198   1.146  1.00 20.00     0.017 A 
HETATM   11  C4  UNL     1     -31.988   4.931   0.830  1.00 20.00     0.007 A 
HETATM   12  C5  UNL     1     -33.490   4.924   0.881  1.00 20.00     0.007 A 
ENDBRANCH   9  10
BRANCH   9  13
HETATM   13  C11 UNL     1     -34.057   7.251   3.021  1.00 20.00     0.017 A 
HETATM   14  C6  UNL     1     -34.953   6.318   3.788  1.00 20.00     0.007 A 
HETATM   15  C7  UNL     1     -34.312   7.487   4.483  1.00 20.00     0.007 A 
ENDBRANCH   9  13
ENDBRANCH   6   9
TORSDOF 3
ENDMDL
MODEL 6
REMARK VINA RESULT:       4.4      3.097      4.782
REMARK  3 active torsions:
REMARK  status: ('A' for Active; 'I' for Inactive)
REMARK    1  A    between atoms: C10_10  and  C12_12 
REMARK    2  A    between atoms: C11_11  and  C12_12 
REMARK    3  A    between atoms: C12_12  and  N13_13 
ROOT
HETATM    1  C1  UNL     1     -33.537   3.527   4.044  1.00 20.00     0.130 C 
HETATM    2  C2  UNL     1     -34.238   4.703   4.685  1.00 20.00     0.106 C 
HETATM    3  C3  UNL     1     -32.608   3.841   2.895  1.00 20.00     0.106 C 
HETATM    4  C8  UNL     1     -34.868   5.599   3.632  1.00 20.00     0.242 C 
HETATM    5  C9  UNL     1     -33.280   4.759   1.889  1.00 20.00     0.242 C 
HETATM    6  N13 UNL     1     -33.865   5.974   2.568  1.00 20.00    -0.065 N 
HETATM    7  O14 UNL     1     -33.634   2.390   4.503  1.00 20.00    -0.298 OA
HETATM    8  H34 UNL     1     -34.425   6.479   1.814  1.00 20.00     0.280 HD
ENDROOT
BRANCH   6   9
HETATM    9  C12 UNL     1     -32.838   6.976   3.020  1.00 20.00     0.196 C 
BRANCH   9  10
HETATM   10  C10 UNL     1     -33.554   8.109   3.738  1.00 20.00     0.017 A 
HETATM   11  C4  UNL     1     -34.273   7.850   5.033  1.00 20.00     0.007 A 
HETATM   12  C5  UNL     1     -33.004   8.655   5.027  1.00 20.00     0.007 A 
ENDBRANCH   9  10
BRANCH   9  13
HETATM   13  C11 UNL     1     -32.069   7.461   1.802  1.00 20.00     0.017 A 
HETATM   14  C6  UNL     1     -32.473   8.731   1.106  1.00 20.00     0.007 A 
HETATM   15  C7  UNL     1     -31.195   8.681   1.895  1.00 20.00     0.007 A 
ENDBRANCH   9  13
ENDBRANCH   6   9
TORSDOF 3
ENDMDL
MODEL 7
REMARK VINA RESULT:       4.5      2.640      4.426
REMARK  3 active torsions:
REMARK  status: ('A' for Active; 'I' for Inactive)
REMARK    1  A    between atoms: C10_10  and  C12_12 
REMARK    2  A    between atoms: C11_11  and  C12_12 
REMARK    3  A    between atoms: C12_12  and  N13_13 
ROOT
HETATM    1  C1  UNL     1     -33.784   4.585   3.663  1.00 20.00     0.130 C 
HETATM    2  C2  UNL     1     -34.353   5.948   3.981  1.00 20.00     0.106 C 
HETATM    3  C3  UNL     1     -32.625   4.547   2.695  1.00 20.00     0.106 C 
HETATM    4  C8  UNL     1     -34.610   6.738   2.709  1.00 20.00     0.242 C 
HETATM    5  C9  UNL     1     -32.927   5.372   1.457  1.00 20.00     0.242 C 
HETATM    6  N13 UNL     1     -33.384   6.763   1.828  1.00 20.00    -0.065 N 
HETATM    7  O14 UNL     1     -34.170   3.572   4.246  1.00 20.00    -0.298 OA
HETATM    8  H34 UNL     1     -33.699   7.212   0.914  1.00 20.00     0.280 HD
ENDROOT
BRANCH   6   9
HETATM    9  C12 UNL     1     -32.283   7.654   2.336  1.00 20.00     0.196 C 
BRANCH   9  10
HETATM   10  C10 UNL     1     -32.846   8.532   3.442  1.00 20.00     0.017 A 
HETATM   11  C4  UNL     1     -32.932   8.014   4.851  1.00 20.00     0.007 A 
HETATM   12  C5  UNL     1     -31.938   9.086   4.505  1.00 20.00     0.007 A 
ENDBRANCH   9  10
BRANCH   9  13
HETATM   13  C11 UNL     1     -31.745   8.468   1.171  1.00 20.00     0.017 A 
HETATM   14  C6  UNL     1     -32.598   8.707  -0.044  1.00 20.00     0.007 A 
HETATM   15  C7  UNL     1     -32.288   9.841   0.892  1.00 20.00     0.007 A 
ENDBRANCH   9  13
ENDBRANCH   6   9
TORSDOF 3
ENDMDL
MODEL 8
REMARK VINA RESULT:       4.9      2.929      5.148
REMARK  3 active torsions:
REMARK  status: ('A' for Active; 'I' for Inactive)
REMARK    1  A    between atoms: C10_10  and  C12_12 
REMARK    2  A    between atoms: C11_11  and  C12_12 
REMARK    3  A    between atoms: C12_12  and  N13_13 
ROOT
HETATM    1  C1  UNL     1     -33.861   4.200   4.010  1.00 20.00     0.130 C 
HETATM    2  C2  UNL     1     -34.721   5.312   4.563  1.00 20.00     0.106 C 
HETATM    3  C3  UNL     1     -32.897   4.576   2.910  1.00 20.00     0.106 C 
HETATM    4  C8  UNL     1     -35.373   6.102   3.442  1.00 20.00     0.242 C 
HETATM    5  C9  UNL     1     -33.596   5.385   1.831  1.00 20.00     0.242 C 
HETATM    6  N13 UNL     1     -34.349   6.551   2.427  1.00 20.00    -0.065 N 
HETATM    7  O14 UNL     1     -33.867   3.073   4.505  1.00 20.00    -0.298 OA
HETATM    8  H34 UNL     1     -34.909   6.969   1.622  1.00 20.00     0.280 HD
ENDROOT
BRANCH   6   9
HETATM    9  C12 UNL     1     -33.465   7.671   2.904  1.00 20.00     0.196 C 
BRANCH   9  10
HETATM   10  C10 UNL     1     -32.146   7.598   2.151  1.00 20.00     0.017 A 
HETATM   11  C4  UNL     1     -31.997   8.277   0.817  1.00 20.00     0.007 A 
HETATM   12  C5  UNL     1     -31.280   8.821   2.021  1.00 20.00     0.007 A 
ENDBRANCH   9  10
BRANCH   9  13
HETATM   13  C11 UNL     1     -33.279   7.533   4.406  1.00 20.00     0.017 A 
HETATM   14  C6  UNL     1     -32.502   8.567   5.172  1.00 20.00     0.007 A 
HETATM   15  C7  UNL     1     -33.991   8.466   5.346  1.00 20.00     0.007 A 
ENDBRANCH   9  13
ENDBRANCH   6   9
TORSDOF 3
ENDMDL
MODEL 9
REMARK VINA RESULT:       4.9      1.435      2.499
REMARK  3 active torsions:
REMARK  status: ('A' for Active; 'I' for Inactive)
REMARK    1  A    between atoms: C10_10  and  C12_12 
REMARK    2  A    between atoms: C11_11  and  C12_12 
REMARK    3  A    between atoms: C12_12  and  N13_13 
ROOT
HETATM    1  C1  UNL     1     -32.561   8.890   0.265  1.00 20.00     0.130 C 
HETATM    2  C2  UNL     1     -32.262   9.490   1.619  1.00 20.00     0.106 C 
HETATM    3  C3  UNL     1     -33.238   7.540   0.259  1.00 20.00     0.106 C 
HETATM    4  C8  UNL     1     -31.584   8.476   2.524  1.00 20.00     0.242 C 
HETATM    5  C9  UNL     1     -32.535   6.577   1.199  1.00 20.00     0.242 C 
HETATM    6  N13 UNL     1     -32.363   7.183   2.571  1.00 20.00    -0.065 N 
HETATM    7  O14 UNL     1     -32.362   9.516  -0.775  1.00 20.00    -0.298 OA
HETATM    8  H34 UNL     1     -31.747   6.499   3.110  1.00 20.00     0.280 HD
ENDROOT
BRANCH   6   9
HETATM    9  C12 UNL     1     -33.636   7.264   3.368  1.00 20.00     0.196 C 
BRANCH   9  10
HETATM   10  C10 UNL     1     -33.277   7.497   4.827  1.00 20.00     0.017 A 
HETATM   11  C4  UNL     1     -32.498   8.718   5.230  1.00 20.00     0.007 A 
HETATM   12  C5  UNL     1     -33.948   8.596   5.606  1.00 20.00     0.007 A 
ENDBRANCH   9  10
BRANCH   9  13
HETATM   13  C11 UNL     1     -34.415   5.975   3.165  1.00 20.00     0.017 A 
HETATM   14  C6  UNL     1     -34.121   4.770   4.014  1.00 20.00     0.007 A 
HETATM   15  C7  UNL     1     -35.410   5.521   4.196  1.00 20.00     0.007 A 
ENDBRANCH   9  13
ENDBRANCH   6   9
TORSDOF 3
ENDMDL
