MODEL 1
REMARK VINA RESULT:      -1.6      0.000      0.000
REMARK  2 active torsions:
REMARK  status: ('A' for Active; 'I' for Inactive)
REMARK    1  A    between atoms: C4_4  and  C5_5 
REMARK    2  A    between atoms: C5_5  and  C6_6 
ROOT
HETATM    1  C1  UNL     1     -34.003   5.503   3.078  1.00 20.00     0.033 C 
HETATM    2  C2  UNL     1     -35.035   5.901   4.113  1.00 20.00     0.168 C 
HETATM    3  C3  UNL     1     -33.681   7.748   3.679  1.00 20.00     0.172 C 
HETATM    4  C4  UNL     1     -33.655   6.841   2.461  1.00 20.00     0.012 C 
HETATM    5  O7  UNL     1     -34.690   7.223   4.555  1.00 20.00    -0.391 OA
ENDROOT
BRANCH   4   6
HETATM    6  C5  UNL     1     -32.336   6.857   1.714  1.00 20.00     0.017 C 
BRANCH   6   7
HETATM    7  C6  UNL     1     -31.661   8.215   1.813  1.00 20.00     0.085 C 
HETATM    8 BR8  UNL     1     -32.372   9.411   0.451  1.00 20.00    -0.096 Br
ENDBRANCH   6   7
ENDBRANCH   4   6
TORSDOF 2
ENDMDL
MODEL 2
REMARK VINA RESULT:      -1.5      1.162      1.558
REMARK  2 active torsions:
REMARK  status: ('A' for Active; 'I' for Inactive)
REMARK    1  A    between atoms: C4_4  and  C5_5 
REMARK    2  A    between atoms: C5_5  and  C6_6 
ROOT
HETATM    1  C1  UNL     1     -34.834   6.888   3.392  1.00 20.00     0.033 C 
HETATM    2  C2  UNL     1     -35.355   5.946   4.457  1.00 20.00     0.168 C 
HETATM    3  C3  UNL     1     -33.696   4.842   3.248  1.00 20.00     0.172 C 
HETATM    4  C4  UNL     1     -33.446   6.337   3.146  1.00 20.00     0.012 C 
HETATM    5  O7  UNL     1     -34.741   4.670   4.218  1.00 20.00    -0.391 OA
ENDROOT
BRANCH   4   6
HETATM    6  C5  UNL     1     -32.831   6.766   1.829  1.00 20.00     0.017 C 
BRANCH   6   7
HETATM    7  C6  UNL     1     -31.979   8.013   1.996  1.00 20.00     0.085 C 
HETATM    8 BR8  UNL     1     -32.355   9.272   0.559  1.00 20.00    -0.096 Br
ENDBRANCH   6   7
ENDBRANCH   4   6
TORSDOF 2
ENDMDL
MODEL 3
REMARK VINA RESULT:      -1.4      1.185      1.652
REMARK  2 active torsions:
REMARK  status: ('A' for Active; 'I' for Inactive)
REMARK    1  A    between atoms: C4_4  and  C5_5 
REMARK    2  A    between atoms: C5_5  and  C6_6 
ROOT
HETATM    1  C1  UNL     1     -34.240   7.618   3.909  1.00 20.00     0.033 C 
HETATM    2  C2  UNL     1     -34.807   6.219   4.037  1.00 20.00     0.168 C 
HETATM    3  C3  UNL     1     -33.208   6.210   2.342  1.00 20.00     0.172 C 
HETATM    4  C4  UNL     1     -32.882   7.344   3.299  1.00 20.00     0.012 C 
HETATM    5  O7  UNL     1     -34.259   5.449   2.957  1.00 20.00    -0.391 OA
ENDROOT
BRANCH   4   6
HETATM    6  C5  UNL     1     -32.248   8.547   2.629  1.00 20.00     0.017 C 
BRANCH   6   7
HETATM    7  C6  UNL     1     -32.032   8.302   1.144  1.00 20.00     0.085 C 
HETATM    8 BR8  UNL     1     -32.481   9.905   0.135  1.00 20.00    -0.096 Br
ENDBRANCH   6   7
ENDBRANCH   4   6
TORSDOF 2
ENDMDL
MODEL 4
REMARK VINA RESULT:      -1.3      2.833      3.901
REMARK  2 active torsions:
REMARK  status: ('A' for Active; 'I' for Inactive)
REMARK    1  A    between atoms: C4_4  and  C5_5 
REMARK    2  A    between atoms: C5_5  and  C6_6 
ROOT
HETATM    1  C1  UNL     1     -33.411   6.189   1.834  1.00 20.00     0.033 C 
HETATM    2  C2  UNL     1     -32.091   6.891   1.596  1.00 20.00     0.168 C 
HETATM    3  C3  UNL     1     -33.141   7.901   3.414  1.00 20.00     0.172 C 
HETATM    4  C4  UNL     1     -33.651   6.475   3.301  1.00 20.00     0.012 C 
HETATM    5  O7  UNL     1     -32.055   8.020   2.482  1.00 20.00    -0.391 OA
ENDROOT
BRANCH   4   6
HETATM    6  C5  UNL     1     -35.091   6.304   3.741  1.00 20.00     0.017 C 
BRANCH   6   7
HETATM    7  C6  UNL     1     -35.271   5.041   4.567  1.00 20.00     0.085 C 
HETATM    8 BR8  UNL     1     -33.747   3.857   4.310  1.00 20.00    -0.096 Br
ENDBRANCH   6   7
ENDBRANCH   4   6
TORSDOF 2
ENDMDL
MODEL 5
REMARK VINA RESULT:      -1.3      3.185      4.208
REMARK  2 active torsions:
REMARK  status: ('A' for Active; 'I' for Inactive)
REMARK    1  A    between atoms: C4_4  and  C5_5 
REMARK    2  A    between atoms: C5_5  and  C6_6 
ROOT
HETATM    1  C1  UNL     1     -33.089   7.689   3.530  1.00 20.00     0.033 C 
HETATM    2  C2  UNL     1     -32.344   8.158   2.298  1.00 20.00     0.168 C 
HETATM    3  C3  UNL     1     -32.908   5.917   2.004  1.00 20.00     0.172 C 
HETATM    4  C4  UNL     1     -33.896   6.533   2.979  1.00 20.00     0.012 C 
HETATM    5  O7  UNL     1     -32.126   7.000   1.479  1.00 20.00    -0.391 OA
ENDROOT
BRANCH   4   6
HETATM    6  C5  UNL     1     -34.398   5.567   4.034  1.00 20.00     0.017 C 
BRANCH   6   7
HETATM    7  C6  UNL     1     -34.130   4.125   3.636  1.00 20.00     0.085 C 
HETATM    8 BR8  UNL     1     -33.089   3.236   5.021  1.00 20.00    -0.096 Br
ENDBRANCH   6   7
ENDBRANCH   4   6
TORSDOF 2
ENDMDL
MODEL 6
REMARK VINA RESULT:      -1.2      2.933      4.100
REMARK  2 active torsions:
REMARK  status: ('A' for Active; 'I' for Inactive)
REMARK    1  A    between atoms: C4_4  and  C5_5 
REMARK    2  A    between atoms: C5_5  and  C6_6 
ROOT
HETATM    1  C1  UNL     1     -32.275   8.263   2.808  1.00 20.00     0.033 C 
HETATM    2  C2  UNL     1     -31.594   7.900   1.505  1.00 20.00     0.168 C 
HETATM    3  C3  UNL     1     -33.024   6.157   2.098  1.00 20.00     0.172 C 
HETATM    4  C4  UNL     1     -33.540   7.436   2.736  1.00 20.00     0.012 C 
HETATM    5  O7  UNL     1     -31.967   6.546   1.206  1.00 20.00    -0.391 OA
ENDROOT
BRANCH   4   6
HETATM    6  C5  UNL     1     -34.219   7.220   4.074  1.00 20.00     0.017 C 
BRANCH   6   7
HETATM    7  C6  UNL     1     -35.238   6.095   4.002  1.00 20.00     0.085 C 
HETATM    8 BR8  UNL     1     -34.379   4.395   4.406  1.00 20.00    -0.096 Br
ENDBRANCH   6   7
ENDBRANCH   4   6
TORSDOF 2
ENDMDL
MODEL 7
REMARK VINA RESULT:      -0.4      1.789      2.120
REMARK  2 active torsions:
REMARK  status: ('A' for Active; 'I' for Inactive)
REMARK    1  A    between atoms: C4_4  and  C5_5 
REMARK    2  A    between atoms: C5_5  and  C6_6 
ROOT
HETATM    1  C1  UNL     1     -33.233   5.071   3.812  1.00 20.00     0.033 C 
HETATM    2  C2  UNL     1     -34.269   4.043   4.218  1.00 20.00     0.168 C 
HETATM    3  C3  UNL     1     -35.285   6.140   4.197  1.00 20.00     0.172 C 
HETATM    4  C4  UNL     1     -34.101   6.175   3.246  1.00 20.00     0.012 C 
HETATM    5  O7  UNL     1     -35.449   4.770   4.593  1.00 20.00    -0.391 OA
ENDROOT
BRANCH   4   6
HETATM    6  C5  UNL     1     -33.418   7.525   3.169  1.00 20.00     0.017 C 
BRANCH   6   7
HETATM    7  C6  UNL     1     -32.362   7.549   2.076  1.00 20.00     0.085 C 
HETATM    8 BR8  UNL     1     -32.456   5.913   1.026  1.00 20.00    -0.096 Br
ENDBRANCH   6   7
ENDBRANCH   4   6
TORSDOF 2
ENDMDL
MODEL 8
REMARK VINA RESULT:      -0.0      3.135      4.284
REMARK  2 active torsions:
REMARK  status: ('A' for Active; 'I' for Inactive)
REMARK    1  A    between atoms: C4_4  and  C5_5 
REMARK    2  A    between atoms: C5_5  and  C6_6 
ROOT
HETATM    1  C1  UNL     1     -32.861   9.495   1.719  1.00 20.00     0.033 C 
HETATM    2  C2  UNL     1     -32.293   9.624   0.321  1.00 20.00     0.168 C 
HETATM    3  C3  UNL     1     -31.409   7.702   1.297  1.00 20.00     0.172 C 
HETATM    4  C4  UNL     1     -32.739   8.006   1.963  1.00 20.00     0.012 C 
HETATM    5  O7  UNL     1     -31.299   8.598   0.180  1.00 20.00    -0.391 OA
ENDROOT
BRANCH   4   6
HETATM    6  C5  UNL     1     -32.796   7.609   3.425  1.00 20.00     0.017 C 
BRANCH   6   7
HETATM    7  C6  UNL     1     -34.195   7.784   3.992  1.00 20.00     0.085 C 
HETATM    8 BR8  UNL     1     -35.140   6.083   3.964  1.00 20.00    -0.096 Br
ENDBRANCH   6   7
ENDBRANCH   4   6
TORSDOF 2
ENDMDL
MODEL 9
REMARK VINA RESULT:      -0.0      3.054      4.251
REMARK  2 active torsions:
REMARK  status: ('A' for Active; 'I' for Inactive)
REMARK    1  A    between atoms: C4_4  and  C5_5 
REMARK    2  A    between atoms: C5_5  and  C6_6 
ROOT
HETATM    1  C1  UNL     1     -32.452   8.570  -0.161  1.00 20.00     0.033 C 
HETATM    2  C2  UNL     1     -32.329  10.045  -0.480  1.00 20.00     0.168 C 
HETATM    3  C3  UNL     1     -32.722   9.819   1.805  1.00 20.00     0.172 C 
HETATM    4  C4  UNL     1     -32.074   8.540   1.304  1.00 20.00     0.012 C 
HETATM    5  O7  UNL     1     -32.659  10.758   0.721  1.00 20.00    -0.391 OA
ENDROOT
BRANCH   4   6
HETATM    6  C5  UNL     1     -32.531   7.295   2.039  1.00 20.00     0.017 C 
BRANCH   6   7
HETATM    7  C6  UNL     1     -33.125   7.640   3.395  1.00 20.00     0.085 C 
HETATM    8 BR8  UNL     1     -34.666   6.505   3.753  1.00 20.00    -0.096 Br
ENDBRANCH   6   7
ENDBRANCH   4   6
TORSDOF 2
ENDMDL
