MODEL 1
REMARK VINA RESULT:      -0.3      0.000      0.000
REMARK  1 active torsions:
REMARK  status: ('A' for Active; 'I' for Inactive)
REMARK    1  A    between atoms: C2_2  and  C4_4 
ROOT
HETATM    1  C1  UNL     1     -32.114   5.865   1.626  1.00 20.00     0.095 A 
HETATM    2  C3  UNL     1     -31.354   7.160   1.543  1.00 20.00     0.122 A 
HETATM    3  C4  UNL     1     -33.775   7.161   2.410  1.00 20.00     0.255 A 
HETATM    4  N5  UNL     1     -33.333   5.805   2.063  1.00 20.00    -0.280 NA
HETATM    5  S7  UNL     1     -32.494   8.400   2.156  1.00 20.00    -0.128 SA
ENDROOT
BRANCH   3   6
HETATM    6  C2  UNL     1     -34.135   7.141   3.856  1.00 20.00     0.253 C 
HETATM    7  O6  UNL     1     -33.575   7.870   4.669  1.00 20.00    -0.277 OA
HETATM    8 CL8  UNL     1     -35.394   5.995   4.200  1.00 20.00    -0.041 Cl
ENDBRANCH   3   6
TORSDOF 1
ENDMDL
MODEL 2
REMARK VINA RESULT:      -0.2      2.802      3.507
REMARK  1 active torsions:
REMARK  status: ('A' for Active; 'I' for Inactive)
REMARK    1  A    between atoms: C2_2  and  C4_4 
ROOT
HETATM    1  C1  UNL     1     -34.697   4.835   3.973  1.00 20.00     0.095 A 
HETATM    2  C3  UNL     1     -35.436   6.113   4.255  1.00 20.00     0.122 A 
HETATM    3  C4  UNL     1     -33.047   6.210   3.310  1.00 20.00     0.255 A 
HETATM    4  N5  UNL     1     -33.494   4.824   3.489  1.00 20.00    -0.280 NA
HETATM    5  S7  UNL     1     -34.302   7.415   3.773  1.00 20.00    -0.128 SA
ENDROOT
BRANCH   3   6
HETATM    6  C2  UNL     1     -32.736   6.381   1.863  1.00 20.00     0.253 C 
HETATM    7  O6  UNL     1     -32.984   5.501   1.043  1.00 20.00    -0.277 OA
HETATM    8 CL8  UNL     1     -32.011   7.923   1.527  1.00 20.00    -0.041 Cl
ENDBRANCH   3   6
TORSDOF 1
ENDMDL
MODEL 3
REMARK VINA RESULT:      -0.2      2.638      3.218
REMARK  1 active torsions:
REMARK  status: ('A' for Active; 'I' for Inactive)
REMARK    1  A    between atoms: C2_2  and  C4_4 
ROOT
HETATM    1  C1  UNL     1     -35.181   5.124   4.524  1.00 20.00     0.095 A 
HETATM    2  C3  UNL     1     -34.126   4.130   4.126  1.00 20.00     0.122 A 
HETATM    3  C4  UNL     1     -34.161   6.453   3.024  1.00 20.00     0.255 A 
HETATM    4  N5  UNL     1     -35.241   6.312   4.008  1.00 20.00    -0.280 NA
HETATM    5  S7  UNL     1     -33.128   4.983   2.906  1.00 20.00    -0.128 SA
ENDROOT
BRANCH   3   6
HETATM    6  C2  UNL     1     -33.314   7.593   3.473  1.00 20.00     0.253 C 
HETATM    7  O6  UNL     1     -33.440   8.088   4.589  1.00 20.00    -0.277 OA
HETATM    8 CL8  UNL     1     -32.186   8.091   2.250  1.00 20.00    -0.041 Cl
ENDBRANCH   3   6
TORSDOF 1
ENDMDL
MODEL 4
REMARK VINA RESULT:      -0.0      1.890      1.897
REMARK  1 active torsions:
REMARK  status: ('A' for Active; 'I' for Inactive)
REMARK    1  A    between atoms: C2_2  and  C4_4 
ROOT
HETATM    1  C1  UNL     1     -32.134   6.831   1.760  1.00 20.00     0.095 A 
HETATM    2  C3  UNL     1     -32.235   8.005   2.695  1.00 20.00     0.122 A 
HETATM    3  C4  UNL     1     -34.082   6.216   2.699  1.00 20.00     0.255 A 
HETATM    4  N5  UNL     1     -33.031   5.896   1.726  1.00 20.00    -0.280 NA
HETATM    5  S7  UNL     1     -33.751   7.733   3.611  1.00 20.00    -0.128 SA
ENDROOT
BRANCH   3   6
HETATM    6  C2  UNL     1     -34.133   5.084   3.666  1.00 20.00     0.253 C 
HETATM    7  O6  UNL     1     -33.260   4.221   3.695  1.00 20.00    -0.277 OA
HETATM    8 CL8  UNL     1     -35.534   5.162   4.691  1.00 20.00    -0.041 Cl
ENDBRANCH   3   6
TORSDOF 1
ENDMDL
MODEL 5
REMARK VINA RESULT:       0.1      2.177      2.227
REMARK  1 active torsions:
REMARK  status: ('A' for Active; 'I' for Inactive)
REMARK    1  A    between atoms: C2_2  and  C4_4 
ROOT
HETATM    1  C1  UNL     1     -32.520   6.608   2.060  1.00 20.00     0.095 A 
HETATM    2  C3  UNL     1     -32.533   7.787   2.993  1.00 20.00     0.122 A 
HETATM    3  C4  UNL     1     -34.483   6.111   3.037  1.00 20.00     0.255 A 
HETATM    4  N5  UNL     1     -33.472   5.728   2.045  1.00 20.00    -0.280 NA
HETATM    5  S7  UNL     1     -34.046   7.607   3.939  1.00 20.00    -0.128 SA
ENDROOT
BRANCH   3   6
HETATM    6  C2  UNL     1     -34.583   4.986   4.008  1.00 20.00     0.253 C 
HETATM    7  O6  UNL     1     -35.514   4.903   4.805  1.00 20.00    -0.277 OA
HETATM    8 CL8  UNL     1     -33.262   3.869   3.853  1.00 20.00    -0.041 Cl
ENDBRANCH   3   6
TORSDOF 1
ENDMDL
MODEL 6
REMARK VINA RESULT:       0.2      2.509      3.053
REMARK  1 active torsions:
REMARK  status: ('A' for Active; 'I' for Inactive)
REMARK    1  A    between atoms: C2_2  and  C4_4 
ROOT
HETATM    1  C1  UNL     1     -34.973   5.094   4.496  1.00 20.00     0.095 A 
HETATM    2  C3  UNL     1     -34.034   4.127   3.830  1.00 20.00     0.122 A 
HETATM    3  C4  UNL     1     -34.170   6.551   2.984  1.00 20.00     0.255 A 
HETATM    4  N5  UNL     1     -35.076   6.330   4.117  1.00 20.00    -0.280 NA
HETATM    5  S7  UNL     1     -33.223   5.083   2.549  1.00 20.00    -0.128 SA
ENDROOT
BRANCH   3   6
HETATM    6  C2  UNL     1     -33.221   7.624   3.393  1.00 20.00     0.253 C 
HETATM    7  O6  UNL     1     -32.318   8.003   2.652  1.00 20.00    -0.277 OA
HETATM    8 CL8  UNL     1     -33.563   8.227   4.986  1.00 20.00    -0.041 Cl
ENDBRANCH   3   6
TORSDOF 1
ENDMDL
MODEL 7
REMARK VINA RESULT:       0.2      2.483      3.216
REMARK  1 active torsions:
REMARK  status: ('A' for Active; 'I' for Inactive)
REMARK    1  A    between atoms: C2_2  and  C4_4 
ROOT
HETATM    1  C1  UNL     1     -34.608   4.992   3.807  1.00 20.00     0.095 A 
HETATM    2  C3  UNL     1     -35.400   6.217   4.173  1.00 20.00     0.122 A 
HETATM    3  C4  UNL     1     -32.976   6.470   3.354  1.00 20.00     0.255 A 
HETATM    4  N5  UNL     1     -33.385   5.061   3.381  1.00 20.00    -0.280 NA
HETATM    5  S7  UNL     1     -34.288   7.590   3.868  1.00 20.00    -0.128 SA
ENDROOT
BRANCH   3   6
HETATM    6  C2  UNL     1     -32.608   6.786   1.945  1.00 20.00     0.253 C 
HETATM    7  O6  UNL     1     -32.310   7.925   1.597  1.00 20.00    -0.277 OA
HETATM    8 CL8  UNL     1     -32.660   5.381   0.925  1.00 20.00    -0.041 Cl
ENDBRANCH   3   6
TORSDOF 1
ENDMDL
MODEL 8
REMARK VINA RESULT:       0.3      2.865      3.327
REMARK  1 active torsions:
REMARK  status: ('A' for Active; 'I' for Inactive)
REMARK    1  A    between atoms: C2_2  and  C4_4 
ROOT
HETATM    1  C1  UNL     1     -34.078   6.510   3.738  1.00 20.00     0.095 A 
HETATM    2  C3  UNL     1     -33.496   5.220   3.230  1.00 20.00     0.122 A 
HETATM    3  C4  UNL     1     -33.330   7.344   1.790  1.00 20.00     0.255 A 
HETATM    4  N5  UNL     1     -34.016   7.612   3.059  1.00 20.00    -0.280 NA
HETATM    5  S7  UNL     1     -32.789   5.634   1.635  1.00 20.00    -0.128 SA
ENDROOT
BRANCH   3   6
HETATM    6  C2  UNL     1     -32.129   8.226   1.753  1.00 20.00     0.253 C 
HETATM    7  O6  UNL     1     -31.195   8.074   2.535  1.00 20.00    -0.277 OA
HETATM    8 CL8  UNL     1     -32.242   9.433   0.509  1.00 20.00    -0.041 Cl
ENDBRANCH   3   6
TORSDOF 1
ENDMDL
MODEL 9
REMARK VINA RESULT:       0.3      1.919      2.060
REMARK  1 active torsions:
REMARK  status: ('A' for Active; 'I' for Inactive)
REMARK    1  A    between atoms: C2_2  and  C4_4 
ROOT
HETATM    1  C1  UNL     1     -32.519   8.304   2.691  1.00 20.00     0.095 A 
HETATM    2  C3  UNL     1     -32.298   7.505   1.436  1.00 20.00     0.122 A 
HETATM    3  C4  UNL     1     -33.300   6.360   3.509  1.00 20.00     0.255 A 
HETATM    4  N5  UNL     1     -33.028   7.780   3.762  1.00 20.00    -0.280 NA
HETATM    5  S7  UNL     1     -32.883   5.857   1.831  1.00 20.00    -0.128 SA
ENDROOT
BRANCH   3   6
HETATM    6  C2  UNL     1     -34.761   6.157   3.716  1.00 20.00     0.253 C 
HETATM    7  O6  UNL     1     -35.588   6.973   3.319  1.00 20.00    -0.277 OA
HETATM    8 CL8  UNL     1     -35.102   4.675   4.555  1.00 20.00    -0.041 Cl
ENDBRANCH   3   6
TORSDOF 1
ENDMDL
