MODEL 1
REMARK VINA RESULT:      -2.5      0.000      0.000
REMARK  2 active torsions:
REMARK  status: ('A' for Active; 'I' for Inactive)
REMARK    1  A    between atoms: C2_2  and  C6_6 
REMARK       I    between atoms: C2_2  and  N7_7 
REMARK    2  A    between atoms: C5_5  and  C6_6 
ROOT
HETATM    1  C1  UNL     1     -32.140   8.675   1.157  1.00 20.00     0.166 C 
HETATM    2  C2  UNL     1     -32.271   6.536   1.628  1.00 20.00     0.244 C 
HETATM    3  N7  UNL     1     -31.928   7.836   1.950  1.00 20.00    -0.199 NA
HETATM    4  O8  UNL     1     -31.553   5.709   1.067  1.00 20.00    -0.271 OA
HETATM    5  S9  UNL     1     -32.414   9.841   0.106  1.00 20.00    -0.055 SA
ENDROOT
BRANCH   2   6
HETATM    6  C6  UNL     1     -33.692   6.203   2.052  1.00 20.00     0.109 C 
BRANCH   6   7
HETATM    7  C5  UNL     1     -33.912   6.242   3.524  1.00 20.00    -0.006 A 
HETATM    8  C3  UNL     1     -34.463   7.480   4.175  1.00 20.00     0.005 A 
HETATM    9  C4  UNL     1     -35.308   6.240   4.082  1.00 20.00     0.005 A 
ENDBRANCH   6   7
ENDBRANCH   2   6
TORSDOF 2
ENDMDL
MODEL 2
REMARK VINA RESULT:      -0.9      2.593      4.235
REMARK  2 active torsions:
REMARK  status: ('A' for Active; 'I' for Inactive)
REMARK    1  A    between atoms: C2_2  and  C6_6 
REMARK       I    between atoms: C2_2  and  N7_7 
REMARK    2  A    between atoms: C5_5  and  C6_6 
ROOT
HETATM    1  C1  UNL     1     -33.740   6.441   3.011  1.00 20.00     0.166 C 
HETATM    2  C2  UNL     1     -32.180   7.618   2.014  1.00 20.00     0.244 C 
HETATM    3  N7  UNL     1     -32.785   6.416   2.330  1.00 20.00    -0.199 NA
HETATM    4  O8  UNL     1     -31.290   8.177   2.653  1.00 20.00    -0.271 OA
HETATM    5  S9  UNL     1     -35.040   6.435   3.933  1.00 20.00    -0.055 SA
ENDROOT
BRANCH   2   6
HETATM    6  C6  UNL     1     -32.745   8.220   0.738  1.00 20.00     0.109 C 
BRANCH   6   7
HETATM    7  C5  UNL     1     -32.134   9.524   0.358  1.00 20.00    -0.006 A 
HETATM    8  C3  UNL     1     -32.750  10.362  -0.728  1.00 20.00     0.005 A 
HETATM    9  C4  UNL     1     -32.825  10.814   0.704  1.00 20.00     0.005 A 
ENDBRANCH   6   7
ENDBRANCH   2   6
TORSDOF 2
ENDMDL
MODEL 3
REMARK VINA RESULT:      -0.8      2.303      3.921
REMARK  2 active torsions:
REMARK  status: ('A' for Active; 'I' for Inactive)
REMARK    1  A    between atoms: C2_2  and  C6_6 
REMARK       I    between atoms: C2_2  and  N7_7 
REMARK    2  A    between atoms: C5_5  and  C6_6 
ROOT
HETATM    1  C1  UNL     1     -34.076   6.459   2.781  1.00 20.00     0.166 C 
HETATM    2  C2  UNL     1     -32.224   6.601   1.613  1.00 20.00     0.244 C 
HETATM    3  N7  UNL     1     -33.598   6.482   1.709  1.00 20.00    -0.199 NA
HETATM    4  O8  UNL     1     -31.412   5.677   1.581  1.00 20.00    -0.271 OA
HETATM    5  S9  UNL     1     -34.762   6.424   4.219  1.00 20.00    -0.055 SA
ENDROOT
BRANCH   2   6
HETATM    6  C6  UNL     1     -31.783   8.054   1.549  1.00 20.00     0.109 C 
BRANCH   6   7
HETATM    7  C5  UNL     1     -32.713   8.938   0.793  1.00 20.00    -0.006 A 
HETATM    8  C3  UNL     1     -32.604  10.433   0.914  1.00 20.00     0.005 A 
HETATM    9  C4  UNL     1     -32.210   9.752  -0.367  1.00 20.00     0.005 A 
ENDBRANCH   6   7
ENDBRANCH   2   6
TORSDOF 2
ENDMDL
MODEL 4
REMARK VINA RESULT:      -0.5      3.618      4.576
REMARK  2 active torsions:
REMARK  status: ('A' for Active; 'I' for Inactive)
REMARK    1  A    between atoms: C2_2  and  C6_6 
REMARK       I    between atoms: C2_2  and  N7_7 
REMARK    2  A    between atoms: C5_5  and  C6_6 
ROOT
HETATM    1  C1  UNL     1     -34.397   4.508   4.480  1.00 20.00     0.166 C 
HETATM    2  C2  UNL     1     -35.240   6.416   3.802  1.00 20.00     0.244 C 
HETATM    3  N7  UNL     1     -35.056   5.437   4.761  1.00 20.00    -0.199 NA
HETATM    4  O8  UNL     1     -36.143   6.461   2.968  1.00 20.00    -0.271 OA
HETATM    5  S9  UNL     1     -33.508   3.231   4.135  1.00 20.00    -0.055 SA
ENDROOT
BRANCH   2   6
HETATM    6  C6  UNL     1     -34.168   7.491   3.876  1.00 20.00     0.109 C 
BRANCH   6   7
HETATM    7  C5  UNL     1     -32.898   7.131   3.188  1.00 20.00    -0.006 A 
HETATM    8  C3  UNL     1     -32.924   6.570   1.793  1.00 20.00     0.005 A 
HETATM    9  C4  UNL     1     -32.400   7.958   2.035  1.00 20.00     0.005 A 
ENDBRANCH   6   7
ENDBRANCH   2   6
TORSDOF 2
ENDMDL
MODEL 5
REMARK VINA RESULT:      -0.4      2.878      3.302
REMARK  2 active torsions:
REMARK  status: ('A' for Active; 'I' for Inactive)
REMARK    1  A    between atoms: C2_2  and  C6_6 
REMARK       I    between atoms: C2_2  and  N7_7 
REMARK    2  A    between atoms: C5_5  and  C6_6 
ROOT
HETATM    1  C1  UNL     1     -32.790   7.207   1.922  1.00 20.00     0.166 C 
HETATM    2  C2  UNL     1     -33.966   5.821   3.151  1.00 20.00     0.244 C 
HETATM    3  N7  UNL     1     -33.652   6.411   1.941  1.00 20.00    -0.199 NA
HETATM    4  O8  UNL     1     -34.789   6.227   3.970  1.00 20.00    -0.271 OA
HETATM    5  S9  UNL     1     -31.625   8.293   1.858  1.00 20.00    -0.055 SA
ENDROOT
BRANCH   2   6
HETATM    6  C6  UNL     1     -33.157   4.556   3.392  1.00 20.00     0.109 C 
BRANCH   6   7
HETATM    7  C5  UNL     1     -33.730   3.657   4.430  1.00 20.00    -0.006 A 
HETATM    8  C3  UNL     1     -33.312   2.214   4.498  1.00 20.00     0.005 A 
HETATM    9  C4  UNL     1     -32.876   3.174   5.569  1.00 20.00     0.005 A 
ENDBRANCH   6   7
ENDBRANCH   2   6
TORSDOF 2
ENDMDL
MODEL 6
REMARK VINA RESULT:      -0.0      2.270      2.565
REMARK  2 active torsions:
REMARK  status: ('A' for Active; 'I' for Inactive)
REMARK    1  A    between atoms: C2_2  and  C6_6 
REMARK       I    between atoms: C2_2  and  N7_7 
REMARK    2  A    between atoms: C5_5  and  C6_6 
ROOT
HETATM    1  C1  UNL     1     -32.338   6.520   1.411  1.00 20.00     0.166 C 
HETATM    2  C2  UNL     1     -32.502   8.015   3.008  1.00 20.00     0.244 C 
HETATM    3  N7  UNL     1     -32.691   7.600   1.703  1.00 20.00    -0.199 NA
HETATM    4  O8  UNL     1     -31.511   8.589   3.456  1.00 20.00    -0.271 OA
HETATM    5  S9  UNL     1     -31.872   5.059   0.977  1.00 20.00    -0.055 SA
ENDROOT
BRANCH   2   6
HETATM    6  C6  UNL     1     -33.695   7.678   3.888  1.00 20.00     0.109 C 
BRANCH   6   7
HETATM    7  C5  UNL     1     -34.491   6.512   3.413  1.00 20.00    -0.006 A 
HETATM    8  C3  UNL     1     -34.268   5.149   4.007  1.00 20.00     0.005 A 
HETATM    9  C4  UNL     1     -35.538   5.897   4.300  1.00 20.00     0.005 A 
ENDBRANCH   6   7
ENDBRANCH   2   6
TORSDOF 2
ENDMDL
MODEL 7
REMARK VINA RESULT:       0.0      2.564      3.644
REMARK  2 active torsions:
REMARK  status: ('A' for Active; 'I' for Inactive)
REMARK    1  A    between atoms: C2_2  and  C6_6 
REMARK       I    between atoms: C2_2  and  N7_7 
REMARK    2  A    between atoms: C5_5  and  C6_6 
ROOT
HETATM    1  C1  UNL     1     -33.679   7.374   3.553  1.00 20.00     0.166 C 
HETATM    2  C2  UNL     1     -32.345   8.151   1.994  1.00 20.00     0.244 C 
HETATM    3  N7  UNL     1     -32.684   7.949   3.320  1.00 20.00    -0.199 NA
HETATM    4  O8  UNL     1     -32.662   9.114   1.298  1.00 20.00    -0.271 OA
HETATM    5  S9  UNL     1     -35.023   6.596   3.909  1.00 20.00    -0.055 SA
ENDROOT
BRANCH   2   6
HETATM    6  C6  UNL     1     -31.500   7.012   1.445  1.00 20.00     0.109 C 
BRANCH   6   7
HETATM    7  C5  UNL     1     -32.143   5.673   1.551  1.00 20.00    -0.006 A 
HETATM    8  C3  UNL     1     -33.211   5.266   0.574  1.00 20.00     0.005 A 
HETATM    9  C4  UNL     1     -31.857   4.613   0.523  1.00 20.00     0.005 A 
ENDBRANCH   6   7
ENDBRANCH   2   6
TORSDOF 2
ENDMDL
MODEL 8
REMARK VINA RESULT:       0.0      2.776      4.141
REMARK  2 active torsions:
REMARK  status: ('A' for Active; 'I' for Inactive)
REMARK    1  A    between atoms: C2_2  and  C6_6 
REMARK       I    between atoms: C2_2  and  N7_7 
REMARK    2  A    between atoms: C5_5  and  C6_6 
ROOT
HETATM    1  C1  UNL     1     -33.740   5.289   2.707  1.00 20.00     0.166 C 
HETATM    2  C2  UNL     1     -32.394   6.566   1.537  1.00 20.00     0.244 C 
HETATM    3  N7  UNL     1     -33.561   5.840   1.687  1.00 20.00    -0.199 NA
HETATM    4  O8  UNL     1     -31.323   6.145   1.104  1.00 20.00    -0.271 OA
HETATM    5  S9  UNL     1     -34.019   4.527   4.078  1.00 20.00    -0.055 SA
ENDROOT
BRANCH   2   6
HETATM    6  C6  UNL     1     -32.564   8.010   1.980  1.00 20.00     0.109 C 
BRANCH   6   7
HETATM    7  C5  UNL     1     -31.924   9.004   1.074  1.00 20.00    -0.006 A 
HETATM    8  C3  UNL     1     -32.403   9.155  -0.344  1.00 20.00     0.005 A 
HETATM    9  C4  UNL     1     -32.670  10.242   0.660  1.00 20.00     0.005 A 
ENDBRANCH   6   7
ENDBRANCH   2   6
TORSDOF 2
ENDMDL
MODEL 9
REMARK VINA RESULT:       0.0      2.757      4.085
REMARK  2 active torsions:
REMARK  status: ('A' for Active; 'I' for Inactive)
REMARK    1  A    between atoms: C2_2  and  C6_6 
REMARK       I    between atoms: C2_2  and  N7_7 
REMARK    2  A    between atoms: C5_5  and  C6_6 
ROOT
HETATM    1  C1  UNL     1     -32.936   5.580   1.061  1.00 20.00     0.166 C 
HETATM    2  C2  UNL     1     -32.540   7.338   2.312  1.00 20.00     0.244 C 
HETATM    3  N7  UNL     1     -32.242   6.060   1.876  1.00 20.00    -0.199 NA
HETATM    4  O8  UNL     1     -33.273   7.635   3.254  1.00 20.00    -0.271 OA
HETATM    5  S9  UNL     1     -33.856   4.895  -0.046  1.00 20.00    -0.055 SA
ENDROOT
BRANCH   2   6
HETATM    6  C6  UNL     1     -31.843   8.400   1.477  1.00 20.00     0.109 C 
BRANCH   6   7
HETATM    7  C5  UNL     1     -32.767   9.232   0.658  1.00 20.00    -0.006 A 
HETATM    8  C3  UNL     1     -32.684  10.732   0.711  1.00 20.00     0.005 A 
HETATM    9  C4  UNL     1     -32.246   9.999  -0.526  1.00 20.00     0.005 A 
ENDBRANCH   6   7
ENDBRANCH   2   6
TORSDOF 2
ENDMDL
