MODEL 1
REMARK VINA RESULT:      -1.6      0.000      0.000
REMARK  1 active torsions:
REMARK  status: ('A' for Active; 'I' for Inactive)
REMARK    1  A    between atoms: C4_4  and  C9_9 
ROOT
HETATM    1  C1  UNL     1     -31.786   6.767   1.222  1.00 20.00     0.006 C 
HETATM    2  C2  UNL     1     -32.633   5.605   1.749  1.00 20.00     0.021 C 
HETATM    3  C3  UNL     1     -32.932   8.447   2.721  1.00 20.00     0.010 C 
HETATM    4  C4  UNL     1     -32.542   8.093   1.276  1.00 20.00    -0.014 C 
HETATM    5  C5  UNL     1     -33.240   7.223   3.613  1.00 20.00     0.000 C 
HETATM    6  C6  UNL     1     -33.709   6.033   2.757  1.00 20.00     0.086 C 
HETATM    7  C7  UNL     1     -34.235   7.630   4.704  1.00 20.00     0.011 C 
HETATM    8 CL10 UNL     1     -34.168   4.613   3.747  1.00 20.00    -0.125 Cl
ENDROOT
BRANCH   4   9
HETATM    9  C9  UNL     1     -31.728   9.221   0.643  1.00 20.00     0.000 C 
HETATM   10  C8  UNL     1     -32.602  10.193  -0.078  1.00 20.00     0.005 C 
ENDBRANCH   4   9
TORSDOF 1
ENDMDL
MODEL 2
REMARK VINA RESULT:      -0.9      2.218      4.538
REMARK  1 active torsions:
REMARK  status: ('A' for Active; 'I' for Inactive)
REMARK    1  A    between atoms: C4_4  and  C9_9 
ROOT
HETATM    1  C1  UNL     1     -33.574   7.685   3.963  1.00 20.00     0.006 C 
HETATM    2  C2  UNL     1     -32.762   8.469   2.929  1.00 20.00     0.021 C 
HETATM    3  C3  UNL     1     -33.626   5.604   2.532  1.00 20.00     0.010 C 
HETATM    4  C4  UNL     1     -34.467   6.632   3.310  1.00 20.00    -0.014 C 
HETATM    5  C5  UNL     1     -32.341   6.183   1.899  1.00 20.00     0.000 C 
HETATM    6  C6  UNL     1     -32.500   7.690   1.631  1.00 20.00     0.086 C 
HETATM    7  C7  UNL     1     -31.980   5.369   0.653  1.00 20.00     0.011 C 
HETATM    8 CL10 UNL     1     -31.072   8.398   0.814  1.00 20.00    -0.125 Cl
ENDROOT
BRANCH   4   9
HETATM    9  C9  UNL     1     -35.353   5.939   4.342  1.00 20.00     0.000 C 
HETATM   10  C8  UNL     1     -34.877   4.554   4.635  1.00 20.00     0.005 C 
ENDBRANCH   4   9
TORSDOF 1
ENDMDL
MODEL 3
REMARK VINA RESULT:      -0.5      0.800      2.368
REMARK  1 active torsions:
REMARK  status: ('A' for Active; 'I' for Inactive)
REMARK    1  A    between atoms: C4_4  and  C9_9 
ROOT
HETATM    1  C1  UNL     1     -33.810   8.240   2.855  1.00 20.00     0.006 C 
HETATM    2  C2  UNL     1     -34.060   6.959   3.654  1.00 20.00     0.021 C 
HETATM    3  C3  UNL     1     -32.190   7.096   1.289  1.00 20.00     0.010 C 
HETATM    4  C4  UNL     1     -32.405   8.273   2.256  1.00 20.00    -0.014 C 
HETATM    5  C5  UNL     1     -32.950   5.808   1.679  1.00 20.00     0.000 C 
HETATM    6  C6  UNL     1     -33.207   5.768   3.195  1.00 20.00     0.086 C 
HETATM    7  C7  UNL     1     -32.186   4.590   1.149  1.00 20.00     0.011 C 
HETATM    8 CL10 UNL     1     -34.006   4.253   3.718  1.00 20.00    -0.125 Cl
ENDROOT
BRANCH   4   9
HETATM    9  C9  UNL     1     -32.130   9.604   1.559  1.00 20.00     0.000 C 
HETATM   10  C8  UNL     1     -32.461   9.542   0.104  1.00 20.00     0.005 C 
ENDBRANCH   4   9
TORSDOF 1
ENDMDL
MODEL 4
REMARK VINA RESULT:      -0.4      2.419      4.358
REMARK  1 active torsions:
REMARK  status: ('A' for Active; 'I' for Inactive)
REMARK    1  A    between atoms: C4_4  and  C9_9 
ROOT
HETATM    1  C1  UNL     1     -33.175   4.851   1.973  1.00 20.00     0.006 C 
HETATM    2  C2  UNL     1     -32.441   6.082   1.435  1.00 20.00     0.021 C 
HETATM    3  C3  UNL     1     -34.110   6.115   3.949  1.00 20.00     0.010 C 
HETATM    4  C4  UNL     1     -33.307   4.884   3.494  1.00 20.00    -0.014 C 
HETATM    5  C5  UNL     1     -33.924   7.362   3.056  1.00 20.00     0.000 C 
HETATM    6  C6  UNL     1     -32.562   7.317   2.340  1.00 20.00     0.086 C 
HETATM    7  C7  UNL     1     -34.139   8.624   3.896  1.00 20.00     0.011 C 
HETATM    8 CL10 UNL     1     -32.253   8.782   1.358  1.00 20.00    -0.125 Cl
ENDROOT
BRANCH   4   9
HETATM    9  C9  UNL     1     -33.938   3.598   4.024  1.00 20.00     0.000 C 
HETATM   10  C8  UNL     1     -32.993   2.841   4.897  1.00 20.00     0.005 C 
ENDBRANCH   4   9
TORSDOF 1
ENDMDL
MODEL 5
REMARK VINA RESULT:       0.1      1.953      3.196
REMARK  1 active torsions:
REMARK  status: ('A' for Active; 'I' for Inactive)
REMARK    1  A    between atoms: C4_4  and  C9_9 
ROOT
HETATM    1  C1  UNL     1     -32.180   7.323   1.584  1.00 20.00     0.006 C 
HETATM    2  C2  UNL     1     -32.352   8.117   2.881  1.00 20.00     0.021 C 
HETATM    3  C3  UNL     1     -33.711   5.472   2.365  1.00 20.00     0.010 C 
HETATM    4  C4  UNL     1     -32.318   5.819   1.813  1.00 20.00    -0.014 C 
HETATM    5  C5  UNL     1     -34.321   6.559   3.278  1.00 20.00     0.000 C 
HETATM    6  C6  UNL     1     -33.213   7.402   3.933  1.00 20.00     0.086 C 
HETATM    7  C7  UNL     1     -35.273   5.902   4.282  1.00 20.00     0.011 C 
HETATM    8 CL10 UNL     1     -33.860   8.623   5.073  1.00 20.00    -0.125 Cl
ENDROOT
BRANCH   4   9
HETATM    9  C9  UNL     1     -32.031   5.035   0.533  1.00 20.00     0.000 C 
HETATM   10  C8  UNL     1     -33.271   4.420  -0.025  1.00 20.00     0.005 C 
ENDBRANCH   4   9
TORSDOF 1
ENDMDL
MODEL 6
REMARK VINA RESULT:       0.6      2.273      4.040
REMARK  1 active torsions:
REMARK  status: ('A' for Active; 'I' for Inactive)
REMARK    1  A    between atoms: C4_4  and  C9_9 
ROOT
HETATM    1  C1  UNL     1     -33.067   6.449   2.292  1.00 20.00     0.006 C 
HETATM    2  C2  UNL     1     -31.897   6.669   1.330  1.00 20.00     0.021 C 
HETATM    3  C3  UNL     1     -33.535   8.923   2.487  1.00 20.00     0.010 C 
HETATM    4  C4  UNL     1     -33.243   7.622   3.254  1.00 20.00    -0.014 C 
HETATM    5  C5  UNL     1     -32.849   9.015   1.106  1.00 20.00     0.000 C 
HETATM    6  C6  UNL     1     -31.578   8.149   1.074  1.00 20.00     0.086 C 
HETATM    7  C7  UNL     1     -32.604  10.486   0.759  1.00 20.00     0.011 C 
HETATM    8 CL10 UNL     1     -30.690   8.286  -0.476  1.00 20.00    -0.125 Cl
ENDROOT
BRANCH   4   9
HETATM    9  C9  UNL     1     -34.339   7.339   4.280  1.00 20.00     0.000 C 
HETATM   10  C8  UNL     1     -35.193   6.186   3.868  1.00 20.00     0.005 C 
ENDBRANCH   4   9
TORSDOF 1
ENDMDL
