MODEL 1
REMARK VINA RESULT:       2.2      0.000      0.000
REMARK  0 active torsions:
REMARK  status: ('A' for Active; 'I' for Inactive)
ROOT
HETATM    1  C1  UNL     1     -34.298   7.592   3.316  1.00 20.00     0.019 A 
HETATM    2  C2  UNL     1     -33.334   7.896   2.349  1.00 20.00    -0.033 A 
HETATM    3  C3  UNL     1     -34.458   6.285   3.758  1.00 20.00    -0.021 A 
HETATM    4  C4  UNL     1     -32.539   6.848   1.873  1.00 20.00     0.042 A 
HETATM    5  C5  UNL     1     -33.633   5.316   3.217  1.00 20.00     0.132 A 
HETATM    6  C6  UNL     1     -33.136   9.319   1.905  1.00 20.00     0.040 C 
HETATM    7  C7  UNL     1     -31.499   7.083   0.809  1.00 20.00     0.060 C 
HETATM    8  C8  UNL     1     -32.319   9.441   0.620  1.00 20.00     0.005 C 
HETATM    9  C9  UNL     1     -31.086   8.547   0.684  1.00 20.00     0.006 C 
HETATM   10  C10 UNL     1     -35.492   5.977   4.785  1.00 20.00     0.051 C 
HETATM   11  N11 UNL     1     -32.684   5.564   2.288  1.00 20.00    -0.240 NA
HETATM   12 CL12 UNL     1     -33.733   3.663   3.678  1.00 20.00    -0.062 Cl
ENDROOT
TORSDOF 0
ENDMDL
MODEL 2
REMARK VINA RESULT:       2.6      1.376      2.330
REMARK  0 active torsions:
REMARK  status: ('A' for Active; 'I' for Inactive)
ROOT
HETATM    1  C1  UNL     1     -32.636   5.555   2.229  1.00 20.00     0.019 A 
HETATM    2  C2  UNL     1     -32.448   6.868   1.789  1.00 20.00    -0.033 A 
HETATM    3  C3  UNL     1     -33.586   5.272   3.202  1.00 20.00    -0.021 A 
HETATM    4  C4  UNL     1     -33.260   7.863   2.346  1.00 20.00     0.042 A 
HETATM    5  C5  UNL     1     -34.330   6.325   3.702  1.00 20.00     0.132 A 
HETATM    6  C6  UNL     1     -31.447   7.163   0.706  1.00 20.00     0.040 C 
HETATM    7  C7  UNL     1     -33.101   9.307   1.950  1.00 20.00     0.060 C 
HETATM    8  C8  UNL     1     -31.107   8.648   0.587  1.00 20.00     0.005 C 
HETATM    9  C9  UNL     1     -32.376   9.492   0.619  1.00 20.00     0.006 C 
HETATM   10  C10 UNL     1     -33.772   3.868   3.664  1.00 20.00     0.051 C 
HETATM   11  N11 UNL     1     -34.189   7.608   3.301  1.00 20.00    -0.240 NA
HETATM   12 CL12 UNL     1     -35.535   6.108   4.909  1.00 20.00    -0.062 Cl
ENDROOT
TORSDOF 0
ENDMDL
MODEL 3
REMARK VINA RESULT:       3.0      2.461      4.818
REMARK  0 active torsions:
REMARK  status: ('A' for Active; 'I' for Inactive)
ROOT
HETATM    1  C1  UNL     1     -31.960   6.680   1.397  1.00 20.00     0.019 A 
HETATM    2  C2  UNL     1     -32.915   6.284   2.337  1.00 20.00    -0.033 A 
HETATM    3  C3  UNL     1     -31.882   8.007   0.994  1.00 20.00    -0.021 A 
HETATM    4  C4  UNL     1     -33.760   7.269   2.860  1.00 20.00     0.042 A 
HETATM    5  C5  UNL     1     -32.771   8.905   1.558  1.00 20.00     0.132 A 
HETATM    6  C6  UNL     1     -32.966   4.854   2.801  1.00 20.00     0.040 C 
HETATM    7  C7  UNL     1     -34.837   6.921   3.854  1.00 20.00     0.060 C 
HETATM    8  C8  UNL     1     -34.258   4.506   3.539  1.00 20.00     0.005 C 
HETATM    9  C9  UNL     1     -34.600   5.588   4.557  1.00 20.00     0.006 C 
HETATM   10  C10 UNL     1     -30.861   8.414  -0.012  1.00 20.00     0.051 C 
HETATM   11  N11 UNL     1     -33.705   8.569   2.474  1.00 20.00    -0.240 NA
HETATM   12 CL12 UNL     1     -32.780  10.573   1.142  1.00 20.00    -0.062 Cl
ENDROOT
TORSDOF 0
ENDMDL
MODEL 4
REMARK VINA RESULT:       3.1      2.179      4.241
REMARK  0 active torsions:
REMARK  status: ('A' for Active; 'I' for Inactive)
ROOT
HETATM    1  C1  UNL     1     -33.721   8.607   2.483  1.00 20.00     0.019 A 
HETATM    2  C2  UNL     1     -33.783   7.274   2.901  1.00 20.00    -0.033 A 
HETATM    3  C3  UNL     1     -32.783   9.000   1.537  1.00 20.00    -0.021 A 
HETATM    4  C4  UNL     1     -32.890   6.368   2.319  1.00 20.00     0.042 A 
HETATM    5  C5  UNL     1     -31.934   8.034   1.031  1.00 20.00     0.132 A 
HETATM    6  C6  UNL     1     -34.829   6.845   3.893  1.00 20.00     0.040 C 
HETATM    7  C7  UNL     1     -32.869   4.921   2.736  1.00 20.00     0.060 C 
HETATM    8  C8  UNL     1     -34.550   5.474   4.507  1.00 20.00     0.005 C 
HETATM    9  C9  UNL     1     -34.155   4.474   3.426  1.00 20.00     0.006 C 
HETATM   10  C10 UNL     1     -32.726  10.425   1.104  1.00 20.00     0.051 C 
HETATM   11  N11 UNL     1     -31.962   6.734   1.399  1.00 20.00    -0.240 NA
HETATM   12 CL12 UNL     1     -30.728   8.393  -0.142  1.00 20.00    -0.062 Cl
ENDROOT
TORSDOF 0
ENDMDL
MODEL 5
REMARK VINA RESULT:       3.7      2.312      4.569
REMARK  0 active torsions:
REMARK  status: ('A' for Active; 'I' for Inactive)
ROOT
HETATM    1  C1  UNL     1     -32.836   4.879   2.019  1.00 20.00     0.019 A 
HETATM    2  C2  UNL     1     -33.643   5.521   2.962  1.00 20.00    -0.033 A 
HETATM    3  C3  UNL     1     -32.016   5.621   1.179  1.00 20.00    -0.021 A 
HETATM    4  C4  UNL     1     -33.573   6.917   3.035  1.00 20.00     0.042 A 
HETATM    5  C5  UNL     1     -32.027   6.997   1.318  1.00 20.00     0.132 A 
HETATM    6  C6  UNL     1     -34.497   4.710   3.898  1.00 20.00     0.040 C 
HETATM    7  C7  UNL     1     -34.432   7.688   4.003  1.00 20.00     0.060 C 
HETATM    8  C8  UNL     1     -35.564   5.540   4.611  1.00 20.00     0.005 C 
HETATM    9  C9  UNL     1     -34.965   6.834   5.150  1.00 20.00     0.006 C 
HETATM   10  C10 UNL     1     -31.164   4.923   0.175  1.00 20.00     0.051 C 
HETATM   11  N11 UNL     1     -32.784   7.660   2.219  1.00 20.00    -0.240 NA
HETATM   12 CL12 UNL     1     -31.060   8.028   0.337  1.00 20.00    -0.062 Cl
ENDROOT
TORSDOF 0
ENDMDL
