MODEL 1
REMARK VINA RESULT:      -2.8      0.000      0.000
REMARK  1 active torsions:
REMARK  status: ('A' for Active; 'I' for Inactive)
REMARK    1  A    between atoms: C6_6  and  C8_8 
ROOT
HETATM    1  C1  UNL     1     -32.441   9.972  -0.065  1.00 20.00     0.012 C 
HETATM    2  C2  UNL     1     -32.228   9.213   0.840  1.00 20.00    -0.117 C 
HETATM    3  C8  UNL     1     -31.961   8.286   1.946  1.00 20.00     0.099 C 
ENDROOT
BRANCH   3   4
HETATM    4  C6  UNL     1     -33.209   7.502   2.321  1.00 20.00     0.015 C 
HETATM    5  C4  UNL     1     -33.773   7.906   3.686  1.00 20.00     0.007 C 
HETATM    6  C3  UNL     1     -34.542   6.683   4.193  1.00 20.00     0.002 C 
HETATM    7  C5  UNL     1     -34.237   5.547   3.216  1.00 20.00     0.020 C 
HETATM    8  C7  UNL     1     -32.975   6.002   2.494  1.00 20.00     0.087 C 
HETATM    9 CL9  UNL     1     -32.752   5.153   0.954  1.00 20.00    -0.125 Cl
ENDBRANCH   3   4
TORSDOF 1
ENDMDL
MODEL 2
REMARK VINA RESULT:      -2.3      1.458      4.199
REMARK  1 active torsions:
REMARK  status: ('A' for Active; 'I' for Inactive)
REMARK    1  A    between atoms: C6_6  and  C8_8 
ROOT
HETATM    1  C1  UNL     1     -33.287   2.849   4.755  1.00 20.00     0.012 C 
HETATM    2  C2  UNL     1     -33.767   3.814   4.225  1.00 20.00    -0.117 C 
HETATM    3  C8  UNL     1     -34.359   4.990   3.576  1.00 20.00     0.099 C 
ENDROOT
BRANCH   3   4
HETATM    4  C6  UNL     1     -33.308   6.053   3.299  1.00 20.00     0.015 C 
HETATM    5  C4  UNL     1     -33.750   7.451   3.742  1.00 20.00     0.007 C 
HETATM    6  C3  UNL     1     -32.966   8.430   2.864  1.00 20.00     0.002 C 
HETATM    7  C5  UNL     1     -32.252   7.584   1.809  1.00 20.00     0.020 C 
HETATM    8  C7  UNL     1     -33.006   6.261   1.816  1.00 20.00     0.087 C 
HETATM    9 CL9  UNL     1     -32.043   4.949   1.114  1.00 20.00    -0.125 Cl
ENDBRANCH   3   4
TORSDOF 1
ENDMDL
MODEL 3
REMARK VINA RESULT:      -2.2      2.326      4.638
REMARK  1 active torsions:
REMARK  status: ('A' for Active; 'I' for Inactive)
REMARK    1  A    between atoms: C6_6  and  C8_8 
ROOT
HETATM    1  C1  UNL     1     -33.276   3.123   4.498  1.00 20.00     0.012 C 
HETATM    2  C2  UNL     1     -33.980   4.080   4.330  1.00 20.00    -0.117 C 
HETATM    3  C8  UNL     1     -34.845   5.248   4.128  1.00 20.00     0.099 C 
ENDROOT
BRANCH   3   4
HETATM    4  C6  UNL     1     -34.224   6.231   3.148  1.00 20.00     0.015 C 
HETATM    5  C4  UNL     1     -33.435   5.537   2.034  1.00 20.00     0.007 C 
HETATM    6  C3  UNL     1     -32.395   6.559   1.566  1.00 20.00     0.002 C 
HETATM    7  C5  UNL     1     -32.472   7.729   2.547  1.00 20.00     0.020 C 
HETATM    8  C7  UNL     1     -33.174   7.151   3.768  1.00 20.00     0.087 C 
HETATM    9 CL9  UNL     1     -33.878   8.419   4.787  1.00 20.00    -0.125 Cl
ENDBRANCH   3   4
TORSDOF 1
ENDMDL
MODEL 4
REMARK VINA RESULT:      -1.9      1.772      2.348
REMARK  1 active torsions:
REMARK  status: ('A' for Active; 'I' for Inactive)
REMARK    1  A    between atoms: C6_6  and  C8_8 
ROOT
HETATM    1  C1  UNL     1     -32.718   9.769  -0.426  1.00 20.00     0.012 C 
HETATM    2  C2  UNL     1     -32.355   9.496   0.684  1.00 20.00    -0.117 C 
HETATM    3  C8  UNL     1     -31.907   9.167   2.043  1.00 20.00     0.099 C 
ENDROOT
BRANCH   3   4
HETATM    4  C6  UNL     1     -32.138   7.697   2.359  1.00 20.00     0.015 C 
HETATM    5  C4  UNL     1     -31.985   6.797   1.129  1.00 20.00     0.007 C 
HETATM    6  C3  UNL     1     -32.837   5.558   1.416  1.00 20.00     0.002 C 
HETATM    7  C5  UNL     1     -33.615   5.858   2.697  1.00 20.00     0.020 C 
HETATM    8  C7  UNL     1     -33.556   7.374   2.825  1.00 20.00     0.087 C 
HETATM    9 CL9  UNL     1     -33.879   7.910   4.484  1.00 20.00    -0.125 Cl
ENDBRANCH   3   4
TORSDOF 1
ENDMDL
MODEL 5
REMARK VINA RESULT:      -1.4      1.698      2.214
REMARK  1 active torsions:
REMARK  status: ('A' for Active; 'I' for Inactive)
REMARK    1  A    between atoms: C6_6  and  C8_8 
ROOT
HETATM    1  C1  UNL     1     -31.870   8.290   1.469  1.00 20.00     0.012 C 
HETATM    2  C2  UNL     1     -32.103   7.136   1.701  1.00 20.00    -0.117 C 
HETATM    3  C8  UNL     1     -32.383   5.722   1.982  1.00 20.00     0.099 C 
ENDROOT
BRANCH   3   4
HETATM    4  C6  UNL     1     -33.752   5.548   2.619  1.00 20.00     0.015 C 
HETATM    5  C4  UNL     1     -34.425   6.883   2.949  1.00 20.00     0.007 C 
HETATM    6  C3  UNL     1     -35.393   6.585   4.098  1.00 20.00     0.002 C 
HETATM    7  C5  UNL     1     -35.110   5.148   4.536  1.00 20.00     0.020 C 
HETATM    8  C7  UNL     1     -33.724   4.851   3.979  1.00 20.00     0.087 C 
HETATM    9 CL9  UNL     1     -33.419   3.110   3.859  1.00 20.00    -0.125 Cl
ENDBRANCH   3   4
TORSDOF 1
ENDMDL
MODEL 6
REMARK VINA RESULT:      -1.1      1.929      4.068
REMARK  1 active torsions:
REMARK  status: ('A' for Active; 'I' for Inactive)
REMARK    1  A    between atoms: C6_6  and  C8_8 
ROOT
HETATM    1  C1  UNL     1     -35.591   5.621   4.460  1.00 20.00     0.012 C 
HETATM    2  C2  UNL     1     -34.852   6.475   4.053  1.00 20.00    -0.117 C 
HETATM    3  C8  UNL     1     -33.950   7.523   3.561  1.00 20.00     0.099 C 
ENDROOT
BRANCH   3   4
HETATM    4  C6  UNL     1     -33.346   7.145   2.218  1.00 20.00     0.015 C 
HETATM    5  C4  UNL     1     -32.843   5.699   2.183  1.00 20.00     0.007 C 
HETATM    6  C3  UNL     1     -31.747   5.669   1.113  1.00 20.00     0.002 C 
HETATM    7  C5  UNL     1     -31.504   7.122   0.707  1.00 20.00     0.020 C 
HETATM    8  C7  UNL     1     -32.092   7.936   1.852  1.00 20.00     0.087 C 
HETATM    9 CL9  UNL     1     -32.442   9.604   1.365  1.00 20.00    -0.125 Cl
ENDBRANCH   3   4
TORSDOF 1
ENDMDL
MODEL 7
REMARK VINA RESULT:      -1.0      1.893      2.272
REMARK  1 active torsions:
REMARK  status: ('A' for Active; 'I' for Inactive)
REMARK    1  A    between atoms: C6_6  and  C8_8 
ROOT
HETATM    1  C1  UNL     1     -32.665  10.163   0.356  1.00 20.00     0.012 C 
HETATM    2  C2  UNL     1     -32.132   9.126   0.642  1.00 20.00    -0.117 C 
HETATM    3  C8  UNL     1     -31.478   7.858   0.986  1.00 20.00     0.099 C 
ENDROOT
BRANCH   3   4
HETATM    4  C6  UNL     1     -32.169   7.183   2.161  1.00 20.00     0.015 C 
HETATM    5  C4  UNL     1     -33.321   6.274   1.725  1.00 20.00     0.007 C 
HETATM    6  C3  UNL     1     -34.271   6.208   2.925  1.00 20.00     0.002 C 
HETATM    7  C5  UNL     1     -33.755   7.230   3.937  1.00 20.00     0.020 C 
HETATM    8  C7  UNL     1     -32.859   8.151   3.120  1.00 20.00     0.087 C 
HETATM    9 CL9  UNL     1     -31.720   9.044   4.142  1.00 20.00    -0.125 Cl
ENDBRANCH   3   4
TORSDOF 1
ENDMDL
MODEL 8
REMARK VINA RESULT:      -0.7      1.943      2.702
REMARK  1 active torsions:
REMARK  status: ('A' for Active; 'I' for Inactive)
REMARK    1  A    between atoms: C6_6  and  C8_8 
ROOT
HETATM    1  C1  UNL     1     -31.649   8.388   1.542  1.00 20.00     0.012 C 
HETATM    2  C2  UNL     1     -32.198   7.324   1.633  1.00 20.00    -0.117 C 
HETATM    3  C8  UNL     1     -32.869   6.023   1.738  1.00 20.00     0.099 C 
ENDROOT
BRANCH   3   4
HETATM    4  C6  UNL     1     -33.389   5.783   3.147  1.00 20.00     0.015 C 
HETATM    5  C4  UNL     1     -33.759   4.319   3.399  1.00 20.00     0.007 C 
HETATM    6  C3  UNL     1     -34.809   4.344   4.513  1.00 20.00     0.002 C 
HETATM    7  C5  UNL     1     -35.166   5.814   4.733  1.00 20.00     0.020 C 
HETATM    8  C7  UNL     1     -34.694   6.510   3.463  1.00 20.00     0.087 C 
HETATM    9 CL9  UNL     1     -34.476   8.252   3.706  1.00 20.00    -0.125 Cl
ENDBRANCH   3   4
TORSDOF 1
ENDMDL
MODEL 9
REMARK VINA RESULT:      -0.5      2.013      4.335
REMARK  1 active torsions:
REMARK  status: ('A' for Active; 'I' for Inactive)
REMARK    1  A    between atoms: C6_6  and  C8_8 
ROOT
HETATM    1  C1  UNL     1     -33.500   3.495   4.747  1.00 20.00     0.012 C 
HETATM    2  C2  UNL     1     -33.443   3.895   3.616  1.00 20.00    -0.117 C 
HETATM    3  C8  UNL     1     -33.371   4.379   2.232  1.00 20.00     0.099 C 
ENDROOT
BRANCH   3   4
HETATM    4  C6  UNL     1     -33.484   5.894   2.172  1.00 20.00     0.015 C 
HETATM    5  C4  UNL     1     -32.173   6.569   1.760  1.00 20.00     0.007 C 
HETATM    6  C3  UNL     1     -32.231   7.980   2.352  1.00 20.00     0.002 C 
HETATM    7  C5  UNL     1     -33.467   8.018   3.252  1.00 20.00     0.020 C 
HETATM    8  C7  UNL     1     -33.783   6.552   3.518  1.00 20.00     0.087 C 
HETATM    9 CL9  UNL     1     -35.459   6.323   4.044  1.00 20.00    -0.125 Cl
ENDBRANCH   3   4
TORSDOF 1
ENDMDL
