MODEL 1
REMARK VINA RESULT:      -1.6      0.000      0.000
REMARK  2 active torsions:
REMARK  status: ('A' for Active; 'I' for Inactive)
REMARK    1  A    between atoms: C4_4  and  C7_7 
REMARK    2  A    between atoms: C7_7  and  C8_8 
ROOT
HETATM    1  C1  UNL     1     -31.795   7.042   1.420  1.00 20.00     0.002 C 
HETATM    2  C2  UNL     1     -32.817   5.923   1.202  1.00 20.00     0.006 C 
HETATM    3  C3  UNL     1     -32.301   7.867   2.606  1.00 20.00     0.020 C 
HETATM    4  C4  UNL     1     -33.633   5.854   2.498  1.00 20.00     0.004 C 
HETATM    5  C5  UNL     1     -33.705   7.337   2.880  1.00 20.00     0.086 C 
HETATM    6 CL9  UNL     1     -34.234   7.657   4.539  1.00 20.00    -0.125 Cl
ENDROOT
BRANCH   4   7
HETATM    7  C7  UNL     1     -32.956   4.942   3.524  1.00 20.00     0.005 C 
BRANCH   7   8
HETATM    8  C8  UNL     1     -33.949   3.957   4.137  1.00 20.00    -0.004 C 
HETATM    9  C6  UNL     1     -33.236   2.787   4.798  1.00 20.00     0.005 C 
ENDBRANCH   7   8
ENDBRANCH   4   7
TORSDOF 2
ENDMDL
MODEL 2
REMARK VINA RESULT:      -1.5      1.779      4.327
REMARK  2 active torsions:
REMARK  status: ('A' for Active; 'I' for Inactive)
REMARK    1  A    between atoms: C4_4  and  C7_7 
REMARK    2  A    between atoms: C7_7  and  C8_8 
ROOT
HETATM    1  C1  UNL     1     -32.754   5.759   1.270  1.00 20.00     0.002 C 
HETATM    2  C2  UNL     1     -31.598   6.741   1.476  1.00 20.00     0.006 C 
HETATM    3  C3  UNL     1     -33.767   6.041   2.383  1.00 20.00     0.020 C 
HETATM    4  C4  UNL     1     -32.147   7.833   2.401  1.00 20.00     0.004 C 
HETATM    5  C5  UNL     1     -33.056   7.011   3.321  1.00 20.00     0.086 C 
HETATM    6 CL9  UNL     1     -34.190   7.960   4.294  1.00 20.00    -0.125 Cl
ENDROOT
BRANCH   4   7
HETATM    7  C7  UNL     1     -32.845   8.932   1.596  1.00 20.00     0.005 C 
BRANCH   7   8
HETATM    8  C8  UNL     1     -32.021   9.340   0.377  1.00 20.00    -0.004 C 
HETATM    9  C6  UNL     1     -32.803  10.273  -0.536  1.00 20.00     0.005 C 
ENDBRANCH   7   8
ENDBRANCH   4   7
TORSDOF 2
ENDMDL
MODEL 3
REMARK VINA RESULT:      -0.9      1.900      4.158
REMARK  2 active torsions:
REMARK  status: ('A' for Active; 'I' for Inactive)
REMARK    1  A    between atoms: C4_4  and  C7_7 
REMARK    2  A    between atoms: C7_7  and  C8_8 
ROOT
HETATM    1  C1  UNL     1     -34.728   5.439   4.359  1.00 20.00     0.002 C 
HETATM    2  C2  UNL     1     -35.062   6.737   3.618  1.00 20.00     0.006 C 
HETATM    3  C3  UNL     1     -33.689   4.707   3.505  1.00 20.00     0.020 C 
HETATM    4  C4  UNL     1     -33.924   6.939   2.611  1.00 20.00     0.004 C 
HETATM    5  C5  UNL     1     -33.634   5.492   2.199  1.00 20.00     0.086 C 
HETATM    6 CL9  UNL     1     -32.109   5.253   1.332  1.00 20.00    -0.125 Cl
ENDROOT
BRANCH   4   7
HETATM    7  C7  UNL     1     -32.753   7.688   3.253  1.00 20.00     0.005 C 
BRANCH   7   8
HETATM    8  C8  UNL     1     -31.741   8.145   2.204  1.00 20.00    -0.004 C 
HETATM    9  C6  UNL     1     -32.416   8.910   1.076  1.00 20.00     0.005 C 
ENDBRANCH   7   8
ENDBRANCH   4   7
TORSDOF 2
ENDMDL
MODEL 4
REMARK VINA RESULT:      -0.5      2.013      2.630
REMARK  2 active torsions:
REMARK  status: ('A' for Active; 'I' for Inactive)
REMARK    1  A    between atoms: C4_4  and  C7_7 
REMARK    2  A    between atoms: C7_7  and  C8_8 
ROOT
HETATM    1  C1  UNL     1     -32.142   8.847   2.202  1.00 20.00     0.002 C 
HETATM    2  C2  UNL     1     -32.388   8.140   3.538  1.00 20.00     0.006 C 
HETATM    3  C3  UNL     1     -32.252   7.774   1.116  1.00 20.00     0.020 C 
HETATM    4  C4  UNL     1     -33.055   6.807   3.180  1.00 20.00     0.004 C 
HETATM    5  C5  UNL     1     -32.328   6.454   1.877  1.00 20.00     0.086 C 
HETATM    6 CL9  UNL     1     -33.084   5.169   0.924  1.00 20.00    -0.125 Cl
ENDROOT
BRANCH   4   7
HETATM    7  C7  UNL     1     -34.573   6.969   3.064  1.00 20.00     0.005 C 
BRANCH   7   8
HETATM    8  C8  UNL     1     -35.306   6.109   4.091  1.00 20.00    -0.004 C 
HETATM    9  C6  UNL     1     -34.628   4.760   4.273  1.00 20.00     0.005 C 
ENDBRANCH   7   8
ENDBRANCH   4   7
TORSDOF 2
ENDMDL
MODEL 5
REMARK VINA RESULT:      -0.2      1.795      3.107
REMARK  2 active torsions:
REMARK  status: ('A' for Active; 'I' for Inactive)
REMARK    1  A    between atoms: C4_4  and  C7_7 
REMARK    2  A    between atoms: C7_7  and  C8_8 
ROOT
HETATM    1  C1  UNL     1     -35.185   6.331   4.079  1.00 20.00     0.002 C 
HETATM    2  C2  UNL     1     -34.239   5.177   3.738  1.00 20.00     0.006 C 
HETATM    3  C3  UNL     1     -34.448   7.621   3.710  1.00 20.00     0.020 C 
HETATM    4  C4  UNL     1     -33.186   5.773   2.797  1.00 20.00     0.004 C 
HETATM    5  C5  UNL     1     -33.024   7.178   3.388  1.00 20.00     0.086 C 
HETATM    6 CL9  UNL     1     -32.178   8.334   2.348  1.00 20.00    -0.125 Cl
ENDROOT
BRANCH   4   7
HETATM    7  C7  UNL     1     -33.662   5.722   1.342  1.00 20.00     0.005 C 
BRANCH   7   8
HETATM    8  C8  UNL     1     -32.688   4.941   0.464  1.00 20.00    -0.004 C 
HETATM    9  C6  UNL     1     -31.355   4.726   1.166  1.00 20.00     0.005 C 
ENDBRANCH   7   8
ENDBRANCH   4   7
TORSDOF 2
ENDMDL
MODEL 6
REMARK VINA RESULT:      -0.2      2.296      2.665
REMARK  2 active torsions:
REMARK  status: ('A' for Active; 'I' for Inactive)
REMARK    1  A    between atoms: C4_4  and  C7_7 
REMARK    2  A    between atoms: C7_7  and  C8_8 
ROOT
HETATM    1  C1  UNL     1     -31.552   5.726   1.452  1.00 20.00     0.002 C 
HETATM    2  C2  UNL     1     -33.057   5.678   1.734  1.00 20.00     0.006 C 
HETATM    3  C3  UNL     1     -31.207   7.193   1.186  1.00 20.00     0.020 C 
HETATM    4  C4  UNL     1     -33.460   7.121   2.055  1.00 20.00     0.004 C 
HETATM    5  C5  UNL     1     -32.555   7.901   1.096  1.00 20.00     0.086 C 
HETATM    6 CL9  UNL     1     -32.429   9.635   1.430  1.00 20.00    -0.125 Cl
ENDROOT
BRANCH   4   7
HETATM    7  C7  UNL     1     -33.261   7.426   3.543  1.00 20.00     0.005 C 
BRANCH   7   8
HETATM    8  C8  UNL     1     -34.589   7.419   4.296  1.00 20.00    -0.004 C 
HETATM    9  C6  UNL     1     -35.332   6.106   4.102  1.00 20.00     0.005 C 
ENDBRANCH   7   8
ENDBRANCH   4   7
TORSDOF 2
ENDMDL
MODEL 7
REMARK VINA RESULT:      -0.1      1.897      2.640
REMARK  2 active torsions:
REMARK  status: ('A' for Active; 'I' for Inactive)
REMARK    1  A    between atoms: C4_4  and  C7_7 
REMARK    2  A    between atoms: C7_7  and  C8_8 
ROOT
HETATM    1  C1  UNL     1     -32.021   8.389   3.383  1.00 20.00     0.002 C 
HETATM    2  C2  UNL     1     -32.431   8.030   1.953  1.00 20.00     0.006 C 
HETATM    3  C3  UNL     1     -33.124   7.850   4.299  1.00 20.00     0.020 C 
HETATM    4  C4  UNL     1     -33.498   6.939   2.092  1.00 20.00     0.004 C 
HETATM    5  C5  UNL     1     -34.235   7.406   3.353  1.00 20.00     0.086 C 
HETATM    6 CL9  UNL     1     -35.303   6.200   4.085  1.00 20.00    -0.125 Cl
ENDROOT
BRANCH   4   7
HETATM    7  C7  UNL     1     -32.855   5.553   2.182  1.00 20.00     0.005 C 
BRANCH   7   8
HETATM    8  C8  UNL     1     -31.637   5.442   1.268  1.00 20.00    -0.004 C 
HETATM    9  C6  UNL     1     -31.799   4.316   0.259  1.00 20.00     0.005 C 
ENDBRANCH   7   8
ENDBRANCH   4   7
TORSDOF 2
ENDMDL
MODEL 8
REMARK VINA RESULT:      -0.0      1.308      3.586
REMARK  2 active torsions:
REMARK  status: ('A' for Active; 'I' for Inactive)
REMARK    1  A    between atoms: C4_4  and  C7_7 
REMARK    2  A    between atoms: C7_7  and  C8_8 
ROOT
HETATM    1  C1  UNL     1     -35.107   4.659   4.203  1.00 20.00     0.002 C 
HETATM    2  C2  UNL     1     -33.595   4.621   3.970  1.00 20.00     0.006 C 
HETATM    3  C3  UNL     1     -35.514   6.134   4.170  1.00 20.00     0.020 C 
HETATM    4  C4  UNL     1     -33.235   5.989   3.382  1.00 20.00     0.004 C 
HETATM    5  C5  UNL     1     -34.196   6.902   4.151  1.00 20.00     0.086 C 
HETATM    6 CL9  UNL     1     -34.376   8.532   3.482  1.00 20.00    -0.125 Cl
ENDROOT
BRANCH   4   7
HETATM    7  C7  UNL     1     -33.400   5.992   1.860  1.00 20.00     0.005 C 
BRANCH   7   8
HETATM    8  C8  UNL     1     -32.110   6.411   1.159  1.00 20.00    -0.004 C 
HETATM    9  C6  UNL     1     -31.705   7.827   1.539  1.00 20.00     0.005 C 
ENDBRANCH   7   8
ENDBRANCH   4   7
TORSDOF 2
ENDMDL
MODEL 9
REMARK VINA RESULT:       0.4      2.189      3.886
REMARK  2 active torsions:
REMARK  status: ('A' for Active; 'I' for Inactive)
REMARK    1  A    between atoms: C4_4  and  C7_7 
REMARK    2  A    between atoms: C7_7  and  C8_8 
ROOT
HETATM    1  C1  UNL     1     -34.761   4.876   4.510  1.00 20.00     0.002 C 
HETATM    2  C2  UNL     1     -35.329   6.156   3.893  1.00 20.00     0.006 C 
HETATM    3  C3  UNL     1     -33.644   4.403   3.577  1.00 20.00     0.020 C 
HETATM    4  C4  UNL     1     -34.274   6.632   2.889  1.00 20.00     0.004 C 
HETATM    5  C5  UNL     1     -33.762   5.294   2.344  1.00 20.00     0.086 C 
HETATM    6 CL9  UNL     1     -32.247   5.388   1.433  1.00 20.00    -0.125 Cl
ENDROOT
BRANCH   4   7
HETATM    7  C7  UNL     1     -33.223   7.510   3.573  1.00 20.00     0.005 C 
BRANCH   7   8
HETATM    8  C8  UNL     1     -33.831   8.319   4.716  1.00 20.00    -0.004 C 
HETATM    9  C6  UNL     1     -32.834   8.519   5.848  1.00 20.00     0.005 C 
ENDBRANCH   7   8
ENDBRANCH   4   7
TORSDOF 2
ENDMDL
