MODEL 1
REMARK VINA RESULT:      -1.4      0.000      0.000
REMARK  2 active torsions:
REMARK  status: ('A' for Active; 'I' for Inactive)
REMARK    1  A    between atoms: C4_4  and  C8_8 
REMARK    2  A    between atoms: C8_8  and  C9_9 
ROOT
HETATM    1  C1  UNL     1     -34.653   6.491   4.294  1.00 20.00     0.002 C 
HETATM    2  C2  UNL     1     -34.003   7.790   3.811  1.00 20.00     0.006 C 
HETATM    3  C3  UNL     1     -34.246   5.408   3.295  1.00 20.00     0.020 C 
HETATM    4  C4  UNL     1     -33.405   7.467   2.439  1.00 20.00     0.004 C 
HETATM    5  C5  UNL     1     -33.033   5.992   2.582  1.00 20.00     0.086 C 
HETATM    6 CL10 UNL     1     -32.734   5.198   1.027  1.00 20.00    -0.125 Cl
ENDROOT
BRANCH   4   7
HETATM    7  C8  UNL     1     -32.235   8.371   2.080  1.00 20.00     0.010 C 
BRANCH   7   8
HETATM    8  C9  UNL     1     -32.344   8.993   0.677  1.00 20.00    -0.022 C 
HETATM    9  C6  UNL     1     -32.680  10.484   0.726  1.00 20.00     0.009 C 
HETATM   10  C7  UNL     1     -31.036   8.783  -0.089  1.00 20.00     0.009 C 
ENDBRANCH   7   8
ENDBRANCH   4   7
TORSDOF 2
ENDMDL
MODEL 2
REMARK VINA RESULT:      -0.8      1.765      2.257
REMARK  2 active torsions:
REMARK  status: ('A' for Active; 'I' for Inactive)
REMARK    1  A    between atoms: C4_4  and  C8_8 
REMARK    2  A    between atoms: C8_8  and  C9_9 
ROOT
HETATM    1  C1  UNL     1     -33.469   5.360   1.875  1.00 20.00     0.002 C 
HETATM    2  C2  UNL     1     -32.438   6.262   1.191  1.00 20.00     0.006 C 
HETATM    3  C3  UNL     1     -33.837   6.046   3.190  1.00 20.00     0.020 C 
HETATM    4  C4  UNL     1     -32.087   7.340   2.220  1.00 20.00     0.004 C 
HETATM    5  C5  UNL     1     -33.394   7.491   2.997  1.00 20.00     0.086 C 
HETATM    6 CL10 UNL     1     -33.190   8.333   4.542  1.00 20.00    -0.125 Cl
ENDROOT
BRANCH   4   7
HETATM    7  C8  UNL     1     -31.596   8.629   1.576  1.00 20.00     0.010 C 
BRANCH   7   8
HETATM    8  C9  UNL     1     -32.660   9.335   0.719  1.00 20.00    -0.022 C 
HETATM    9  C6  UNL     1     -32.821  10.810   1.088  1.00 20.00     0.009 C 
HETATM   10  C7  UNL     1     -32.302   9.209  -0.764  1.00 20.00     0.009 C 
ENDBRANCH   7   8
ENDBRANCH   4   7
TORSDOF 2
ENDMDL
MODEL 3
REMARK VINA RESULT:      -0.5      2.050      4.750
REMARK  2 active torsions:
REMARK  status: ('A' for Active; 'I' for Inactive)
REMARK    1  A    between atoms: C4_4  and  C8_8 
REMARK    2  A    between atoms: C8_8  and  C9_9 
ROOT
HETATM    1  C1  UNL     1     -31.496   7.620   1.481  1.00 20.00     0.002 C 
HETATM    2  C2  UNL     1     -32.097   6.223   1.303  1.00 20.00     0.006 C 
HETATM    3  C3  UNL     1     -32.329   8.314   2.558  1.00 20.00     0.020 C 
HETATM    4  C4  UNL     1     -33.383   6.220   2.135  1.00 20.00     0.004 C 
HETATM    5  C5  UNL     1     -33.038   7.174   3.277  1.00 20.00     0.086 C 
HETATM    6 CL10 UNL     1     -34.464   7.736   4.164  1.00 20.00    -0.125 Cl
ENDROOT
BRANCH   4   7
HETATM    7  C8  UNL     1     -33.784   4.824   2.591  1.00 20.00     0.010 C 
BRANCH   7   8
HETATM    8  C9  UNL     1     -33.914   4.688   4.118  1.00 20.00    -0.022 C 
HETATM    9  C6  UNL     1     -35.347   4.906   4.602  1.00 20.00     0.009 C 
HETATM   10  C7  UNL     1     -33.423   3.307   4.561  1.00 20.00     0.009 C 
ENDBRANCH   7   8
ENDBRANCH   4   7
TORSDOF 2
ENDMDL
MODEL 4
REMARK VINA RESULT:      -0.3      1.784      2.571
REMARK  2 active torsions:
REMARK  status: ('A' for Active; 'I' for Inactive)
REMARK    1  A    between atoms: C4_4  and  C8_8 
REMARK    2  A    between atoms: C8_8  and  C9_9 
ROOT
HETATM    1  C1  UNL     1     -33.920   3.934   3.774  1.00 20.00     0.002 C 
HETATM    2  C2  UNL     1     -33.111   4.517   2.612  1.00 20.00     0.006 C 
HETATM    3  C3  UNL     1     -34.573   5.120   4.482  1.00 20.00     0.020 C 
HETATM    4  C4  UNL     1     -33.154   6.036   2.802  1.00 20.00     0.004 C 
HETATM    5  C5  UNL     1     -34.517   6.246   3.459  1.00 20.00     0.086 C 
HETATM    6 CL10 UNL     1     -34.683   7.839   4.217  1.00 20.00    -0.125 Cl
ENDROOT
BRANCH   4   7
HETATM    7  C8  UNL     1     -32.969   6.797   1.497  1.00 20.00     0.010 C 
BRANCH   7   8
HETATM    8  C9  UNL     1     -31.874   7.875   1.561  1.00 20.00    -0.022 C 
HETATM    9  C6  UNL     1     -32.219   9.107   0.724  1.00 20.00     0.009 C 
HETATM   10  C7  UNL     1     -31.635   8.289   3.016  1.00 20.00     0.009 C 
ENDBRANCH   7   8
ENDBRANCH   4   7
TORSDOF 2
ENDMDL
MODEL 5
REMARK VINA RESULT:       0.1      1.766      2.548
REMARK  2 active torsions:
REMARK  status: ('A' for Active; 'I' for Inactive)
REMARK    1  A    between atoms: C4_4  and  C8_8 
REMARK    2  A    between atoms: C8_8  and  C9_9 
ROOT
HETATM    1  C1  UNL     1     -33.938   3.912   3.735  1.00 20.00     0.002 C 
HETATM    2  C2  UNL     1     -33.091   4.483   2.594  1.00 20.00     0.006 C 
HETATM    3  C3  UNL     1     -34.548   5.112   4.460  1.00 20.00     0.020 C 
HETATM    4  C4  UNL     1     -33.070   5.998   2.814  1.00 20.00     0.004 C 
HETATM    5  C5  UNL     1     -34.431   6.255   3.460  1.00 20.00     0.086 C 
HETATM    6 CL10 UNL     1     -34.536   7.838   4.248  1.00 20.00    -0.125 Cl
ENDROOT
BRANCH   4   7
HETATM    7  C8  UNL     1     -32.838   6.776   1.526  1.00 20.00     0.010 C 
BRANCH   7   8
HETATM    8  C9  UNL     1     -32.414   8.237   1.756  1.00 20.00    -0.022 C 
HETATM    9  C6  UNL     1     -31.238   8.357   2.726  1.00 20.00     0.009 C 
HETATM   10  C7  UNL     1     -32.051   8.890   0.420  1.00 20.00     0.009 C 
ENDBRANCH   7   8
ENDBRANCH   4   7
TORSDOF 2
ENDMDL
MODEL 6
REMARK VINA RESULT:       0.2      1.053      4.088
REMARK  2 active torsions:
REMARK  status: ('A' for Active; 'I' for Inactive)
REMARK    1  A    between atoms: C4_4  and  C8_8 
REMARK    2  A    between atoms: C8_8  and  C9_9 
ROOT
HETATM    1  C1  UNL     1     -32.243   9.345   0.790  1.00 20.00     0.002 C 
HETATM    2  C2  UNL     1     -32.719   9.214   2.239  1.00 20.00     0.006 C 
HETATM    3  C3  UNL     1     -31.807   7.946   0.353  1.00 20.00     0.020 C 
HETATM    4  C4  UNL     1     -32.357   7.789   2.666  1.00 20.00     0.004 C 
HETATM    5  C5  UNL     1     -32.475   7.014   1.354  1.00 20.00     0.086 C 
HETATM    6 CL10 UNL     1     -31.686   5.429   1.412  1.00 20.00    -0.125 Cl
ENDROOT
BRANCH   4   7
HETATM    7  C8  UNL     1     -33.251   7.264   3.780  1.00 20.00     0.010 C 
BRANCH   7   8
HETATM    8  C9  UNL     1     -34.243   6.183   3.318  1.00 20.00    -0.022 C 
HETATM    9  C6  UNL     1     -33.894   4.800   3.866  1.00 20.00     0.009 C 
HETATM   10  C7  UNL     1     -35.664   6.565   3.742  1.00 20.00     0.009 C 
ENDBRANCH   7   8
ENDBRANCH   4   7
TORSDOF 2
ENDMDL
MODEL 7
REMARK VINA RESULT:       0.2      2.132      5.033
REMARK  2 active torsions:
REMARK  status: ('A' for Active; 'I' for Inactive)
REMARK    1  A    between atoms: C4_4  and  C8_8 
REMARK    2  A    between atoms: C8_8  and  C9_9 
ROOT
HETATM    1  C1  UNL     1     -34.417   7.601   3.703  1.00 20.00     0.002 C 
HETATM    2  C2  UNL     1     -34.623   6.242   4.378  1.00 20.00     0.006 C 
HETATM    3  C3  UNL     1     -33.386   7.381   2.597  1.00 20.00     0.020 C 
HETATM    4  C4  UNL     1     -33.558   5.319   3.778  1.00 20.00     0.004 C 
HETATM    5  C5  UNL     1     -33.400   5.876   2.364  1.00 20.00     0.086 C 
HETATM    6 CL10 UNL     1     -31.924   5.317   1.560  1.00 20.00    -0.125 Cl
ENDROOT
BRANCH   4   7
HETATM    7  C8  UNL     1     -33.959   3.852   3.826  1.00 20.00     0.010 C 
BRANCH   7   8
HETATM    8  C9  UNL     1     -32.930   2.955   4.537  1.00 20.00    -0.022 C 
HETATM    9  C6  UNL     1     -32.671   3.395   5.978  1.00 20.00     0.009 C 
HETATM   10  C7  UNL     1     -33.406   1.500   4.518  1.00 20.00     0.009 C 
ENDBRANCH   7   8
ENDBRANCH   4   7
TORSDOF 2
ENDMDL
MODEL 8
REMARK VINA RESULT:       0.3      1.997      4.932
REMARK  2 active torsions:
REMARK  status: ('A' for Active; 'I' for Inactive)
REMARK    1  A    between atoms: C4_4  and  C8_8 
REMARK    2  A    between atoms: C8_8  and  C9_9 
ROOT
HETATM    1  C1  UNL     1     -32.008   7.702   0.890  1.00 20.00     0.002 C 
HETATM    2  C2  UNL     1     -32.053   6.232   1.316  1.00 20.00     0.006 C 
HETATM    3  C3  UNL     1     -32.765   8.485   1.962  1.00 20.00     0.020 C 
HETATM    4  C4  UNL     1     -33.007   6.179   2.513  1.00 20.00     0.004 C 
HETATM    5  C5  UNL     1     -32.795   7.547   3.162  1.00 20.00     0.086 C 
HETATM    6 CL10 UNL     1     -34.077   7.977   4.306  1.00 20.00    -0.125 Cl
ENDROOT
BRANCH   4   7
HETATM    7  C8  UNL     1     -32.725   5.003   3.437  1.00 20.00     0.010 C 
BRANCH   7   8
HETATM    8  C9  UNL     1     -33.964   4.140   3.732  1.00 20.00    -0.022 C 
HETATM    9  C6  UNL     1     -33.641   2.945   4.628  1.00 20.00     0.009 C 
HETATM   10  C7  UNL     1     -35.052   4.997   4.384  1.00 20.00     0.009 C 
ENDBRANCH   7   8
ENDBRANCH   4   7
TORSDOF 2
ENDMDL
MODEL 9
REMARK VINA RESULT:       0.3      1.981      4.241
REMARK  2 active torsions:
REMARK  status: ('A' for Active; 'I' for Inactive)
REMARK    1  A    between atoms: C4_4  and  C8_8 
REMARK    2  A    between atoms: C8_8  and  C9_9 
ROOT
HETATM    1  C1  UNL     1     -31.936   5.410   1.101  1.00 20.00     0.002 C 
HETATM    2  C2  UNL     1     -32.947   5.441   2.251  1.00 20.00     0.006 C 
HETATM    3  C3  UNL     1     -31.681   6.866   0.712  1.00 20.00     0.020 C 
HETATM    4  C4  UNL     1     -33.402   6.899   2.361  1.00 20.00     0.004 C 
HETATM    5  C5  UNL     1     -32.156   7.666   1.919  1.00 20.00     0.086 C 
HETATM    6 CL10 UNL     1     -32.492   9.354   1.503  1.00 20.00    -0.125 Cl
ENDROOT
BRANCH   4   7
HETATM    7  C8  UNL     1     -33.890   7.258   3.756  1.00 20.00     0.010 C 
BRANCH   7   8
HETATM    8  C9  UNL     1     -35.232   6.605   4.128  1.00 20.00    -0.022 C 
HETATM    9  C6  UNL     1     -36.274   6.745   3.018  1.00 20.00     0.009 C 
HETATM   10  C7  UNL     1     -35.018   5.125   4.453  1.00 20.00     0.009 C 
ENDBRANCH   7   8
ENDBRANCH   4   7
TORSDOF 2
ENDMDL
