MODEL 1
REMARK VINA RESULT:      -1.5      0.000      0.000
REMARK  2 active torsions:
REMARK  status: ('A' for Active; 'I' for Inactive)
REMARK    1  A    between atoms: C2_2  and  C8_8 
REMARK    2  A    between atoms: C6_6  and  C8_8 
ROOT
HETATM    1  C3  UNL     1     -32.747   5.774   1.311  1.00 20.00     0.002 C 
HETATM    2  C4  UNL     1     -31.621   6.797   1.476  1.00 20.00     0.006 C 
HETATM    3  C5  UNL     1     -33.735   6.032   2.451  1.00 20.00     0.020 C 
HETATM    4  C6  UNL     1     -32.179   7.880   2.405  1.00 20.00     0.007 C 
HETATM    5  C7  UNL     1     -33.032   7.034   3.360  1.00 20.00     0.086 C 
HETATM    6 CL9  UNL     1     -34.169   7.953   4.358  1.00 20.00    -0.125 Cl
ENDROOT
BRANCH   4   7
HETATM    7  C8  UNL     1     -32.939   8.945   1.613  1.00 20.00     0.032 C 
BRANCH   7   8
HETATM    8  C2  UNL     1     -32.147   9.417   0.431  1.00 20.00    -0.036 C 
HETATM    9  C1  UNL     1     -32.660  10.133  -0.576  1.00 20.00     0.007 C 
ENDBRANCH   7   8
ENDBRANCH   4   7
TORSDOF 2
ENDMDL
MODEL 2
REMARK VINA RESULT:      -1.4      1.769      4.321
REMARK  2 active torsions:
REMARK  status: ('A' for Active; 'I' for Inactive)
REMARK    1  A    between atoms: C2_2  and  C8_8 
REMARK    2  A    between atoms: C6_6  and  C8_8 
ROOT
HETATM    1  C3  UNL     1     -31.914   6.995   1.373  1.00 20.00     0.002 C 
HETATM    2  C4  UNL     1     -32.925   5.852   1.247  1.00 20.00     0.006 C 
HETATM    3  C5  UNL     1     -32.378   7.854   2.552  1.00 20.00     0.020 C 
HETATM    4  C6  UNL     1     -33.675   5.814   2.582  1.00 20.00     0.007 C 
HETATM    5  C7  UNL     1     -33.756   7.310   2.914  1.00 20.00     0.086 C 
HETATM    6 CL9  UNL     1     -34.210   7.680   4.585  1.00 20.00    -0.125 Cl
ENDROOT
BRANCH   4   7
HETATM    7  C8  UNL     1     -32.931   4.954   3.605  1.00 20.00     0.032 C 
BRANCH   7   8
HETATM    8  C2  UNL     1     -33.786   3.825   4.098  1.00 20.00    -0.036 C 
HETATM    9  C1  UNL     1     -33.318   2.773   4.777  1.00 20.00     0.007 C 
ENDBRANCH   7   8
ENDBRANCH   4   7
TORSDOF 2
ENDMDL
MODEL 3
REMARK VINA RESULT:      -1.0      1.978      2.959
REMARK  2 active torsions:
REMARK  status: ('A' for Active; 'I' for Inactive)
REMARK    1  A    between atoms: C2_2  and  C8_8 
REMARK    2  A    between atoms: C6_6  and  C8_8 
ROOT
HETATM    1  C3  UNL     1     -34.784   5.302   4.416  1.00 20.00     0.002 C 
HETATM    2  C4  UNL     1     -35.139   6.608   3.700  1.00 20.00     0.006 C 
HETATM    3  C5  UNL     1     -33.731   4.607   3.549  1.00 20.00     0.020 C 
HETATM    4  C6  UNL     1     -34.004   6.854   2.701  1.00 20.00     0.007 C 
HETATM    5  C7  UNL     1     -33.688   5.420   2.259  1.00 20.00     0.086 C 
HETATM    6 CL9  UNL     1     -32.157   5.225   1.391  1.00 20.00    -0.125 Cl
ENDROOT
BRANCH   4   7
HETATM    7  C8  UNL     1     -32.848   7.608   3.360  1.00 20.00     0.032 C 
BRANCH   7   8
HETATM    8  C2  UNL     1     -31.917   8.188   2.337  1.00 20.00    -0.036 C 
HETATM    9  C1  UNL     1     -32.321   8.772   1.204  1.00 20.00     0.007 C 
ENDBRANCH   7   8
ENDBRANCH   4   7
TORSDOF 2
ENDMDL
MODEL 4
REMARK VINA RESULT:      -0.5      2.054      4.048
REMARK  2 active torsions:
REMARK  status: ('A' for Active; 'I' for Inactive)
REMARK    1  A    between atoms: C2_2  and  C8_8 
REMARK    2  A    between atoms: C6_6  and  C8_8 
ROOT
HETATM    1  C3  UNL     1     -32.121   8.922   2.103  1.00 20.00     0.002 C 
HETATM    2  C4  UNL     1     -32.333   8.248   3.461  1.00 20.00     0.006 C 
HETATM    3  C5  UNL     1     -32.278   7.826   1.046  1.00 20.00     0.020 C 
HETATM    4  C6  UNL     1     -33.028   6.916   3.156  1.00 20.00     0.007 C 
HETATM    5  C7  UNL     1     -32.346   6.525   1.839  1.00 20.00     0.086 C 
HETATM    6 CL9  UNL     1     -33.147   5.227   0.940  1.00 20.00    -0.125 Cl
ENDROOT
BRANCH   4   7
HETATM    7  C8  UNL     1     -34.545   7.094   3.083  1.00 20.00     0.032 C 
BRANCH   7   8
HETATM    8  C2  UNL     1     -35.249   6.211   4.070  1.00 20.00    -0.036 C 
HETATM    9  C1  UNL     1     -34.896   4.947   4.329  1.00 20.00     0.007 C 
ENDBRANCH   7   8
ENDBRANCH   4   7
TORSDOF 2
ENDMDL
MODEL 5
REMARK VINA RESULT:      -0.3      1.835      3.562
REMARK  2 active torsions:
REMARK  status: ('A' for Active; 'I' for Inactive)
REMARK    1  A    between atoms: C2_2  and  C8_8 
REMARK    2  A    between atoms: C6_6  and  C8_8 
ROOT
HETATM    1  C3  UNL     1     -31.575   5.770   1.502  1.00 20.00     0.002 C 
HETATM    2  C4  UNL     1     -33.088   5.721   1.731  1.00 20.00     0.006 C 
HETATM    3  C5  UNL     1     -31.226   7.236   1.235  1.00 20.00     0.020 C 
HETATM    4  C6  UNL     1     -33.508   7.164   2.029  1.00 20.00     0.007 C 
HETATM    5  C7  UNL     1     -32.572   7.940   1.093  1.00 20.00     0.086 C 
HETATM    6 CL9  UNL     1     -32.463   9.676   1.416  1.00 20.00    -0.125 Cl
ENDROOT
BRANCH   4   7
HETATM    7  C8  UNL     1     -33.360   7.482   3.517  1.00 20.00     0.032 C 
BRANCH   7   8
HETATM    8  C2  UNL     1     -34.634   7.219   4.263  1.00 20.00    -0.036 C 
HETATM    9  C1  UNL     1     -35.382   6.122   4.102  1.00 20.00     0.007 C 
ENDBRANCH   7   8
ENDBRANCH   4   7
TORSDOF 2
ENDMDL
MODEL 6
REMARK VINA RESULT:      -0.3      2.622      3.521
REMARK  2 active torsions:
REMARK  status: ('A' for Active; 'I' for Inactive)
REMARK    1  A    between atoms: C2_2  and  C8_8 
REMARK    2  A    between atoms: C6_6  and  C8_8 
ROOT
HETATM    1  C3  UNL     1     -35.329   6.275   4.054  1.00 20.00     0.002 C 
HETATM    2  C4  UNL     1     -34.325   5.140   3.836  1.00 20.00     0.006 C 
HETATM    3  C5  UNL     1     -34.599   7.572   3.693  1.00 20.00     0.020 C 
HETATM    4  C6  UNL     1     -33.217   5.731   2.958  1.00 20.00     0.007 C 
HETATM    5  C7  UNL     1     -33.142   7.162   3.505  1.00 20.00     0.086 C 
HETATM    6 CL9  UNL     1     -32.247   8.303   2.491  1.00 20.00    -0.125 Cl
ENDROOT
BRANCH   4   7
HETATM    7  C8  UNL     1     -33.570   5.611   1.475  1.00 20.00     0.032 C 
BRANCH   7   8
HETATM    8  C2  UNL     1     -32.357   5.319   0.644  1.00 20.00    -0.036 C 
HETATM    9  C1  UNL     1     -31.311   4.605   1.072  1.00 20.00     0.007 C 
ENDBRANCH   7   8
ENDBRANCH   4   7
TORSDOF 2
ENDMDL
MODEL 7
REMARK VINA RESULT:      -0.3      1.709      3.223
REMARK  2 active torsions:
REMARK  status: ('A' for Active; 'I' for Inactive)
REMARK    1  A    between atoms: C2_2  and  C8_8 
REMARK    2  A    between atoms: C6_6  and  C8_8 
ROOT
HETATM    1  C3  UNL     1     -31.996   8.403   3.399  1.00 20.00     0.002 C 
HETATM    2  C4  UNL     1     -32.438   8.059   1.974  1.00 20.00     0.006 C 
HETATM    3  C5  UNL     1     -33.081   7.858   4.331  1.00 20.00     0.020 C 
HETATM    4  C6  UNL     1     -33.504   6.969   2.123  1.00 20.00     0.007 C 
HETATM    5  C7  UNL     1     -34.214   7.428   3.404  1.00 20.00     0.086 C 
HETATM    6 CL9  UNL     1     -35.271   6.218   4.147  1.00 20.00    -0.125 Cl
ENDROOT
BRANCH   4   7
HETATM    7  C8  UNL     1     -32.865   5.581   2.188  1.00 20.00     0.032 C 
BRANCH   7   8
HETATM    8  C2  UNL     1     -31.784   5.428   1.160  1.00 20.00    -0.036 C 
HETATM    9  C1  UNL     1     -31.661   4.366   0.356  1.00 20.00     0.007 C 
ENDBRANCH   7   8
ENDBRANCH   4   7
TORSDOF 2
ENDMDL
MODEL 8
REMARK VINA RESULT:       0.0      1.600      2.826
REMARK  2 active torsions:
REMARK  status: ('A' for Active; 'I' for Inactive)
REMARK    1  A    between atoms: C2_2  and  C8_8 
REMARK    2  A    between atoms: C6_6  and  C8_8 
ROOT
HETATM    1  C3  UNL     1     -35.125   4.699   4.184  1.00 20.00     0.002 C 
HETATM    2  C4  UNL     1     -33.610   4.636   3.972  1.00 20.00     0.006 C 
HETATM    3  C5  UNL     1     -35.503   6.182   4.167  1.00 20.00     0.020 C 
HETATM    4  C6  UNL     1     -33.215   6.005   3.408  1.00 20.00     0.007 C 
HETATM    5  C7  UNL     1     -34.171   6.925   4.178  1.00 20.00     0.086 C 
HETATM    6 CL9  UNL     1     -34.310   8.567   3.532  1.00 20.00    -0.125 Cl
ENDROOT
BRANCH   4   7
HETATM    7  C8  UNL     1     -33.359   6.034   1.886  1.00 20.00     0.032 C 
BRANCH   7   8
HETATM    8  C2  UNL     1     -32.170   6.675   1.235  1.00 20.00    -0.036 C 
HETATM    9  C1  UNL     1     -31.723   7.900   1.532  1.00 20.00     0.007 C 
ENDBRANCH   7   8
ENDBRANCH   4   7
TORSDOF 2
ENDMDL
MODEL 9
REMARK VINA RESULT:       0.3      2.887      3.929
REMARK  2 active torsions:
REMARK  status: ('A' for Active; 'I' for Inactive)
REMARK    1  A    between atoms: C2_2  and  C8_8 
REMARK    2  A    between atoms: C6_6  and  C8_8 
ROOT
HETATM    1  C3  UNL     1     -34.747   4.939   4.453  1.00 20.00     0.002 C 
HETATM    2  C4  UNL     1     -35.280   6.230   3.829  1.00 20.00     0.006 C 
HETATM    3  C5  UNL     1     -33.635   4.438   3.528  1.00 20.00     0.020 C 
HETATM    4  C6  UNL     1     -34.208   6.680   2.830  1.00 20.00     0.007 C 
HETATM    5  C7  UNL     1     -33.724   5.327   2.292  1.00 20.00     0.086 C 
HETATM    6 CL9  UNL     1     -32.202   5.384   1.390  1.00 20.00    -0.125 Cl
ENDROOT
BRANCH   4   7
HETATM    7  C8  UNL     1     -33.141   7.533   3.519  1.00 20.00     0.032 C 
BRANCH   7   8
HETATM    8  C2  UNL     1     -33.688   8.217   4.736  1.00 20.00    -0.036 C 
HETATM    9  C1  UNL     1     -32.967   8.489   5.829  1.00 20.00     0.007 C 
ENDBRANCH   7   8
ENDBRANCH   4   7
TORSDOF 2
ENDMDL
