MODEL 1
REMARK VINA RESULT:      -0.1      0.000      0.000
REMARK  2 active torsions:
REMARK  status: ('A' for Active; 'I' for Inactive)
REMARK    1  A    between atoms: C4_4  and  C8_8 
REMARK    2  A    between atoms: C8_8  and  C9_9 
ROOT
HETATM    1  C1  UNL     1     -33.880   7.282   4.463  1.00 20.00     0.002 C 
HETATM    2  C2  UNL     1     -32.783   8.145   3.833  1.00 20.00     0.006 C 
HETATM    3  C3  UNL     1     -34.645   6.645   3.302  1.00 20.00     0.020 C 
HETATM    4  C4  UNL     1     -33.029   8.080   2.322  1.00 20.00     0.004 C 
HETATM    5  C5  UNL     1     -33.692   6.713   2.113  1.00 20.00     0.086 C 
HETATM    6 CL10 UNL     1     -32.538   5.350   2.175  1.00 20.00    -0.125 Cl
ENDROOT
BRANCH   4   7
HETATM    7  C8  UNL     1     -31.784   8.358   1.495  1.00 20.00     0.010 C 
BRANCH   7   8
HETATM    8  C9  UNL     1     -31.948   9.527   0.507  1.00 20.00    -0.022 C 
HETATM    9  C6  UNL     1     -32.542   9.081  -0.830  1.00 20.00     0.009 C 
HETATM   10  C7  UNL     1     -32.827  10.615   1.127  1.00 20.00     0.009 C 
ENDBRANCH   7   8
ENDBRANCH   4   7
TORSDOF 2
ENDMDL
MODEL 2
REMARK VINA RESULT:       0.3      1.204      1.715
REMARK  2 active torsions:
REMARK  status: ('A' for Active; 'I' for Inactive)
REMARK    1  A    between atoms: C4_4  and  C8_8 
REMARK    2  A    between atoms: C8_8  and  C9_9 
ROOT
HETATM    1  C1  UNL     1     -34.566   7.322   4.724  1.00 20.00     0.002 C 
HETATM    2  C2  UNL     1     -33.402   7.688   3.799  1.00 20.00     0.006 C 
HETATM    3  C3  UNL     1     -35.364   6.236   4.001  1.00 20.00     0.020 C 
HETATM    4  C4  UNL     1     -33.637   6.890   2.511  1.00 20.00     0.004 C 
HETATM    5  C5  UNL     1     -34.396   5.644   2.980  1.00 20.00     0.086 C 
HETATM    6 CL10 UNL     1     -33.346   4.429   3.766  1.00 20.00    -0.125 Cl
ENDROOT
BRANCH   4   7
HETATM    7  C8  UNL     1     -32.367   6.644   1.713  1.00 20.00     0.010 C 
BRANCH   7   8
HETATM    8  C9  UNL     1     -31.591   7.930   1.374  1.00 20.00    -0.022 C 
HETATM    9  C6  UNL     1     -32.460   8.960   0.649  1.00 20.00     0.009 C 
HETATM   10  C7  UNL     1     -31.018   8.545   2.652  1.00 20.00     0.009 C 
ENDBRANCH   7   8
ENDBRANCH   4   7
TORSDOF 2
ENDMDL
MODEL 3
REMARK VINA RESULT:       0.4      1.827      2.636
REMARK  2 active torsions:
REMARK  status: ('A' for Active; 'I' for Inactive)
REMARK    1  A    between atoms: C4_4  and  C8_8 
REMARK    2  A    between atoms: C8_8  and  C9_9 
ROOT
HETATM    1  C1  UNL     1     -34.056   4.386   3.440  1.00 20.00     0.002 C 
HETATM    2  C2  UNL     1     -33.332   5.514   2.699  1.00 20.00     0.006 C 
HETATM    3  C3  UNL     1     -34.860   5.053   4.557  1.00 20.00     0.020 C 
HETATM    4  C4  UNL     1     -33.641   6.788   3.492  1.00 20.00     0.004 C 
HETATM    5  C5  UNL     1     -35.009   6.509   4.124  1.00 20.00     0.086 C 
HETATM    6 CL10 UNL     1     -36.367   6.668   2.973  1.00 20.00    -0.125 Cl
ENDROOT
BRANCH   4   7
HETATM    7  C8  UNL     1     -33.529   8.058   2.663  1.00 20.00     0.010 C 
BRANCH   7   8
HETATM    8  C9  UNL     1     -32.282   8.100   1.763  1.00 20.00    -0.022 C 
HETATM    9  C6  UNL     1     -32.386   9.168   0.673  1.00 20.00     0.009 C 
HETATM   10  C7  UNL     1     -31.033   8.348   2.612  1.00 20.00     0.009 C 
ENDBRANCH   7   8
ENDBRANCH   4   7
TORSDOF 2
ENDMDL
MODEL 4
REMARK VINA RESULT:       0.5      2.880      5.420
REMARK  2 active torsions:
REMARK  status: ('A' for Active; 'I' for Inactive)
REMARK    1  A    between atoms: C4_4  and  C8_8 
REMARK    2  A    between atoms: C8_8  and  C9_9 
ROOT
HETATM    1  C1  UNL     1     -34.906   7.555   3.696  1.00 20.00     0.002 C 
HETATM    2  C2  UNL     1     -35.300   6.113   4.026  1.00 20.00     0.006 C 
HETATM    3  C3  UNL     1     -33.385   7.560   3.538  1.00 20.00     0.020 C 
HETATM    4  C4  UNL     1     -33.978   5.352   4.174  1.00 20.00     0.004 C 
HETATM    5  C5  UNL     1     -33.010   6.107   3.256  1.00 20.00     0.086 C 
HETATM    6 CL10 UNL     1     -33.247   5.740   1.522  1.00 20.00    -0.125 Cl
ENDROOT
BRANCH   4   7
HETATM    7  C8  UNL     1     -34.110   3.857   3.929  1.00 20.00     0.010 C 
BRANCH   7   8
HETATM    8  C9  UNL     1     -32.980   3.025   4.561  1.00 20.00    -0.022 C 
HETATM    9  C6  UNL     1     -32.694   3.434   6.006  1.00 20.00     0.009 C 
HETATM   10  C7  UNL     1     -33.335   1.537   4.505  1.00 20.00     0.009 C 
ENDBRANCH   7   8
ENDBRANCH   4   7
TORSDOF 2
ENDMDL
MODEL 5
REMARK VINA RESULT:       0.5      1.810      4.320
REMARK  2 active torsions:
REMARK  status: ('A' for Active; 'I' for Inactive)
REMARK    1  A    between atoms: C4_4  and  C8_8 
REMARK    2  A    between atoms: C8_8  and  C9_9 
ROOT
HETATM    1  C1  UNL     1     -31.807   6.425   1.046  1.00 20.00     0.002 C 
HETATM    2  C2  UNL     1     -32.724   6.011   2.200  1.00 20.00     0.006 C 
HETATM    3  C3  UNL     1     -31.970   7.938   0.890  1.00 20.00     0.020 C 
HETATM    4  C4  UNL     1     -33.486   7.281   2.593  1.00 20.00     0.004 C 
HETATM    5  C5  UNL     1     -32.525   8.418   2.228  1.00 20.00     0.086 C 
HETATM    6 CL10 UNL     1     -31.194   8.625   3.404  1.00 20.00    -0.125 Cl
ENDROOT
BRANCH   4   7
HETATM    7  C8  UNL     1     -33.994   7.262   4.026  1.00 20.00     0.010 C 
BRANCH   7   8
HETATM    8  C9  UNL     1     -35.285   6.445   4.213  1.00 20.00    -0.022 C 
HETATM    9  C6  UNL     1     -36.261   6.625   3.049  1.00 20.00     0.009 C 
HETATM   10  C7  UNL     1     -34.946   4.963   4.380  1.00 20.00     0.009 C 
ENDBRANCH   7   8
ENDBRANCH   4   7
TORSDOF 2
ENDMDL
MODEL 6
REMARK VINA RESULT:       0.6      1.954      2.755
REMARK  2 active torsions:
REMARK  status: ('A' for Active; 'I' for Inactive)
REMARK    1  A    between atoms: C4_4  and  C8_8 
REMARK    2  A    between atoms: C8_8  and  C9_9 
ROOT
HETATM    1  C1  UNL     1     -34.300   4.307   3.822  1.00 20.00     0.002 C 
HETATM    2  C2  UNL     1     -33.461   5.299   3.011  1.00 20.00     0.006 C 
HETATM    3  C3  UNL     1     -35.135   5.144   4.792  1.00 20.00     0.020 C 
HETATM    4  C4  UNL     1     -33.745   6.673   3.626  1.00 20.00     0.004 C 
HETATM    5  C5  UNL     1     -35.167   6.544   4.184  1.00 20.00     0.086 C 
HETATM    6 CL10 UNL     1     -36.433   6.635   2.925  1.00 20.00    -0.125 Cl
ENDROOT
BRANCH   4   7
HETATM    7  C8  UNL     1     -33.501   7.827   2.665  1.00 20.00     0.010 C 
BRANCH   7   8
HETATM    8  C9  UNL     1     -32.138   7.761   1.954  1.00 20.00    -0.022 C 
HETATM    9  C6  UNL     1     -31.956   6.464   1.163  1.00 20.00     0.009 C 
HETATM   10  C7  UNL     1     -31.978   8.962   1.020  1.00 20.00     0.009 C 
ENDBRANCH   7   8
ENDBRANCH   4   7
TORSDOF 2
ENDMDL
MODEL 7
REMARK VINA RESULT:       0.7      2.373      3.176
REMARK  2 active torsions:
REMARK  status: ('A' for Active; 'I' for Inactive)
REMARK    1  A    between atoms: C4_4  and  C8_8 
REMARK    2  A    between atoms: C8_8  and  C9_9 
ROOT
HETATM    1  C1  UNL     1     -34.232   7.598   4.596  1.00 20.00     0.002 C 
HETATM    2  C2  UNL     1     -33.079   7.646   3.590  1.00 20.00     0.006 C 
HETATM    3  C3  UNL     1     -35.216   6.552   4.072  1.00 20.00     0.020 C 
HETATM    4  C4  UNL     1     -33.495   6.715   2.447  1.00 20.00     0.004 C 
HETATM    5  C5  UNL     1     -34.400   5.678   3.123  1.00 20.00     0.086 C 
HETATM    6 CL10 UNL     1     -33.495   4.447   4.051  1.00 20.00    -0.125 Cl
ENDROOT
BRANCH   4   7
HETATM    7  C8  UNL     1     -32.318   6.166   1.656  1.00 20.00     0.010 C 
BRANCH   7   8
HETATM    8  C9  UNL     1     -32.619   4.836   0.943  1.00 20.00    -0.022 C 
HETATM    9  C6  UNL     1     -33.732   4.971  -0.097  1.00 20.00     0.009 C 
HETATM   10  C7  UNL     1     -31.349   4.303   0.275  1.00 20.00     0.009 C 
ENDBRANCH   7   8
ENDBRANCH   4   7
TORSDOF 2
ENDMDL
MODEL 8
REMARK VINA RESULT:       0.8      1.586      2.282
REMARK  2 active torsions:
REMARK  status: ('A' for Active; 'I' for Inactive)
REMARK    1  A    between atoms: C4_4  and  C8_8 
REMARK    2  A    between atoms: C8_8  and  C9_9 
ROOT
HETATM    1  C1  UNL     1     -33.503   5.293   1.838  1.00 20.00     0.002 C 
HETATM    2  C2  UNL     1     -32.805   6.502   1.209  1.00 20.00     0.006 C 
HETATM    3  C3  UNL     1     -33.479   5.522   3.350  1.00 20.00     0.020 C 
HETATM    4  C4  UNL     1     -32.285   7.332   2.387  1.00 20.00     0.004 C 
HETATM    5  C5  UNL     1     -33.269   7.024   3.521  1.00 20.00     0.086 C 
HETATM    6 CL10 UNL     1     -34.828   7.882   3.359  1.00 20.00    -0.125 Cl
ENDROOT
BRANCH   4   7
HETATM    7  C8  UNL     1     -32.086   8.802   2.049  1.00 20.00     0.010 C 
BRANCH   7   8
HETATM    8  C9  UNL     1     -32.311   9.130   0.562  1.00 20.00    -0.022 C 
HETATM    9  C6  UNL     1     -32.844  10.548   0.353  1.00 20.00     0.009 C 
HETATM   10  C7  UNL     1     -31.006   8.947  -0.215  1.00 20.00     0.009 C 
ENDBRANCH   7   8
ENDBRANCH   4   7
TORSDOF 2
ENDMDL
MODEL 9
REMARK VINA RESULT:       0.8      1.630      4.262
REMARK  2 active torsions:
REMARK  status: ('A' for Active; 'I' for Inactive)
REMARK    1  A    between atoms: C4_4  and  C8_8 
REMARK    2  A    between atoms: C8_8  and  C9_9 
ROOT
HETATM    1  C1  UNL     1     -31.227   7.923   0.350  1.00 20.00     0.002 C 
HETATM    2  C2  UNL     1     -31.800   6.669   1.016  1.00 20.00     0.006 C 
HETATM    3  C3  UNL     1     -32.045   9.102   0.880  1.00 20.00     0.020 C 
HETATM    4  C4  UNL     1     -33.016   7.149   1.815  1.00 20.00     0.004 C 
HETATM    5  C5  UNL     1     -32.673   8.599   2.177  1.00 20.00     0.086 C 
HETATM    6 CL10 UNL     1     -31.499   8.737   3.518  1.00 20.00    -0.125 Cl
ENDROOT
BRANCH   4   7
HETATM    7  C8  UNL     1     -33.377   6.234   2.975  1.00 20.00     0.010 C 
BRANCH   7   8
HETATM    8  C9  UNL     1     -34.649   6.663   3.728  1.00 20.00    -0.022 C 
HETATM    9  C6  UNL     1     -35.394   5.474   4.336  1.00 20.00     0.009 C 
HETATM   10  C7  UNL     1     -34.291   7.667   4.827  1.00 20.00     0.009 C 
ENDBRANCH   7   8
ENDBRANCH   4   7
TORSDOF 2
ENDMDL
