MODEL 1
REMARK VINA RESULT:      -2.6      0.000      0.000
REMARK  3 active torsions:
REMARK  status: ('A' for Active; 'I' for Inactive)
REMARK    1  A    between atoms: C4_4  and  C5_5 
REMARK    2  A    between atoms: C5_5  and  C6_6 
REMARK    3  A    between atoms: C6_6  and  C7_7 
ROOT
HETATM    1  C2  UNL     1     -33.503   8.175   4.353  1.00 20.00     0.011 C 
HETATM    2  C6  UNL     1     -33.611   6.854   3.576  1.00 20.00    -0.001 C 
ENDROOT
BRANCH   2   3
HETATM    3  C5  UNL     1     -35.026   6.239   3.691  1.00 20.00     0.005 C 
BRANCH   3   4
HETATM    4  C4  UNL     1     -35.126   4.941   4.502  1.00 20.00    -0.004 C 
HETATM    5  C1  UNL     1     -33.969   3.983   4.265  1.00 20.00     0.005 C 
ENDBRANCH   3   4
ENDBRANCH   2   3
BRANCH   2   6
HETATM    6  C7  UNL     1     -33.144   7.041   2.107  1.00 20.00     0.082 C 
HETATM    7  C3  UNL     1     -32.028   8.069   1.952  1.00 20.00     0.027 C 
HETATM    8 CL8  UNL     1     -32.621   5.498   1.359  1.00 20.00    -0.125 Cl
ENDBRANCH   2   6
TORSDOF 3
ENDMDL
MODEL 2
REMARK VINA RESULT:      -2.5      2.036      4.464
REMARK  3 active torsions:
REMARK  status: ('A' for Active; 'I' for Inactive)
REMARK    1  A    between atoms: C4_4  and  C5_5 
REMARK    2  A    between atoms: C5_5  and  C6_6 
REMARK    3  A    between atoms: C6_6  and  C7_7 
ROOT
HETATM    1  C2  UNL     1     -33.104   5.767   1.609  1.00 20.00     0.011 C 
HETATM    2  C6  UNL     1     -32.614   6.935   2.479  1.00 20.00    -0.001 C 
ENDROOT
BRANCH   2   3
HETATM    3  C5  UNL     1     -31.896   8.013   1.633  1.00 20.00     0.005 C 
BRANCH   3   4
HETATM    4  C4  UNL     1     -32.730   9.253   1.286  1.00 20.00    -0.004 C 
HETATM    5  C1  UNL     1     -32.355   9.888  -0.044  1.00 20.00     0.005 C 
ENDBRANCH   3   4
ENDBRANCH   2   3
BRANCH   2   6
HETATM    6  C7  UNL     1     -33.775   7.506   3.337  1.00 20.00     0.082 C 
HETATM    7  C3  UNL     1     -34.825   6.463   3.707  1.00 20.00     0.027 C 
HETATM    8 CL8  UNL     1     -33.187   8.296   4.835  1.00 20.00    -0.125 Cl
ENDBRANCH   2   6
TORSDOF 3
ENDMDL
MODEL 3
REMARK VINA RESULT:      -2.1      1.669      2.475
REMARK  3 active torsions:
REMARK  status: ('A' for Active; 'I' for Inactive)
REMARK    1  A    between atoms: C4_4  and  C5_5 
REMARK    2  A    between atoms: C5_5  and  C6_6 
REMARK    3  A    between atoms: C6_6  and  C7_7 
ROOT
HETATM    1  C2  UNL     1     -32.713   5.669   1.515  1.00 20.00     0.011 C 
HETATM    2  C6  UNL     1     -33.104   7.062   2.028  1.00 20.00    -0.001 C 
ENDROOT
BRANCH   2   3
HETATM    3  C5  UNL     1     -33.570   7.017   3.503  1.00 20.00     0.005 C 
BRANCH   3   4
HETATM    4  C4  UNL     1     -35.043   6.648   3.726  1.00 20.00    -0.004 C 
HETATM    5  C1  UNL     1     -35.238   5.307   4.415  1.00 20.00     0.005 C 
ENDBRANCH   3   4
ENDBRANCH   2   3
BRANCH   2   6
HETATM    6  C7  UNL     1     -31.956   8.079   1.783  1.00 20.00     0.082 C 
HETATM    7  C3  UNL     1     -32.325   9.183   0.797  1.00 20.00     0.027 C 
HETATM    8 CL8  UNL     1     -31.375   8.829   3.304  1.00 20.00    -0.125 Cl
ENDBRANCH   2   6
TORSDOF 3
ENDMDL
MODEL 4
REMARK VINA RESULT:      -2.1      1.949      3.985
REMARK  3 active torsions:
REMARK  status: ('A' for Active; 'I' for Inactive)
REMARK    1  A    between atoms: C4_4  and  C5_5 
REMARK    2  A    between atoms: C5_5  and  C6_6 
REMARK    3  A    between atoms: C6_6  and  C7_7 
ROOT
HETATM    1  C2  UNL     1     -33.675   7.655   3.780  1.00 20.00     0.011 C 
HETATM    2  C6  UNL     1     -33.293   7.402   2.314  1.00 20.00    -0.001 C 
ENDROOT
BRANCH   2   3
HETATM    3  C5  UNL     1     -31.952   8.081   1.949  1.00 20.00     0.005 C 
BRANCH   3   4
HETATM    4  C4  UNL     1     -31.907   8.777   0.582  1.00 20.00    -0.004 C 
HETATM    5  C1  UNL     1     -32.611  10.124   0.560  1.00 20.00     0.005 C 
ENDBRANCH   3   4
ENDBRANCH   2   3
BRANCH   2   6
HETATM    6  C7  UNL     1     -33.315   5.882   1.995  1.00 20.00     0.082 C 
HETATM    7  C3  UNL     1     -32.013   5.373   1.385  1.00 20.00     0.027 C 
HETATM    8 CL8  UNL     1     -33.708   4.891   3.436  1.00 20.00    -0.125 Cl
ENDBRANCH   2   6
TORSDOF 3
ENDMDL
MODEL 5
REMARK VINA RESULT:      -1.9      1.757      4.152
REMARK  3 active torsions:
REMARK  status: ('A' for Active; 'I' for Inactive)
REMARK    1  A    between atoms: C4_4  and  C5_5 
REMARK    2  A    between atoms: C5_5  and  C6_6 
REMARK    3  A    between atoms: C6_6  and  C7_7 
ROOT
HETATM    1  C2  UNL     1     -33.134   5.587   1.342  1.00 20.00     0.011 C 
HETATM    2  C6  UNL     1     -32.860   6.395   2.620  1.00 20.00    -0.001 C 
ENDROOT
BRANCH   2   3
HETATM    3  C5  UNL     1     -32.837   7.916   2.339  1.00 20.00     0.005 C 
BRANCH   3   4
HETATM    4  C4  UNL     1     -31.872   8.376   1.238  1.00 20.00    -0.004 C 
HETATM    5  C1  UNL     1     -32.363   9.588   0.463  1.00 20.00     0.005 C 
ENDBRANCH   3   4
ENDBRANCH   2   3
BRANCH   2   6
HETATM    6  C7  UNL     1     -33.855   5.998   3.745  1.00 20.00     0.082 C 
HETATM    7  C3  UNL     1     -35.235   6.626   3.583  1.00 20.00     0.027 C 
HETATM    8 CL8  UNL     1     -34.038   4.221   3.893  1.00 20.00    -0.125 Cl
ENDBRANCH   2   6
TORSDOF 3
ENDMDL
MODEL 6
REMARK VINA RESULT:      -1.8      1.855      3.919
REMARK  3 active torsions:
REMARK  status: ('A' for Active; 'I' for Inactive)
REMARK    1  A    between atoms: C4_4  and  C5_5 
REMARK    2  A    between atoms: C5_5  and  C6_6 
REMARK    3  A    between atoms: C6_6  and  C7_7 
ROOT
HETATM    1  C2  UNL     1     -33.742   4.219   3.635  1.00 20.00     0.011 C 
HETATM    2  C6  UNL     1     -33.366   5.645   3.204  1.00 20.00    -0.001 C 
ENDROOT
BRANCH   2   3
HETATM    3  C5  UNL     1     -33.026   5.714   1.697  1.00 20.00     0.005 C 
BRANCH   3   4
HETATM    4  C4  UNL     1     -31.809   6.573   1.326  1.00 20.00    -0.004 C 
HETATM    5  C1  UNL     1     -31.973   8.044   1.674  1.00 20.00     0.005 C 
ENDBRANCH   3   4
ENDBRANCH   2   3
BRANCH   2   6
HETATM    6  C7  UNL     1     -34.467   6.655   3.628  1.00 20.00     0.082 C 
HETATM    7  C3  UNL     1     -35.659   5.999   4.317  1.00 20.00     0.027 C 
HETATM    8 CL8  UNL     1     -33.827   7.954   4.684  1.00 20.00    -0.125 Cl
ENDBRANCH   2   6
TORSDOF 3
ENDMDL
MODEL 7
REMARK VINA RESULT:      -1.8      1.509      2.317
REMARK  3 active torsions:
REMARK  status: ('A' for Active; 'I' for Inactive)
REMARK    1  A    between atoms: C4_4  and  C5_5 
REMARK    2  A    between atoms: C5_5  and  C6_6 
REMARK    3  A    between atoms: C6_6  and  C7_7 
ROOT
HETATM    1  C2  UNL     1     -32.793   5.455   1.805  1.00 20.00     0.011 C 
HETATM    2  C6  UNL     1     -33.911   6.009   2.699  1.00 20.00    -0.001 C 
ENDROOT
BRANCH   2   3
HETATM    3  C5  UNL     1     -34.104   5.150   3.970  1.00 20.00     0.005 C 
BRANCH   3   4
HETATM    4  C4  UNL     1     -33.774   3.658   3.824  1.00 20.00    -0.004 C 
HETATM    5  C1  UNL     1     -33.057   3.071   5.029  1.00 20.00     0.005 C 
ENDBRANCH   3   4
ENDBRANCH   2   3
BRANCH   2   6
HETATM    6  C7  UNL     1     -33.673   7.512   3.009  1.00 20.00     0.082 C 
HETATM    7  C3  UNL     1     -33.712   7.838   4.499  1.00 20.00     0.027 C 
HETATM    8 CL8  UNL     1     -32.129   8.111   2.323  1.00 20.00    -0.125 Cl
ENDBRANCH   2   6
TORSDOF 3
ENDMDL
MODEL 8
REMARK VINA RESULT:      -1.7      1.259      3.920
REMARK  3 active torsions:
REMARK  status: ('A' for Active; 'I' for Inactive)
REMARK    1  A    between atoms: C4_4  and  C5_5 
REMARK    2  A    between atoms: C5_5  and  C6_6 
REMARK    3  A    between atoms: C6_6  and  C7_7 
ROOT
HETATM    1  C2  UNL     1     -33.980   7.695   4.019  1.00 20.00     0.011 C 
HETATM    2  C6  UNL     1     -33.374   7.350   2.650  1.00 20.00    -0.001 C 
ENDROOT
BRANCH   2   3
HETATM    3  C5  UNL     1     -32.163   8.254   2.319  1.00 20.00     0.005 C 
BRANCH   3   4
HETATM    4  C4  UNL     1     -31.972   8.597   0.835  1.00 20.00    -0.004 C 
HETATM    5  C1  UNL     1     -32.493   9.974   0.456  1.00 20.00     0.005 C 
ENDBRANCH   3   4
ENDBRANCH   2   3
BRANCH   2   6
HETATM    6  C7  UNL     1     -33.047   5.835   2.561  1.00 20.00     0.082 C 
HETATM    7  C3  UNL     1     -33.974   4.964   3.404  1.00 20.00     0.027 C 
HETATM    8 CL8  UNL     1     -33.063   5.235   0.872  1.00 20.00    -0.125 Cl
ENDBRANCH   2   6
TORSDOF 3
ENDMDL
MODEL 9
REMARK VINA RESULT:      -1.7      1.210      1.419
REMARK  3 active torsions:
REMARK  status: ('A' for Active; 'I' for Inactive)
REMARK    1  A    between atoms: C4_4  and  C5_5 
REMARK    2  A    between atoms: C5_5  and  C6_6 
REMARK    3  A    between atoms: C6_6  and  C7_7 
ROOT
HETATM    1  C2  UNL     1     -33.726   8.282   4.026  1.00 20.00     0.011 C 
HETATM    2  C6  UNL     1     -33.437   6.826   3.629  1.00 20.00    -0.001 C 
ENDROOT
BRANCH   2   3
HETATM    3  C5  UNL     1     -34.741   6.008   3.477  1.00 20.00     0.005 C 
BRANCH   3   4
HETATM    4  C4  UNL     1     -34.897   4.818   4.433  1.00 20.00    -0.004 C 
HETATM    5  C1  UNL     1     -33.806   3.769   4.286  1.00 20.00     0.005 C 
ENDBRANCH   3   4
ENDBRANCH   2   3
BRANCH   2   6
HETATM    6  C7  UNL     1     -32.530   6.770   2.370  1.00 20.00     0.082 C 
HETATM    7  C3  UNL     1     -33.011   5.772   1.321  1.00 20.00     0.027 C 
HETATM    8 CL8  UNL     1     -32.338   8.377   1.598  1.00 20.00    -0.125 Cl
ENDBRANCH   2   6
TORSDOF 3
ENDMDL
