MODEL 1
REMARK VINA RESULT:      -0.5      0.000      0.000
REMARK  1 active torsions:
REMARK  status: ('A' for Active; 'I' for Inactive)
REMARK    1  A    between atoms: C6_6  and  C8_8 
ROOT
HETATM    1  C1  UNL     1     -32.971   2.654   4.637  1.00 20.00     0.012 C 
HETATM    2  C2  UNL     1     -33.751   3.567   4.637  1.00 20.00    -0.117 C 
HETATM    3  C8  UNL     1     -34.705   4.682   4.643  1.00 20.00     0.098 C 
ENDROOT
BRANCH   3   4
HETATM    4  C6  UNL     1     -34.589   5.518   3.366  1.00 20.00     0.011 C 
HETATM    5  C4  UNL     1     -35.435   6.790   3.456  1.00 20.00     0.007 C 
HETATM    6  C3  UNL     1     -34.533   7.849   4.088  1.00 20.00     0.002 C 
HETATM    7  C5  UNL     1     -33.099   7.321   4.000  1.00 20.00     0.016 C 
HETATM    8  C7  UNL     1     -33.168   6.044   3.172  1.00 20.00     0.062 C 
HETATM    9 BR9  UNL     1     -32.852   6.457   1.284  1.00 20.00    -0.091 Br
ENDBRANCH   3   4
TORSDOF 1
ENDMDL
MODEL 2
REMARK VINA RESULT:      -0.5      2.179      3.889
REMARK  1 active torsions:
REMARK  status: ('A' for Active; 'I' for Inactive)
REMARK    1  A    between atoms: C6_6  and  C8_8 
ROOT
HETATM    1  C1  UNL     1     -31.621   8.860   1.175  1.00 20.00     0.012 C 
HETATM    2  C2  UNL     1     -32.317   7.890   1.309  1.00 20.00    -0.117 C 
HETATM    3  C8  UNL     1     -33.168   6.705   1.466  1.00 20.00     0.098 C 
ENDROOT
BRANCH   3   4
HETATM    4  C6  UNL     1     -33.046   6.118   2.875  1.00 20.00     0.011 C 
HETATM    5  C4  UNL     1     -33.080   7.218   3.939  1.00 20.00     0.007 C 
HETATM    6  C3  UNL     1     -34.554   7.422   4.283  1.00 20.00     0.002 C 
HETATM    7  C5  UNL     1     -35.311   6.212   3.730  1.00 20.00     0.016 C 
HETATM    8  C7  UNL     1     -34.250   5.245   3.222  1.00 20.00     0.062 C 
HETATM    9 BR9  UNL     1     -33.779   3.972   4.634  1.00 20.00    -0.091 Br
ENDBRANCH   3   4
TORSDOF 1
ENDMDL
MODEL 3
REMARK VINA RESULT:      -0.1      2.824      4.784
REMARK  1 active torsions:
REMARK  status: ('A' for Active; 'I' for Inactive)
REMARK    1  A    between atoms: C6_6  and  C8_8 
ROOT
HETATM    1  C1  UNL     1     -32.339  10.060  -0.041  1.00 20.00     0.012 C 
HETATM    2  C2  UNL     1     -32.220   9.199   0.787  1.00 20.00    -0.117 C 
HETATM    3  C8  UNL     1     -32.069   8.148   1.800  1.00 20.00     0.098 C 
ENDROOT
BRANCH   3   4
HETATM    4  C6  UNL     1     -33.374   7.371   1.991  1.00 20.00     0.011 C 
HETATM    5  C4  UNL     1     -33.551   6.307   0.905  1.00 20.00     0.007 C 
HETATM    6  C3  UNL     1     -32.865   5.049   1.436  1.00 20.00     0.002 C 
HETATM    7  C5  UNL     1     -32.648   5.261   2.935  1.00 20.00     0.016 C 
HETATM    8  C7  UNL     1     -33.357   6.562   3.287  1.00 20.00     0.062 C 
HETATM    9 BR9  UNL     1     -35.187   6.185   3.874  1.00 20.00    -0.091 Br
ENDBRANCH   3   4
TORSDOF 1
ENDMDL
MODEL 4
REMARK VINA RESULT:       0.0      1.807      2.439
REMARK  1 active torsions:
REMARK  status: ('A' for Active; 'I' for Inactive)
REMARK    1  A    between atoms: C6_6  and  C8_8 
ROOT
HETATM    1  C1  UNL     1     -34.248   4.396   4.069  1.00 20.00     0.012 C 
HETATM    2  C2  UNL     1     -33.583   4.904   3.208  1.00 20.00    -0.117 C 
HETATM    3  C8  UNL     1     -32.768   5.520   2.154  1.00 20.00     0.098 C 
ENDROOT
BRANCH   3   4
HETATM    4  C6  UNL     1     -33.200   6.965   1.892  1.00 20.00     0.011 C 
HETATM    5  C4  UNL     1     -33.847   7.584   3.133  1.00 20.00     0.007 C 
HETATM    6  C3  UNL     1     -32.704   8.200   3.939  1.00 20.00     0.002 C 
HETATM    7  C5  UNL     1     -31.495   8.280   3.004  1.00 20.00     0.016 C 
HETATM    8  C7  UNL     1     -31.997   7.867   1.626  1.00 20.00     0.062 C 
HETATM    9 BR9  UNL     1     -32.550   9.452   0.617  1.00 20.00    -0.091 Br
ENDBRANCH   3   4
TORSDOF 1
ENDMDL
MODEL 5
REMARK VINA RESULT:       0.3      2.884      4.868
REMARK  1 active torsions:
REMARK  status: ('A' for Active; 'I' for Inactive)
REMARK    1  A    between atoms: C6_6  and  C8_8 
ROOT
HETATM    1  C1  UNL     1     -32.425   9.908  -0.894  1.00 20.00     0.012 C 
HETATM    2  C2  UNL     1     -32.565   9.746   0.288  1.00 20.00    -0.117 C 
HETATM    3  C8  UNL     1     -32.739   9.555   1.732  1.00 20.00     0.098 C 
ENDROOT
BRANCH   3   4
HETATM    4  C6  UNL     1     -32.204   8.192   2.178  1.00 20.00     0.011 C 
HETATM    5  C4  UNL     1     -32.216   8.063   3.703  1.00 20.00     0.007 C 
HETATM    6  C3  UNL     1     -33.592   7.507   4.066  1.00 20.00     0.002 C 
HETATM    7  C5  UNL     1     -34.206   6.963   2.774  1.00 20.00     0.016 C 
HETATM    8  C7  UNL     1     -33.116   7.057   1.715  1.00 20.00     0.062 C 
HETATM    9 BR9  UNL     1     -32.116   5.374   1.638  1.00 20.00    -0.091 Br
ENDBRANCH   3   4
TORSDOF 1
ENDMDL
MODEL 6
REMARK VINA RESULT:       0.7      2.408      3.006
REMARK  1 active torsions:
REMARK  status: ('A' for Active; 'I' for Inactive)
REMARK    1  A    between atoms: C6_6  and  C8_8 
ROOT
HETATM    1  C1  UNL     1     -31.565   4.530   0.324  1.00 20.00     0.012 C 
HETATM    2  C2  UNL     1     -32.205   5.003   1.223  1.00 20.00    -0.117 C 
HETATM    3  C8  UNL     1     -32.986   5.576   2.326  1.00 20.00     0.098 C 
ENDROOT
BRANCH   3   4
HETATM    4  C6  UNL     1     -33.336   7.040   2.053  1.00 20.00     0.011 C 
HETATM    5  C4  UNL     1     -33.941   7.706   3.291  1.00 20.00     0.007 C 
HETATM    6  C3  UNL     1     -32.761   8.263   4.087  1.00 20.00     0.002 C 
HETATM    7  C5  UNL     1     -31.554   8.266   3.146  1.00 20.00     0.016 C 
HETATM    8  C7  UNL     1     -32.085   7.871   1.774  1.00 20.00     0.062 C 
HETATM    9 BR9  UNL     1     -32.551   9.476   0.753  1.00 20.00    -0.091 Br
ENDBRANCH   3   4
TORSDOF 1
ENDMDL
MODEL 7
REMARK VINA RESULT:       0.8      1.745      2.764
REMARK  1 active torsions:
REMARK  status: ('A' for Active; 'I' for Inactive)
REMARK    1  A    between atoms: C6_6  and  C8_8 
ROOT
HETATM    1  C1  UNL     1     -33.235   2.778   4.834  1.00 20.00     0.012 C 
HETATM    2  C2  UNL     1     -33.601   3.727   4.195  1.00 20.00    -0.117 C 
HETATM    3  C8  UNL     1     -34.054   4.885   3.416  1.00 20.00     0.098 C 
ENDROOT
BRANCH   3   4
HETATM    4  C6  UNL     1     -32.868   5.676   2.859  1.00 20.00     0.011 C 
HETATM    5  C4  UNL     1     -31.964   4.789   1.999  1.00 20.00     0.007 C 
HETATM    6  C3  UNL     1     -32.528   4.866   0.581  1.00 20.00     0.002 C 
HETATM    7  C5  UNL     1     -33.479   6.064   0.546  1.00 20.00     0.016 C 
HETATM    8  C7  UNL     1     -33.329   6.764   1.890  1.00 20.00     0.062 C 
HETATM    9 BR9  UNL     1     -31.974   8.172   1.760  1.00 20.00    -0.091 Br
ENDBRANCH   3   4
TORSDOF 1
ENDMDL
MODEL 8
REMARK VINA RESULT:       0.9      1.856      2.986
REMARK  1 active torsions:
REMARK  status: ('A' for Active; 'I' for Inactive)
REMARK    1  A    between atoms: C6_6  and  C8_8 
ROOT
HETATM    1  C1  UNL     1     -35.428   5.364   4.631  1.00 20.00     0.012 C 
HETATM    2  C2  UNL     1     -34.718   6.222   4.184  1.00 20.00    -0.117 C 
HETATM    3  C8  UNL     1     -33.847   7.273   3.642  1.00 20.00     0.098 C 
ENDROOT
BRANCH   3   4
HETATM    4  C6  UNL     1     -33.741   7.173   2.119  1.00 20.00     0.011 C 
HETATM    5  C4  UNL     1     -32.631   8.078   1.579  1.00 20.00     0.007 C 
HETATM    6  C3  UNL     1     -31.356   7.236   1.602  1.00 20.00     0.002 C 
HETATM    7  C5  UNL     1     -31.790   5.779   1.774  1.00 20.00     0.016 C 
HETATM    8  C7  UNL     1     -33.309   5.775   1.680  1.00 20.00     0.062 C 
HETATM    9 BR9  UNL     1     -33.862   5.445  -0.170  1.00 20.00    -0.091 Br
ENDBRANCH   3   4
TORSDOF 1
ENDMDL
MODEL 9
REMARK VINA RESULT:       1.4      1.425      1.759
REMARK  1 active torsions:
REMARK  status: ('A' for Active; 'I' for Inactive)
REMARK    1  A    between atoms: C6_6  and  C8_8 
ROOT
HETATM    1  C1  UNL     1     -33.484   2.967   4.319  1.00 20.00     0.012 C 
HETATM    2  C2  UNL     1     -33.664   4.153   4.280  1.00 20.00    -0.117 C 
HETATM    3  C8  UNL     1     -33.882   5.604   4.238  1.00 20.00     0.098 C 
ENDROOT
BRANCH   3   4
HETATM    4  C6  UNL     1     -34.145   6.084   2.809  1.00 20.00     0.011 C 
HETATM    5  C4  UNL     1     -33.869   7.582   2.666  1.00 20.00     0.007 C 
HETATM    6  C3  UNL     1     -32.389   7.703   2.305  1.00 20.00     0.002 C 
HETATM    7  C5  UNL     1     -31.925   6.312   1.867  1.00 20.00     0.016 C 
HETATM    8  C7  UNL     1     -33.174   5.443   1.818  1.00 20.00     0.062 C 
HETATM    9 BR9  UNL     1     -33.934   5.470   0.013  1.00 20.00    -0.091 Br
ENDBRANCH   3   4
TORSDOF 1
ENDMDL
