MODEL 1
REMARK VINA RESULT:      -0.7      0.000      0.000
REMARK  4 active torsions:
REMARK  status: ('A' for Active; 'I' for Inactive)
REMARK    1  A    between atoms: C5_5  and  C6_6 
REMARK    2  A    between atoms: C5_5  and  C7_7 
REMARK    3  A    between atoms: C6_6  and  C8_8 
REMARK    4  A    between atoms: C7_7  and  C9_9 
ROOT
HETATM    1  C5  UNL     1     -32.267   7.902   2.533  1.00 20.00     0.002 C 
ENDROOT
BRANCH   1   2
HETATM    2  C6  UNL     1     -31.786   8.490   1.198  1.00 20.00     0.020 C 
BRANCH   2   3
HETATM    3  C8  UNL     1     -32.720   9.526   0.559  1.00 20.00     0.078 C 
HETATM    4  C1  UNL     1     -32.568   9.639  -0.953  1.00 20.00     0.026 C 
HETATM    5 CL10 UNL     1     -32.484  11.135   1.305  1.00 20.00    -0.125 Cl
ENDBRANCH   2   3
ENDBRANCH   1   2
BRANCH   1   6
HETATM    6  C7  UNL     1     -33.383   6.872   2.305  1.00 20.00     0.008 C 
BRANCH   6   7
HETATM    7  C9  UNL     1     -34.297   6.586   3.526  1.00 20.00    -0.051 C 
HETATM    8  C2  UNL     1     -35.778   6.813   3.179  1.00 20.00     0.014 C 
HETATM    9  C3  UNL     1     -34.111   5.147   4.036  1.00 20.00     0.014 C 
HETATM   10  C4  UNL     1     -33.906   7.559   4.656  1.00 20.00     0.014 C 
ENDBRANCH   6   7
ENDBRANCH   1   6
TORSDOF 4
ENDMDL
MODEL 2
REMARK VINA RESULT:      -0.7      1.062      1.849
REMARK  4 active torsions:
REMARK  status: ('A' for Active; 'I' for Inactive)
REMARK    1  A    between atoms: C5_5  and  C6_6 
REMARK    2  A    between atoms: C5_5  and  C7_7 
REMARK    3  A    between atoms: C6_6  and  C8_8 
REMARK    4  A    between atoms: C7_7  and  C9_9 
ROOT
HETATM    1  C5  UNL     1     -32.406   7.807   2.384  1.00 20.00     0.002 C 
ENDROOT
BRANCH   1   2
HETATM    2  C6  UNL     1     -31.891   8.127   0.973  1.00 20.00     0.020 C 
BRANCH   2   3
HETATM    3  C8  UNL     1     -32.046   9.589   0.531  1.00 20.00     0.078 C 
HETATM    4  C1  UNL     1     -32.857  10.440   1.498  1.00 20.00     0.026 C 
HETATM    5 CL10 UNL     1     -32.772   9.682  -1.102  1.00 20.00    -0.125 Cl
ENDBRANCH   2   3
ENDBRANCH   1   2
BRANCH   1   6
HETATM    6  C7  UNL     1     -33.437   6.670   2.343  1.00 20.00     0.008 C 
BRANCH   6   7
HETATM    7  C9  UNL     1     -34.356   6.546   3.587  1.00 20.00    -0.051 C 
HETATM    8  C2  UNL     1     -34.301   5.129   4.182  1.00 20.00     0.014 C 
HETATM    9  C3  UNL     1     -33.966   7.566   4.671  1.00 20.00     0.014 C 
HETATM   10  C4  UNL     1     -35.804   6.834   3.145  1.00 20.00     0.014 C 
ENDBRANCH   6   7
ENDBRANCH   1   6
TORSDOF 4
ENDMDL
MODEL 3
REMARK VINA RESULT:      -0.6      0.059      1.373
REMARK  4 active torsions:
REMARK  status: ('A' for Active; 'I' for Inactive)
REMARK    1  A    between atoms: C5_5  and  C6_6 
REMARK    2  A    between atoms: C5_5  and  C7_7 
REMARK    3  A    between atoms: C6_6  and  C8_8 
REMARK    4  A    between atoms: C7_7  and  C9_9 
ROOT
HETATM    1  C5  UNL     1     -32.254   7.945   2.499  1.00 20.00     0.002 C 
ENDROOT
BRANCH   1   2
HETATM    2  C6  UNL     1     -31.807   8.521   1.148  1.00 20.00     0.020 C 
BRANCH   2   3
HETATM    3  C8  UNL     1     -32.736   9.582   0.542  1.00 20.00     0.078 C 
HETATM    4  C1  UNL     1     -32.606   9.722  -0.969  1.00 20.00     0.026 C 
HETATM    5 CL10 UNL     1     -32.468  11.173   1.315  1.00 20.00    -0.125 Cl
ENDBRANCH   2   3
ENDBRANCH   1   2
BRANCH   1   6
HETATM    6  C7  UNL     1     -33.355   6.891   2.305  1.00 20.00     0.008 C 
BRANCH   6   7
HETATM    7  C9  UNL     1     -34.275   6.643   3.530  1.00 20.00    -0.051 C 
HETATM    8  C2  UNL     1     -33.911   7.576   4.698  1.00 20.00     0.014 C 
HETATM    9  C3  UNL     1     -35.755   6.844   3.164  1.00 20.00     0.014 C 
HETATM   10  C4  UNL     1     -34.079   5.185   3.990  1.00 20.00     0.014 C 
ENDBRANCH   6   7
ENDBRANCH   1   6
TORSDOF 4
ENDMDL
MODEL 4
REMARK VINA RESULT:      -0.5      0.504      1.465
REMARK  4 active torsions:
REMARK  status: ('A' for Active; 'I' for Inactive)
REMARK    1  A    between atoms: C5_5  and  C6_6 
REMARK    2  A    between atoms: C5_5  and  C7_7 
REMARK    3  A    between atoms: C6_6  and  C8_8 
REMARK    4  A    between atoms: C7_7  and  C9_9 
ROOT
HETATM    1  C5  UNL     1     -32.147   7.008   1.851  1.00 20.00     0.002 C 
ENDROOT
BRANCH   1   2
HETATM    2  C6  UNL     1     -31.717   8.460   1.599  1.00 20.00     0.020 C 
BRANCH   2   3
HETATM    3  C8  UNL     1     -32.637   9.270   0.676  1.00 20.00     0.078 C 
HETATM    4  C1  UNL     1     -32.278   9.160  -0.800  1.00 20.00     0.026 C 
HETATM    5 CL10 UNL     1     -32.660  10.993   1.159  1.00 20.00    -0.125 Cl
ENDBRANCH   2   3
ENDBRANCH   1   2
BRANCH   1   6
HETATM    6  C7  UNL     1     -33.670   6.913   2.029  1.00 20.00     0.008 C 
BRANCH   6   7
HETATM    7  C9  UNL     1     -34.161   6.557   3.458  1.00 20.00    -0.051 C 
HETATM    8  C2  UNL     1     -33.720   5.140   3.862  1.00 20.00     0.014 C 
HETATM    9  C3  UNL     1     -33.637   7.565   4.495  1.00 20.00     0.014 C 
HETATM   10  C4  UNL     1     -35.702   6.608   3.462  1.00 20.00     0.014 C 
ENDBRANCH   6   7
ENDBRANCH   1   6
TORSDOF 4
ENDMDL
MODEL 5
REMARK VINA RESULT:      -0.5      1.403      2.158
REMARK  4 active torsions:
REMARK  status: ('A' for Active; 'I' for Inactive)
REMARK    1  A    between atoms: C5_5  and  C6_6 
REMARK    2  A    between atoms: C5_5  and  C7_7 
REMARK    3  A    between atoms: C6_6  and  C8_8 
REMARK    4  A    between atoms: C7_7  and  C9_9 
ROOT
HETATM    1  C5  UNL     1     -33.195   5.839   1.591  1.00 20.00     0.002 C 
ENDROOT
BRANCH   1   2
HETATM    2  C6  UNL     1     -32.023   6.794   1.321  1.00 20.00     0.020 C 
BRANCH   2   3
HETATM    3  C8  UNL     1     -32.274   8.265   1.683  1.00 20.00     0.078 C 
HETATM    4  C1  UNL     1     -32.063   9.228   0.522  1.00 20.00     0.026 C 
HETATM    5 CL10 UNL     1     -31.250   8.759   3.064  1.00 20.00    -0.125 Cl
ENDBRANCH   2   3
ENDBRANCH   1   2
BRANCH   1   6
HETATM    6  C7  UNL     1     -33.367   5.601   3.099  1.00 20.00     0.008 C 
BRANCH   6   7
HETATM    7  C9  UNL     1     -34.575   6.315   3.761  1.00 20.00    -0.051 C 
HETATM    8  C2  UNL     1     -34.114   7.483   4.649  1.00 20.00     0.014 C 
HETATM    9  C3  UNL     1     -35.560   6.842   2.703  1.00 20.00     0.014 C 
HETATM   10  C4  UNL     1     -35.312   5.290   4.646  1.00 20.00     0.014 C 
ENDBRANCH   6   7
ENDBRANCH   1   6
TORSDOF 4
ENDMDL
MODEL 6
REMARK VINA RESULT:      -0.2      3.176      5.215
REMARK  4 active torsions:
REMARK  status: ('A' for Active; 'I' for Inactive)
REMARK    1  A    between atoms: C5_5  and  C6_6 
REMARK    2  A    between atoms: C5_5  and  C7_7 
REMARK    3  A    between atoms: C6_6  and  C8_8 
REMARK    4  A    between atoms: C7_7  and  C9_9 
ROOT
HETATM    1  C5  UNL     1     -33.292   5.671   1.833  1.00 20.00     0.002 C 
ENDROOT
BRANCH   1   2
HETATM    2  C6  UNL     1     -32.801   4.673   2.891  1.00 20.00     0.020 C 
BRANCH   2   3
HETATM    3  C8  UNL     1     -33.900   4.010   3.733  1.00 20.00     0.078 C 
HETATM    4  C1  UNL     1     -34.862   5.001   4.377  1.00 20.00     0.026 C 
HETATM    5 CL10 UNL     1     -33.185   2.965   4.997  1.00 20.00    -0.125 Cl
ENDBRANCH   2   3
ENDBRANCH   1   2
BRANCH   1   6
HETATM    6  C7  UNL     1     -32.160   6.617   1.408  1.00 20.00     0.008 C 
BRANCH   6   7
HETATM    7  C9  UNL     1     -32.232   8.057   1.982  1.00 20.00    -0.051 C 
HETATM    8  C2  UNL     1     -30.943   8.421   2.738  1.00 20.00     0.014 C 
HETATM    9  C3  UNL     1     -32.475   9.089   0.869  1.00 20.00     0.014 C 
HETATM   10  C4  UNL     1     -33.412   8.120   2.972  1.00 20.00     0.014 C 
ENDBRANCH   6   7
ENDBRANCH   1   6
TORSDOF 4
ENDMDL
MODEL 7
REMARK VINA RESULT:      -0.0      2.494      4.717
REMARK  4 active torsions:
REMARK  status: ('A' for Active; 'I' for Inactive)
REMARK    1  A    between atoms: C5_5  and  C6_6 
REMARK    2  A    between atoms: C5_5  and  C7_7 
REMARK    3  A    between atoms: C6_6  and  C8_8 
REMARK    4  A    between atoms: C7_7  and  C9_9 
ROOT
HETATM    1  C5  UNL     1     -32.684   6.150   1.587  1.00 20.00     0.002 C 
ENDROOT
BRANCH   1   2
HETATM    2  C6  UNL     1     -33.226   5.715   2.957  1.00 20.00     0.020 C 
BRANCH   2   3
HETATM    3  C8  UNL     1     -34.398   6.546   3.497  1.00 20.00     0.078 C 
HETATM    4  C1  UNL     1     -33.970   7.691   4.406  1.00 20.00     0.026 C 
HETATM    5 CL10 UNL     1     -35.568   5.504   4.360  1.00 20.00    -0.125 Cl
ENDBRANCH   2   3
ENDBRANCH   1   2
BRANCH   1   6
HETATM    6  C7  UNL     1     -33.179   7.559   1.228  1.00 20.00     0.008 C 
BRANCH   6   7
HETATM    7  C9  UNL     1     -32.081   8.649   1.107  1.00 20.00    -0.051 C 
HETATM    8  C2  UNL     1     -31.114   8.340  -0.050  1.00 20.00     0.014 C 
HETATM    9  C3  UNL     1     -32.699  10.041   0.892  1.00 20.00     0.014 C 
HETATM   10  C4  UNL     1     -31.278   8.669   2.422  1.00 20.00     0.014 C 
ENDBRANCH   6   7
ENDBRANCH   1   6
TORSDOF 4
ENDMDL
MODEL 8
REMARK VINA RESULT:       0.1      2.440      4.618
REMARK  4 active torsions:
REMARK  status: ('A' for Active; 'I' for Inactive)
REMARK    1  A    between atoms: C5_5  and  C6_6 
REMARK    2  A    between atoms: C5_5  and  C7_7 
REMARK    3  A    between atoms: C6_6  and  C8_8 
REMARK    4  A    between atoms: C7_7  and  C9_9 
ROOT
HETATM    1  C5  UNL     1     -32.582   6.166   1.642  1.00 20.00     0.002 C 
ENDROOT
BRANCH   1   2
HETATM    2  C6  UNL     1     -33.255   5.757   2.960  1.00 20.00     0.020 C 
BRANCH   2   3
HETATM    3  C8  UNL     1     -34.335   6.718   3.475  1.00 20.00     0.078 C 
HETATM    4  C1  UNL     1     -33.810   7.767   4.447  1.00 20.00     0.026 C 
HETATM    5 CL10 UNL     1     -35.676   5.813   4.240  1.00 20.00    -0.125 Cl
ENDBRANCH   2   3
ENDBRANCH   1   2
BRANCH   1   6
HETATM    6  C7  UNL     1     -33.112   7.522   1.157  1.00 20.00     0.008 C 
BRANCH   6   7
HETATM    7  C9  UNL     1     -32.074   8.675   1.108  1.00 20.00    -0.051 C 
HETATM    8  C2  UNL     1     -32.765  10.042   0.973  1.00 20.00     0.014 C 
HETATM    9  C3  UNL     1     -31.186   8.678   2.364  1.00 20.00     0.014 C 
HETATM   10  C4  UNL     1     -31.175   8.459  -0.125  1.00 20.00     0.014 C 
ENDBRANCH   6   7
ENDBRANCH   1   6
TORSDOF 4
ENDMDL
MODEL 9
REMARK VINA RESULT:       0.1      2.477      5.035
REMARK  4 active torsions:
REMARK  status: ('A' for Active; 'I' for Inactive)
REMARK    1  A    between atoms: C5_5  and  C6_6 
REMARK    2  A    between atoms: C5_5  and  C7_7 
REMARK    3  A    between atoms: C6_6  and  C8_8 
REMARK    4  A    between atoms: C7_7  and  C9_9 
ROOT
HETATM    1  C5  UNL     1     -32.161   7.570   1.939  1.00 20.00     0.002 C 
ENDROOT
BRANCH   1   2
HETATM    2  C6  UNL     1     -32.921   6.237   1.995  1.00 20.00     0.020 C 
BRANCH   2   3
HETATM    3  C8  UNL     1     -34.063   6.170   3.018  1.00 20.00     0.078 C 
HETATM    4  C1  UNL     1     -34.048   7.310   4.029  1.00 20.00     0.026 C 
HETATM    5 CL10 UNL     1     -34.047   4.604   3.883  1.00 20.00    -0.125 Cl
ENDBRANCH   2   3
ENDBRANCH   1   2
BRANCH   1   6
HETATM    6  C7  UNL     1     -33.033   8.669   1.316  1.00 20.00     0.008 C 
BRANCH   6   7
HETATM    7  C9  UNL     1     -32.297   9.665   0.380  1.00 20.00    -0.051 C 
HETATM    8  C2  UNL     1     -30.847   9.220   0.123  1.00 20.00     0.014 C 
HETATM    9  C3  UNL     1     -33.029   9.809  -0.965  1.00 20.00     0.014 C 
HETATM   10  C4  UNL     1     -32.269  11.042   1.072  1.00 20.00     0.014 C 
ENDBRANCH   6   7
ENDBRANCH   1   6
TORSDOF 4
ENDMDL
