MODEL 1
REMARK VINA RESULT:      -2.6      0.000      0.000
REMARK  3 active torsions:
REMARK  status: ('A' for Active; 'I' for Inactive)
REMARK    1  A    between atoms: C4_4  and  C7_7 
REMARK    2  A    between atoms: C7_7  and  C9_9 
REMARK    3  A    between atoms: C8_8  and  C9_9 
ROOT
HETATM    1  C1  UNL     1     -34.593   5.043   4.100  1.00 20.00     0.002 C 
HETATM    2  C2  UNL     1     -33.409   5.110   3.133  1.00 20.00     0.006 C 
HETATM    3  C3  UNL     1     -35.289   6.403   4.020  1.00 20.00     0.020 C 
HETATM    4  C4  UNL     1     -33.508   6.480   2.455  1.00 20.00     0.004 C 
HETATM    5  C5  UNL     1     -34.223   7.358   3.488  1.00 20.00     0.086 C 
HETATM    6 CL10 UNL     1     -33.164   7.889   4.829  1.00 20.00    -0.125 Cl
ENDROOT
BRANCH   4   7
HETATM    7  C7  UNL     1     -32.198   7.000   1.950  1.00 20.00     0.006 C 
BRANCH   7   8
HETATM    8  C9  UNL     1     -32.230   8.517   1.771  1.00 20.00     0.000 C 
BRANCH   8   9
HETATM    9  C8  UNL     1     -31.878   8.915   0.338  1.00 20.00    -0.005 C 
HETATM   10  C6  UNL     1     -32.624  10.168  -0.092  1.00 20.00     0.005 C 
ENDBRANCH   8   9
ENDBRANCH   7   8
ENDBRANCH   4   7
TORSDOF 3
ENDMDL
MODEL 2
REMARK VINA RESULT:      -1.6      1.583      2.014
REMARK  3 active torsions:
REMARK  status: ('A' for Active; 'I' for Inactive)
REMARK    1  A    between atoms: C4_4  and  C7_7 
REMARK    2  A    between atoms: C7_7  and  C9_9 
REMARK    3  A    between atoms: C8_8  and  C9_9 
ROOT
HETATM    1  C1  UNL     1     -35.127   5.446   4.079  1.00 20.00     0.002 C 
HETATM    2  C2  UNL     1     -34.877   6.934   3.817  1.00 20.00     0.006 C 
HETATM    3  C3  UNL     1     -33.817   4.727   3.750  1.00 20.00     0.020 C 
HETATM    4  C4  UNL     1     -33.399   7.040   3.428  1.00 20.00     0.004 C 
HETATM    5  C5  UNL     1     -33.076   5.675   2.811  1.00 20.00     0.086 C 
HETATM    6 CL10 UNL     1     -33.695   5.481   1.143  1.00 20.00    -0.125 Cl
ENDROOT
BRANCH   4   7
HETATM    7  C7  UNL     1     -33.082   8.233   2.580  1.00 20.00     0.006 C 
BRANCH   7   8
HETATM    8  C9  UNL     1     -31.738   8.074   1.872  1.00 20.00     0.000 C 
BRANCH   8   9
HETATM    9  C8  UNL     1     -31.773   8.685   0.471  1.00 20.00    -0.005 C 
HETATM   10  C6  UNL     1     -32.548   9.993   0.453  1.00 20.00     0.005 C 
ENDBRANCH   8   9
ENDBRANCH   7   8
ENDBRANCH   4   7
TORSDOF 3
ENDMDL
MODEL 3
REMARK VINA RESULT:      -1.0      1.809      4.679
REMARK  3 active torsions:
REMARK  status: ('A' for Active; 'I' for Inactive)
REMARK    1  A    between atoms: C4_4  and  C7_7 
REMARK    2  A    between atoms: C7_7  and  C9_9 
REMARK    3  A    between atoms: C8_8  and  C9_9 
ROOT
HETATM    1  C1  UNL     1     -31.840   8.310   3.205  1.00 20.00     0.002 C 
HETATM    2  C2  UNL     1     -32.975   7.638   3.983  1.00 20.00     0.006 C 
HETATM    3  C3  UNL     1     -32.204   8.184   1.724  1.00 20.00     0.020 C 
HETATM    4  C4  UNL     1     -34.006   7.222   2.930  1.00 20.00     0.004 C 
HETATM    5  C5  UNL     1     -33.177   7.010   1.658  1.00 20.00     0.086 C 
HETATM    6 CL10 UNL     1     -32.267   5.470   1.648  1.00 20.00    -0.125 Cl
ENDROOT
BRANCH   4   7
HETATM    7  C7  UNL     1     -34.866   6.071   3.349  1.00 20.00     0.006 C 
BRANCH   7   8
HETATM    8  C9  UNL     1     -34.196   5.241   4.443  1.00 20.00     0.000 C 
BRANCH   8   9
HETATM    9  C8  UNL     1     -33.994   3.794   3.998  1.00 20.00    -0.005 C 
HETATM   10  C6  UNL     1     -33.077   3.041   4.950  1.00 20.00     0.005 C 
ENDBRANCH   8   9
ENDBRANCH   7   8
ENDBRANCH   4   7
TORSDOF 3
ENDMDL
MODEL 4
REMARK VINA RESULT:      -0.9      1.729      4.615
REMARK  3 active torsions:
REMARK  status: ('A' for Active; 'I' for Inactive)
REMARK    1  A    between atoms: C4_4  and  C7_7 
REMARK    2  A    between atoms: C7_7  and  C9_9 
REMARK    3  A    between atoms: C8_8  and  C9_9 
ROOT
HETATM    1  C1  UNL     1     -31.291   8.581   1.791  1.00 20.00     0.002 C 
HETATM    2  C2  UNL     1     -31.887   8.384   3.187  1.00 20.00     0.006 C 
HETATM    3  C3  UNL     1     -32.327   8.043   0.802  1.00 20.00     0.020 C 
HETATM    4  C4  UNL     1     -33.292   7.817   2.958  1.00 20.00     0.004 C 
HETATM    5  C5  UNL     1     -33.183   7.079   1.619  1.00 20.00     0.086 C 
HETATM    6 CL10 UNL     1     -32.360   5.495   1.742  1.00 20.00    -0.125 Cl
ENDROOT
BRANCH   4   7
HETATM    7  C7  UNL     1     -33.813   7.012   4.108  1.00 20.00     0.006 C 
BRANCH   7   8
HETATM    8  C9  UNL     1     -35.153   6.360   3.772  1.00 20.00     0.000 C 
BRANCH   8   9
HETATM    9  C8  UNL     1     -35.320   5.027   4.500  1.00 20.00    -0.005 C 
HETATM   10  C6  UNL     1     -34.106   4.132   4.307  1.00 20.00     0.005 C 
ENDBRANCH   8   9
ENDBRANCH   7   8
ENDBRANCH   4   7
TORSDOF 3
ENDMDL
MODEL 5
REMARK VINA RESULT:      -0.8      1.602      4.578
REMARK  3 active torsions:
REMARK  status: ('A' for Active; 'I' for Inactive)
REMARK    1  A    between atoms: C4_4  and  C7_7 
REMARK    2  A    between atoms: C7_7  and  C9_9 
REMARK    3  A    between atoms: C8_8  and  C9_9 
ROOT
HETATM    1  C1  UNL     1     -32.256   7.412   1.468  1.00 20.00     0.002 C 
HETATM    2  C2  UNL     1     -33.294   6.323   1.755  1.00 20.00     0.006 C 
HETATM    3  C3  UNL     1     -31.997   8.117   2.800  1.00 20.00     0.020 C 
HETATM    4  C4  UNL     1     -33.537   6.374   3.266  1.00 20.00     0.004 C 
HETATM    5  C5  UNL     1     -33.235   7.829   3.644  1.00 20.00     0.086 C 
HETATM    6 CL10 UNL     1     -34.545   8.967   3.204  1.00 20.00    -0.125 Cl
ENDROOT
BRANCH   4   7
HETATM    7  C7  UNL     1     -34.880   5.857   3.679  1.00 20.00     0.006 C 
BRANCH   7   8
HETATM    8  C9  UNL     1     -34.754   4.610   4.553  1.00 20.00     0.000 C 
BRANCH   8   9
HETATM    9  C8  UNL     1     -33.713   3.642   3.994  1.00 20.00    -0.005 C 
HETATM   10  C6  UNL     1     -32.985   2.902   5.106  1.00 20.00     0.005 C 
ENDBRANCH   8   9
ENDBRANCH   7   8
ENDBRANCH   4   7
TORSDOF 3
ENDMDL
MODEL 6
REMARK VINA RESULT:      -0.7      1.848      4.375
REMARK  3 active torsions:
REMARK  status: ('A' for Active; 'I' for Inactive)
REMARK    1  A    between atoms: C4_4  and  C7_7 
REMARK    2  A    between atoms: C7_7  and  C9_9 
REMARK    3  A    between atoms: C8_8  and  C9_9 
ROOT
HETATM    1  C1  UNL     1     -32.007   6.321   0.899  1.00 20.00     0.002 C 
HETATM    2  C2  UNL     1     -33.173   6.101   1.865  1.00 20.00     0.006 C 
HETATM    3  C3  UNL     1     -31.168   7.456   1.491  1.00 20.00     0.020 C 
HETATM    4  C4  UNL     1     -32.924   7.058   3.036  1.00 20.00     0.004 C 
HETATM    5  C5  UNL     1     -32.123   8.208   2.414  1.00 20.00     0.086 C 
HETATM    6 CL10 UNL     1     -33.125   9.340   1.457  1.00 20.00    -0.125 Cl
ENDROOT
BRANCH   4   7
HETATM    7  C7  UNL     1     -34.168   7.450   3.770  1.00 20.00     0.006 C 
BRANCH   7   8
HETATM    8  C9  UNL     1     -35.281   6.422   3.573  1.00 20.00     0.000 C 
BRANCH   8   9
HETATM    9  C8  UNL     1     -35.261   5.362   4.674  1.00 20.00    -0.005 C 
HETATM   10  C6  UNL     1     -34.304   4.229   4.339  1.00 20.00     0.005 C 
ENDBRANCH   8   9
ENDBRANCH   7   8
ENDBRANCH   4   7
TORSDOF 3
ENDMDL
MODEL 7
REMARK VINA RESULT:      -0.0      2.097      4.971
REMARK  3 active torsions:
REMARK  status: ('A' for Active; 'I' for Inactive)
REMARK    1  A    between atoms: C4_4  and  C7_7 
REMARK    2  A    between atoms: C7_7  and  C9_9 
REMARK    3  A    between atoms: C8_8  and  C9_9 
ROOT
HETATM    1  C1  UNL     1     -32.660  11.020   0.497  1.00 20.00     0.002 C 
HETATM    2  C2  UNL     1     -32.525  10.066   1.687  1.00 20.00     0.006 C 
HETATM    3  C3  UNL     1     -32.862  10.139  -0.737  1.00 20.00     0.020 C 
HETATM    4  C4  UNL     1     -32.742   8.661   1.115  1.00 20.00     0.004 C 
HETATM    5  C5  UNL     1     -32.290   8.779  -0.346  1.00 20.00     0.086 C 
HETATM    6 CL10 UNL     1     -30.512   8.790  -0.544  1.00 20.00    -0.125 Cl
ENDROOT
BRANCH   4   7
HETATM    7  C7  UNL     1     -32.090   7.577   1.915  1.00 20.00     0.006 C 
BRANCH   7   8
HETATM    8  C9  UNL     1     -33.118   6.579   2.446  1.00 20.00     0.000 C 
BRANCH   8   9
HETATM    9  C8  UNL     1     -33.907   7.164   3.617  1.00 20.00    -0.005 C 
HETATM   10  C6  UNL     1     -35.148   6.338   3.921  1.00 20.00     0.005 C 
ENDBRANCH   8   9
ENDBRANCH   7   8
ENDBRANCH   4   7
TORSDOF 3
ENDMDL
MODEL 8
REMARK VINA RESULT:      -0.0      1.497      2.303
REMARK  3 active torsions:
REMARK  status: ('A' for Active; 'I' for Inactive)
REMARK    1  A    between atoms: C4_4  and  C7_7 
REMARK    2  A    between atoms: C7_7  and  C9_9 
REMARK    3  A    between atoms: C8_8  and  C9_9 
ROOT
HETATM    1  C1  UNL     1     -34.633   4.926   4.304  1.00 20.00     0.002 C 
HETATM    2  C2  UNL     1     -33.414   5.225   3.428  1.00 20.00     0.006 C 
HETATM    3  C3  UNL     1     -35.543   6.152   4.205  1.00 20.00     0.020 C 
HETATM    4  C4  UNL     1     -33.699   6.581   2.775  1.00 20.00     0.004 C 
HETATM    5  C5  UNL     1     -34.621   7.290   3.774  1.00 20.00     0.086 C 
HETATM    6 CL10 UNL     1     -33.761   7.944   5.200  1.00 20.00    -0.125 Cl
ENDROOT
BRANCH   4   7
HETATM    7  C7  UNL     1     -32.466   7.331   2.379  1.00 20.00     0.006 C 
BRANCH   7   8
HETATM    8  C9  UNL     1     -31.842   6.753   1.110  1.00 20.00     0.000 C 
BRANCH   8   9
HETATM    9  C8  UNL     1     -32.516   5.442   0.708  1.00 20.00    -0.005 C 
HETATM   10  C6  UNL     1     -31.492   4.368   0.375  1.00 20.00     0.005 C 
ENDBRANCH   8   9
ENDBRANCH   7   8
ENDBRANCH   4   7
TORSDOF 3
ENDMDL
