MODEL 1
REMARK VINA RESULT:       0.3      0.000      0.000
REMARK  2 active torsions:
REMARK  status: ('A' for Active; 'I' for Inactive)
REMARK    1  A    between atoms: C8_8  and  C9_9 
REMARK    2  A    between atoms: C9_9  and  N11_11 
ROOT
HETATM    1  C1  UNL     1     -33.759   6.498   2.975  1.00 20.00     0.071 C 
HETATM    2  C4  UNL     1     -32.089   5.041   1.773  1.00 20.00     0.028 A 
HETATM    3  C5  UNL     1     -33.051   5.558   0.746  1.00 20.00     0.028 A 
HETATM    4  C8  UNL     1     -32.736   6.393   1.967  1.00 20.00     0.075 A 
HETATM    5  N10 UNL     1     -34.583   6.582   3.788  1.00 20.00    -0.196 NA
ENDROOT
BRANCH   4   6
HETATM    6  C9  UNL     1     -31.890   7.608   1.787  1.00 20.00     0.296 C 
BRANCH   6   7
HETATM    7  N11 UNL     1     -32.611   8.652   1.049  1.00 20.00     0.090 N 
HETATM    8  C6  UNL     1     -32.496   9.943   1.729  1.00 20.00     0.272 C 
HETATM    9  C2  UNL     1     -32.873  10.935   0.640  1.00 20.00     0.032 C 
HETATM   10  C3  UNL     1     -32.558  10.226  -0.674  1.00 20.00     0.032 C 
HETATM   11  C7  UNL     1     -32.013   8.865  -0.269  1.00 20.00     0.272 C 
ENDBRANCH   6   7
ENDBRANCH   4   6
TORSDOF 2
ENDMDL
MODEL 2
REMARK VINA RESULT:       0.4      1.562      4.643
REMARK  2 active torsions:
REMARK  status: ('A' for Active; 'I' for Inactive)
REMARK    1  A    between atoms: C8_8  and  C9_9 
REMARK    2  A    between atoms: C9_9  and  N11_11 
ROOT
HETATM    1  C1  UNL     1     -32.440   8.895   1.022  1.00 20.00     0.071 C 
HETATM    2  C4  UNL     1     -32.419   6.378   0.861  1.00 20.00     0.028 A 
HETATM    3  C5  UNL     1     -31.127   6.795   1.497  1.00 20.00     0.028 A 
HETATM    4  C8  UNL     1     -32.371   7.629   1.708  1.00 20.00     0.075 A 
HETATM    5  N10 UNL     1     -32.496   9.913   0.469  1.00 20.00    -0.196 NA
ENDROOT
BRANCH   4   6
HETATM    6  C9  UNL     1     -33.021   7.594   3.049  1.00 20.00     0.296 C 
BRANCH   6   7
HETATM    7  N11 UNL     1     -33.946   6.461   3.161  1.00 20.00     0.090 N 
HETATM    8  C6  UNL     1     -33.260   5.280   3.688  1.00 20.00     0.272 C 
HETATM    9  C2  UNL     1     -34.409   4.402   4.160  1.00 20.00     0.032 C 
HETATM   10  C3  UNL     1     -35.557   5.365   4.448  1.00 20.00     0.032 C 
HETATM   11  C7  UNL     1     -35.004   6.747   4.131  1.00 20.00     0.272 C 
ENDBRANCH   6   7
ENDBRANCH   4   6
TORSDOF 2
ENDMDL
MODEL 3
REMARK VINA RESULT:       0.6      1.894      4.748
REMARK  2 active torsions:
REMARK  status: ('A' for Active; 'I' for Inactive)
REMARK    1  A    between atoms: C8_8  and  C9_9 
REMARK    2  A    between atoms: C9_9  and  N11_11 
ROOT
HETATM    1  C1  UNL     1     -32.297   6.190   1.245  1.00 20.00     0.071 C 
HETATM    2  C4  UNL     1     -31.169   8.362   1.854  1.00 20.00     0.028 A 
HETATM    3  C5  UNL     1     -32.367   8.700   1.016  1.00 20.00     0.028 A 
HETATM    4  C8  UNL     1     -32.390   7.471   1.898  1.00 20.00     0.075 A 
HETATM    5  N10 UNL     1     -32.221   5.159   0.719  1.00 20.00    -0.196 NA
ENDROOT
BRANCH   4   6
HETATM    6  C9  UNL     1     -33.239   7.502   3.123  1.00 20.00     0.296 C 
BRANCH   6   7
HETATM    7  N11 UNL     1     -34.042   6.280   3.244  1.00 20.00     0.090 N 
HETATM    8  C6  UNL     1     -33.257   5.199   3.842  1.00 20.00     0.272 C 
HETATM    9  C2  UNL     1     -34.325   4.219   4.303  1.00 20.00     0.032 C 
HETATM   10  C3  UNL     1     -35.579   5.062   4.510  1.00 20.00     0.032 C 
HETATM   11  C7  UNL     1     -35.164   6.483   4.160  1.00 20.00     0.272 C 
ENDBRANCH   6   7
ENDBRANCH   4   6
TORSDOF 2
ENDMDL
MODEL 4
REMARK VINA RESULT:       0.8      1.522      4.639
REMARK  2 active torsions:
REMARK  status: ('A' for Active; 'I' for Inactive)
REMARK    1  A    between atoms: C8_8  and  C9_9 
REMARK    2  A    between atoms: C9_9  and  N11_11 
ROOT
HETATM    1  C1  UNL     1     -32.440   9.062   0.756  1.00 20.00     0.071 C 
HETATM    2  C4  UNL     1     -30.861   7.900   2.342  1.00 20.00     0.028 A 
HETATM    3  C5  UNL     1     -31.921   8.563   3.172  1.00 20.00     0.028 A 
HETATM    4  C8  UNL     1     -32.256   8.068   1.783  1.00 20.00     0.075 A 
HETATM    5  N10 UNL     1     -32.588   9.863  -0.070  1.00 20.00    -0.196 NA
ENDROOT
BRANCH   4   6
HETATM    6  C9  UNL     1     -33.113   6.855   1.657  1.00 20.00     0.296 C 
BRANCH   6   7
HETATM    7  N11 UNL     1     -33.522   6.356   2.976  1.00 20.00     0.090 N 
HETATM    8  C6  UNL     1     -34.901   6.746   3.274  1.00 20.00     0.272 C 
HETATM    9  C2  UNL     1     -35.288   5.793   4.396  1.00 20.00     0.032 C 
HETATM   10  C3  UNL     1     -34.385   4.577   4.217  1.00 20.00     0.032 C 
HETATM   11  C7  UNL     1     -33.530   4.893   2.999  1.00 20.00     0.272 C 
ENDBRANCH   6   7
ENDBRANCH   4   6
TORSDOF 2
ENDMDL
MODEL 5
REMARK VINA RESULT:       0.9      1.835      4.532
REMARK  2 active torsions:
REMARK  status: ('A' for Active; 'I' for Inactive)
REMARK    1  A    between atoms: C8_8  and  C9_9 
REMARK    2  A    between atoms: C9_9  and  N11_11 
ROOT
HETATM    1  C1  UNL     1     -32.140   8.398   3.287  1.00 20.00     0.071 C 
HETATM    2  C4  UNL     1     -32.522   8.969   0.861  1.00 20.00     0.028 A 
HETATM    3  C5  UNL     1     -31.247   8.184   0.939  1.00 20.00     0.028 A 
HETATM    4  C8  UNL     1     -32.350   7.927   1.942  1.00 20.00     0.075 A 
HETATM    5  N10 UNL     1     -31.972   8.778   4.371  1.00 20.00    -0.196 NA
ENDROOT
BRANCH   4   6
HETATM    6  C9  UNL     1     -33.124   6.658   1.824  1.00 20.00     0.296 C 
BRANCH   6   7
HETATM    7  N11 UNL     1     -33.571   6.185   3.139  1.00 20.00     0.090 N 
HETATM    8  C6  UNL     1     -34.975   6.529   3.366  1.00 20.00     0.272 C 
HETATM    9  C2  UNL     1     -35.375   5.597   4.500  1.00 20.00     0.032 C 
HETATM   10  C3  UNL     1     -34.419   4.412   4.399  1.00 20.00     0.032 C 
HETATM   11  C7  UNL     1     -33.525   4.724   3.209  1.00 20.00     0.272 C 
ENDBRANCH   6   7
ENDBRANCH   4   6
TORSDOF 2
ENDMDL
MODEL 6
REMARK VINA RESULT:       1.0      1.353      2.112
REMARK  2 active torsions:
REMARK  status: ('A' for Active; 'I' for Inactive)
REMARK    1  A    between atoms: C8_8  and  C9_9 
REMARK    2  A    between atoms: C9_9  and  N11_11 
ROOT
HETATM    1  C1  UNL     1     -32.961   6.023   2.086  1.00 20.00     0.071 C 
HETATM    2  C4  UNL     1     -34.611   7.460   3.340  1.00 20.00     0.028 A 
HETATM    3  C5  UNL     1     -33.583   6.994   4.328  1.00 20.00     0.028 A 
HETATM    4  C8  UNL     1     -33.194   7.202   2.881  1.00 20.00     0.075 A 
HETATM    5  N10 UNL     1     -32.774   5.074   1.445  1.00 20.00    -0.196 NA
ENDROOT
BRANCH   4   6
HETATM    6  C9  UNL     1     -32.339   8.377   2.546  1.00 20.00     0.296 C 
BRANCH   6   7
HETATM    7  N11 UNL     1     -32.598   8.849   1.181  1.00 20.00     0.090 N 
HETATM    8  C6  UNL     1     -32.918  10.277   1.177  1.00 20.00     0.272 C 
HETATM    9  C2  UNL     1     -32.697  10.671  -0.276  1.00 20.00     0.032 C 
HETATM   10  C3  UNL     1     -31.700   9.652  -0.819  1.00 20.00     0.032 C 
HETATM   11  C7  UNL     1     -31.398   8.729   0.353  1.00 20.00     0.272 C 
ENDBRANCH   6   7
ENDBRANCH   4   6
TORSDOF 2
ENDMDL
MODEL 7
REMARK VINA RESULT:       1.1      1.594      2.540
REMARK  2 active torsions:
REMARK  status: ('A' for Active; 'I' for Inactive)
REMARK    1  A    between atoms: C8_8  and  C9_9 
REMARK    2  A    between atoms: C9_9  and  N11_11 
ROOT
HETATM    1  C1  UNL     1     -33.561   7.680   4.523  1.00 20.00     0.071 C 
HETATM    2  C4  UNL     1     -34.752   5.487   4.167  1.00 20.00     0.028 A 
HETATM    3  C5  UNL     1     -35.593   6.558   3.539  1.00 20.00     0.028 A 
HETATM    4  C8  UNL     1     -34.089   6.717   3.591  1.00 20.00     0.075 A 
HETATM    5  N10 UNL     1     -33.135   8.455   5.275  1.00 20.00    -0.196 NA
ENDROOT
BRANCH   4   6
HETATM    6  C9  UNL     1     -33.324   6.573   2.320  1.00 20.00     0.296 C 
BRANCH   6   7
HETATM    7  N11 UNL     1     -32.572   7.795   2.012  1.00 20.00     0.090 N 
HETATM    8  C6  UNL     1     -31.366   7.484   1.243  1.00 20.00     0.272 C 
HETATM    9  C2  UNL     1     -30.991   8.829   0.639  1.00 20.00     0.032 C 
HETATM   10  C3  UNL     1     -32.296   9.618   0.580  1.00 20.00     0.032 C 
HETATM   11  C7  UNL     1     -33.352   8.682   1.149  1.00 20.00     0.272 C 
ENDBRANCH   6   7
ENDBRANCH   4   6
TORSDOF 2
ENDMDL
MODEL 8
REMARK VINA RESULT:       1.2      1.604      2.582
REMARK  2 active torsions:
REMARK  status: ('A' for Active; 'I' for Inactive)
REMARK    1  A    between atoms: C8_8  and  C9_9 
REMARK    2  A    between atoms: C9_9  and  N11_11 
ROOT
HETATM    1  C1  UNL     1     -33.980   4.618   3.925  1.00 20.00     0.071 C 
HETATM    2  C4  UNL     1     -35.340   6.678   3.412  1.00 20.00     0.028 A 
HETATM    3  C5  UNL     1     -34.179   7.109   4.258  1.00 20.00     0.028 A 
HETATM    4  C8  UNL     1     -34.032   5.927   3.326  1.00 20.00     0.075 A 
HETATM    5  N10 UNL     1     -33.940   3.564   4.407  1.00 20.00    -0.196 NA
ENDROOT
BRANCH   4   6
HETATM    6  C9  UNL     1     -33.202   6.100   2.098  1.00 20.00     0.296 C 
BRANCH   6   7
HETATM    7  N11 UNL     1     -32.899   7.516   1.859  1.00 20.00     0.090 N 
HETATM    8  C6  UNL     1     -31.467   7.774   2.017  1.00 20.00     0.272 C 
HETATM    9  C2  UNL     1     -31.282   9.106   1.304  1.00 20.00     0.032 C 
HETATM   10  C3  UNL     1     -32.421   9.180   0.293  1.00 20.00     0.032 C 
HETATM   11  C7  UNL     1     -33.198   7.885   0.475  1.00 20.00     0.272 C 
ENDBRANCH   6   7
ENDBRANCH   4   6
TORSDOF 2
ENDMDL
MODEL 9
REMARK VINA RESULT:       1.6      1.348      4.342
REMARK  2 active torsions:
REMARK  status: ('A' for Active; 'I' for Inactive)
REMARK    1  A    between atoms: C8_8  and  C9_9 
REMARK    2  A    between atoms: C9_9  and  N11_11 
ROOT
HETATM    1  C1  UNL     1     -32.458  10.422   0.985  1.00 20.00     0.071 C 
HETATM    2  C4  UNL     1     -32.594   8.483  -0.621  1.00 20.00     0.028 A 
HETATM    3  C5  UNL     1     -31.155   8.899  -0.545  1.00 20.00     0.028 A 
HETATM    4  C8  UNL     1     -32.053   9.079   0.659  1.00 20.00     0.075 A 
HETATM    5  N10 UNL     1     -32.784  11.504   1.247  1.00 20.00    -0.196 NA
ENDROOT
BRANCH   4   6
HETATM    6  C9  UNL     1     -31.852   8.172   1.826  1.00 20.00     0.296 C 
BRANCH   6   7
HETATM    7  N11 UNL     1     -33.125   7.592   2.272  1.00 20.00     0.090 N 
HETATM    8  C6  UNL     1     -33.061   6.130   2.264  1.00 20.00     0.272 C 
HETATM    9  C2  UNL     1     -34.227   5.735   3.158  1.00 20.00     0.032 C 
HETATM   10  C3  UNL     1     -34.451   6.932   4.076  1.00 20.00     0.032 C 
HETATM   11  C7  UNL     1     -33.399   7.950   3.664  1.00 20.00     0.272 C 
ENDBRANCH   6   7
ENDBRANCH   4   6
TORSDOF 2
ENDMDL
