MODEL 1
REMARK VINA RESULT:      -2.4      0.000      0.000
REMARK  4 active torsions:
REMARK  status: ('A' for Active; 'I' for Inactive)
REMARK    1  A    between atoms: C2_2  and  C6_6 
REMARK    2  A    between atoms: C6_6  and  C7_7 
REMARK    3  A    between atoms: C7_7  and  C8_8 
REMARK    4  A    between atoms: C8_8  and  O9_9 
ROOT
HETATM    1  C4  UNL     1     -34.664   7.165   4.226  1.00 20.00     0.012 C 
HETATM    2  C7  UNL     1     -33.904   5.991   3.590  1.00 20.00     0.014 C 
ENDROOT
BRANCH   2   3
HETATM    3  C6  UNL     1     -33.779   6.256   2.069  1.00 20.00     0.039 C 
BRANCH   3   4
HETATM    4  C2  UNL     1     -32.363   6.414   1.563  1.00 20.00    -0.093 C 
HETATM    5  C1  UNL     1     -31.687   5.381   1.036  1.00 20.00     0.014 C 
HETATM    6  C3  UNL     1     -31.757   7.786   1.640  1.00 20.00     0.042 C 
ENDBRANCH   3   4
ENDBRANCH   2   3
BRANCH   2   7
HETATM    7  C8  UNL     1     -34.569   4.626   3.896  1.00 20.00     0.118 C 
HETATM    8  C5  UNL     1     -33.603   3.603   4.485  1.00 20.00     0.040 C 
BRANCH   7   9
HETATM    9  O9  UNL     1     -35.656   4.808   4.801  1.00 20.00    -0.396 OA
HETATM   10  H25 UNL     1     -35.510   4.189   5.533  1.00 20.00     0.210 HD
ENDBRANCH   7   9
ENDBRANCH   2   7
TORSDOF 4
ENDMDL
MODEL 2
REMARK VINA RESULT:      -2.3      0.120      1.175
REMARK  4 active torsions:
REMARK  status: ('A' for Active; 'I' for Inactive)
REMARK    1  A    between atoms: C2_2  and  C6_6 
REMARK    2  A    between atoms: C6_6  and  C7_7 
REMARK    3  A    between atoms: C7_7  and  C8_8 
REMARK    4  A    between atoms: C8_8  and  O9_9 
ROOT
HETATM    1  C4  UNL     1     -34.572   7.219   4.360  1.00 20.00     0.012 C 
HETATM    2  C7  UNL     1     -33.867   6.070   3.624  1.00 20.00     0.014 C 
ENDROOT
BRANCH   2   3
HETATM    3  C6  UNL     1     -33.781   6.433   2.120  1.00 20.00     0.039 C 
BRANCH   3   4
HETATM    4  C2  UNL     1     -32.377   6.566   1.576  1.00 20.00    -0.093 C 
HETATM    5  C1  UNL     1     -31.737   7.746   1.566  1.00 20.00     0.014 C 
HETATM    6  C3  UNL     1     -31.713   5.313   1.081  1.00 20.00     0.042 C 
ENDBRANCH   3   4
ENDBRANCH   2   3
BRANCH   2   7
HETATM    7  C8  UNL     1     -34.562   4.706   3.861  1.00 20.00     0.118 C 
HETATM    8  C5  UNL     1     -33.627   3.643   4.428  1.00 20.00     0.040 C 
BRANCH   7   9
HETATM    9  O9  UNL     1     -35.665   4.871   4.749  1.00 20.00    -0.396 OA
HETATM   10  H25 UNL     1     -36.464   4.679   4.234  1.00 20.00     0.210 HD
ENDBRANCH   7   9
ENDBRANCH   2   7
TORSDOF 4
ENDMDL
MODEL 3
REMARK VINA RESULT:      -1.8      2.390      4.530
REMARK  4 active torsions:
REMARK  status: ('A' for Active; 'I' for Inactive)
REMARK    1  A    between atoms: C2_2  and  C6_6 
REMARK    2  A    between atoms: C6_6  and  C7_7 
REMARK    3  A    between atoms: C7_7  and  C8_8 
REMARK    4  A    between atoms: C8_8  and  O9_9 
ROOT
HETATM    1  C4  UNL     1     -32.251   5.516   1.071  1.00 20.00     0.012 C 
HETATM    2  C7  UNL     1     -32.397   6.634   2.113  1.00 20.00     0.014 C 
ENDROOT
BRANCH   2   3
HETATM    3  C6  UNL     1     -33.907   6.907   2.328  1.00 20.00     0.039 C 
BRANCH   3   4
HETATM    4  C2  UNL     1     -34.352   6.928   3.773  1.00 20.00    -0.093 C 
HETATM    5  C1  UNL     1     -33.912   7.863   4.630  1.00 20.00     0.014 C 
HETATM    6  C3  UNL     1     -35.339   5.879   4.199  1.00 20.00     0.042 C 
ENDBRANCH   3   4
ENDBRANCH   2   3
BRANCH   2   7
HETATM    7  C8  UNL     1     -31.619   7.913   1.717  1.00 20.00     0.118 C 
HETATM    8  C5  UNL     1     -32.446   8.891   0.888  1.00 20.00     0.040 C 
BRANCH   7   9
HETATM    9  O9  UNL     1     -31.154   8.580   2.888  1.00 20.00    -0.396 OA
HETATM   10  H25 UNL     1     -30.671   9.365   2.584  1.00 20.00     0.210 HD
ENDBRANCH   7   9
ENDBRANCH   2   7
TORSDOF 4
ENDMDL
MODEL 4
REMARK VINA RESULT:      -1.8      2.386      4.393
REMARK  4 active torsions:
REMARK  status: ('A' for Active; 'I' for Inactive)
REMARK    1  A    between atoms: C2_2  and  C6_6 
REMARK    2  A    between atoms: C6_6  and  C7_7 
REMARK    3  A    between atoms: C7_7  and  C8_8 
REMARK    4  A    between atoms: C8_8  and  O9_9 
ROOT
HETATM    1  C4  UNL     1     -32.321   5.515   1.091  1.00 20.00     0.012 C 
HETATM    2  C7  UNL     1     -32.456   6.641   2.126  1.00 20.00     0.014 C 
ENDROOT
BRANCH   2   3
HETATM    3  C6  UNL     1     -33.964   6.933   2.336  1.00 20.00     0.039 C 
BRANCH   3   4
HETATM    4  C2  UNL     1     -34.432   6.865   3.773  1.00 20.00    -0.093 C 
HETATM    5  C1  UNL     1     -35.287   5.917   4.188  1.00 20.00     0.014 C 
HETATM    6  C3  UNL     1     -33.869   7.880   4.725  1.00 20.00     0.042 C 
ENDBRANCH   3   4
ENDBRANCH   2   3
BRANCH   2   7
HETATM    7  C8  UNL     1     -31.664   7.909   1.722  1.00 20.00     0.118 C 
HETATM    8  C5  UNL     1     -32.486   8.900   0.904  1.00 20.00     0.040 C 
BRANCH   7   9
HETATM    9  O9  UNL     1     -31.177   8.568   2.889  1.00 20.00    -0.396 OA
HETATM   10  H25 UNL     1     -30.633   9.309   2.580  1.00 20.00     0.210 HD
ENDBRANCH   7   9
ENDBRANCH   2   7
TORSDOF 4
ENDMDL
MODEL 5
REMARK VINA RESULT:      -1.7      1.730      2.969
REMARK  4 active torsions:
REMARK  status: ('A' for Active; 'I' for Inactive)
REMARK    1  A    between atoms: C2_2  and  C6_6 
REMARK    2  A    between atoms: C6_6  and  C7_7 
REMARK    3  A    between atoms: C7_7  and  C8_8 
REMARK    4  A    between atoms: C8_8  and  O9_9 
ROOT
HETATM    1  C4  UNL     1     -32.773   5.760   1.522  1.00 20.00     0.012 C 
HETATM    2  C7  UNL     1     -33.255   7.065   2.172  1.00 20.00     0.014 C 
ENDROOT
BRANCH   2   3
HETATM    3  C6  UNL     1     -32.087   8.083   2.149  1.00 20.00     0.039 C 
BRANCH   3   4
HETATM    4  C2  UNL     1     -32.026   8.956   0.916  1.00 20.00    -0.093 C 
HETATM    5  C1  UNL     1     -31.281   8.617  -0.148  1.00 20.00     0.014 C 
HETATM    6  C3  UNL     1     -32.864  10.201   0.917  1.00 20.00     0.042 C 
ENDBRANCH   3   4
ENDBRANCH   2   3
BRANCH   2   7
HETATM    7  C8  UNL     1     -33.811   6.841   3.600  1.00 20.00     0.118 C 
HETATM    8  C5  UNL     1     -33.692   8.071   4.494  1.00 20.00     0.040 C 
BRANCH   7   9
HETATM    9  O9  UNL     1     -35.181   6.452   3.531  1.00 20.00    -0.396 OA
HETATM   10  H25 UNL     1     -35.501   6.727   2.658  1.00 20.00     0.210 HD
ENDBRANCH   7   9
ENDBRANCH   2   7
TORSDOF 4
ENDMDL
MODEL 6
REMARK VINA RESULT:      -1.7      1.731      3.147
REMARK  4 active torsions:
REMARK  status: ('A' for Active; 'I' for Inactive)
REMARK    1  A    between atoms: C2_2  and  C6_6 
REMARK    2  A    between atoms: C6_6  and  C7_7 
REMARK    3  A    between atoms: C7_7  and  C8_8 
REMARK    4  A    between atoms: C8_8  and  O9_9 
ROOT
HETATM    1  C4  UNL     1     -32.718   5.758   1.503  1.00 20.00     0.012 C 
HETATM    2  C7  UNL     1     -33.228   7.059   2.139  1.00 20.00     0.014 C 
ENDROOT
BRANCH   2   3
HETATM    3  C6  UNL     1     -32.083   8.102   2.102  1.00 20.00     0.039 C 
BRANCH   3   4
HETATM    4  C2  UNL     1     -32.088   9.012   0.894  1.00 20.00    -0.093 C 
HETATM    5  C1  UNL     1     -32.838  10.124   0.856  1.00 20.00     0.014 C 
HETATM    6  C3  UNL     1     -31.187   8.638  -0.247  1.00 20.00     0.042 C 
ENDBRANCH   3   4
ENDBRANCH   2   3
BRANCH   2   7
HETATM    7  C8  UNL     1     -33.776   6.838   3.571  1.00 20.00     0.118 C 
HETATM    8  C5  UNL     1     -33.658   8.072   4.459  1.00 20.00     0.040 C 
BRANCH   7   9
HETATM    9  O9  UNL     1     -35.145   6.443   3.510  1.00 20.00    -0.396 OA
HETATM   10  H25 UNL     1     -35.452   6.652   2.614  1.00 20.00     0.210 HD
ENDBRANCH   7   9
ENDBRANCH   2   7
TORSDOF 4
ENDMDL
MODEL 7
REMARK VINA RESULT:      -1.3      2.375      4.347
REMARK  4 active torsions:
REMARK  status: ('A' for Active; 'I' for Inactive)
REMARK    1  A    between atoms: C2_2  and  C6_6 
REMARK    2  A    between atoms: C6_6  and  C7_7 
REMARK    3  A    between atoms: C7_7  and  C8_8 
REMARK    4  A    between atoms: C8_8  and  O9_9 
ROOT
HETATM    1  C4  UNL     1     -33.338   7.958   4.041  1.00 20.00     0.012 C 
HETATM    2  C7  UNL     1     -33.315   7.460   2.589  1.00 20.00     0.014 C 
ENDROOT
BRANCH   2   3
HETATM    3  C6  UNL     1     -33.407   5.914   2.601  1.00 20.00     0.039 C 
BRANCH   3   4
HETATM    4  C2  UNL     1     -34.317   5.337   3.662  1.00 20.00    -0.093 C 
HETATM    5  C1  UNL     1     -35.437   5.970   4.045  1.00 20.00     0.014 C 
HETATM    6  C3  UNL     1     -33.935   4.006   4.242  1.00 20.00     0.042 C 
ENDBRANCH   3   4
ENDBRANCH   2   3
BRANCH   2   7
HETATM    7  C8  UNL     1     -32.075   7.969   1.813  1.00 20.00     0.118 C 
HETATM    8  C5  UNL     1     -32.398   9.084   0.823  1.00 20.00     0.040 C 
BRANCH   7   9
HETATM    9  O9  UNL     1     -31.088   8.438   2.729  1.00 20.00    -0.396 OA
HETATM   10  H25 UNL     1     -30.349   7.812   2.680  1.00 20.00     0.210 HD
ENDBRANCH   7   9
ENDBRANCH   2   7
TORSDOF 4
ENDMDL
MODEL 8
REMARK VINA RESULT:      -1.2      2.979      5.051
REMARK  4 active torsions:
REMARK  status: ('A' for Active; 'I' for Inactive)
REMARK    1  A    between atoms: C2_2  and  C6_6 
REMARK    2  A    between atoms: C6_6  and  C7_7 
REMARK    3  A    between atoms: C7_7  and  C8_8 
REMARK    4  A    between atoms: C8_8  and  O9_9 
ROOT
HETATM    1  C4  UNL     1     -32.232   6.428   1.618  1.00 20.00     0.012 C 
HETATM    2  C7  UNL     1     -32.419   7.930   1.877  1.00 20.00     0.014 C 
ENDROOT
BRANCH   2   3
HETATM    3  C6  UNL     1     -33.811   8.145   2.523  1.00 20.00     0.039 C 
BRANCH   3   4
HETATM    4  C2  UNL     1     -33.988   7.507   3.883  1.00 20.00    -0.093 C 
HETATM    5  C1  UNL     1     -33.319   7.951   4.959  1.00 20.00     0.014 C 
HETATM    6  C3  UNL     1     -34.973   6.378   3.986  1.00 20.00     0.042 C 
ENDBRANCH   3   4
ENDBRANCH   2   3
BRANCH   2   7
HETATM    7  C8  UNL     1     -32.230   8.776   0.594  1.00 20.00     0.118 C 
HETATM    8  C5  UNL     1     -32.676  10.226   0.755  1.00 20.00     0.040 C 
BRANCH   7   9
HETATM    9  O9  UNL     1     -30.861   8.757   0.197  1.00 20.00    -0.396 OA
HETATM   10  H25 UNL     1     -30.615   7.823   0.103  1.00 20.00     0.210 HD
ENDBRANCH   7   9
ENDBRANCH   2   7
TORSDOF 4
ENDMDL
MODEL 9
REMARK VINA RESULT:      -1.1      1.449      2.105
REMARK  4 active torsions:
REMARK  status: ('A' for Active; 'I' for Inactive)
REMARK    1  A    between atoms: C2_2  and  C6_6 
REMARK    2  A    between atoms: C6_6  and  C7_7 
REMARK    3  A    between atoms: C7_7  and  C8_8 
REMARK    4  A    between atoms: C8_8  and  O9_9 
ROOT
HETATM    1  C4  UNL     1     -33.528   7.959   4.950  1.00 20.00     0.012 C 
HETATM    2  C7  UNL     1     -33.941   6.866   3.953  1.00 20.00     0.014 C 
ENDROOT
BRANCH   2   3
HETATM    3  C6  UNL     1     -33.786   7.430   2.518  1.00 20.00     0.039 C 
BRANCH   3   4
HETATM    4  C2  UNL     1     -32.518   7.019   1.805  1.00 20.00    -0.093 C 
HETATM    5  C1  UNL     1     -31.529   7.896   1.570  1.00 20.00     0.014 C 
HETATM    6  C3  UNL     1     -32.395   5.577   1.403  1.00 20.00     0.042 C 
ENDBRANCH   3   4
ENDBRANCH   2   3
BRANCH   2   7
HETATM    7  C8  UNL     1     -35.369   6.332   4.223  1.00 20.00     0.118 C 
HETATM    8  C5  UNL     1     -36.349   6.628   3.093  1.00 20.00     0.040 C 
BRANCH   7   9
HETATM    9  O9  UNL     1     -35.327   4.923   4.439  1.00 20.00    -0.396 OA
HETATM   10  H25 UNL     1     -34.393   4.665   4.395  1.00 20.00     0.210 HD
ENDBRANCH   7   9
ENDBRANCH   2   7
TORSDOF 4
ENDMDL
