MODEL 1
REMARK VINA RESULT:      -1.0      0.000      0.000
REMARK  4 active torsions:
REMARK  status: ('A' for Active; 'I' for Inactive)
REMARK    1  A    between atoms: C6_6  and  C7_7 
REMARK    2  A    between atoms: C7_7  and  C9_9 
REMARK    3  A    between atoms: C8_8  and  C9_9 
REMARK    4  A    between atoms: C8_8  and  N11_11 
ROOT
HETATM    1  C1  UNL     1     -32.715   5.662   1.686  1.00 20.00     0.095 C 
HETATM    2  C8  UNL     1     -33.621   6.585   2.394  1.00 20.00     0.331 C 
HETATM    3  N10 UNL     1     -32.004   4.936   1.125  1.00 20.00    -0.195 NA
ENDROOT
BRANCH   2   4
HETATM    4  C9  UNL     1     -32.980   7.981   2.636  1.00 20.00     0.029 C 
HETATM    5  C3  UNL     1     -32.647   8.240   4.114  1.00 20.00     0.013 C 
BRANCH   4   6
HETATM    6  C7  UNL     1     -31.740   8.180   1.731  1.00 20.00     0.007 C 
BRANCH   6   7
HETATM    7  C6  UNL     1     -32.049   8.915   0.424  1.00 20.00    -0.004 C 
HETATM    8  C2  UNL     1     -32.661  10.282   0.687  1.00 20.00     0.005 C 
ENDBRANCH   6   7
ENDBRANCH   4   6
ENDBRANCH   2   4
BRANCH   2   9
HETATM    9  N11 UNL     1     -34.046   5.981   3.658  1.00 20.00     0.098 N 
HETATM   10  C4  UNL     1     -33.863   4.531   3.616  1.00 20.00     0.311 C 
HETATM   11  C5  UNL     1     -35.442   6.313   3.936  1.00 20.00     0.311 C 
ENDBRANCH   2   9
TORSDOF 4
ENDMDL
MODEL 2
REMARK VINA RESULT:      -0.7      1.378      2.181
REMARK  4 active torsions:
REMARK  status: ('A' for Active; 'I' for Inactive)
REMARK    1  A    between atoms: C6_6  and  C7_7 
REMARK    2  A    between atoms: C7_7  and  C9_9 
REMARK    3  A    between atoms: C8_8  and  C9_9 
REMARK    4  A    between atoms: C8_8  and  N11_11 
ROOT
HETATM    1  C1  UNL     1     -33.778   4.663   3.537  1.00 20.00     0.095 C 
HETATM    2  C8  UNL     1     -33.845   5.899   2.736  1.00 20.00     0.331 C 
HETATM    3  N10 UNL     1     -33.726   3.688   4.163  1.00 20.00    -0.195 NA
ENDROOT
BRANCH   2   4
HETATM    4  C9  UNL     1     -32.444   6.383   2.266  1.00 20.00     0.029 C 
HETATM    5  C3  UNL     1     -31.935   5.630   1.025  1.00 20.00     0.013 C 
BRANCH   4   6
HETATM    6  C7  UNL     1     -32.439   7.914   2.043  1.00 20.00     0.007 C 
BRANCH   6   7
HETATM    7  C6  UNL     1     -31.829   8.335   0.703  1.00 20.00    -0.004 C 
HETATM    8  C2  UNL     1     -32.351   9.694   0.259  1.00 20.00     0.005 C 
ENDBRANCH   6   7
ENDBRANCH   4   6
ENDBRANCH   2   4
BRANCH   2   9
HETATM    9  N11 UNL     1     -34.527   6.944   3.503  1.00 20.00     0.098 N 
HETATM   10  C4  UNL     1     -33.651   7.454   4.557  1.00 20.00     0.311 C 
HETATM   11  C5  UNL     1     -35.769   6.428   4.073  1.00 20.00     0.311 C 
ENDBRANCH   2   9
TORSDOF 4
ENDMDL
MODEL 3
REMARK VINA RESULT:      -0.7      1.564      4.009
REMARK  4 active torsions:
REMARK  status: ('A' for Active; 'I' for Inactive)
REMARK    1  A    between atoms: C6_6  and  C7_7 
REMARK    2  A    between atoms: C7_7  and  C9_9 
REMARK    3  A    between atoms: C8_8  and  C9_9 
REMARK    4  A    between atoms: C8_8  and  N11_11 
ROOT
HETATM    1  C1  UNL     1     -32.341   7.802   1.817  1.00 20.00     0.095 C 
HETATM    2  C8  UNL     1     -33.421   6.833   2.081  1.00 20.00     0.331 C 
HETATM    3  N10 UNL     1     -31.495   8.568   1.608  1.00 20.00    -0.195 NA
ENDROOT
BRANCH   2   4
HETATM    4  C9  UNL     1     -33.791   6.748   3.589  1.00 20.00     0.029 C 
HETATM    5  C3  UNL     1     -33.721   8.109   4.300  1.00 20.00     0.013 C 
BRANCH   4   6
HETATM    6  C7  UNL     1     -35.173   6.078   3.777  1.00 20.00     0.007 C 
BRANCH   6   7
HETATM    7  C6  UNL     1     -35.135   4.836   4.672  1.00 20.00    -0.004 C 
HETATM    8  C2  UNL     1     -33.983   3.917   4.296  1.00 20.00     0.005 C 
ENDBRANCH   6   7
ENDBRANCH   4   6
ENDBRANCH   2   4
BRANCH   2   9
HETATM    9  N11 UNL     1     -33.036   5.518   1.564  1.00 20.00     0.098 N 
HETATM   10  C4  UNL     1     -31.579   5.401   1.504  1.00 20.00     0.311 C 
HETATM   11  C5  UNL     1     -33.622   5.297   0.244  1.00 20.00     0.311 C 
ENDBRANCH   2   9
TORSDOF 4
ENDMDL
MODEL 4
REMARK VINA RESULT:      -0.6      1.730      4.230
REMARK  4 active torsions:
REMARK  status: ('A' for Active; 'I' for Inactive)
REMARK    1  A    between atoms: C6_6  and  C7_7 
REMARK    2  A    between atoms: C7_7  and  C9_9 
REMARK    3  A    between atoms: C8_8  and  C9_9 
REMARK    4  A    between atoms: C8_8  and  N11_11 
ROOT
HETATM    1  C1  UNL     1     -32.422   7.959   1.920  1.00 20.00     0.095 C 
HETATM    2  C8  UNL     1     -32.918   7.028   2.950  1.00 20.00     0.331 C 
HETATM    3  N10 UNL     1     -32.028   8.691   1.111  1.00 20.00    -0.195 NA
ENDROOT
BRANCH   2   4
HETATM    4  C9  UNL     1     -33.357   5.660   2.355  1.00 20.00     0.029 C 
HETATM    5  C3  UNL     1     -33.029   5.523   0.860  1.00 20.00     0.013 C 
BRANCH   4   6
HETATM    6  C7  UNL     1     -32.765   4.490   3.176  1.00 20.00     0.007 C 
BRANCH   6   7
HETATM    7  C6  UNL     1     -33.785   3.807   4.092  1.00 20.00    -0.004 C 
HETATM    8  C2  UNL     1     -33.131   2.730   4.945  1.00 20.00     0.005 C 
ENDBRANCH   6   7
ENDBRANCH   4   6
ENDBRANCH   2   4
BRANCH   2   9
HETATM    9  N11 UNL     1     -34.017   7.652   3.688  1.00 20.00     0.098 N 
HETATM   10  C4  UNL     1     -33.557   8.108   4.999  1.00 20.00     0.311 C 
HETATM   11  C5  UNL     1     -35.130   6.717   3.832  1.00 20.00     0.311 C 
ENDBRANCH   2   9
TORSDOF 4
ENDMDL
MODEL 5
REMARK VINA RESULT:      -0.3      1.237      2.600
REMARK  4 active torsions:
REMARK  status: ('A' for Active; 'I' for Inactive)
REMARK    1  A    between atoms: C6_6  and  C7_7 
REMARK    2  A    between atoms: C7_7  and  C9_9 
REMARK    3  A    between atoms: C8_8  and  C9_9 
REMARK    4  A    between atoms: C8_8  and  N11_11 
ROOT
HETATM    1  C1  UNL     1     -33.487   7.559   4.297  1.00 20.00     0.095 C 
HETATM    2  C8  UNL     1     -33.101   6.366   3.522  1.00 20.00     0.331 C 
HETATM    3  N10 UNL     1     -33.786   8.498   4.910  1.00 20.00    -0.195 NA
ENDROOT
BRANCH   2   4
HETATM    4  C9  UNL     1     -32.483   6.725   2.141  1.00 20.00     0.029 C 
HETATM    5  C3  UNL     1     -32.940   5.782   1.016  1.00 20.00     0.013 C 
BRANCH   4   6
HETATM    6  C7  UNL     1     -32.757   8.207   1.787  1.00 20.00     0.007 C 
BRANCH   6   7
HETATM    7  C6  UNL     1     -31.866   8.742   0.663  1.00 20.00    -0.004 C 
HETATM    8  C2  UNL     1     -32.494   9.950  -0.016  1.00 20.00     0.005 C 
ENDBRANCH   6   7
ENDBRANCH   4   6
ENDBRANCH   2   4
BRANCH   2   9
HETATM    9  N11 UNL     1     -34.263   5.489   3.360  1.00 20.00     0.098 N 
HETATM   10  C4  UNL     1     -35.463   6.133   3.892  1.00 20.00     0.311 C 
HETATM   11  C5  UNL     1     -34.031   4.209   4.025  1.00 20.00     0.311 C 
ENDBRANCH   2   9
TORSDOF 4
ENDMDL
MODEL 6
REMARK VINA RESULT:      -0.3      1.576      4.707
REMARK  4 active torsions:
REMARK  status: ('A' for Active; 'I' for Inactive)
REMARK    1  A    between atoms: C6_6  and  C7_7 
REMARK    2  A    between atoms: C7_7  and  C9_9 
REMARK    3  A    between atoms: C8_8  and  C9_9 
REMARK    4  A    between atoms: C8_8  and  N11_11 
ROOT
HETATM    1  C1  UNL     1     -33.685   7.664   3.648  1.00 20.00     0.095 C 
HETATM    2  C8  UNL     1     -33.369   7.245   2.271  1.00 20.00     0.331 C 
HETATM    3  N10 UNL     1     -33.939   7.995   4.731  1.00 20.00    -0.195 NA
ENDROOT
BRANCH   2   4
HETATM    4  C9  UNL     1     -33.268   5.701   2.125  1.00 20.00     0.029 C 
HETATM    5  C3  UNL     1     -32.263   5.264   1.047  1.00 20.00     0.013 C 
BRANCH   4   6
HETATM    6  C7  UNL     1     -32.958   5.041   3.490  1.00 20.00     0.007 C 
BRANCH   6   7
HETATM    7  C6  UNL     1     -33.949   3.939   3.876  1.00 20.00    -0.004 C 
HETATM    8  C2  UNL     1     -33.280   2.859   4.713  1.00 20.00     0.005 C 
ENDBRANCH   6   7
ENDBRANCH   4   6
ENDBRANCH   2   4
BRANCH   2   9
HETATM    9  N11 UNL     1     -32.130   7.892   1.834  1.00 20.00     0.098 N 
HETATM   10  C4  UNL     1     -31.410   8.440   2.982  1.00 20.00     0.311 C 
HETATM   11  C5  UNL     1     -32.419   8.943   0.861  1.00 20.00     0.311 C 
ENDBRANCH   2   9
TORSDOF 4
ENDMDL
MODEL 7
REMARK VINA RESULT:      -0.3      1.355      4.451
REMARK  4 active torsions:
REMARK  status: ('A' for Active; 'I' for Inactive)
REMARK    1  A    between atoms: C6_6  and  C7_7 
REMARK    2  A    between atoms: C7_7  and  C9_9 
REMARK    3  A    between atoms: C8_8  and  C9_9 
REMARK    4  A    between atoms: C8_8  and  N11_11 
ROOT
HETATM    1  C1  UNL     1     -33.113   5.712   1.584  1.00 20.00     0.095 C 
HETATM    2  C8  UNL     1     -32.994   6.287   2.936  1.00 20.00     0.331 C 
HETATM    3  N10 UNL     1     -33.203   5.257   0.520  1.00 20.00    -0.195 NA
ENDROOT
BRANCH   2   4
HETATM    4  C9  UNL     1     -34.120   5.801   3.892  1.00 20.00     0.029 C 
HETATM    5  C3  UNL     1     -35.469   6.489   3.628  1.00 20.00     0.013 C 
BRANCH   4   6
HETATM    6  C7  UNL     1     -34.250   4.260   3.847  1.00 20.00     0.007 C 
BRANCH   6   7
HETATM    7  C6  UNL     1     -33.477   3.548   4.961  1.00 20.00    -0.004 C 
HETATM    8  C2  UNL     1     -33.122   2.122   4.566  1.00 20.00     0.005 C 
ENDBRANCH   6   7
ENDBRANCH   4   6
ENDBRANCH   2   4
BRANCH   2   9
HETATM    9  N11 UNL     1     -32.979   7.748   2.848  1.00 20.00     0.098 N 
HETATM   10  C4  UNL     1     -32.027   8.188   1.829  1.00 20.00     0.311 C 
HETATM   11  C5  UNL     1     -32.648   8.334   4.145  1.00 20.00     0.311 C 
ENDBRANCH   2   9
TORSDOF 4
ENDMDL
MODEL 8
REMARK VINA RESULT:       0.3      1.185      2.451
REMARK  4 active torsions:
REMARK  status: ('A' for Active; 'I' for Inactive)
REMARK    1  A    between atoms: C6_6  and  C7_7 
REMARK    2  A    between atoms: C7_7  and  C9_9 
REMARK    3  A    between atoms: C8_8  and  C9_9 
REMARK    4  A    between atoms: C8_8  and  N11_11 
ROOT
HETATM    1  C1  UNL     1     -33.683   4.784   3.585  1.00 20.00     0.095 C 
HETATM    2  C8  UNL     1     -32.923   5.629   2.646  1.00 20.00     0.331 C 
HETATM    3  N10 UNL     1     -34.278   4.119   4.327  1.00 20.00    -0.195 NA
ENDROOT
BRANCH   2   4
HETATM    4  C9  UNL     1     -33.443   7.094   2.608  1.00 20.00     0.029 C 
HETATM    5  C3  UNL     1     -34.400   7.421   3.766  1.00 20.00     0.013 C 
BRANCH   4   6
HETATM    6  C7  UNL     1     -32.262   8.093   2.546  1.00 20.00     0.007 C 
BRANCH   6   7
HETATM    7  C6  UNL     1     -31.839   8.453   1.119  1.00 20.00    -0.004 C 
HETATM    8  C2  UNL     1     -32.549   9.705   0.629  1.00 20.00     0.005 C 
ENDBRANCH   6   7
ENDBRANCH   4   6
ENDBRANCH   2   4
BRANCH   2   9
HETATM    9  N11 UNL     1     -32.956   5.030   1.311  1.00 20.00     0.098 N 
HETATM   10  C4  UNL     1     -31.602   4.916   0.771  1.00 20.00     0.311 C 
HETATM   11  C5  UNL     1     -33.799   5.821   0.417  1.00 20.00     0.311 C 
ENDBRANCH   2   9
TORSDOF 4
ENDMDL
MODEL 9
REMARK VINA RESULT:       0.3      1.544      3.419
REMARK  4 active torsions:
REMARK  status: ('A' for Active; 'I' for Inactive)
REMARK    1  A    between atoms: C6_6  and  C7_7 
REMARK    2  A    between atoms: C7_7  and  C9_9 
REMARK    3  A    between atoms: C8_8  and  C9_9 
REMARK    4  A    between atoms: C8_8  and  N11_11 
ROOT
HETATM    1  C1  UNL     1     -33.499   7.531   4.268  1.00 20.00     0.095 C 
HETATM    2  C8  UNL     1     -33.298   6.414   3.327  1.00 20.00     0.331 C 
HETATM    3  N10 UNL     1     -33.652   8.410   5.011  1.00 20.00    -0.195 NA
ENDROOT
BRANCH   2   4
HETATM    4  C9  UNL     1     -33.108   6.897   1.861  1.00 20.00     0.029 C 
HETATM    5  C3  UNL     1     -32.007   7.960   1.718  1.00 20.00     0.013 C 
BRANCH   4   6
HETATM    6  C7  UNL     1     -32.865   5.696   0.916  1.00 20.00     0.007 C 
BRANCH   6   7
HETATM    7  C6  UNL     1     -31.557   4.951   1.197  1.00 20.00    -0.004 C 
HETATM    8  C2  UNL     1     -31.202   4.004   0.061  1.00 20.00     0.005 C 
ENDBRANCH   6   7
ENDBRANCH   4   6
ENDBRANCH   2   4
BRANCH   2   9
HETATM    9  N11 UNL     1     -34.422   5.481   3.427  1.00 20.00     0.098 N 
HETATM   10  C4  UNL     1     -35.553   6.117   4.102  1.00 20.00     0.311 C 
HETATM   11  C5  UNL     1     -34.017   4.270   4.137  1.00 20.00     0.311 C 
ENDBRANCH   2   9
TORSDOF 4
ENDMDL
