MODEL 1
REMARK VINA RESULT:      -0.6      0.000      0.000
REMARK  3 active torsions:
REMARK  status: ('A' for Active; 'I' for Inactive)
REMARK    1  A    between atoms: C4_4  and  C10_10 
REMARK    2  A    between atoms: C5_5  and  C11_11 
REMARK    3  A    between atoms: C6_6  and  C12_12 
ROOT
HETATM    1  C7  UNL     1     -32.918   8.013   3.682  1.00 20.00     0.009 C 
HETATM    2  C8  UNL     1     -34.190   7.199   3.430  1.00 20.00     0.010 C 
HETATM    3  C9  UNL     1     -31.823   6.910   1.676  1.00 20.00     0.017 C 
HETATM    4  C10 UNL     1     -32.085   8.234   2.414  1.00 20.00     0.008 C 
HETATM    5  C11 UNL     1     -33.911   5.856   2.735  1.00 20.00     0.015 C 
HETATM    6  C12 UNL     1     -33.101   6.083   1.437  1.00 20.00     0.015 C 
ENDROOT
BRANCH   4   7
HETATM    7  C4  UNL     1     -32.718   9.263   1.522  1.00 20.00    -0.032 C 
HETATM    8  C1  UNL     1     -32.267   9.575   0.302  1.00 20.00     0.007 C 
ENDBRANCH   4   7
BRANCH   6   9
HETATM    9  C6  UNL     1     -32.787   4.796   0.728  1.00 20.00    -0.031 C 
HETATM   10  C3  UNL     1     -31.551   4.405   0.400  1.00 20.00     0.007 C 
ENDBRANCH   6   9
BRANCH   5  11
HETATM   11  C5  UNL     1     -33.267   4.896   3.699  1.00 20.00    -0.031 C 
HETATM   12  C2  UNL     1     -33.886   3.831   4.219  1.00 20.00     0.007 C 
ENDBRANCH   5  11
TORSDOF 3
ENDMDL
MODEL 2
REMARK VINA RESULT:       0.0      0.821      3.872
REMARK  3 active torsions:
REMARK  status: ('A' for Active; 'I' for Inactive)
REMARK    1  A    between atoms: C4_4  and  C10_10 
REMARK    2  A    between atoms: C5_5  and  C11_11 
REMARK    3  A    between atoms: C6_6  and  C12_12 
ROOT
HETATM    1  C7  UNL     1     -34.524   7.295   3.794  1.00 20.00     0.009 C 
HETATM    2  C8  UNL     1     -33.066   7.761   3.823  1.00 20.00     0.010 C 
HETATM    3  C9  UNL     1     -33.911   5.507   2.100  1.00 20.00     0.017 C 
HETATM    4  C10 UNL     1     -34.676   5.821   3.397  1.00 20.00     0.008 C 
HETATM    5  C11 UNL     1     -32.326   7.486   2.504  1.00 20.00     0.015 C 
HETATM    6  C12 UNL     1     -32.449   5.991   2.122  1.00 20.00     0.015 C 
ENDROOT
BRANCH   4   7
HETATM    7  C4  UNL     1     -34.275   4.913   4.524  1.00 20.00    -0.032 C 
HETATM    8  C1  UNL     1     -33.820   3.667   4.355  1.00 20.00     0.007 C 
ENDBRANCH   4   7
BRANCH   6   9
HETATM    9  C6  UNL     1     -31.754   5.674   0.829  1.00 20.00    -0.031 C 
HETATM   10  C3  UNL     1     -31.676   4.447   0.303  1.00 20.00     0.007 C 
ENDBRANCH   6   9
BRANCH   5  11
HETATM   11  C5  UNL     1     -32.799   8.432   1.434  1.00 20.00    -0.031 C 
HETATM   12  C2  UNL     1     -32.002   9.287   0.785  1.00 20.00     0.007 C 
ENDBRANCH   5  11
TORSDOF 3
ENDMDL
MODEL 3
REMARK VINA RESULT:       1.2      1.155      3.308
REMARK  3 active torsions:
REMARK  status: ('A' for Active; 'I' for Inactive)
REMARK    1  A    between atoms: C4_4  and  C10_10 
REMARK    2  A    between atoms: C5_5  and  C11_11 
REMARK    3  A    between atoms: C6_6  and  C12_12 
ROOT
HETATM    1  C7  UNL     1     -32.969   8.076   1.997  1.00 20.00     0.009 C 
HETATM    2  C8  UNL     1     -31.967   6.942   1.766  1.00 20.00     0.010 C 
HETATM    3  C9  UNL     1     -34.289   6.581   3.565  1.00 20.00     0.017 C 
HETATM    4  C10 UNL     1     -33.685   7.979   3.349  1.00 20.00     0.008 C 
HETATM    5  C11 UNL     1     -32.594   5.549   1.938  1.00 20.00     0.015 C 
HETATM    6  C12 UNL     1     -33.286   5.439   3.317  1.00 20.00     0.015 C 
ENDROOT
BRANCH   4   7
HETATM    7  C4  UNL     1     -32.776   8.383   4.474  1.00 20.00    -0.032 C 
HETATM    8  C1  UNL     1     -33.134   8.381   5.763  1.00 20.00     0.007 C 
ENDBRANCH   4   7
BRANCH   6   9
HETATM    9  C6  UNL     1     -33.930   4.098   3.526  1.00 20.00    -0.031 C 
HETATM   10  C3  UNL     1     -33.535   3.214   4.448  1.00 20.00     0.007 C 
ENDBRANCH   6   9
BRANCH   5  11
HETATM   11  C5  UNL     1     -33.495   5.237   0.774  1.00 20.00    -0.031 C 
HETATM   12  C2  UNL     1     -33.260   4.265  -0.114  1.00 20.00     0.007 C 
ENDBRANCH   5  11
TORSDOF 3
ENDMDL
MODEL 4
REMARK VINA RESULT:       1.4      1.248      3.737
REMARK  3 active torsions:
REMARK  status: ('A' for Active; 'I' for Inactive)
REMARK    1  A    between atoms: C4_4  and  C10_10 
REMARK    2  A    between atoms: C5_5  and  C11_11 
REMARK    3  A    between atoms: C6_6  and  C12_12 
ROOT
HETATM    1  C7  UNL     1     -31.640   6.886   1.662  1.00 20.00     0.009 C 
HETATM    2  C8  UNL     1     -32.599   8.057   1.887  1.00 20.00     0.010 C 
HETATM    3  C9  UNL     1     -33.327   5.310   2.717  1.00 20.00     0.017 C 
HETATM    4  C10 UNL     1     -32.358   5.536   1.543  1.00 20.00     0.008 C 
HETATM    5  C11 UNL     1     -33.530   7.842   3.092  1.00 20.00     0.015 C 
HETATM    6  C12 UNL     1     -34.281   6.496   2.955  1.00 20.00     0.015 C 
ENDROOT
BRANCH   4   7
HETATM    7  C4  UNL     1     -33.039   5.399   0.213  1.00 20.00    -0.032 C 
HETATM    8  C1  UNL     1     -33.783   4.346  -0.143  1.00 20.00     0.007 C 
ENDBRANCH   4   7
BRANCH   6   9
HETATM    9  C6  UNL     1     -35.193   6.231   4.119  1.00 20.00    -0.031 C 
HETATM   10  C3  UNL     1     -35.347   5.031   4.689  1.00 20.00     0.007 C 
ENDBRANCH   6   9
BRANCH   5  11
HETATM   11  C5  UNL     1     -32.760   7.985   4.377  1.00 20.00    -0.031 C 
HETATM   12  C2  UNL     1     -33.282   8.461   5.512  1.00 20.00     0.007 C 
ENDBRANCH   5  11
TORSDOF 3
ENDMDL
MODEL 5
REMARK VINA RESULT:       1.7      1.027      3.620
REMARK  3 active torsions:
REMARK  status: ('A' for Active; 'I' for Inactive)
REMARK    1  A    between atoms: C4_4  and  C10_10 
REMARK    2  A    between atoms: C5_5  and  C11_11 
REMARK    3  A    between atoms: C6_6  and  C12_12 
ROOT
HETATM    1  C7  UNL     1     -33.344   5.343   3.342  1.00 20.00     0.009 C 
HETATM    2  C8  UNL     1     -33.674   5.276   1.849  1.00 20.00     0.010 C 
HETATM    3  C9  UNL     1     -32.488   7.714   3.038  1.00 20.00     0.017 C 
HETATM    4  C10 UNL     1     -33.354   6.774   3.895  1.00 20.00     0.008 C 
HETATM    5  C11 UNL     1     -32.771   6.183   0.997  1.00 20.00     0.015 C 
HETATM    6  C12 UNL     1     -32.809   7.634   1.534  1.00 20.00     0.015 C 
ENDROOT
BRANCH   4   7
HETATM    7  C4  UNL     1     -34.757   7.284   4.053  1.00 20.00    -0.032 C 
HETATM    8  C1  UNL     1     -35.847   6.515   3.968  1.00 20.00     0.007 C 
ENDBRANCH   4   7
BRANCH   6   9
HETATM    9  C6  UNL     1     -31.926   8.557   0.744  1.00 20.00    -0.031 C 
HETATM   10  C3  UNL     1     -32.326   9.735   0.253  1.00 20.00     0.007 C 
ENDBRANCH   6   9
BRANCH   5  11
HETATM   11  C5  UNL     1     -31.386   5.600   0.905  1.00 20.00    -0.031 C 
HETATM   12  C2  UNL     1     -31.126   4.350   0.507  1.00 20.00     0.007 C 
ENDBRANCH   5  11
TORSDOF 3
ENDMDL
MODEL 6
REMARK VINA RESULT:       2.1      1.379      3.409
REMARK  3 active torsions:
REMARK  status: ('A' for Active; 'I' for Inactive)
REMARK    1  A    between atoms: C4_4  and  C10_10 
REMARK    2  A    between atoms: C5_5  and  C11_11 
REMARK    3  A    between atoms: C6_6  and  C12_12 
ROOT
HETATM    1  C7  UNL     1     -32.562   7.427   1.835  1.00 20.00     0.009 C 
HETATM    2  C8  UNL     1     -33.921   7.739   2.468  1.00 20.00     0.010 C 
HETATM    3  C9  UNL     1     -32.739   5.031   2.654  1.00 20.00     0.017 C 
HETATM    4  C10 UNL     1     -32.397   5.947   1.466  1.00 20.00     0.008 C 
HETATM    5  C11 UNL     1     -34.230   6.850   3.683  1.00 20.00     0.015 C 
HETATM    6  C12 UNL     1     -34.099   5.356   3.302  1.00 20.00     0.015 C 
ENDROOT
BRANCH   4   7
HETATM    7  C4  UNL     1     -33.191   5.603   0.239  1.00 20.00    -0.032 C 
HETATM    8  C1  UNL     1     -33.497   4.354  -0.128  1.00 20.00     0.007 C 
ENDBRANCH   4   7
BRANCH   6   9
HETATM    9  C6  UNL     1     -34.375   4.444   4.463  1.00 20.00    -0.031 C 
HETATM   10  C3  UNL     1     -33.655   3.354   4.746  1.00 20.00     0.007 C 
ENDBRANCH   6   9
BRANCH   5  11
HETATM   11  C5  UNL     1     -33.382   7.259   4.858  1.00 20.00    -0.031 C 
HETATM   12  C2  UNL     1     -33.091   8.527   5.164  1.00 20.00     0.007 C 
ENDBRANCH   5  11
TORSDOF 3
ENDMDL
