MODEL 1
REMARK VINA RESULT:      -0.2      0.000      0.000
REMARK  3 active torsions:
REMARK  status: ('A' for Active; 'I' for Inactive)
REMARK    1  A    between atoms: C1_1  and  C7_7 
REMARK    2  A    between atoms: C5_5  and  N8_8 
REMARK    3  A    between atoms: C7_7  and  N8_8 
ROOT
HETATM    1  C2  UNL     1     -32.645   5.680   1.926  1.00 20.00     0.047 C 
HETATM    2  C3  UNL     1     -32.068   6.654   0.911  1.00 20.00     0.076 C 
HETATM    3  C4  UNL     1     -32.913   7.722   3.229  1.00 20.00     0.109 C 
HETATM    4  C5  UNL     1     -33.651   6.476   2.755  1.00 20.00     0.233 C 
HETATM    5  S10 UNL     1     -31.899   8.224   1.808  1.00 20.00    -0.167 SA
ENDROOT
BRANCH   4   6
HETATM    6  N8  UNL     1     -34.165   5.705   3.882  1.00 20.00     0.096 N 
HETATM    7  C6  UNL     1     -35.543   6.093   4.188  1.00 20.00     0.310 C 
BRANCH   6   8
HETATM    8  C7  UNL     1     -34.094   4.270   3.600  1.00 20.00     0.341 C 
BRANCH   8   9
HETATM    9  C1  UNL     1     -33.532   3.576   4.808  1.00 20.00     0.261 C 
HETATM   10  O9  UNL     1     -33.109   2.423   4.772  1.00 20.00    -0.305 OA
ENDBRANCH   8   9
ENDBRANCH   6   8
ENDBRANCH   4   6
TORSDOF 3
ENDMDL
MODEL 2
REMARK VINA RESULT:      -0.2      3.725      5.210
REMARK  3 active torsions:
REMARK  status: ('A' for Active; 'I' for Inactive)
REMARK    1  A    between atoms: C1_1  and  C7_7 
REMARK    2  A    between atoms: C5_5  and  N8_8 
REMARK    3  A    between atoms: C7_7  and  N8_8 
ROOT
HETATM    1  C2  UNL     1     -33.929   7.601   3.894  1.00 20.00     0.047 C 
HETATM    2  C3  UNL     1     -34.952   6.513   4.179  1.00 20.00     0.076 C 
HETATM    3  C4  UNL     1     -32.973   5.860   2.481  1.00 20.00     0.109 C 
HETATM    4  C5  UNL     1     -33.395   7.324   2.489  1.00 20.00     0.233 C 
HETATM    5  S10 UNL     1     -34.256   5.006   3.443  1.00 20.00    -0.167 SA
ENDROOT
BRANCH   4   6
HETATM    6  N8  UNL     1     -32.279   8.198   2.145  1.00 20.00     0.096 N 
HETATM    7  C6  UNL     1     -31.348   7.517   1.242  1.00 20.00     0.310 C 
BRANCH   6   8
HETATM    8  C7  UNL     1     -32.764   9.437   1.533  1.00 20.00     0.341 C 
BRANCH   8   9
HETATM    9  C1  UNL     1     -32.262   9.495   0.118  1.00 20.00     0.261 C 
HETATM   10  O9  UNL     1     -32.949   9.913  -0.810  1.00 20.00    -0.305 OA
ENDBRANCH   8   9
ENDBRANCH   6   8
ENDBRANCH   4   6
TORSDOF 3
ENDMDL
MODEL 3
REMARK VINA RESULT:       0.3      3.718      5.025
REMARK  3 active torsions:
REMARK  status: ('A' for Active; 'I' for Inactive)
REMARK    1  A    between atoms: C1_1  and  C7_7 
REMARK    2  A    between atoms: C5_5  and  N8_8 
REMARK    3  A    between atoms: C7_7  and  N8_8 
ROOT
HETATM    1  C2  UNL     1     -33.138   6.037   2.179  1.00 20.00     0.047 C 
HETATM    2  C3  UNL     1     -34.004   5.216   3.120  1.00 20.00     0.076 C 
HETATM    3  C4  UNL     1     -33.995   7.872   3.537  1.00 20.00     0.109 C 
HETATM    4  C5  UNL     1     -32.714   7.277   2.965  1.00 20.00     0.233 C 
HETATM    5  S10 UNL     1     -34.981   6.433   4.047  1.00 20.00    -0.167 SA
ENDROOT
BRANCH   4   6
HETATM    6  N8  UNL     1     -32.011   8.242   2.128  1.00 20.00     0.096 N 
HETATM    7  C6  UNL     1     -31.247   7.559   1.080  1.00 20.00     0.310 C 
BRANCH   6   8
HETATM    8  C7  UNL     1     -32.953   9.191   1.531  1.00 20.00     0.341 C 
BRANCH   8   9
HETATM    9  C1  UNL     1     -32.344   9.736   0.271  1.00 20.00     0.261 C 
HETATM   10  O9  UNL     1     -32.995   9.910  -0.756  1.00 20.00    -0.305 OA
ENDBRANCH   8   9
ENDBRANCH   6   8
ENDBRANCH   4   6
TORSDOF 3
ENDMDL
MODEL 4
REMARK VINA RESULT:       0.4      3.702      4.994
REMARK  3 active torsions:
REMARK  status: ('A' for Active; 'I' for Inactive)
REMARK    1  A    between atoms: C1_1  and  C7_7 
REMARK    2  A    between atoms: C5_5  and  N8_8 
REMARK    3  A    between atoms: C7_7  and  N8_8 
ROOT
HETATM    1  C2  UNL     1     -32.865   7.865   3.931  1.00 20.00     0.047 C 
HETATM    2  C3  UNL     1     -34.213   7.837   4.635  1.00 20.00     0.076 C 
HETATM    3  C4  UNL     1     -33.888   6.074   2.632  1.00 20.00     0.109 C 
HETATM    4  C5  UNL     1     -33.122   7.385   2.504  1.00 20.00     0.233 C 
HETATM    5  S10 UNL     1     -35.042   6.349   4.009  1.00 20.00    -0.167 SA
ENDROOT
BRANCH   4   6
HETATM    6  N8  UNL     1     -31.883   7.203   1.756  1.00 20.00     0.096 N 
HETATM    7  C6  UNL     1     -31.713   5.799   1.371  1.00 20.00     0.310 C 
BRANCH   6   8
HETATM    8  C7  UNL     1     -31.866   8.059   0.568  1.00 20.00     0.341 C 
BRANCH   8   9
HETATM    9  C1  UNL     1     -32.311   9.436   0.970  1.00 20.00     0.261 C 
HETATM   10  O9  UNL     1     -32.637  10.291   0.150  1.00 20.00    -0.305 OA
ENDBRANCH   8   9
ENDBRANCH   6   8
ENDBRANCH   4   6
TORSDOF 3
ENDMDL
MODEL 5
REMARK VINA RESULT:       0.6      1.295      1.615
REMARK  3 active torsions:
REMARK  status: ('A' for Active; 'I' for Inactive)
REMARK    1  A    between atoms: C1_1  and  C7_7 
REMARK    2  A    between atoms: C5_5  and  N8_8 
REMARK    3  A    between atoms: C7_7  and  N8_8 
ROOT
HETATM    1  C2  UNL     1     -32.810   5.815   2.036  1.00 20.00     0.047 C 
HETATM    2  C3  UNL     1     -32.198   6.256   0.716  1.00 20.00     0.076 C 
HETATM    3  C4  UNL     1     -32.431   8.155   2.605  1.00 20.00     0.109 C 
HETATM    4  C5  UNL     1     -33.483   7.053   2.627  1.00 20.00     0.233 C 
HETATM    5  S10 UNL     1     -31.561   7.928   1.026  1.00 20.00    -0.167 SA
ENDROOT
BRANCH   4   6
HETATM    6  N8  UNL     1     -33.973   6.817   3.980  1.00 20.00     0.096 N 
HETATM    7  C6  UNL     1     -33.925   8.050   4.770  1.00 20.00     0.310 C 
BRANCH   6   8
HETATM    8  C7  UNL     1     -35.338   6.287   3.950  1.00 20.00     0.341 C 
BRANCH   8   9
HETATM    9  C1  UNL     1     -35.342   4.947   4.628  1.00 20.00     0.261 C 
HETATM   10  O9  UNL     1     -34.486   4.093   4.409  1.00 20.00    -0.305 OA
ENDBRANCH   8   9
ENDBRANCH   6   8
ENDBRANCH   4   6
TORSDOF 3
ENDMDL
MODEL 6
REMARK VINA RESULT:       1.1      1.982      2.364
REMARK  3 active torsions:
REMARK  status: ('A' for Active; 'I' for Inactive)
REMARK    1  A    between atoms: C1_1  and  C7_7 
REMARK    2  A    between atoms: C5_5  and  N8_8 
REMARK    3  A    between atoms: C7_7  and  N8_8 
ROOT
HETATM    1  C2  UNL     1     -31.474   7.663   1.488  1.00 20.00     0.047 C 
HETATM    2  C3  UNL     1     -31.367   8.495   0.220  1.00 20.00     0.076 C 
HETATM    3  C4  UNL     1     -33.250   9.260   1.979  1.00 20.00     0.109 C 
HETATM    4  C5  UNL     1     -32.928   7.770   1.944  1.00 20.00     0.233 C 
HETATM    5  S10 UNL     1     -32.421   9.943   0.513  1.00 20.00    -0.167 SA
ENDROOT
BRANCH   4   6
HETATM    6  N8  UNL     1     -33.141   7.153   3.248  1.00 20.00     0.096 N 
HETATM    7  C6  UNL     1     -33.838   8.075   4.149  1.00 20.00     0.310 C 
BRANCH   6   8
HETATM    8  C7  UNL     1     -33.898   5.907   3.113  1.00 20.00     0.341 C 
BRANCH   8   9
HETATM    9  C1  UNL     1     -35.069   5.959   4.052  1.00 20.00     0.261 C 
HETATM   10  O9  UNL     1     -35.517   4.959   4.606  1.00 20.00    -0.305 OA
ENDBRANCH   8   9
ENDBRANCH   6   8
ENDBRANCH   4   6
TORSDOF 3
ENDMDL
MODEL 7
REMARK VINA RESULT:       1.3      3.673      5.109
REMARK  3 active torsions:
REMARK  status: ('A' for Active; 'I' for Inactive)
REMARK    1  A    between atoms: C1_1  and  C7_7 
REMARK    2  A    between atoms: C5_5  and  N8_8 
REMARK    3  A    between atoms: C7_7  and  N8_8 
ROOT
HETATM    1  C2  UNL     1     -33.688   7.466   3.757  1.00 20.00     0.047 C 
HETATM    2  C3  UNL     1     -34.470   6.166   3.656  1.00 20.00     0.076 C 
HETATM    3  C4  UNL     1     -32.460   6.478   1.897  1.00 20.00     0.109 C 
HETATM    4  C5  UNL     1     -33.159   7.754   2.354  1.00 20.00     0.233 C 
HETATM    5  S10 UNL     1     -33.520   5.133   2.504  1.00 20.00    -0.167 SA
ENDROOT
BRANCH   4   6
HETATM    6  N8  UNL     1     -32.246   8.891   2.335  1.00 20.00     0.096 N 
HETATM    7  C6  UNL     1     -31.201   8.733   3.350  1.00 20.00     0.310 C 
BRANCH   6   8
HETATM    8  C7  UNL     1     -31.645   9.049   1.009  1.00 20.00     0.341 C 
BRANCH   8   9
HETATM    9  C1  UNL     1     -32.560   9.894   0.170  1.00 20.00     0.261 C 
HETATM   10  O9  UNL     1     -33.122   9.463  -0.834  1.00 20.00    -0.305 OA
ENDBRANCH   8   9
ENDBRANCH   6   8
ENDBRANCH   4   6
TORSDOF 3
ENDMDL
MODEL 8
REMARK VINA RESULT:       1.3      3.001      4.469
REMARK  3 active torsions:
REMARK  status: ('A' for Active; 'I' for Inactive)
REMARK    1  A    between atoms: C1_1  and  C7_7 
REMARK    2  A    between atoms: C5_5  and  N8_8 
REMARK    3  A    between atoms: C7_7  and  N8_8 
ROOT
HETATM    1  C2  UNL     1     -34.234   6.936   3.456  1.00 20.00     0.047 C 
HETATM    2  C3  UNL     1     -35.397   6.329   4.224  1.00 20.00     0.076 C 
HETATM    3  C4  UNL     1     -33.463   4.623   3.465  1.00 20.00     0.109 C 
HETATM    4  C5  UNL     1     -33.693   5.826   2.557  1.00 20.00     0.233 C 
HETATM    5  S10 UNL     1     -34.877   4.632   4.606  1.00 20.00    -0.167 SA
ENDROOT
BRANCH   4   6
HETATM    6  N8  UNL     1     -32.463   6.219   1.879  1.00 20.00     0.096 N 
HETATM    7  C6  UNL     1     -32.012   5.162   0.971  1.00 20.00     0.310 C 
BRANCH   6   8
HETATM    8  C7  UNL     1     -32.656   7.470   1.144  1.00 20.00     0.341 C 
BRANCH   8   9
HETATM    9  C1  UNL     1     -31.650   8.471   1.636  1.00 20.00     0.261 C 
HETATM   10  O9  UNL     1     -31.279   8.514   2.806  1.00 20.00    -0.305 OA
ENDBRANCH   8   9
ENDBRANCH   6   8
ENDBRANCH   4   6
TORSDOF 3
ENDMDL
MODEL 9
REMARK VINA RESULT:       1.8      2.759      3.966
REMARK  3 active torsions:
REMARK  status: ('A' for Active; 'I' for Inactive)
REMARK    1  A    between atoms: C1_1  and  C7_7 
REMARK    2  A    between atoms: C5_5  and  N8_8 
REMARK    3  A    between atoms: C7_7  and  N8_8 
ROOT
HETATM    1  C2  UNL     1     -34.262   7.125   3.432  1.00 20.00     0.047 C 
HETATM    2  C3  UNL     1     -35.310   6.427   4.284  1.00 20.00     0.076 C 
HETATM    3  C4  UNL     1     -33.440   4.844   3.177  1.00 20.00     0.109 C 
HETATM    4  C5  UNL     1     -33.807   6.099   2.395  1.00 20.00     0.233 C 
HETATM    5  S10 UNL     1     -34.707   4.725   4.474  1.00 20.00    -0.167 SA
ENDROOT
BRANCH   4   6
HETATM    6  N8  UNL     1     -32.676   6.580   1.608  1.00 20.00     0.096 N 
HETATM    7  C6  UNL     1     -32.125   7.806   2.191  1.00 20.00     0.310 C 
BRANCH   6   8
HETATM    8  C7  UNL     1     -31.638   5.553   1.515  1.00 20.00     0.341 C 
BRANCH   8   9
HETATM    9  C1  UNL     1     -31.983   4.629   0.382  1.00 20.00     0.261 C 
HETATM   10  O9  UNL     1     -31.150   3.908  -0.161  1.00 20.00    -0.305 OA
ENDBRANCH   8   9
ENDBRANCH   6   8
ENDBRANCH   4   6
TORSDOF 3
ENDMDL
