MODEL 1
REMARK VINA RESULT:      -2.7      0.000      0.000
REMARK  3 active torsions:
REMARK  status: ('A' for Active; 'I' for Inactive)
REMARK    1  A    between atoms: C1_1  and  C3_3 
REMARK    2  A    between atoms: C1_1  and  C4_4 
REMARK    3  A    between atoms: C3_3  and  C5_5 
ROOT
HETATM    1  C1  UNL     1     -33.015   7.157   2.498  1.00 20.00     0.140 C 
HETATM    2  O6  UNL     1     -33.120   6.098   1.881  1.00 20.00    -0.297 OA
ENDROOT
BRANCH   1   3
HETATM    3  C3  UNL     1     -32.005   8.224   2.100  1.00 20.00     0.079 C 
BRANCH   3   4
HETATM    4  C5  UNL     1     -32.053   8.602   0.621  1.00 20.00     0.003 C 
HETATM    5  C2  UNL     1     -32.505  10.039   0.398  1.00 20.00     0.005 C 
ENDBRANCH   3   4
ENDBRANCH   1   3
BRANCH   1   6
HETATM    6  C4  UNL     1     -33.842   7.482   3.724  1.00 20.00     0.192 C 
HETATM    7 CL7  UNL     1     -35.188   6.345   3.894  1.00 20.00    -0.123 Cl
ENDBRANCH   1   6
TORSDOF 3
ENDMDL
MODEL 2
REMARK VINA RESULT:      -2.5      2.232      3.898
REMARK  3 active torsions:
REMARK  status: ('A' for Active; 'I' for Inactive)
REMARK    1  A    between atoms: C1_1  and  C3_3 
REMARK    2  A    between atoms: C1_1  and  C4_4 
REMARK    3  A    between atoms: C3_3  and  C5_5 
ROOT
HETATM    1  C1  UNL     1     -32.915   7.069   2.385  1.00 20.00     0.140 C 
HETATM    2  O6  UNL     1     -33.110   6.098   1.655  1.00 20.00    -0.297 OA
ENDROOT
BRANCH   1   3
HETATM    3  C3  UNL     1     -33.726   7.299   3.653  1.00 20.00     0.079 C 
BRANCH   3   4
HETATM    4  C5  UNL     1     -35.071   6.577   3.669  1.00 20.00     0.003 C 
HETATM    5  C2  UNL     1     -34.997   5.217   4.350  1.00 20.00     0.005 C 
ENDBRANCH   3   4
ENDBRANCH   1   3
BRANCH   1   6
HETATM    6  C4  UNL     1     -31.888   8.137   2.077  1.00 20.00     0.192 C 
HETATM    7 CL7  UNL     1     -32.425   9.157   0.734  1.00 20.00    -0.123 Cl
ENDBRANCH   1   6
TORSDOF 3
ENDMDL
MODEL 3
REMARK VINA RESULT:      -2.4      3.033      4.684
REMARK  3 active torsions:
REMARK  status: ('A' for Active; 'I' for Inactive)
REMARK    1  A    between atoms: C1_1  and  C3_3 
REMARK    2  A    between atoms: C1_1  and  C4_4 
REMARK    3  A    between atoms: C3_3  and  C5_5 
ROOT
HETATM    1  C1  UNL     1     -34.055   6.407   3.522  1.00 20.00     0.140 C 
HETATM    2  O6  UNL     1     -34.262   7.516   4.012  1.00 20.00    -0.297 OA
ENDROOT
BRANCH   1   3
HETATM    3  C3  UNL     1     -34.581   5.131   4.167  1.00 20.00     0.079 C 
BRANCH   3   4
HETATM    4  C5  UNL     1     -33.826   3.870   3.754  1.00 20.00     0.003 C 
HETATM    5  C2  UNL     1     -33.229   3.129   4.942  1.00 20.00     0.005 C 
ENDBRANCH   3   4
ENDBRANCH   1   3
BRANCH   1   6
HETATM    6  C4  UNL     1     -33.234   6.200   2.268  1.00 20.00     0.192 C 
HETATM    7 CL7  UNL     1     -32.251   7.629   1.918  1.00 20.00    -0.123 Cl
ENDBRANCH   1   6
TORSDOF 3
ENDMDL
MODEL 4
REMARK VINA RESULT:      -2.3      2.580      3.976
REMARK  3 active torsions:
REMARK  status: ('A' for Active; 'I' for Inactive)
REMARK    1  A    between atoms: C1_1  and  C3_3 
REMARK    2  A    between atoms: C1_1  and  C4_4 
REMARK    3  A    between atoms: C3_3  and  C5_5 
ROOT
HETATM    1  C1  UNL     1     -32.191   8.079   2.256  1.00 20.00     0.140 C 
HETATM    2  O6  UNL     1     -31.527   8.562   3.173  1.00 20.00    -0.297 OA
ENDROOT
BRANCH   1   3
HETATM    3  C3  UNL     1     -33.272   7.037   2.507  1.00 20.00     0.079 C 
BRANCH   3   4
HETATM    4  C5  UNL     1     -34.106   7.297   3.760  1.00 20.00     0.003 C 
HETATM    5  C2  UNL     1     -35.195   6.253   3.966  1.00 20.00     0.005 C 
ENDBRANCH   3   4
ENDBRANCH   1   3
BRANCH   1   6
HETATM    6  C4  UNL     1     -31.973   8.441   0.803  1.00 20.00     0.192 C 
HETATM    7 CL7  UNL     1     -32.556  10.078   0.467  1.00 20.00    -0.123 Cl
ENDBRANCH   1   6
TORSDOF 3
ENDMDL
MODEL 5
REMARK VINA RESULT:      -2.3      1.709      2.097
REMARK  3 active torsions:
REMARK  status: ('A' for Active; 'I' for Inactive)
REMARK    1  A    between atoms: C1_1  and  C3_3 
REMARK    2  A    between atoms: C1_1  and  C4_4 
REMARK    3  A    between atoms: C3_3  and  C5_5 
ROOT
HETATM    1  C1  UNL     1     -34.038   6.942   3.607  1.00 20.00     0.140 C 
HETATM    2  O6  UNL     1     -33.895   7.943   4.308  1.00 20.00    -0.297 OA
ENDROOT
BRANCH   1   3
HETATM    3  C3  UNL     1     -33.251   6.740   2.320  1.00 20.00     0.079 C 
BRANCH   3   4
HETATM    4  C5  UNL     1     -32.068   7.693   2.160  1.00 20.00     0.003 C 
HETATM    5  C2  UNL     1     -32.301   8.740   1.080  1.00 20.00     0.005 C 
ENDBRANCH   3   4
ENDBRANCH   1   3
BRANCH   1   6
HETATM    6  C4  UNL     1     -35.029   5.845   3.932  1.00 20.00     0.192 C 
HETATM    7 CL7  UNL     1     -34.205   4.292   4.134  1.00 20.00    -0.123 Cl
ENDBRANCH   1   6
TORSDOF 3
ENDMDL
MODEL 6
REMARK VINA RESULT:      -2.1      2.219      2.752
REMARK  3 active torsions:
REMARK  status: ('A' for Active; 'I' for Inactive)
REMARK    1  A    between atoms: C1_1  and  C3_3 
REMARK    2  A    between atoms: C1_1  and  C4_4 
REMARK    3  A    between atoms: C3_3  and  C5_5 
ROOT
HETATM    1  C1  UNL     1     -34.418   5.874   3.716  1.00 20.00     0.140 C 
HETATM    2  O6  UNL     1     -35.489   5.929   4.320  1.00 20.00    -0.297 OA
ENDROOT
BRANCH   1   3
HETATM    3  C3  UNL     1     -33.677   7.130   3.276  1.00 20.00     0.079 C 
BRANCH   3   4
HETATM    4  C5  UNL     1     -32.810   6.935   2.035  1.00 20.00     0.003 C 
HETATM    5  C2  UNL     1     -31.933   8.143   1.738  1.00 20.00     0.005 C 
ENDBRANCH   3   4
ENDBRANCH   1   3
BRANCH   1   6
HETATM    6  C4  UNL     1     -33.761   4.569   3.322  1.00 20.00     0.192 C 
HETATM    7 CL7  UNL     1     -33.684   3.462   4.701  1.00 20.00    -0.123 Cl
ENDBRANCH   1   6
TORSDOF 3
ENDMDL
MODEL 7
REMARK VINA RESULT:      -2.1      2.599      3.955
REMARK  3 active torsions:
REMARK  status: ('A' for Active; 'I' for Inactive)
REMARK    1  A    between atoms: C1_1  and  C3_3 
REMARK    2  A    between atoms: C1_1  and  C4_4 
REMARK    3  A    between atoms: C3_3  and  C5_5 
ROOT
HETATM    1  C1  UNL     1     -32.994   7.239   2.553  1.00 20.00     0.140 C 
HETATM    2  O6  UNL     1     -32.169   8.104   2.261  1.00 20.00    -0.297 OA
ENDROOT
BRANCH   1   3
HETATM    3  C3  UNL     1     -33.846   7.331   3.812  1.00 20.00     0.079 C 
BRANCH   3   4
HETATM    4  C5  UNL     1     -35.167   6.571   3.723  1.00 20.00     0.003 C 
HETATM    5  C2  UNL     1     -35.127   5.240   4.461  1.00 20.00     0.005 C 
ENDBRANCH   3   4
ENDBRANCH   1   3
BRANCH   1   6
HETATM    6  C4  UNL     1     -33.211   5.994   1.721  1.00 20.00     0.192 C 
HETATM    7 CL7  UNL     1     -31.666   5.318   1.184  1.00 20.00    -0.123 Cl
ENDBRANCH   1   6
TORSDOF 3
ENDMDL
MODEL 8
REMARK VINA RESULT:      -2.0      3.032      4.636
REMARK  3 active torsions:
REMARK  status: ('A' for Active; 'I' for Inactive)
REMARK    1  A    between atoms: C1_1  and  C3_3 
REMARK    2  A    between atoms: C1_1  and  C4_4 
REMARK    3  A    between atoms: C3_3  and  C5_5 
ROOT
HETATM    1  C1  UNL     1     -34.447   6.237   3.652  1.00 20.00     0.140 C 
HETATM    2  O6  UNL     1     -35.635   6.246   3.969  1.00 20.00    -0.297 OA
ENDROOT
BRANCH   1   3
HETATM    3  C3  UNL     1     -33.678   4.939   3.444  1.00 20.00     0.079 C 
BRANCH   3   4
HETATM    4  C5  UNL     1     -34.096   3.813   4.386  1.00 20.00     0.003 C 
HETATM    5  C2  UNL     1     -32.933   2.911   4.773  1.00 20.00     0.005 C 
ENDBRANCH   3   4
ENDBRANCH   1   3
BRANCH   1   6
HETATM    6  C4  UNL     1     -33.632   7.501   3.478  1.00 20.00     0.192 C 
HETATM    7 CL7  UNL     1     -33.264   8.232   5.047  1.00 20.00    -0.123 Cl
ENDBRANCH   1   6
TORSDOF 3
ENDMDL
MODEL 9
REMARK VINA RESULT:      -1.9      1.731      2.202
REMARK  3 active torsions:
REMARK  status: ('A' for Active; 'I' for Inactive)
REMARK    1  A    between atoms: C1_1  and  C3_3 
REMARK    2  A    between atoms: C1_1  and  C4_4 
REMARK    3  A    between atoms: C3_3  and  C5_5 
ROOT
HETATM    1  C1  UNL     1     -33.909   5.585   3.151  1.00 20.00     0.140 C 
HETATM    2  O6  UNL     1     -33.631   4.531   3.722  1.00 20.00    -0.297 OA
ENDROOT
BRANCH   1   3
HETATM    3  C3  UNL     1     -33.330   5.938   1.787  1.00 20.00     0.079 C 
BRANCH   3   4
HETATM    4  C5  UNL     1     -31.963   6.613   1.849  1.00 20.00     0.003 C 
HETATM    5  C2  UNL     1     -32.038   8.112   1.592  1.00 20.00     0.005 C 
ENDBRANCH   3   4
ENDBRANCH   1   3
BRANCH   1   6
HETATM    6  C4  UNL     1     -34.810   6.638   3.758  1.00 20.00     0.192 C 
HETATM    7 CL7  UNL     1     -33.859   7.861   4.615  1.00 20.00    -0.123 Cl
ENDBRANCH   1   6
TORSDOF 3
ENDMDL
