MODEL 1
REMARK VINA RESULT:      -0.5      0.000      0.000
REMARK  2 active torsions:
REMARK  status: ('A' for Active; 'I' for Inactive)
REMARK    1  A    between atoms: C1_1  and  C7_7 
REMARK    2  A    between atoms: C7_7  and  N8_8 
ROOT
HETATM    1  C2  UNL     1     -33.082   5.593   1.681  1.00 20.00     0.040 C 
HETATM    2  C3  UNL     1     -31.909   6.581   1.653  1.00 20.00     0.273 C 
HETATM    3  C4  UNL     1     -32.388   8.592   2.988  1.00 20.00     0.283 C 
HETATM    4  C5  UNL     1     -33.802   5.415   3.015  1.00 20.00     0.075 C 
HETATM    5  C6  UNL     1     -32.996   7.791   4.142  1.00 20.00     0.104 C 
HETATM    6  N8  UNL     1     -32.383   7.967   1.659  1.00 20.00     0.095 N 
HETATM    7  S10 UNL     1     -34.533   6.930   3.703  1.00 20.00    -0.167 SA
ENDROOT
BRANCH   6   8
HETATM    8  C7  UNL     1     -31.617   8.797   0.726  1.00 20.00     0.341 C 
BRANCH   8   9
HETATM    9  C1  UNL     1     -32.486   9.938   0.281  1.00 20.00     0.261 C 
HETATM   10  O9  UNL     1     -33.040   9.960  -0.815  1.00 20.00    -0.305 OA
ENDBRANCH   8   9
ENDBRANCH   6   8
TORSDOF 2
ENDMDL
MODEL 2
REMARK VINA RESULT:       0.1      3.484      4.764
REMARK  2 active torsions:
REMARK  status: ('A' for Active; 'I' for Inactive)
REMARK    1  A    between atoms: C1_1  and  C7_7 
REMARK    2  A    between atoms: C7_7  and  N8_8 
ROOT
HETATM    1  C2  UNL     1     -32.222   6.036   1.599  1.00 20.00     0.040 C 
HETATM    2  C3  UNL     1     -33.595   5.531   2.060  1.00 20.00     0.273 C 
HETATM    3  C4  UNL     1     -34.428   6.813   3.989  1.00 20.00     0.283 C 
HETATM    4  C5  UNL     1     -32.006   7.547   1.605  1.00 20.00     0.075 C 
HETATM    5  C6  UNL     1     -34.003   8.157   3.394  1.00 20.00     0.104 C 
HETATM    6  N8  UNL     1     -33.727   5.611   3.517  1.00 20.00     0.095 N 
HETATM    7  S10 UNL     1     -32.205   8.346   3.225  1.00 20.00    -0.167 SA
ENDROOT
BRANCH   6   8
HETATM    8  C7  UNL     1     -34.375   4.415   4.061  1.00 20.00     0.341 C 
BRANCH   8   9
HETATM    9  C1  UNL     1     -33.360   3.309   4.114  1.00 20.00     0.261 C 
HETATM   10  O9  UNL     1     -32.928   2.858   5.172  1.00 20.00    -0.305 OA
ENDBRANCH   8   9
ENDBRANCH   6   8
TORSDOF 2
ENDMDL
MODEL 3
REMARK VINA RESULT:       0.4      1.396      2.292
REMARK  2 active torsions:
REMARK  status: ('A' for Active; 'I' for Inactive)
REMARK    1  A    between atoms: C1_1  and  C7_7 
REMARK    2  A    between atoms: C7_7  and  N8_8 
ROOT
HETATM    1  C2  UNL     1     -34.378   7.432   4.130  1.00 20.00     0.040 C 
HETATM    2  C3  UNL     1     -33.846   7.968   2.795  1.00 20.00     0.273 C 
HETATM    3  C4  UNL     1     -32.581   6.248   1.570  1.00 20.00     0.283 C 
HETATM    4  C5  UNL     1     -34.917   6.003   4.134  1.00 20.00     0.075 C 
HETATM    5  C6  UNL     1     -33.603   5.151   1.873  1.00 20.00     0.104 C 
HETATM    6  N8  UNL     1     -32.533   7.400   2.481  1.00 20.00     0.095 N 
HETATM    7  S10 UNL     1     -33.721   4.729   3.635  1.00 20.00    -0.167 SA
ENDROOT
BRANCH   6   8
HETATM    8  C7  UNL     1     -31.626   8.417   1.944  1.00 20.00     0.341 C 
BRANCH   8   9
HETATM    9  C1  UNL     1     -32.253   9.011   0.714  1.00 20.00     0.261 C 
HETATM   10  O9  UNL     1     -32.388  10.221   0.559  1.00 20.00    -0.305 OA
ENDBRANCH   8   9
ENDBRANCH   6   8
TORSDOF 2
ENDMDL
MODEL 4
REMARK VINA RESULT:       1.8      3.214      4.714
REMARK  2 active torsions:
REMARK  status: ('A' for Active; 'I' for Inactive)
REMARK    1  A    between atoms: C1_1  and  C7_7 
REMARK    2  A    between atoms: C7_7  and  N8_8 
ROOT
HETATM    1  C2  UNL     1     -32.702   8.532   4.164  1.00 20.00     0.040 C 
HETATM    2  C3  UNL     1     -33.284   7.126   4.361  1.00 20.00     0.273 C 
HETATM    3  C4  UNL     1     -33.539   5.946   2.216  1.00 20.00     0.283 C 
HETATM    4  C5  UNL     1     -31.593   8.680   3.126  1.00 20.00     0.075 C 
HETATM    5  C6  UNL     1     -32.172   6.401   1.700  1.00 20.00     0.104 C 
HETATM    6  N8  UNL     1     -34.177   6.763   3.257  1.00 20.00     0.095 N 
HETATM    7  S10 UNL     1     -32.051   8.193   1.436  1.00 20.00    -0.167 SA
ENDROOT
BRANCH   6   8
HETATM    8  C7  UNL     1     -35.382   6.090   3.745  1.00 20.00     0.341 C 
BRANCH   8   9
HETATM    9  C1  UNL     1     -34.964   4.975   4.662  1.00 20.00     0.261 C 
HETATM   10  O9  UNL     1     -34.457   3.935   4.250  1.00 20.00    -0.305 OA
ENDBRANCH   8   9
ENDBRANCH   6   8
TORSDOF 2
ENDMDL
MODEL 5
REMARK VINA RESULT:       2.0      3.117      4.466
REMARK  2 active torsions:
REMARK  status: ('A' for Active; 'I' for Inactive)
REMARK    1  A    between atoms: C1_1  and  C7_7 
REMARK    2  A    between atoms: C7_7  and  N8_8 
ROOT
HETATM    1  C2  UNL     1     -31.878   6.493   1.249  1.00 20.00     0.040 C 
HETATM    2  C3  UNL     1     -33.160   5.728   1.605  1.00 20.00     0.273 C 
HETATM    3  C4  UNL     1     -34.134   6.532   3.718  1.00 20.00     0.283 C 
HETATM    4  C5  UNL     1     -31.876   7.996   1.516  1.00 20.00     0.075 C 
HETATM    5  C6  UNL     1     -33.912   8.004   3.365  1.00 20.00     0.104 C 
HETATM    6  N8  UNL     1     -33.279   5.539   3.054  1.00 20.00     0.095 N 
HETATM    7  S10 UNL     1     -32.161   8.470   3.247  1.00 20.00    -0.167 SA
ENDROOT
BRANCH   6   8
HETATM    8  C7  UNL     1     -33.744   4.189   3.379  1.00 20.00     0.341 C 
BRANCH   8   9
HETATM    9  C1  UNL     1     -34.451   4.237   4.703  1.00 20.00     0.261 C 
HETATM   10  O9  UNL     1     -35.621   4.594   4.817  1.00 20.00    -0.305 OA
ENDBRANCH   8   9
ENDBRANCH   6   8
TORSDOF 2
ENDMDL
