MODEL 1
REMARK VINA RESULT:      -1.7      0.000      0.000
REMARK  0 active torsions:
REMARK  status: ('A' for Active; 'I' for Inactive)
ROOT
HETATM    1  C1  UNL     1     -32.932   8.195   2.545  1.00 20.00     0.055 A 
HETATM    2  C2  UNL     1     -33.632   7.203   3.187  1.00 20.00    -0.029 A 
HETATM    3  C3  UNL     1     -33.453   5.889   2.789  1.00 20.00     0.063 A 
HETATM    4  C4  UNL     1     -32.099   7.785   1.519  1.00 20.00     0.148 A 
HETATM    5  C5  UNL     1     -34.572   7.297   4.341  1.00 20.00     0.041 C 
HETATM    6  C6  UNL     1     -34.255   4.952   3.642  1.00 20.00     0.062 C 
HETATM    7  C7  UNL     1     -35.266   5.926   4.266  1.00 20.00     0.011 C 
HETATM    8  N8  UNL     1     -32.633   5.513   1.796  1.00 20.00    -0.153 NA
HETATM    9  N9  UNL     1     -31.946   6.487   1.144  1.00 20.00    -0.138 NA
HETATM   10 CL10 UNL     1     -31.168   8.911   0.623  1.00 20.00    -0.060 Cl
ENDROOT
TORSDOF 0
ENDMDL
MODEL 2
REMARK VINA RESULT:      -0.6      2.905      4.219
REMARK  0 active torsions:
REMARK  status: ('A' for Active; 'I' for Inactive)
ROOT
HETATM    1  C1  UNL     1     -33.827   5.478   2.856  1.00 20.00     0.055 A 
HETATM    2  C2  UNL     1     -32.969   6.381   2.279  1.00 20.00    -0.029 A 
HETATM    3  C3  UNL     1     -32.898   7.665   2.793  1.00 20.00     0.063 A 
HETATM    4  C4  UNL     1     -34.578   5.947   3.920  1.00 20.00     0.148 A 
HETATM    5  C5  UNL     1     -32.006   6.195   1.156  1.00 20.00     0.041 C 
HETATM    6  C6  UNL     1     -31.870   8.482   2.071  1.00 20.00     0.062 C 
HETATM    7  C7  UNL     1     -31.698   7.656   0.787  1.00 20.00     0.011 C 
HETATM    8  N8  UNL     1     -33.630   8.095   3.833  1.00 20.00    -0.153 NA
HETATM    9  N9  UNL     1     -34.494   7.215   4.402  1.00 20.00    -0.138 NA
HETATM   10 CL10 UNL     1     -35.696   4.935   4.736  1.00 20.00    -0.060 Cl
ENDROOT
TORSDOF 0
ENDMDL
MODEL 3
REMARK VINA RESULT:      -0.3      1.569      2.136
REMARK  0 active torsions:
REMARK  status: ('A' for Active; 'I' for Inactive)
ROOT
HETATM    1  C1  UNL     1     -32.550   6.209   1.895  1.00 20.00     0.055 A 
HETATM    2  C2  UNL     1     -33.406   5.616   2.791  1.00 20.00    -0.029 A 
HETATM    3  C3  UNL     1     -34.167   6.417   3.624  1.00 20.00     0.063 A 
HETATM    4  C4  UNL     1     -32.511   7.592   1.916  1.00 20.00     0.148 A 
HETATM    5  C5  UNL     1     -33.711   4.171   3.001  1.00 20.00     0.041 C 
HETATM    6  C6  UNL     1     -35.076   5.592   4.486  1.00 20.00     0.062 C 
HETATM    7  C7  UNL     1     -34.406   4.214   4.372  1.00 20.00     0.011 C 
HETATM    8  N8  UNL     1     -34.120   7.758   3.621  1.00 20.00    -0.153 NA
HETATM    9  N9  UNL     1     -33.266   8.356   2.750  1.00 20.00    -0.138 NA
HETATM   10 CL10 UNL     1     -31.487   8.471   0.860  1.00 20.00    -0.060 Cl
ENDROOT
TORSDOF 0
ENDMDL
MODEL 4
REMARK VINA RESULT:      -0.2      1.765      2.460
REMARK  0 active torsions:
REMARK  status: ('A' for Active; 'I' for Inactive)
ROOT
HETATM    1  C1  UNL     1     -33.254   5.265   2.085  1.00 20.00     0.055 A 
HETATM    2  C2  UNL     1     -33.705   6.254   2.925  1.00 20.00    -0.029 A 
HETATM    3  C3  UNL     1     -33.089   7.494   2.896  1.00 20.00     0.063 A 
HETATM    4  C4  UNL     1     -32.184   5.599   1.273  1.00 20.00     0.148 A 
HETATM    5  C5  UNL     1     -34.843   6.237   3.888  1.00 20.00     0.041 C 
HETATM    6  C6  UNL     1     -33.755   8.451   3.837  1.00 20.00     0.062 C 
HETATM    7  C7  UNL     1     -34.524   7.476   4.742  1.00 20.00     0.011 C 
HETATM    8  N8  UNL     1     -32.058   7.798   2.092  1.00 20.00    -0.153 NA
HETATM    9  N9  UNL     1     -31.594   6.823   1.267  1.00 20.00    -0.138 NA
HETATM   10 CL10 UNL     1     -31.510   4.466   0.178  1.00 20.00    -0.060 Cl
ENDROOT
TORSDOF 0
ENDMDL
MODEL 5
REMARK VINA RESULT:       0.2      2.792      4.118
REMARK  0 active torsions:
REMARK  status: ('A' for Active; 'I' for Inactive)
ROOT
HETATM    1  C1  UNL     1     -32.795   5.578   2.351  1.00 20.00     0.055 A 
HETATM    2  C2  UNL     1     -32.524   6.869   1.968  1.00 20.00    -0.029 A 
HETATM    3  C3  UNL     1     -33.139   7.912   2.641  1.00 20.00     0.063 A 
HETATM    4  C4  UNL     1     -33.695   5.428   3.391  1.00 20.00     0.148 A 
HETATM    5  C5  UNL     1     -31.590   7.375   0.922  1.00 20.00     0.041 C 
HETATM    6  C6  UNL     1     -32.676   9.238   2.119  1.00 20.00     0.062 C 
HETATM    7  C7  UNL     1     -32.082   8.823   0.765  1.00 20.00     0.011 C 
HETATM    8  N8  UNL     1     -34.001   7.742   3.655  1.00 20.00    -0.153 NA
HETATM    9  N9  UNL     1     -34.289   6.469   4.032  1.00 20.00    -0.138 NA
HETATM   10 CL10 UNL     1     -34.134   3.876   3.973  1.00 20.00    -0.060 Cl
ENDROOT
TORSDOF 0
ENDMDL
MODEL 6
REMARK VINA RESULT:       0.4      2.425      3.716
REMARK  0 active torsions:
REMARK  status: ('A' for Active; 'I' for Inactive)
ROOT
HETATM    1  C1  UNL     1     -34.106   7.200   3.615  1.00 20.00     0.055 A 
HETATM    2  C2  UNL     1     -33.165   7.597   2.697  1.00 20.00    -0.029 A 
HETATM    3  C3  UNL     1     -32.578   6.645   1.881  1.00 20.00     0.063 A 
HETATM    4  C4  UNL     1     -34.380   5.845   3.657  1.00 20.00     0.148 A 
HETATM    5  C5  UNL     1     -32.671   8.966   2.373  1.00 20.00     0.041 C 
HETATM    6  C6  UNL     1     -31.624   7.276   0.912  1.00 20.00     0.062 C 
HETATM    7  C7  UNL     1     -31.392   8.638   1.584  1.00 20.00     0.011 C 
HETATM    8  N8  UNL     1     -32.866   5.335   1.933  1.00 20.00    -0.153 NA
HETATM    9  N9  UNL     1     -33.785   4.929   2.848  1.00 20.00    -0.138 NA
HETATM   10 CL10 UNL     1     -35.527   5.201   4.756  1.00 20.00    -0.060 Cl
ENDROOT
TORSDOF 0
ENDMDL
