MODEL 1
REMARK VINA RESULT:       2.3      0.000      0.000
REMARK  2 active torsions:
REMARK  status: ('A' for Active; 'I' for Inactive)
REMARK    1  A    between atoms: C2_2  and  C3_3 
REMARK    2  A    between atoms: C3_3  and  C11_11 
ROOT
HETATM    1  C7  UNL     1     -32.758  10.426  -0.312  1.00 20.00     0.005 C 
HETATM    2  C8  UNL     1     -32.682  10.489   1.223  1.00 20.00     0.006 C 
HETATM    3  C9  UNL     1     -33.122   7.945  -0.218  1.00 20.00     0.017 C 
HETATM    4  C10 UNL     1     -31.063   8.937   0.444  1.00 20.00     0.010 C 
HETATM    5  C11 UNL     1     -33.108   8.030   1.317  1.00 20.00     0.065 C 
HETATM    6  C12 UNL     1     -32.138   9.054  -0.634  1.00 20.00    -0.013 C 
HETATM    7  C13 UNL     1     -32.060   9.130   1.591  1.00 20.00    -0.003 C 
ENDROOT
BRANCH   5   8
HETATM    8  C3  UNL     1     -32.716   6.724   1.937  1.00 20.00     0.159 C 
HETATM    9  O14 UNL     1     -31.696   6.125   1.605  1.00 20.00    -0.292 OA
BRANCH   8  10
HETATM   10  C2  UNL     1     -33.578   6.177   2.938  1.00 20.00    -0.016 C 
HETATM   11  C1  UNL     1     -34.589   6.810   3.542  1.00 20.00    -0.016 C 
HETATM   12  C4  UNL     1     -35.261   5.938   4.551  1.00 20.00     0.028 C 
HETATM   13  C6  UNL     1     -34.711   4.551   4.220  1.00 20.00     0.009 C 
HETATM   14  C5  UNL     1     -33.411   4.781   3.447  1.00 20.00     0.042 C 
ENDBRANCH   8  10
ENDBRANCH   5   8
TORSDOF 2
ENDMDL
MODEL 2
REMARK VINA RESULT:       2.4      1.463      2.125
REMARK  2 active torsions:
REMARK  status: ('A' for Active; 'I' for Inactive)
REMARK    1  A    between atoms: C2_2  and  C3_3 
REMARK    2  A    between atoms: C3_3  and  C11_11 
ROOT
HETATM    1  C7  UNL     1     -31.636   8.520  -0.024  1.00 20.00     0.005 C 
HETATM    2  C8  UNL     1     -32.444   9.614   0.694  1.00 20.00     0.006 C 
HETATM    3  C9  UNL     1     -32.639   6.766   1.464  1.00 20.00     0.017 C 
HETATM    4  C10 UNL     1     -31.162   8.431   2.306  1.00 20.00     0.010 C 
HETATM    5  C11 UNL     1     -33.488   7.860   2.133  1.00 20.00     0.065 C 
HETATM    6  C12 UNL     1     -31.341   7.511   1.101  1.00 20.00    -0.013 C 
HETATM    7  C13 UNL     1     -32.540   9.079   2.134  1.00 20.00    -0.003 C 
ENDROOT
BRANCH   5   8
HETATM    8  C3  UNL     1     -33.893   7.471   3.521  1.00 20.00     0.159 C 
HETATM    9  O14 UNL     1     -34.042   8.302   4.414  1.00 20.00    -0.292 OA
BRANCH   8  10
HETATM   10  C2  UNL     1     -34.097   6.082   3.790  1.00 20.00    -0.016 C 
HETATM   11  C1  UNL     1     -33.227   5.094   3.556  1.00 20.00    -0.016 C 
HETATM   12  C4  UNL     1     -33.785   3.765   3.941  1.00 20.00     0.028 C 
HETATM   13  C6  UNL     1     -35.013   4.140   4.770  1.00 20.00     0.009 C 
HETATM   14  C5  UNL     1     -35.378   5.569   4.368  1.00 20.00     0.042 C 
ENDBRANCH   8  10
ENDBRANCH   5   8
TORSDOF 2
ENDMDL
MODEL 3
REMARK VINA RESULT:       2.4      0.879      4.970
REMARK  2 active torsions:
REMARK  status: ('A' for Active; 'I' for Inactive)
REMARK    1  A    between atoms: C2_2  and  C3_3 
REMARK    2  A    between atoms: C3_3  and  C11_11 
ROOT
HETATM    1  C7  UNL     1     -35.432   6.023   4.178  1.00 20.00     0.005 C 
HETATM    2  C8  UNL     1     -34.351   5.007   3.772  1.00 20.00     0.006 C 
HETATM    3  C9  UNL     1     -34.478   7.713   2.588  1.00 20.00     0.017 C 
HETATM    4  C10 UNL     1     -33.288   6.994   4.519  1.00 20.00     0.010 C 
HETATM    5  C11 UNL     1     -33.441   6.668   2.145  1.00 20.00     0.065 C 
HETATM    6  C12 UNL     1     -34.698   7.372   4.073  1.00 20.00    -0.013 C 
HETATM    7  C13 UNL     1     -33.142   5.904   3.453  1.00 20.00    -0.003 C 
ENDROOT
BRANCH   5   8
HETATM    8  C3  UNL     1     -32.211   7.315   1.587  1.00 20.00     0.159 C 
HETATM    9  O14 UNL     1     -31.101   6.796   1.683  1.00 20.00    -0.292 OA
BRANCH   8  10
HETATM   10  C2  UNL     1     -32.361   8.578   0.936  1.00 20.00    -0.016 C 
HETATM   11  C1  UNL     1     -32.558   8.776  -0.372  1.00 20.00    -0.016 C 
HETATM   12  C4  UNL     1     -32.649  10.228  -0.703  1.00 20.00     0.028 C 
HETATM   13  C6  UNL     1     -32.818  10.879   0.670  1.00 20.00     0.009 C 
HETATM   14  C5  UNL     1     -32.288   9.869   1.688  1.00 20.00     0.042 C 
ENDBRANCH   8  10
ENDBRANCH   5   8
TORSDOF 2
ENDMDL
MODEL 4
REMARK VINA RESULT:       2.4      0.909      4.968
REMARK  2 active torsions:
REMARK  status: ('A' for Active; 'I' for Inactive)
REMARK    1  A    between atoms: C2_2  and  C3_3 
REMARK    2  A    between atoms: C3_3  and  C11_11 
ROOT
HETATM    1  C7  UNL     1     -35.407   5.954   4.121  1.00 20.00     0.005 C 
HETATM    2  C8  UNL     1     -34.254   5.017   3.724  1.00 20.00     0.006 C 
HETATM    3  C9  UNL     1     -34.521   7.735   2.591  1.00 20.00     0.017 C 
HETATM    4  C10 UNL     1     -33.337   7.051   4.538  1.00 20.00     0.010 C 
HETATM    5  C11 UNL     1     -33.409   6.767   2.155  1.00 20.00     0.065 C 
HETATM    6  C12 UNL     1     -34.757   7.349   4.063  1.00 20.00    -0.013 C 
HETATM    7  C13 UNL     1     -33.096   5.995   3.455  1.00 20.00    -0.003 C 
ENDROOT
BRANCH   5   8
HETATM    8  C3  UNL     1     -32.209   7.502   1.643  1.00 20.00     0.159 C 
HETATM    9  O14 UNL     1     -31.069   7.065   1.782  1.00 20.00    -0.292 OA
BRANCH   8  10
HETATM   10  C2  UNL     1     -32.425   8.752   0.984  1.00 20.00    -0.016 C 
HETATM   11  C1  UNL     1     -32.489   9.953   1.568  1.00 20.00    -0.016 C 
HETATM   12  C4  UNL     1     -32.748  11.036   0.574  1.00 20.00     0.028 C 
HETATM   13  C6  UNL     1     -32.490  10.339  -0.762  1.00 20.00     0.009 C 
HETATM   14  C5  UNL     1     -32.632   8.840  -0.494  1.00 20.00     0.042 C 
ENDBRANCH   8  10
ENDBRANCH   5   8
TORSDOF 2
ENDMDL
MODEL 5
REMARK VINA RESULT:       2.5      0.229      1.081
REMARK  2 active torsions:
REMARK  status: ('A' for Active; 'I' for Inactive)
REMARK    1  A    between atoms: C2_2  and  C3_3 
REMARK    2  A    between atoms: C3_3  and  C11_11 
ROOT
HETATM    1  C7  UNL     1     -32.632  10.393  -0.069  1.00 20.00     0.005 C 
HETATM    2  C8  UNL     1     -32.671  10.335   1.468  1.00 20.00     0.006 C 
HETATM    3  C9  UNL     1     -33.005   7.915  -0.197  1.00 20.00     0.017 C 
HETATM    4  C10 UNL     1     -31.000   8.838   0.691  1.00 20.00     0.010 C 
HETATM    5  C11 UNL     1     -33.105   7.880   1.337  1.00 20.00     0.065 C 
HETATM    6  C12 UNL     1     -31.992   9.046  -0.451  1.00 20.00    -0.013 C 
HETATM    7  C13 UNL     1     -32.079   8.948   1.773  1.00 20.00    -0.003 C 
ENDROOT
BRANCH   5   8
HETATM    8  C3  UNL     1     -32.761   6.527   1.880  1.00 20.00     0.159 C 
HETATM    9  O14 UNL     1     -31.767   5.908   1.508  1.00 20.00    -0.292 OA
BRANCH   8  10
HETATM   10  C2  UNL     1     -33.639   5.959   2.855  1.00 20.00    -0.016 C 
HETATM   11  C1  UNL     1     -33.519   4.753   3.421  1.00 20.00    -0.016 C 
HETATM   12  C4  UNL     1     -34.629   4.482   4.381  1.00 20.00     0.028 C 
HETATM   13  C6  UNL     1     -35.261   5.861   4.567  1.00 20.00     0.009 C 
HETATM   14  C5  UNL     1     -34.849   6.686   3.348  1.00 20.00     0.042 C 
ENDBRANCH   8  10
ENDBRANCH   5   8
TORSDOF 2
ENDMDL
MODEL 6
REMARK VINA RESULT:       3.0      0.986      1.640
REMARK  2 active torsions:
REMARK  status: ('A' for Active; 'I' for Inactive)
REMARK    1  A    between atoms: C2_2  and  C3_3 
REMARK    2  A    between atoms: C3_3  and  C11_11 
ROOT
HETATM    1  C7  UNL     1     -31.673  10.809  -0.051  1.00 20.00     0.005 C 
HETATM    2  C8  UNL     1     -30.678   9.677  -0.362  1.00 20.00     0.006 C 
HETATM    3  C9  UNL     1     -32.778   9.390   1.699  1.00 20.00     0.017 C 
HETATM    4  C10 UNL     1     -32.886   8.842  -0.615  1.00 20.00     0.010 C 
HETATM    5  C11 UNL     1     -31.740   8.291   1.422  1.00 20.00     0.065 C 
HETATM    6  C12 UNL     1     -32.959  10.048   0.318  1.00 20.00    -0.013 C 
HETATM    7  C13 UNL     1     -31.510   8.409  -0.100  1.00 20.00    -0.003 C 
ENDROOT
BRANCH   5   8
HETATM    8  C3  UNL     1     -32.257   6.937   1.801  1.00 20.00     0.159 C 
HETATM    9  O14 UNL     1     -31.866   5.911   1.248  1.00 20.00    -0.292 OA
BRANCH   8  10
HETATM   10  C2  UNL     1     -33.241   6.866   2.835  1.00 20.00    -0.016 C 
HETATM   11  C1  UNL     1     -33.461   7.785   3.782  1.00 20.00    -0.016 C 
HETATM   12  C4  UNL     1     -34.554   7.370   4.709  1.00 20.00     0.028 C 
HETATM   13  C6  UNL     1     -35.202   6.201   3.968  1.00 20.00     0.009 C 
HETATM   14  C5  UNL     1     -34.154   5.691   2.978  1.00 20.00     0.042 C 
ENDBRANCH   8  10
ENDBRANCH   5   8
TORSDOF 2
ENDMDL
MODEL 7
REMARK VINA RESULT:       3.0      1.252      5.133
REMARK  2 active torsions:
REMARK  status: ('A' for Active; 'I' for Inactive)
REMARK    1  A    between atoms: C2_2  and  C3_3 
REMARK    2  A    between atoms: C3_3  and  C11_11 
ROOT
HETATM    1  C7  UNL     1     -35.563   6.074   4.226  1.00 20.00     0.005 C 
HETATM    2  C8  UNL     1     -35.661   6.667   2.811  1.00 20.00     0.006 C 
HETATM    3  C9  UNL     1     -33.465   7.383   4.657  1.00 20.00     0.017 C 
HETATM    4  C10 UNL     1     -33.542   5.625   3.055  1.00 20.00     0.010 C 
HETATM    5  C11 UNL     1     -33.610   8.016   3.263  1.00 20.00     0.065 C 
HETATM    6  C12 UNL     1     -34.044   5.970   4.454  1.00 20.00    -0.013 C 
HETATM    7  C13 UNL     1     -34.186   6.861   2.418  1.00 20.00    -0.003 C 
ENDROOT
BRANCH   5   8
HETATM    8  C3  UNL     1     -32.290   8.486   2.733  1.00 20.00     0.159 C 
HETATM    9  O14 UNL     1     -31.263   8.438   3.406  1.00 20.00    -0.292 OA
BRANCH   8  10
HETATM   10  C2  UNL     1     -32.255   9.011   1.404  1.00 20.00    -0.016 C 
HETATM   11  C1  UNL     1     -31.687   8.433   0.340  1.00 20.00    -0.016 C 
HETATM   12  C4  UNL     1     -31.825   9.276  -0.884  1.00 20.00     0.028 C 
HETATM   13  C6  UNL     1     -32.874  10.308  -0.469  1.00 20.00     0.009 C 
HETATM   14  C5  UNL     1     -32.865  10.333   1.060  1.00 20.00     0.042 C 
ENDBRANCH   8  10
ENDBRANCH   5   8
TORSDOF 2
ENDMDL
MODEL 8
REMARK VINA RESULT:       3.0      0.861      4.823
REMARK  2 active torsions:
REMARK  status: ('A' for Active; 'I' for Inactive)
REMARK    1  A    between atoms: C2_2  and  C3_3 
REMARK    2  A    between atoms: C3_3  and  C11_11 
ROOT
HETATM    1  C7  UNL     1     -34.948   6.358   5.052  1.00 20.00     0.005 C 
HETATM    2  C8  UNL     1     -34.302   7.732   4.812  1.00 20.00     0.006 C 
HETATM    3  C9  UNL     1     -33.561   5.356   3.217  1.00 20.00     0.017 C 
HETATM    4  C10 UNL     1     -35.252   6.971   2.774  1.00 20.00     0.010 C 
HETATM    5  C11 UNL     1     -32.877   6.721   3.029  1.00 20.00     0.065 C 
HETATM    6  C12 UNL     1     -34.990   5.743   3.642  1.00 20.00    -0.013 C 
HETATM    7  C13 UNL     1     -34.023   7.720   3.299  1.00 20.00    -0.003 C 
ENDROOT
BRANCH   5   8
HETATM    8  C3  UNL     1     -32.324   6.873   1.645  1.00 20.00     0.159 C 
HETATM    9  O14 UNL     1     -31.842   5.926   1.028  1.00 20.00    -0.292 OA
BRANCH   8  10
HETATM   10  C2  UNL     1     -32.362   8.173   1.053  1.00 20.00    -0.016 C 
HETATM   11  C1  UNL     1     -32.663   8.454  -0.220  1.00 20.00    -0.016 C 
HETATM   12  C4  UNL     1     -32.583   9.919  -0.495  1.00 20.00     0.028 C 
HETATM   13  C6  UNL     1     -32.519  10.524   0.908  1.00 20.00     0.009 C 
HETATM   14  C5  UNL     1     -32.034   9.407   1.832  1.00 20.00     0.042 C 
ENDBRANCH   8  10
ENDBRANCH   5   8
TORSDOF 2
ENDMDL
MODEL 9
REMARK VINA RESULT:       3.4      1.530      2.095
REMARK  2 active torsions:
REMARK  status: ('A' for Active; 'I' for Inactive)
REMARK    1  A    between atoms: C2_2  and  C3_3 
REMARK    2  A    between atoms: C3_3  and  C11_11 
ROOT
HETATM    1  C7  UNL     1     -31.457   8.436   0.238  1.00 20.00     0.005 C 
HETATM    2  C8  UNL     1     -32.421   9.495   0.799  1.00 20.00     0.006 C 
HETATM    3  C9  UNL     1     -32.484   6.682   1.711  1.00 20.00     0.017 C 
HETATM    4  C10 UNL     1     -31.242   8.504   2.606  1.00 20.00     0.010 C 
HETATM    5  C11 UNL     1     -33.484   7.735   2.217  1.00 20.00     0.065 C 
HETATM    6  C12 UNL     1     -31.214   7.513   1.446  1.00 20.00    -0.013 C 
HETATM    7  C13 UNL     1     -32.638   9.026   2.249  1.00 20.00    -0.003 C 
ENDROOT
BRANCH   5   8
HETATM    8  C3  UNL     1     -34.011   7.384   3.575  1.00 20.00     0.159 C 
HETATM    9  O14 UNL     1     -34.303   8.244   4.403  1.00 20.00    -0.292 OA
BRANCH   8  10
HETATM   10  C2  UNL     1     -34.162   5.999   3.892  1.00 20.00    -0.016 C 
HETATM   11  C1  UNL     1     -35.211   5.436   4.502  1.00 20.00    -0.016 C 
HETATM   12  C4  UNL     1     -35.018   3.969   4.690  1.00 20.00     0.028 C 
HETATM   13  C6  UNL     1     -33.824   3.665   3.785  1.00 20.00     0.009 C 
HETATM   14  C5  UNL     1     -33.099   4.995   3.575  1.00 20.00     0.042 C 
ENDBRANCH   8  10
ENDBRANCH   5   8
TORSDOF 2
ENDMDL
