MODEL 1
REMARK VINA RESULT:      -1.8      0.000      0.000
REMARK  2 active torsions:
REMARK  status: ('A' for Active; 'I' for Inactive)
REMARK    1  A    between atoms: C2_2  and  C3_3 
REMARK    2  A    between atoms: C3_3  and  C9_9 
ROOT
HETATM    1  C1  UNL     1     -33.651   8.065   3.678  1.00 20.00    -0.016 C 
HETATM    2  C2  UNL     1     -33.079   7.480   2.621  1.00 20.00    -0.016 C 
HETATM    3  C4  UNL     1     -34.455   7.096   4.479  1.00 20.00     0.028 C 
HETATM    4  C5  UNL     1     -33.411   6.024   2.546  1.00 20.00     0.042 C 
HETATM    5  C6  UNL     1     -34.562   5.892   3.544  1.00 20.00     0.009 C 
ENDROOT
BRANCH   2   6
HETATM    6  C3  UNL     1     -32.232   8.112   1.659  1.00 20.00     0.159 C 
HETATM    7  O10 UNL     1     -31.009   7.907   1.647  1.00 20.00    -0.292 OA
BRANCH   6   8
HETATM    8  C9  UNL     1     -32.861   9.039   0.640  1.00 20.00     0.060 A 
HETATM    9  C7  UNL     1     -32.603  10.492   0.775  1.00 20.00     0.013 A 
HETATM   10  C8  UNL     1     -31.962   9.708  -0.331  1.00 20.00     0.013 A 
ENDBRANCH   6   8
ENDBRANCH   2   6
TORSDOF 2
ENDMDL
MODEL 2
REMARK VINA RESULT:      -1.8      0.926      1.213
REMARK  2 active torsions:
REMARK  status: ('A' for Active; 'I' for Inactive)
REMARK    1  A    between atoms: C2_2  and  C3_3 
REMARK    2  A    between atoms: C3_3  and  C9_9 
ROOT
HETATM    1  C1  UNL     1     -33.393   7.934   3.805  1.00 20.00    -0.016 C 
HETATM    2  C2  UNL     1     -33.170   7.057   2.821  1.00 20.00    -0.016 C 
HETATM    3  C4  UNL     1     -34.462   7.462   4.734  1.00 20.00     0.028 C 
HETATM    4  C5  UNL     1     -34.056   5.857   2.935  1.00 20.00     0.042 C 
HETATM    5  C6  UNL     1     -35.098   6.308   3.960  1.00 20.00     0.009 C 
ENDROOT
BRANCH   2   6
HETATM    6  C3  UNL     1     -32.206   7.187   1.774  1.00 20.00     0.159 C 
HETATM    7  O10 UNL     1     -31.784   6.195   1.162  1.00 20.00    -0.292 OA
BRANCH   6   8
HETATM    8  C9  UNL     1     -31.710   8.573   1.417  1.00 20.00     0.060 A 
HETATM    9  C7  UNL     1     -31.392   8.848  -0.004  1.00 20.00     0.013 A 
HETATM   10  C8  UNL     1     -32.613   9.446   0.629  1.00 20.00     0.013 A 
ENDBRANCH   6   8
ENDBRANCH   2   6
TORSDOF 2
ENDMDL
MODEL 3
REMARK VINA RESULT:      -1.7      2.737      5.147
REMARK  2 active torsions:
REMARK  status: ('A' for Active; 'I' for Inactive)
REMARK    1  A    between atoms: C2_2  and  C3_3 
REMARK    2  A    between atoms: C3_3  and  C9_9 
ROOT
HETATM    1  C1  UNL     1     -33.800   7.188   3.700  1.00 20.00    -0.016 C 
HETATM    2  C2  UNL     1     -33.741   5.923   3.271  1.00 20.00    -0.016 C 
HETATM    3  C4  UNL     1     -33.130   8.126   2.753  1.00 20.00     0.028 C 
HETATM    4  C5  UNL     1     -33.020   5.814   1.965  1.00 20.00     0.042 C 
HETATM    5  C6  UNL     1     -32.348   7.182   1.839  1.00 20.00     0.009 C 
ENDROOT
BRANCH   2   6
HETATM    6  C3  UNL     1     -34.297   4.780   3.925  1.00 20.00     0.159 C 
HETATM    7  O10 UNL     1     -35.370   4.852   4.541  1.00 20.00    -0.292 OA
BRANCH   6   8
HETATM    8  C9  UNL     1     -33.548   3.467   3.843  1.00 20.00     0.060 A 
HETATM    9  C7  UNL     1     -32.238   3.374   4.529  1.00 20.00     0.013 A 
HETATM   10  C8  UNL     1     -33.435   2.660   5.081  1.00 20.00     0.013 A 
ENDBRANCH   6   8
ENDBRANCH   2   6
TORSDOF 2
ENDMDL
MODEL 4
REMARK VINA RESULT:      -1.6      0.966      1.759
REMARK  2 active torsions:
REMARK  status: ('A' for Active; 'I' for Inactive)
REMARK    1  A    between atoms: C2_2  and  C3_3 
REMARK    2  A    between atoms: C3_3  and  C9_9 
ROOT
HETATM    1  C1  UNL     1     -34.128   5.884   2.918  1.00 20.00    -0.016 C 
HETATM    2  C2  UNL     1     -33.312   6.933   2.769  1.00 20.00    -0.016 C 
HETATM    3  C4  UNL     1     -35.112   6.101   4.018  1.00 20.00     0.028 C 
HETATM    4  C5  UNL     1     -33.622   8.020   3.749  1.00 20.00     0.042 C 
HETATM    5  C6  UNL     1     -34.542   7.317   4.748  1.00 20.00     0.009 C 
ENDROOT
BRANCH   2   6
HETATM    6  C3  UNL     1     -32.270   7.064   1.800  1.00 20.00     0.159 C 
HETATM    7  O10 UNL     1     -31.817   6.074   1.207  1.00 20.00    -0.292 OA
BRANCH   6   8
HETATM    8  C9  UNL     1     -31.730   8.447   1.502  1.00 20.00     0.060 A 
HETATM    9  C7  UNL     1     -31.291   8.733   0.116  1.00 20.00     0.013 A 
HETATM   10  C8  UNL     1     -32.554   9.339   0.651  1.00 20.00     0.013 A 
ENDBRANCH   6   8
ENDBRANCH   2   6
TORSDOF 2
ENDMDL
MODEL 5
REMARK VINA RESULT:      -1.6      0.182      1.263
REMARK  2 active torsions:
REMARK  status: ('A' for Active; 'I' for Inactive)
REMARK    1  A    between atoms: C2_2  and  C3_3 
REMARK    2  A    between atoms: C3_3  and  C9_9 
ROOT
HETATM    1  C1  UNL     1     -33.434   6.101   2.497  1.00 20.00    -0.016 C 
HETATM    2  C2  UNL     1     -33.131   7.401   2.569  1.00 20.00    -0.016 C 
HETATM    3  C4  UNL     1     -34.458   5.715   3.512  1.00 20.00     0.028 C 
HETATM    4  C5  UNL     1     -33.905   8.092   3.646  1.00 20.00     0.042 C 
HETATM    5  C6  UNL     1     -34.479   6.924   4.447  1.00 20.00     0.009 C 
ENDROOT
BRANCH   2   6
HETATM    6  C3  UNL     1     -32.206   8.101   1.734  1.00 20.00     0.159 C 
HETATM    7  O10 UNL     1     -30.983   8.017   1.919  1.00 20.00    -0.292 OA
BRANCH   6   8
HETATM    8  C9  UNL     1     -32.751   8.948   0.604  1.00 20.00     0.060 A 
HETATM    9  C7  UNL     1     -32.670  10.422   0.743  1.00 20.00     0.013 A 
HETATM   10  C8  UNL     1     -31.779   9.701  -0.225  1.00 20.00     0.013 A 
ENDBRANCH   6   8
ENDBRANCH   2   6
TORSDOF 2
ENDMDL
MODEL 6
REMARK VINA RESULT:      -1.2      1.936      4.534
REMARK  2 active torsions:
REMARK  status: ('A' for Active; 'I' for Inactive)
REMARK    1  A    between atoms: C2_2  and  C3_3 
REMARK    2  A    between atoms: C3_3  and  C9_9 
ROOT
HETATM    1  C1  UNL     1     -32.508   8.387   2.542  1.00 20.00    -0.016 C 
HETATM    2  C2  UNL     1     -33.176   7.240   2.704  1.00 20.00    -0.016 C 
HETATM    3  C4  UNL     1     -31.614   8.343   1.347  1.00 20.00     0.028 C 
HETATM    4  C5  UNL     1     -32.833   6.244   1.641  1.00 20.00     0.042 C 
HETATM    5  C6  UNL     1     -31.586   6.854   1.001  1.00 20.00     0.009 C 
ENDROOT
BRANCH   2   6
HETATM    6  C3  UNL     1     -34.125   6.951   3.732  1.00 20.00     0.159 C 
HETATM    7  O10 UNL     1     -34.301   7.730   4.681  1.00 20.00    -0.292 OA
BRANCH   6   8
HETATM    8  C9  UNL     1     -34.925   5.669   3.638  1.00 20.00     0.060 A 
HETATM    9  C7  UNL     1     -34.314   4.432   4.177  1.00 20.00     0.013 A 
HETATM   10  C8  UNL     1     -35.452   5.091   4.897  1.00 20.00     0.013 A 
ENDBRANCH   6   8
ENDBRANCH   2   6
TORSDOF 2
ENDMDL
MODEL 7
REMARK VINA RESULT:      -1.0      1.428      4.424
REMARK  2 active torsions:
REMARK  status: ('A' for Active; 'I' for Inactive)
REMARK    1  A    between atoms: C2_2  and  C3_3 
REMARK    2  A    between atoms: C3_3  and  C9_9 
ROOT
HETATM    1  C1  UNL     1     -31.701   7.599   1.415  1.00 20.00    -0.016 C 
HETATM    2  C2  UNL     1     -32.645   8.159   2.180  1.00 20.00    -0.016 C 
HETATM    3  C4  UNL     1     -31.243   8.524   0.337  1.00 20.00     0.028 C 
HETATM    4  C5  UNL     1     -32.968   9.549   1.733  1.00 20.00     0.042 C 
HETATM    5  C6  UNL     1     -32.309   9.619   0.355  1.00 20.00     0.009 C 
ENDROOT
BRANCH   2   6
HETATM    6  C3  UNL     1     -33.286   7.559   3.307  1.00 20.00     0.159 C 
HETATM    7  O10 UNL     1     -33.044   7.941   4.462  1.00 20.00    -0.292 OA
BRANCH   6   8
HETATM    8  C9  UNL     1     -34.281   6.444   3.064  1.00 20.00     0.060 A 
HETATM    9  C7  UNL     1     -34.220   5.258   3.950  1.00 20.00     0.013 A 
HETATM   10  C8  UNL     1     -35.347   6.239   4.073  1.00 20.00     0.013 A 
ENDBRANCH   6   8
ENDBRANCH   2   6
TORSDOF 2
ENDMDL
MODEL 8
REMARK VINA RESULT:      -0.6      1.030      1.824
REMARK  2 active torsions:
REMARK  status: ('A' for Active; 'I' for Inactive)
REMARK    1  A    between atoms: C2_2  and  C3_3 
REMARK    2  A    between atoms: C3_3  and  C9_9 
ROOT
HETATM    1  C1  UNL     1     -32.411   6.131   1.459  1.00 20.00    -0.016 C 
HETATM    2  C2  UNL     1     -32.534   7.275   2.140  1.00 20.00    -0.016 C 
HETATM    3  C4  UNL     1     -33.422   5.121   1.890  1.00 20.00     0.028 C 
HETATM    4  C5  UNL     1     -33.648   7.212   3.135  1.00 20.00     0.042 C 
HETATM    5  C6  UNL     1     -33.965   5.717   3.188  1.00 20.00     0.009 C 
ENDROOT
BRANCH   2   6
HETATM    6  C3  UNL     1     -31.741   8.452   1.967  1.00 20.00     0.159 C 
HETATM    7  O10 UNL     1     -31.095   8.935   2.908  1.00 20.00    -0.292 OA
BRANCH   6   8
HETATM    8  C9  UNL     1     -31.696   9.097   0.598  1.00 20.00     0.060 A 
HETATM    9  C7  UNL     1     -32.958   9.166  -0.176  1.00 20.00     0.013 A 
HETATM   10  C8  UNL     1     -32.372  10.406   0.431  1.00 20.00     0.013 A 
ENDBRANCH   6   8
ENDBRANCH   2   6
TORSDOF 2
ENDMDL
MODEL 9
REMARK VINA RESULT:      -0.4      1.332      4.302
REMARK  2 active torsions:
REMARK  status: ('A' for Active; 'I' for Inactive)
REMARK    1  A    between atoms: C2_2  and  C3_3 
REMARK    2  A    between atoms: C3_3  and  C9_9 
ROOT
HETATM    1  C1  UNL     1     -31.524   7.761   0.743  1.00 20.00    -0.016 C 
HETATM    2  C2  UNL     1     -32.557   7.780   1.592  1.00 20.00    -0.016 C 
HETATM    3  C4  UNL     1     -31.223   9.121   0.207  1.00 20.00     0.028 C 
HETATM    4  C5  UNL     1     -33.112   9.159   1.758  1.00 20.00     0.042 C 
HETATM    5  C6  UNL     1     -32.463   9.922   0.604  1.00 20.00     0.009 C 
ENDROOT
BRANCH   2   6
HETATM    6  C3  UNL     1     -33.095   6.659   2.296  1.00 20.00     0.159 C 
HETATM    7  O10 UNL     1     -32.901   5.500   1.902  1.00 20.00    -0.292 OA
BRANCH   6   8
HETATM    8  C9  UNL     1     -33.906   6.915   3.549  1.00 20.00     0.060 A 
HETATM    9  C7  UNL     1     -35.382   6.834   3.446  1.00 20.00     0.013 A 
HETATM   10  C8  UNL     1     -34.612   5.763   4.160  1.00 20.00     0.013 A 
ENDBRANCH   6   8
ENDBRANCH   2   6
TORSDOF 2
ENDMDL
