MODEL 1
REMARK VINA RESULT:      -1.8      0.000      0.000
REMARK  4 active torsions:
REMARK  status: ('A' for Active; 'I' for Inactive)
REMARK    1  A    between atoms: C2_2  and  C11_11 
REMARK    2  A    between atoms: C9_9  and  C10_10 
REMARK    3  A    between atoms: C10_10  and  C11_11 
REMARK    4  A    between atoms: C11_11  and  O12_12 
ROOT
HETATM    1  C11 UNL     1     -32.495   6.676   1.400  1.00 20.00     0.147 C 
ENDROOT
BRANCH   1   2
HETATM    2  C2  UNL     1     -33.383   6.275   2.540  1.00 20.00    -0.055 C 
HETATM    3  C1  UNL     1     -34.008   7.184   3.310  1.00 20.00    -0.021 C 
HETATM    4  C3  UNL     1     -34.933   6.826   4.435  1.00 20.00     0.027 C 
HETATM    5  C5  UNL     1     -35.360   5.359   4.421  1.00 20.00     0.004 C 
HETATM    6  C6  UNL     1     -34.176   4.446   4.121  1.00 20.00     0.005 C 
HETATM    7  C4  UNL     1     -33.537   4.793   2.773  1.00 20.00     0.036 C 
ENDBRANCH   1   2
BRANCH   1   8
HETATM    8  C10 UNL     1     -31.971   8.096   1.567  1.00 20.00     0.041 C 
BRANCH   8   9
HETATM    9  C9  UNL     1     -32.810   9.124   0.824  1.00 20.00    -0.012 A 
HETATM   10  C7  UNL     1     -32.341  10.548   0.712  1.00 20.00     0.005 A 
HETATM   11  C8  UNL     1     -32.348   9.661  -0.502  1.00 20.00     0.005 A 
ENDBRANCH   8   9
ENDBRANCH   1   8
BRANCH   1  12
HETATM   12  O12 UNL     1     -31.404   5.772   1.442  1.00 20.00    -0.391 OA
HETATM   13  H30 UNL     1     -31.756   4.918   1.744  1.00 20.00     0.210 HD
ENDBRANCH   1  12
TORSDOF 4
ENDMDL
MODEL 2
REMARK VINA RESULT:      -1.7      1.131      1.911
REMARK  4 active torsions:
REMARK  status: ('A' for Active; 'I' for Inactive)
REMARK    1  A    between atoms: C2_2  and  C11_11 
REMARK    2  A    between atoms: C9_9  and  C10_10 
REMARK    3  A    between atoms: C10_10  and  C11_11 
REMARK    4  A    between atoms: C11_11  and  O12_12 
ROOT
HETATM    1  C11 UNL     1     -32.145   7.416   2.145  1.00 20.00     0.147 C 
ENDROOT
BRANCH   1   2
HETATM    2  C2  UNL     1     -33.150   6.550   2.844  1.00 20.00    -0.055 C 
HETATM    3  C1  UNL     1     -33.081   5.207   2.808  1.00 20.00    -0.021 C 
HETATM    4  C3  UNL     1     -34.043   4.305   3.524  1.00 20.00     0.027 C 
HETATM    5  C5  UNL     1     -34.900   5.036   4.557  1.00 20.00     0.004 C 
HETATM    6  C6  UNL     1     -35.405   6.366   4.008  1.00 20.00     0.005 C 
HETATM    7  C4  UNL     1     -34.242   7.272   3.594  1.00 20.00     0.036 C 
ENDBRANCH   1   2
BRANCH   1   8
HETATM    8  C10 UNL     1     -32.722   8.039   0.882  1.00 20.00     0.041 C 
BRANCH   8   9
HETATM    9  C9  UNL     1     -32.070   9.367   0.530  1.00 20.00    -0.012 A 
HETATM   10  C7  UNL     1     -32.539  10.150  -0.664  1.00 20.00     0.005 A 
HETATM   11  C8  UNL     1     -32.822  10.654   0.723  1.00 20.00     0.005 A 
ENDBRANCH   8   9
ENDBRANCH   1   8
BRANCH   1  12
HETATM   12  O12 UNL     1     -31.834   8.446   3.068  1.00 20.00    -0.391 OA
HETATM   13  H30 UNL     1     -31.006   8.190   3.508  1.00 20.00     0.210 HD
ENDBRANCH   1  12
TORSDOF 4
ENDMDL
MODEL 3
REMARK VINA RESULT:      -1.7      1.081      1.249
REMARK  4 active torsions:
REMARK  status: ('A' for Active; 'I' for Inactive)
REMARK    1  A    between atoms: C2_2  and  C11_11 
REMARK    2  A    between atoms: C9_9  and  C10_10 
REMARK    3  A    between atoms: C10_10  and  C11_11 
REMARK    4  A    between atoms: C11_11  and  O12_12 
ROOT
HETATM    1  C11 UNL     1     -31.950   7.422   1.820  1.00 20.00     0.147 C 
ENDROOT
BRANCH   1   2
HETATM    2  C2  UNL     1     -33.020   6.873   2.716  1.00 20.00    -0.055 C 
HETATM    3  C1  UNL     1     -33.687   7.650   3.588  1.00 20.00    -0.021 C 
HETATM    4  C3  UNL     1     -34.788   7.149   4.475  1.00 20.00     0.027 C 
HETATM    5  C5  UNL     1     -35.307   5.769   4.072  1.00 20.00     0.004 C 
HETATM    6  C6  UNL     1     -34.156   4.832   3.723  1.00 20.00     0.005 C 
HETATM    7  C4  UNL     1     -33.307   5.398   2.583  1.00 20.00     0.036 C 
ENDBRANCH   1   2
BRANCH   1   8
HETATM    8  C10 UNL     1     -32.538   8.071   0.575  1.00 20.00     0.041 C 
BRANCH   8   9
HETATM    9  C9  UNL     1     -32.041   9.492   0.361  1.00 20.00    -0.012 A 
HETATM   10  C7  UNL     1     -32.702  10.382  -0.654  1.00 20.00     0.005 A 
HETATM   11  C8  UNL     1     -32.873  10.661   0.813  1.00 20.00     0.005 A 
ENDBRANCH   8   9
ENDBRANCH   1   8
BRANCH   1  12
HETATM   12  O12 UNL     1     -31.292   8.414   2.591  1.00 20.00    -0.391 OA
HETATM   13  H30 UNL     1     -31.429   9.262   2.137  1.00 20.00     0.210 HD
ENDBRANCH   1  12
TORSDOF 4
ENDMDL
MODEL 4
REMARK VINA RESULT:      -1.5      2.090      5.372
REMARK  4 active torsions:
REMARK  status: ('A' for Active; 'I' for Inactive)
REMARK    1  A    between atoms: C2_2  and  C11_11 
REMARK    2  A    between atoms: C9_9  and  C10_10 
REMARK    3  A    between atoms: C10_10  and  C11_11 
REMARK    4  A    between atoms: C11_11  and  O12_12 
ROOT
HETATM    1  C11 UNL     1     -34.988   5.432   3.500  1.00 20.00     0.147 C 
ENDROOT
BRANCH   1   2
HETATM    2  C2  UNL     1     -33.862   6.273   2.977  1.00 20.00    -0.055 C 
HETATM    3  C1  UNL     1     -33.103   5.880   1.938  1.00 20.00    -0.021 C 
HETATM    4  C3  UNL     1     -31.992   6.706   1.360  1.00 20.00     0.027 C 
HETATM    5  C5  UNL     1     -32.011   8.159   1.835  1.00 20.00     0.004 C 
HETATM    6  C6  UNL     1     -32.291   8.242   3.331  1.00 20.00     0.005 C 
HETATM    7  C4  UNL     1     -33.630   7.586   3.682  1.00 20.00     0.036 C 
ENDBRANCH   1   2
BRANCH   1   8
HETATM    8  C10 UNL     1     -34.530   4.514   4.624  1.00 20.00     0.041 C 
BRANCH   8   9
HETATM    9  C9  UNL     1     -33.382   3.606   4.211  1.00 20.00    -0.012 A 
HETATM   10  C7  UNL     1     -32.433   3.064   5.244  1.00 20.00     0.005 A 
HETATM   11  C8  UNL     1     -33.408   2.145   4.563  1.00 20.00     0.005 A 
ENDBRANCH   8   9
ENDBRANCH   1   8
BRANCH   1  12
HETATM   12  O12 UNL     1     -35.935   6.355   4.013  1.00 20.00    -0.391 OA
HETATM   13  H30 UNL     1     -36.227   6.011   4.873  1.00 20.00     0.210 HD
ENDBRANCH   1  12
TORSDOF 4
ENDMDL
MODEL 5
REMARK VINA RESULT:      -0.1      0.994      5.120
REMARK  4 active torsions:
REMARK  status: ('A' for Active; 'I' for Inactive)
REMARK    1  A    between atoms: C2_2  and  C11_11 
REMARK    2  A    between atoms: C9_9  and  C10_10 
REMARK    3  A    between atoms: C10_10  and  C11_11 
REMARK    4  A    between atoms: C11_11  and  O12_12 
ROOT
HETATM    1  C11 UNL     1     -32.135   7.204   2.340  1.00 20.00     0.147 C 
ENDROOT
BRANCH   1   2
HETATM    2  C2  UNL     1     -32.209   8.361   1.388  1.00 20.00    -0.055 C 
HETATM    3  C1  UNL     1     -31.552   8.360   0.215  1.00 20.00    -0.021 C 
HETATM    4  C3  UNL     1     -31.629   9.479  -0.782  1.00 20.00     0.027 C 
HETATM    5  C5  UNL     1     -32.766  10.461  -0.500  1.00 20.00     0.004 C 
HETATM    6  C6  UNL     1     -32.850  10.790   0.986  1.00 20.00     0.005 C 
HETATM    7  C4  UNL     1     -33.065   9.525   1.822  1.00 20.00     0.036 C 
ENDBRANCH   1   2
BRANCH   1   8
HETATM    8  C10 UNL     1     -33.217   7.285   3.408  1.00 20.00     0.041 C 
BRANCH   8   9
HETATM    9  C9  UNL     1     -34.328   6.268   3.198  1.00 20.00    -0.012 A 
HETATM   10  C7  UNL     1     -34.508   5.131   4.165  1.00 20.00     0.005 A 
HETATM   11  C8  UNL     1     -35.517   6.245   4.118  1.00 20.00     0.005 A 
ENDBRANCH   8   9
ENDBRANCH   1   8
BRANCH   1  12
HETATM   12  O12 UNL     1     -32.357   6.052   1.544  1.00 20.00    -0.391 OA
HETATM   13  H30 UNL     1     -32.137   5.282   2.094  1.00 20.00     0.210 HD
ENDBRANCH   1  12
TORSDOF 4
ENDMDL
MODEL 6
REMARK VINA RESULT:       0.2      0.977      5.018
REMARK  4 active torsions:
REMARK  status: ('A' for Active; 'I' for Inactive)
REMARK    1  A    between atoms: C2_2  and  C11_11 
REMARK    2  A    between atoms: C9_9  and  C10_10 
REMARK    3  A    between atoms: C10_10  and  C11_11 
REMARK    4  A    between atoms: C11_11  and  O12_12 
ROOT
HETATM    1  C11 UNL     1     -32.196   7.270   2.354  1.00 20.00     0.147 C 
ENDROOT
BRANCH   1   2
HETATM    2  C2  UNL     1     -32.310   8.453   1.440  1.00 20.00    -0.055 C 
HETATM    3  C1  UNL     1     -32.891   9.602   1.830  1.00 20.00    -0.021 C 
HETATM    4  C3  UNL     1     -32.992  10.820   0.960  1.00 20.00     0.027 C 
HETATM    5  C5  UNL     1     -32.097  10.755  -0.276  1.00 20.00     0.004 C 
HETATM    6  C6  UNL     1     -32.160   9.377  -0.926  1.00 20.00     0.005 C 
HETATM    7  C4  UNL     1     -31.735   8.281   0.056  1.00 20.00     0.036 C 
ENDBRANCH   1   2
BRANCH   1   8
HETATM    8  C10 UNL     1     -33.262   7.294   3.441  1.00 20.00     0.041 C 
BRANCH   8   9
HETATM    9  C9  UNL     1     -34.338   6.240   3.232  1.00 20.00    -0.012 A 
HETATM   10  C7  UNL     1     -34.439   5.064   4.163  1.00 20.00     0.005 A 
HETATM   11  C8  UNL     1     -35.492   6.136   4.189  1.00 20.00     0.005 A 
ENDBRANCH   8   9
ENDBRANCH   1   8
BRANCH   1  12
HETATM   12  O12 UNL     1     -32.404   6.138   1.526  1.00 20.00    -0.391 OA
HETATM   13  H30 UNL     1     -33.335   6.158   1.249  1.00 20.00     0.210 HD
ENDBRANCH   1  12
TORSDOF 4
ENDMDL
MODEL 7
REMARK VINA RESULT:       0.8      1.429      5.264
REMARK  4 active torsions:
REMARK  status: ('A' for Active; 'I' for Inactive)
REMARK    1  A    between atoms: C2_2  and  C11_11 
REMARK    2  A    between atoms: C9_9  and  C10_10 
REMARK    3  A    between atoms: C10_10  and  C11_11 
REMARK    4  A    between atoms: C11_11  and  O12_12 
ROOT
HETATM    1  C11 UNL     1     -33.158   7.843   3.218  1.00 20.00     0.147 C 
ENDROOT
BRANCH   1   2
HETATM    2  C2  UNL     1     -32.680   8.547   1.984  1.00 20.00    -0.055 C 
HETATM    3  C1  UNL     1     -31.726   8.026   1.191  1.00 20.00    -0.021 C 
HETATM    4  C3  UNL     1     -31.246   8.679  -0.071  1.00 20.00     0.027 C 
HETATM    5  C5  UNL     1     -32.155   9.811  -0.549  1.00 20.00     0.004 C 
HETATM    6  C6  UNL     1     -32.592  10.691   0.616  1.00 20.00     0.005 C 
HETATM    7  C4  UNL     1     -33.330   9.874   1.681  1.00 20.00     0.036 C 
ENDBRANCH   1   2
BRANCH   1   8
HETATM    8  C10 UNL     1     -33.060   6.331   3.077  1.00 20.00     0.041 C 
BRANCH   8   9
HETATM    9  C9  UNL     1     -34.409   5.639   3.201  1.00 20.00    -0.012 A 
HETATM   10  C7  UNL     1     -34.731   4.818   4.418  1.00 20.00     0.005 A 
HETATM   11  C8  UNL     1     -35.424   6.133   4.194  1.00 20.00     0.005 A 
ENDBRANCH   8   9
ENDBRANCH   1   8
BRANCH   1  12
HETATM   12  O12 UNL     1     -32.286   8.269   4.252  1.00 20.00    -0.391 OA
HETATM   13  H30 UNL     1     -31.381   8.072   3.956  1.00 20.00     0.210 HD
ENDBRANCH   1  12
TORSDOF 4
ENDMDL
MODEL 8
REMARK VINA RESULT:       0.9      1.490      1.838
REMARK  4 active torsions:
REMARK  status: ('A' for Active; 'I' for Inactive)
REMARK    1  A    between atoms: C2_2  and  C11_11 
REMARK    2  A    between atoms: C9_9  and  C10_10 
REMARK    3  A    between atoms: C10_10  and  C11_11 
REMARK    4  A    between atoms: C11_11  and  O12_12 
ROOT
HETATM    1  C11 UNL     1     -31.794   8.498   2.595  1.00 20.00     0.147 C 
ENDROOT
BRANCH   1   2
HETATM    2  C2  UNL     1     -32.869   7.541   3.018  1.00 20.00    -0.055 C 
HETATM    3  C1  UNL     1     -33.706   7.814   4.035  1.00 20.00    -0.021 C 
HETATM    4  C3  UNL     1     -34.817   6.902   4.465  1.00 20.00     0.027 C 
HETATM    5  C5  UNL     1     -35.123   5.803   3.449  1.00 20.00     0.004 C 
HETATM    6  C6  UNL     1     -33.839   5.192   2.900  1.00 20.00     0.005 C 
HETATM    7  C4  UNL     1     -32.960   6.255   2.235  1.00 20.00     0.036 C 
ENDBRANCH   1   2
BRANCH   1   8
HETATM    8  C10 UNL     1     -32.352   9.630   1.745  1.00 20.00     0.041 C 
BRANCH   8   9
HETATM    9  C9  UNL     1     -31.906   9.550   0.293  1.00 20.00    -0.012 A 
HETATM   10  C7  UNL     1     -32.659   8.693  -0.686  1.00 20.00     0.005 A 
HETATM   11  C8  UNL     1     -32.730  10.191  -0.788  1.00 20.00     0.005 A 
ENDBRANCH   8   9
ENDBRANCH   1   8
BRANCH   1  12
HETATM   12  O12 UNL     1     -31.279   9.035   3.802  1.00 20.00    -0.391 OA
HETATM   13  H30 UNL     1     -31.767   8.614   4.529  1.00 20.00     0.210 HD
ENDBRANCH   1  12
TORSDOF 4
ENDMDL
