MODEL 1
REMARK VINA RESULT:      -1.2      0.000      0.000
REMARK  2 active torsions:
REMARK  status: ('A' for Active; 'I' for Inactive)
REMARK    1  A    between atoms: C2_2  and  C3_3 
REMARK    2  A    between atoms: C3_3  and  C9_9 
ROOT
HETATM    1  C1  UNL     1     -33.622   7.948   3.693  1.00 20.00    -0.016 C 
HETATM    2  C2  UNL     1     -32.974   7.328   2.697  1.00 20.00    -0.016 C 
HETATM    3  C4  UNL     1     -34.701   7.280   4.495  1.00 20.00     0.028 C 
HETATM    4  C5  UNL     1     -33.228   5.907   2.294  1.00 20.00     0.042 C 
HETATM    5  C6  UNL     1     -35.195   5.970   3.874  1.00 20.00     0.004 C 
HETATM    6  C7  UNL     1     -34.034   5.133   3.342  1.00 20.00     0.005 C 
ENDROOT
BRANCH   2   7
HETATM    7  C3  UNL     1     -31.946   8.084   1.977  1.00 20.00     0.159 C 
HETATM    8  O12 UNL     1     -30.964   8.533   2.574  1.00 20.00    -0.292 OA
BRANCH   7   9
HETATM    9  C9  UNL     1     -32.121   8.285   0.494  1.00 20.00     0.064 A 
HETATM   10  C8  UNL     1     -31.131   9.139  -0.217  1.00 20.00     0.018 A 
HETATM   11  C10 UNL     1     -32.543   9.617  -0.025  1.00 20.00    -0.006 A 
HETATM   12  C11 UNL     1     -32.820  10.790   0.851  1.00 20.00     0.011 C 
ENDBRANCH   7   9
ENDBRANCH   2   7
TORSDOF 2
ENDMDL
MODEL 2
REMARK VINA RESULT:      -1.2      0.501      1.523
REMARK  2 active torsions:
REMARK  status: ('A' for Active; 'I' for Inactive)
REMARK    1  A    between atoms: C2_2  and  C3_3 
REMARK    2  A    between atoms: C3_3  and  C9_9 
ROOT
HETATM    1  C1  UNL     1     -32.972   5.764   2.417  1.00 20.00    -0.016 C 
HETATM    2  C2  UNL     1     -33.081   7.047   2.789  1.00 20.00    -0.016 C 
HETATM    3  C4  UNL     1     -33.855   4.684   2.970  1.00 20.00     0.028 C 
HETATM    4  C5  UNL     1     -34.104   7.549   3.763  1.00 20.00     0.042 C 
HETATM    5  C6  UNL     1     -34.656   5.125   4.199  1.00 20.00     0.004 C 
HETATM    6  C7  UNL     1     -35.221   6.532   4.020  1.00 20.00     0.005 C 
ENDROOT
BRANCH   2   7
HETATM    7  C3  UNL     1     -32.158   8.013   2.188  1.00 20.00     0.159 C 
HETATM    8  O12 UNL     1     -31.386   8.667   2.894  1.00 20.00    -0.292 OA
BRANCH   7   9
HETATM    9  C9  UNL     1     -32.174   8.172   0.689  1.00 20.00     0.064 A 
HETATM   10  C8  UNL     1     -31.089   8.974   0.060  1.00 20.00     0.018 A 
HETATM   11  C10 UNL     1     -32.497   9.499   0.093  1.00 20.00    -0.006 A 
HETATM   12  C11 UNL     1     -32.823  10.707   0.902  1.00 20.00     0.011 C 
ENDBRANCH   7   9
ENDBRANCH   2   7
TORSDOF 2
ENDMDL
MODEL 3
REMARK VINA RESULT:       0.0      1.586      2.052
REMARK  2 active torsions:
REMARK  status: ('A' for Active; 'I' for Inactive)
REMARK    1  A    between atoms: C2_2  and  C3_3 
REMARK    2  A    between atoms: C3_3  and  C9_9 
ROOT
HETATM    1  C1  UNL     1     -34.333   6.815   3.256  1.00 20.00    -0.016 C 
HETATM    2  C2  UNL     1     -33.578   5.888   2.651  1.00 20.00    -0.016 C 
HETATM    3  C4  UNL     1     -35.223   6.498   4.422  1.00 20.00     0.028 C 
HETATM    4  C5  UNL     1     -33.512   4.454   3.083  1.00 20.00     0.042 C 
HETATM    5  C6  UNL     1     -35.419   4.996   4.645  1.00 20.00     0.004 C 
HETATM    6  C7  UNL     1     -34.109   4.231   4.476  1.00 20.00     0.005 C 
ENDROOT
BRANCH   2   7
HETATM    7  C3  UNL     1     -32.756   6.312   1.515  1.00 20.00     0.159 C 
HETATM    8  O12 UNL     1     -33.014   5.924   0.373  1.00 20.00    -0.292 OA
BRANCH   7   9
HETATM    9  C9  UNL     1     -31.599   7.239   1.784  1.00 20.00     0.064 A 
HETATM   10  C8  UNL     1     -31.829   8.400   2.688  1.00 20.00     0.018 A 
HETATM   11  C10 UNL     1     -31.610   8.617   1.216  1.00 20.00    -0.006 A 
HETATM   12  C11 UNL     1     -32.716   9.148   0.369  1.00 20.00     0.011 C 
ENDBRANCH   7   9
ENDBRANCH   2   7
TORSDOF 2
ENDMDL
MODEL 4
REMARK VINA RESULT:       0.3      2.640      5.501
REMARK  2 active torsions:
REMARK  status: ('A' for Active; 'I' for Inactive)
REMARK    1  A    between atoms: C2_2  and  C3_3 
REMARK    2  A    between atoms: C3_3  and  C9_9 
ROOT
HETATM    1  C1  UNL     1     -34.071   6.910   3.883  1.00 20.00    -0.016 C 
HETATM    2  C2  UNL     1     -33.647   5.749   3.362  1.00 20.00    -0.016 C 
HETATM    3  C4  UNL     1     -33.640   8.242   3.343  1.00 20.00     0.028 C 
HETATM    4  C5  UNL     1     -32.732   5.650   2.179  1.00 20.00     0.042 C 
HETATM    5  C6  UNL     1     -32.457   8.152   2.374  1.00 20.00     0.004 C 
HETATM    6  C7  UNL     1     -32.611   6.974   1.416  1.00 20.00     0.005 C 
ENDROOT
BRANCH   2   7
HETATM    7  C3  UNL     1     -34.128   4.510   3.978  1.00 20.00     0.159 C 
HETATM    8  O12 UNL     1     -35.215   4.478   4.559  1.00 20.00    -0.292 OA
BRANCH   7   9
HETATM    9  C9  UNL     1     -33.260   3.282   3.870  1.00 20.00     0.064 A 
HETATM   10  C8  UNL     1     -33.660   2.074   4.644  1.00 20.00     0.018 A 
HETATM   11  C10 UNL     1     -32.438   2.856   5.037  1.00 20.00    -0.006 A 
HETATM   12  C11 UNL     1     -32.408   3.590   6.334  1.00 20.00     0.011 C 
ENDBRANCH   7   9
ENDBRANCH   2   7
TORSDOF 2
ENDMDL
MODEL 5
REMARK VINA RESULT:       0.4      1.583      2.473
REMARK  2 active torsions:
REMARK  status: ('A' for Active; 'I' for Inactive)
REMARK    1  A    between atoms: C2_2  and  C3_3 
REMARK    2  A    between atoms: C3_3  and  C9_9 
ROOT
HETATM    1  C1  UNL     1     -33.325   4.588   3.001  1.00 20.00    -0.016 C 
HETATM    2  C2  UNL     1     -33.539   5.865   2.652  1.00 20.00    -0.016 C 
HETATM    3  C4  UNL     1     -34.066   3.924   4.125  1.00 20.00     0.028 C 
HETATM    4  C5  UNL     1     -34.550   6.753   3.313  1.00 20.00     0.042 C 
HETATM    5  C6  UNL     1     -34.836   4.907   5.011  1.00 20.00     0.004 C 
HETATM    6  C7  UNL     1     -35.545   5.971   4.177  1.00 20.00     0.005 C 
ENDROOT
BRANCH   2   7
HETATM    7  C3  UNL     1     -32.750   6.410   1.544  1.00 20.00     0.159 C 
HETATM    8  O12 UNL     1     -33.016   6.111   0.377  1.00 20.00    -0.292 OA
BRANCH   7   9
HETATM    9  C9  UNL     1     -31.618   7.348   1.875  1.00 20.00     0.064 A 
HETATM   10  C8  UNL     1     -31.907   8.504   2.767  1.00 20.00     0.018 A 
HETATM   11  C10 UNL     1     -31.614   8.727   1.310  1.00 20.00    -0.006 A 
HETATM   12  C11 UNL     1     -32.679   9.248   0.407  1.00 20.00     0.011 C 
ENDBRANCH   7   9
ENDBRANCH   2   7
TORSDOF 2
ENDMDL
MODEL 6
REMARK VINA RESULT:       0.5      2.606      5.641
REMARK  2 active torsions:
REMARK  status: ('A' for Active; 'I' for Inactive)
REMARK    1  A    between atoms: C2_2  and  C3_3 
REMARK    2  A    between atoms: C3_3  and  C9_9 
ROOT
HETATM    1  C1  UNL     1     -32.768   5.648   2.213  1.00 20.00    -0.016 C 
HETATM    2  C2  UNL     1     -33.569   5.789   3.278  1.00 20.00    -0.016 C 
HETATM    3  C4  UNL     1     -32.187   6.821   1.478  1.00 20.00     0.028 C 
HETATM    4  C5  UNL     1     -33.947   7.115   3.868  1.00 20.00     0.042 C 
HETATM    5  C6  UNL     1     -32.834   8.156   1.856  1.00 20.00     0.004 C 
HETATM    6  C7  UNL     1     -33.061   8.258   3.362  1.00 20.00     0.005 C 
ENDROOT
BRANCH   2   7
HETATM    7  C3  UNL     1     -34.084   4.572   3.910  1.00 20.00     0.159 C 
HETATM    8  O12 UNL     1     -35.176   4.577   4.484  1.00 20.00    -0.292 OA
BRANCH   7   9
HETATM    9  C9  UNL     1     -33.247   3.322   3.829  1.00 20.00     0.064 A 
HETATM   10  C8  UNL     1     -33.688   2.134   4.610  1.00 20.00     0.018 A 
HETATM   11  C10 UNL     1     -32.452   2.889   5.012  1.00 20.00    -0.006 A 
HETATM   12  C11 UNL     1     -32.422   3.636   6.301  1.00 20.00     0.011 C 
ENDBRANCH   7   9
ENDBRANCH   2   7
TORSDOF 2
ENDMDL
MODEL 7
REMARK VINA RESULT:       1.2      1.168      4.853
REMARK  2 active torsions:
REMARK  status: ('A' for Active; 'I' for Inactive)
REMARK    1  A    between atoms: C2_2  and  C3_3 
REMARK    2  A    between atoms: C3_3  and  C9_9 
ROOT
HETATM    1  C1  UNL     1     -31.856   7.766   1.585  1.00 20.00    -0.016 C 
HETATM    2  C2  UNL     1     -32.850   8.397   2.226  1.00 20.00    -0.016 C 
HETATM    3  C4  UNL     1     -31.257   8.288   0.312  1.00 20.00     0.028 C 
HETATM    4  C5  UNL     1     -33.447   9.693   1.769  1.00 20.00     0.042 C 
HETATM    5  C6  UNL     1     -32.080   9.407  -0.333  1.00 20.00     0.004 C 
HETATM    6  C7  UNL     1     -32.590  10.396   0.711  1.00 20.00     0.005 C 
ENDROOT
BRANCH   2   7
HETATM    7  C3  UNL     1     -33.362   7.789   3.457  1.00 20.00     0.159 C 
HETATM    8  O12 UNL     1     -32.750   7.912   4.520  1.00 20.00    -0.292 OA
BRANCH   7   9
HETATM    9  C9  UNL     1     -34.657   7.021   3.382  1.00 20.00     0.064 A 
HETATM   10  C8  UNL     1     -35.133   6.332   4.613  1.00 20.00     0.018 A 
HETATM   11  C10 UNL     1     -34.637   5.533   3.440  1.00 20.00    -0.006 A 
HETATM   12  C11 UNL     1     -33.386   4.732   3.560  1.00 20.00     0.011 C 
ENDBRANCH   7   9
ENDBRANCH   2   7
TORSDOF 2
ENDMDL
MODEL 8
REMARK VINA RESULT:       1.5      1.292      4.675
REMARK  2 active torsions:
REMARK  status: ('A' for Active; 'I' for Inactive)
REMARK    1  A    between atoms: C2_2  and  C3_3 
REMARK    2  A    between atoms: C3_3  and  C9_9 
ROOT
HETATM    1  C1  UNL     1     -33.203   9.284   1.859  1.00 20.00    -0.016 C 
HETATM    2  C2  UNL     1     -32.822   8.113   2.388  1.00 20.00    -0.016 C 
HETATM    3  C4  UNL     1     -32.567   9.859   0.627  1.00 20.00     0.028 C 
HETATM    4  C5  UNL     1     -31.753   7.241   1.802  1.00 20.00     0.042 C 
HETATM    5  C6  UNL     1     -31.266   9.154   0.230  1.00 20.00     0.004 C 
HETATM    6  C7  UNL     1     -31.389   7.639   0.368  1.00 20.00     0.005 C 
ENDROOT
BRANCH   2   7
HETATM    7  C3  UNL     1     -33.510   7.656   3.598  1.00 20.00     0.159 C 
HETATM    8  O12 UNL     1     -33.071   7.939   4.716  1.00 20.00    -0.292 OA
BRANCH   7   9
HETATM    9  C9  UNL     1     -34.767   6.841   3.435  1.00 20.00     0.064 A 
HETATM   10  C8  UNL     1     -35.318   6.156   4.636  1.00 20.00     0.018 A 
HETATM   11  C10 UNL     1     -34.700   5.355   3.524  1.00 20.00    -0.006 A 
HETATM   12  C11 UNL     1     -33.436   4.602   3.761  1.00 20.00     0.011 C 
ENDBRANCH   7   9
ENDBRANCH   2   7
TORSDOF 2
ENDMDL
MODEL 9
REMARK VINA RESULT:       1.6      1.019      4.610
REMARK  2 active torsions:
REMARK  status: ('A' for Active; 'I' for Inactive)
REMARK    1  A    between atoms: C2_2  and  C3_3 
REMARK    2  A    between atoms: C3_3  and  C9_9 
ROOT
HETATM    1  C1  UNL     1     -31.584   8.034   1.120  1.00 20.00    -0.016 C 
HETATM    2  C2  UNL     1     -32.503   8.466   1.995  1.00 20.00    -0.016 C 
HETATM    3  C4  UNL     1     -31.285   8.756  -0.161  1.00 20.00     0.028 C 
HETATM    4  C5  UNL     1     -33.305   9.719   1.811  1.00 20.00     0.042 C 
HETATM    5  C6  UNL     1     -32.324   9.825  -0.512  1.00 20.00     0.004 C 
HETATM    6  C7  UNL     1     -32.733  10.629   0.719  1.00 20.00     0.005 C 
ENDROOT
BRANCH   2   7
HETATM    7  C3  UNL     1     -32.716   7.674   3.209  1.00 20.00     0.159 C 
HETATM    8  O12 UNL     1     -32.758   8.218   4.315  1.00 20.00    -0.292 OA
BRANCH   7   9
HETATM    9  C9  UNL     1     -32.889   6.184   3.061  1.00 20.00     0.064 A 
HETATM   10  C8  UNL     1     -33.775   5.688   1.973  1.00 20.00     0.018 A 
HETATM   11  C10 UNL     1     -34.194   5.555   3.410  1.00 20.00    -0.006 A 
HETATM   12  C11 UNL     1     -35.367   6.322   3.918  1.00 20.00     0.011 C 
ENDBRANCH   7   9
ENDBRANCH   2   7
TORSDOF 2
ENDMDL
