MODEL 1
REMARK VINA RESULT:      -2.3      0.000      0.000
REMARK  2 active torsions:
REMARK  status: ('A' for Active; 'I' for Inactive)
REMARK    1  A    between atoms: C2_2  and  C3_3 
REMARK    2  A    between atoms: C3_3  and  C8_8 
ROOT
HETATM    1  C3  UNL     1     -32.730   6.052   1.643  1.00 20.00     0.159 C 
HETATM    2  O11 UNL     1     -32.620   5.161   0.787  1.00 20.00    -0.292 OA
ENDROOT
BRANCH   1   3
HETATM    3  C2  UNL     1     -33.628   5.914   2.745  1.00 20.00    -0.016 C 
HETATM    4  C1  UNL     1     -34.535   6.812   3.144  1.00 20.00    -0.016 C 
HETATM    5  C4  UNL     1     -35.285   6.341   4.345  1.00 20.00     0.028 C 
HETATM    6  C6  UNL     1     -34.927   4.857   4.410  1.00 20.00     0.009 C 
HETATM    7  C5  UNL     1     -33.629   4.699   3.617  1.00 20.00     0.042 C 
ENDBRANCH   1   3
BRANCH   1   8
HETATM    8  C8  UNL     1     -31.911   7.322   1.532  1.00 20.00     0.064 A 
HETATM    9  C7  UNL     1     -32.037   8.323   2.619  1.00 20.00     0.018 A 
HETATM   10  C9  UNL     1     -32.648   8.595   1.270  1.00 20.00    -0.006 A 
HETATM   11  C10 UNL     1     -32.038   9.606   0.362  1.00 20.00     0.011 C 
ENDBRANCH   1   8
TORSDOF 2
ENDMDL
MODEL 2
REMARK VINA RESULT:      -2.0      1.639      2.057
REMARK  2 active torsions:
REMARK  status: ('A' for Active; 'I' for Inactive)
REMARK    1  A    between atoms: C2_2  and  C3_3 
REMARK    2  A    between atoms: C3_3  and  C8_8 
ROOT
HETATM    1  C3  UNL     1     -32.924   7.653   2.989  1.00 20.00     0.159 C 
HETATM    2  O11 UNL     1     -32.411   8.418   3.820  1.00 20.00    -0.292 OA
ENDROOT
BRANCH   1   3
HETATM    3  C2  UNL     1     -33.678   6.511   3.400  1.00 20.00    -0.016 C 
HETATM    4  C1  UNL     1     -33.263   5.240   3.382  1.00 20.00    -0.016 C 
HETATM    5  C4  UNL     1     -34.323   4.307   3.863  1.00 20.00     0.028 C 
HETATM    6  C6  UNL     1     -35.339   5.249   4.507  1.00 20.00     0.009 C 
HETATM    7  C5  UNL     1     -35.083   6.629   3.899  1.00 20.00     0.042 C 
ENDBRANCH   1   3
BRANCH   1   8
HETATM    8  C8  UNL     1     -32.753   7.910   1.506  1.00 20.00     0.064 A 
HETATM    9  C7  UNL     1     -31.380   7.855   0.949  1.00 20.00     0.018 A 
HETATM   10  C9  UNL     1     -32.079   9.180   1.102  1.00 20.00    -0.006 A 
HETATM   11  C10 UNL     1     -32.575   9.907  -0.100  1.00 20.00     0.011 C 
ENDBRANCH   1   8
TORSDOF 2
ENDMDL
MODEL 3
REMARK VINA RESULT:      -1.9      1.594      1.974
REMARK  2 active torsions:
REMARK  status: ('A' for Active; 'I' for Inactive)
REMARK    1  A    between atoms: C2_2  and  C3_3 
REMARK    2  A    between atoms: C3_3  and  C8_8 
ROOT
HETATM    1  C3  UNL     1     -32.318   8.097   2.509  1.00 20.00     0.159 C 
HETATM    2  O11 UNL     1     -31.438   8.638   3.196  1.00 20.00    -0.292 OA
ENDROOT
BRANCH   1   3
HETATM    3  C2  UNL     1     -33.265   7.201   3.092  1.00 20.00    -0.016 C 
HETATM    4  C1  UNL     1     -34.290   7.536   3.884  1.00 20.00    -0.016 C 
HETATM    5  C4  UNL     1     -35.060   6.338   4.327  1.00 20.00     0.028 C 
HETATM    6  C6  UNL     1     -34.547   5.240   3.397  1.00 20.00     0.009 C 
HETATM    7  C5  UNL     1     -33.191   5.722   2.879  1.00 20.00     0.042 C 
ENDBRANCH   1   3
BRANCH   1   8
HETATM    8  C8  UNL     1     -32.403   8.371   1.022  1.00 20.00     0.064 A 
HETATM    9  C7  UNL     1     -31.150   8.723   0.312  1.00 20.00     0.018 A 
HETATM   10  C9  UNL     1     -32.192   9.779   0.569  1.00 20.00    -0.006 A 
HETATM   11  C10 UNL     1     -33.018  10.305  -0.553  1.00 20.00     0.011 C 
ENDBRANCH   1   8
TORSDOF 2
ENDMDL
MODEL 4
REMARK VINA RESULT:      -1.9      0.123      1.200
REMARK  2 active torsions:
REMARK  status: ('A' for Active; 'I' for Inactive)
REMARK    1  A    between atoms: C2_2  and  C3_3 
REMARK    2  A    between atoms: C3_3  and  C8_8 
ROOT
HETATM    1  C3  UNL     1     -32.681   5.990   1.626  1.00 20.00     0.159 C 
HETATM    2  O11 UNL     1     -32.500   5.119   0.761  1.00 20.00    -0.292 OA
ENDROOT
BRANCH   1   3
HETATM    3  C2  UNL     1     -33.629   5.801   2.678  1.00 20.00    -0.016 C 
HETATM    4  C1  UNL     1     -33.709   4.743   3.492  1.00 20.00    -0.016 C 
HETATM    5  C4  UNL     1     -34.836   4.876   4.461  1.00 20.00     0.028 C 
HETATM    6  C6  UNL     1     -35.222   6.349   4.333  1.00 20.00     0.009 C 
HETATM    7  C5  UNL     1     -34.692   6.811   2.976  1.00 20.00     0.042 C 
ENDBRANCH   1   3
BRANCH   1   8
HETATM    8  C8  UNL     1     -31.899   7.286   1.582  1.00 20.00     0.064 A 
HETATM    9  C7  UNL     1     -32.101   8.253   2.688  1.00 20.00     0.018 A 
HETATM   10  C9  UNL     1     -32.665   8.542   1.322  1.00 20.00    -0.006 A 
HETATM   11  C10 UNL     1     -32.050   9.595   0.466  1.00 20.00     0.011 C 
ENDBRANCH   1   8
TORSDOF 2
ENDMDL
MODEL 5
REMARK VINA RESULT:      -1.7      1.719      4.635
REMARK  2 active torsions:
REMARK  status: ('A' for Active; 'I' for Inactive)
REMARK    1  A    between atoms: C2_2  and  C3_3 
REMARK    2  A    between atoms: C3_3  and  C8_8 
ROOT
HETATM    1  C3  UNL     1     -34.146   6.581   3.596  1.00 20.00     0.159 C 
HETATM    2  O11 UNL     1     -34.683   7.387   4.373  1.00 20.00    -0.292 OA
ENDROOT
BRANCH   1   3
HETATM    3  C2  UNL     1     -33.195   7.014   2.622  1.00 20.00    -0.016 C 
HETATM    4  C1  UNL     1     -32.648   8.232   2.535  1.00 20.00    -0.016 C 
HETATM    5  C4  UNL     1     -31.711   8.335   1.380  1.00 20.00     0.028 C 
HETATM    6  C6  UNL     1     -31.508   6.875   0.975  1.00 20.00     0.009 C 
HETATM    7  C5  UNL     1     -32.707   6.109   1.536  1.00 20.00     0.042 C 
ENDBRANCH   1   3
BRANCH   1   8
HETATM    8  C8  UNL     1     -34.496   5.109   3.660  1.00 20.00     0.064 A 
HETATM    9  C7  UNL     1     -35.319   4.644   4.802  1.00 20.00     0.018 A 
HETATM   10  C9  UNL     1     -33.856   4.296   4.737  1.00 20.00    -0.006 A 
HETATM   11  C10 UNL     1     -33.431   2.902   4.429  1.00 20.00     0.011 C 
ENDBRANCH   1   8
TORSDOF 2
ENDMDL
MODEL 6
REMARK VINA RESULT:      -1.6      1.701      4.801
REMARK  2 active torsions:
REMARK  status: ('A' for Active; 'I' for Inactive)
REMARK    1  A    between atoms: C2_2  and  C3_3 
REMARK    2  A    between atoms: C3_3  and  C8_8 
ROOT
HETATM    1  C3  UNL     1     -33.444   7.584   3.392  1.00 20.00     0.159 C 
HETATM    2  O11 UNL     1     -33.449   8.159   4.492  1.00 20.00    -0.292 OA
ENDROOT
BRANCH   1   3
HETATM    3  C2  UNL     1     -32.758   8.141   2.269  1.00 20.00    -0.016 C 
HETATM    4  C1  UNL     1     -31.836   7.527   1.520  1.00 20.00    -0.016 C 
HETATM    5  C4  UNL     1     -31.317   8.419   0.443  1.00 20.00     0.028 C 
HETATM    6  C6  UNL     1     -32.323   9.569   0.439  1.00 20.00     0.009 C 
HETATM    7  C5  UNL     1     -33.003   9.543   1.809  1.00 20.00     0.042 C 
ENDBRANCH   1   3
BRANCH   1   8
HETATM    8  C8  UNL     1     -34.178   6.272   3.212  1.00 20.00     0.064 A 
HETATM    9  C7  UNL     1     -35.399   6.046   4.022  1.00 20.00     0.018 A 
HETATM   10  C9  UNL     1     -34.133   5.297   4.342  1.00 20.00    -0.006 A 
HETATM   11  C10 UNL     1     -34.025   3.844   4.035  1.00 20.00     0.011 C 
ENDBRANCH   1   8
TORSDOF 2
ENDMDL
MODEL 7
REMARK VINA RESULT:      -1.4      1.695      4.647
REMARK  2 active torsions:
REMARK  status: ('A' for Active; 'I' for Inactive)
REMARK    1  A    between atoms: C2_2  and  C3_3 
REMARK    2  A    between atoms: C3_3  and  C8_8 
ROOT
HETATM    1  C3  UNL     1     -33.480   7.459   3.412  1.00 20.00     0.159 C 
HETATM    2  O11 UNL     1     -33.466   8.039   4.509  1.00 20.00    -0.292 OA
ENDROOT
BRANCH   1   3
HETATM    3  C2  UNL     1     -32.849   8.031   2.265  1.00 20.00    -0.016 C 
HETATM    4  C1  UNL     1     -33.026   9.272   1.800  1.00 20.00    -0.016 C 
HETATM    5  C4  UNL     1     -32.221   9.520   0.569  1.00 20.00     0.028 C 
HETATM    6  C6  UNL     1     -31.254   8.337   0.551  1.00 20.00     0.009 C 
HETATM    7  C5  UNL     1     -31.895   7.252   1.417  1.00 20.00     0.042 C 
ENDBRANCH   1   3
BRANCH   1   8
HETATM    8  C8  UNL     1     -34.180   6.124   3.262  1.00 20.00     0.064 A 
HETATM    9  C7  UNL     1     -35.375   5.872   4.102  1.00 20.00     0.018 A 
HETATM   10  C9  UNL     1     -34.081   5.163   4.401  1.00 20.00    -0.006 A 
HETATM   11  C10 UNL     1     -33.937   3.710   4.106  1.00 20.00     0.011 C 
ENDBRANCH   1   8
TORSDOF 2
ENDMDL
MODEL 8
REMARK VINA RESULT:      -1.3      1.258      4.745
REMARK  2 active torsions:
REMARK  status: ('A' for Active; 'I' for Inactive)
REMARK    1  A    between atoms: C2_2  and  C3_3 
REMARK    2  A    between atoms: C3_3  and  C8_8 
ROOT
HETATM    1  C3  UNL     1     -32.618   7.609   1.979  1.00 20.00     0.159 C 
HETATM    2  O11 UNL     1     -31.860   6.627   1.960  1.00 20.00    -0.292 OA
ENDROOT
BRANCH   1   3
HETATM    3  C2  UNL     1     -32.402   8.727   1.116  1.00 20.00    -0.016 C 
HETATM    4  C1  UNL     1     -31.741   8.715  -0.046  1.00 20.00    -0.016 C 
HETATM    5  C4  UNL     1     -31.693  10.070  -0.668  1.00 20.00     0.028 C 
HETATM    6  C6  UNL     1     -32.733  10.850   0.136  1.00 20.00     0.009 C 
HETATM    7  C5  UNL     1     -32.903  10.096   1.455  1.00 20.00     0.042 C 
ENDBRANCH   1   3
BRANCH   1   8
HETATM    8  C8  UNL     1     -33.795   7.648   2.931  1.00 20.00     0.064 A 
HETATM    9  C7  UNL     1     -33.506   7.711   4.384  1.00 20.00     0.018 A 
HETATM   10  C9  UNL     1     -34.036   6.440   3.776  1.00 20.00    -0.006 A 
HETATM   11  C10 UNL     1     -35.439   6.013   4.038  1.00 20.00     0.011 C 
ENDBRANCH   1   8
TORSDOF 2
ENDMDL
MODEL 9
REMARK VINA RESULT:      -0.5      1.123      4.133
REMARK  2 active torsions:
REMARK  status: ('A' for Active; 'I' for Inactive)
REMARK    1  A    between atoms: C2_2  and  C3_3 
REMARK    2  A    between atoms: C3_3  and  C8_8 
ROOT
HETATM    1  C3  UNL     1     -32.775   6.529   1.797  1.00 20.00     0.159 C 
HETATM    2  O11 UNL     1     -32.605   5.478   1.160  1.00 20.00    -0.292 OA
ENDROOT
BRANCH   1   3
HETATM    3  C2  UNL     1     -32.580   7.805   1.186  1.00 20.00    -0.016 C 
HETATM    4  C1  UNL     1     -32.882   8.133  -0.075  1.00 20.00    -0.016 C 
HETATM    5  C4  UNL     1     -32.522   9.549  -0.378  1.00 20.00     0.028 C 
HETATM    6  C6  UNL     1     -32.266  10.139   1.008  1.00 20.00     0.009 C 
HETATM    7  C5  UNL     1     -31.970   8.953   1.926  1.00 20.00     0.042 C 
ENDBRANCH   1   3
BRANCH   1   8
HETATM    8  C8  UNL     1     -33.187   6.481   3.254  1.00 20.00     0.064 A 
HETATM    9  C7  UNL     1     -34.604   6.169   3.561  1.00 20.00     0.018 A 
HETATM   10  C9  UNL     1     -34.082   7.569   3.752  1.00 20.00    -0.006 A 
HETATM   11  C10 UNL     1     -33.865   8.106   5.124  1.00 20.00     0.011 C 
ENDBRANCH   1   8
TORSDOF 2
ENDMDL
