MODEL 1
REMARK VINA RESULT:      -1.9      0.000      0.000
REMARK  4 active torsions:
REMARK  status: ('A' for Active; 'I' for Inactive)
REMARK    1  A    between atoms: C4_4  and  C6_6 
REMARK    2  A    between atoms: C5_5  and  C7_7 
REMARK    3  A    between atoms: C6_6  and  C7_7 
REMARK    4  A    between atoms: C7_7  and  N8_8 
ROOT
HETATM    1  C1  UNL     1     -32.004   8.833   1.083  1.00 20.00     0.158 C 
HETATM    2  N8  UNL     1     -31.549   8.061   1.839  1.00 20.00    -0.270 NA
HETATM    3  S9  UNL     1     -32.589   9.896   0.052  1.00 20.00    -0.055 SA
ENDROOT
BRANCH   2   4
HETATM    4  C7  UNL     1     -32.516   7.107   2.399  1.00 20.00     0.109 C 
BRANCH   4   5
HETATM    5  C5  UNL     1     -32.946   6.127   1.302  1.00 20.00     0.023 C 
HETATM    6  C3  UNL     1     -31.929   5.014   1.080  1.00 20.00     0.007 C 
ENDBRANCH   4   5
BRANCH   4   7
HETATM    7  C6  UNL     1     -33.723   7.880   2.949  1.00 20.00     0.027 C 
BRANCH   7   8
HETATM    8  C4  UNL     1     -34.249   7.287   4.259  1.00 20.00    -0.002 C 
HETATM    9  C2  UNL     1     -35.303   6.221   4.002  1.00 20.00     0.005 C 
ENDBRANCH   7   8
ENDBRANCH   4   7
ENDBRANCH   2   4
TORSDOF 4
ENDMDL
MODEL 2
REMARK VINA RESULT:      -1.8      2.379      3.791
REMARK  4 active torsions:
REMARK  status: ('A' for Active; 'I' for Inactive)
REMARK    1  A    between atoms: C4_4  and  C6_6 
REMARK    2  A    between atoms: C5_5  and  C7_7 
REMARK    3  A    between atoms: C6_6  and  C7_7 
REMARK    4  A    between atoms: C7_7  and  N8_8 
ROOT
HETATM    1  C1  UNL     1     -34.062   6.980   3.602  1.00 20.00     0.158 C 
HETATM    2  N8  UNL     1     -33.175   7.654   3.235  1.00 20.00    -0.270 NA
HETATM    3  S9  UNL     1     -35.265   6.082   4.131  1.00 20.00    -0.055 SA
ENDROOT
BRANCH   2   4
HETATM    4  C7  UNL     1     -32.736   7.395   1.857  1.00 20.00     0.109 C 
BRANCH   4   5
HETATM    5  C5  UNL     1     -32.173   5.971   1.769  1.00 20.00     0.023 C 
HETATM    6  C3  UNL     1     -32.807   5.159   0.646  1.00 20.00     0.007 C 
ENDBRANCH   4   5
BRANCH   4   7
HETATM    7  C6  UNL     1     -31.674   8.431   1.464  1.00 20.00     0.027 C 
BRANCH   7   8
HETATM    8  C4  UNL     1     -32.007   9.139   0.148  1.00 20.00    -0.002 C 
HETATM    9  C2  UNL     1     -32.694  10.473   0.394  1.00 20.00     0.005 C 
ENDBRANCH   7   8
ENDBRANCH   4   7
ENDBRANCH   2   4
TORSDOF 4
ENDMDL
MODEL 3
REMARK VINA RESULT:      -1.7      3.502      4.856
REMARK  4 active torsions:
REMARK  status: ('A' for Active; 'I' for Inactive)
REMARK    1  A    between atoms: C4_4  and  C6_6 
REMARK    2  A    between atoms: C5_5  and  C7_7 
REMARK    3  A    between atoms: C6_6  and  C7_7 
REMARK    4  A    between atoms: C7_7  and  N8_8 
ROOT
HETATM    1  C1  UNL     1     -33.856   3.977   4.203  1.00 20.00     0.158 C 
HETATM    2  N8  UNL     1     -34.468   4.873   3.757  1.00 20.00    -0.270 NA
HETATM    3  S9  UNL     1     -33.055   2.743   4.811  1.00 20.00    -0.055 SA
ENDROOT
BRANCH   2   4
HETATM    4  C7  UNL     1     -33.665   6.057   3.421  1.00 20.00     0.109 C 
BRANCH   4   5
HETATM    5  C5  UNL     1     -34.420   7.316   3.866  1.00 20.00     0.023 C 
HETATM    6  C3  UNL     1     -33.635   8.140   4.880  1.00 20.00     0.007 C 
ENDBRANCH   4   5
BRANCH   4   7
HETATM    7  C6  UNL     1     -33.408   6.077   1.908  1.00 20.00     0.027 C 
BRANCH   7   8
HETATM    8  C4  UNL     1     -31.989   6.536   1.563  1.00 20.00    -0.002 C 
HETATM    9  C2  UNL     1     -31.877   8.052   1.579  1.00 20.00     0.005 C 
ENDBRANCH   7   8
ENDBRANCH   4   7
ENDBRANCH   2   4
TORSDOF 4
ENDMDL
MODEL 4
REMARK VINA RESULT:      -1.5      1.559      2.621
REMARK  4 active torsions:
REMARK  status: ('A' for Active; 'I' for Inactive)
REMARK    1  A    between atoms: C4_4  and  C6_6 
REMARK    2  A    between atoms: C5_5  and  C7_7 
REMARK    3  A    between atoms: C6_6  and  C7_7 
REMARK    4  A    between atoms: C7_7  and  N8_8 
ROOT
HETATM    1  C1  UNL     1     -32.332   8.440   1.531  1.00 20.00     0.158 C 
HETATM    2  N8  UNL     1     -32.284   7.628   2.376  1.00 20.00    -0.270 NA
HETATM    3  S9  UNL     1     -32.362   9.548   0.390  1.00 20.00    -0.055 SA
ENDROOT
BRANCH   2   4
HETATM    4  C7  UNL     1     -33.549   6.922   2.622  1.00 20.00     0.109 C 
BRANCH   4   5
HETATM    5  C5  UNL     1     -34.198   7.485   3.892  1.00 20.00     0.023 C 
HETATM    6  C3  UNL     1     -33.179   8.085   4.853  1.00 20.00     0.007 C 
ENDBRANCH   4   5
BRANCH   4   7
HETATM    7  C6  UNL     1     -33.268   5.420   2.769  1.00 20.00     0.027 C 
BRANCH   7   8
HETATM    8  C4  UNL     1     -34.213   4.743   3.764  1.00 20.00    -0.002 C 
HETATM    9  C2  UNL     1     -33.598   3.477   4.340  1.00 20.00     0.005 C 
ENDBRANCH   7   8
ENDBRANCH   4   7
ENDBRANCH   2   4
TORSDOF 4
ENDMDL
MODEL 5
REMARK VINA RESULT:      -1.5      0.710      3.086
REMARK  4 active torsions:
REMARK  status: ('A' for Active; 'I' for Inactive)
REMARK    1  A    between atoms: C4_4  and  C6_6 
REMARK    2  A    between atoms: C5_5  and  C7_7 
REMARK    3  A    between atoms: C6_6  and  C7_7 
REMARK    4  A    between atoms: C7_7  and  N8_8 
ROOT
HETATM    1  C1  UNL     1     -32.268   8.831   1.236  1.00 20.00     0.158 C 
HETATM    2  N8  UNL     1     -32.122   8.022   2.072  1.00 20.00    -0.270 NA
HETATM    3  S9  UNL     1     -32.432   9.941   0.107  1.00 20.00    -0.055 SA
ENDROOT
BRANCH   2   4
HETATM    4  C7  UNL     1     -33.277   7.138   2.278  1.00 20.00     0.109 C 
BRANCH   4   5
HETATM    5  C5  UNL     1     -33.873   7.406   3.665  1.00 20.00     0.023 C 
HETATM    6  C3  UNL     1     -35.032   6.474   3.994  1.00 20.00     0.007 C 
ENDBRANCH   4   5
BRANCH   4   7
HETATM    7  C6  UNL     1     -32.821   5.677   2.149  1.00 20.00     0.027 C 
BRANCH   7   8
HETATM    8  C4  UNL     1     -32.762   5.210   0.692  1.00 20.00    -0.002 C 
HETATM    9  C2  UNL     1     -31.475   4.453   0.405  1.00 20.00     0.005 C 
ENDBRANCH   7   8
ENDBRANCH   4   7
ENDBRANCH   2   4
TORSDOF 4
ENDMDL
MODEL 6
REMARK VINA RESULT:      -1.3      2.237      2.861
REMARK  4 active torsions:
REMARK  status: ('A' for Active; 'I' for Inactive)
REMARK    1  A    between atoms: C4_4  and  C6_6 
REMARK    2  A    between atoms: C5_5  and  C7_7 
REMARK    3  A    between atoms: C6_6  and  C7_7 
REMARK    4  A    between atoms: C7_7  and  N8_8 
ROOT
HETATM    1  C1  UNL     1     -32.709   6.427   1.875  1.00 20.00     0.158 C 
HETATM    2  N8  UNL     1     -33.351   5.482   2.140  1.00 20.00    -0.270 NA
HETATM    3  S9  UNL     1     -31.837   7.699   1.482  1.00 20.00    -0.055 SA
ENDROOT
BRANCH   2   4
HETATM    4  C7  UNL     1     -33.722   5.369   3.558  1.00 20.00     0.109 C 
BRANCH   4   5
HETATM    5  C5  UNL     1     -34.049   3.906   3.875  1.00 20.00     0.023 C 
HETATM    6  C3  UNL     1     -33.024   3.265   4.804  1.00 20.00     0.007 C 
ENDBRANCH   4   5
BRANCH   4   7
HETATM    7  C6  UNL     1     -34.930   6.275   3.835  1.00 20.00     0.027 C 
BRANCH   7   8
HETATM    8  C4  UNL     1     -34.534   7.746   3.994  1.00 20.00    -0.002 C 
HETATM    9  C2  UNL     1     -33.435   7.914   5.032  1.00 20.00     0.005 C 
ENDBRANCH   7   8
ENDBRANCH   4   7
ENDBRANCH   2   4
TORSDOF 4
ENDMDL
MODEL 7
REMARK VINA RESULT:      -1.0      1.773      2.715
REMARK  4 active torsions:
REMARK  status: ('A' for Active; 'I' for Inactive)
REMARK    1  A    between atoms: C4_4  and  C6_6 
REMARK    2  A    between atoms: C5_5  and  C7_7 
REMARK    3  A    between atoms: C6_6  and  C7_7 
REMARK    4  A    between atoms: C7_7  and  N8_8 
ROOT
HETATM    1  C1  UNL     1     -32.185   7.989   1.420  1.00 20.00     0.158 C 
HETATM    2  N8  UNL     1     -32.044   6.952   1.948  1.00 20.00    -0.270 NA
HETATM    3  S9  UNL     1     -32.341   9.400   0.699  1.00 20.00    -0.055 SA
ENDROOT
BRANCH   2   4
HETATM    4  C7  UNL     1     -33.291   6.317   2.397  1.00 20.00     0.109 C 
BRANCH   4   5
HETATM    5  C5  UNL     1     -33.830   7.076   3.615  1.00 20.00     0.023 C 
HETATM    6  C3  UNL     1     -35.309   6.810   3.863  1.00 20.00     0.007 C 
ENDBRANCH   4   5
BRANCH   4   7
HETATM    7  C6  UNL     1     -33.011   4.848   2.745  1.00 20.00     0.027 C 
BRANCH   7   8
HETATM    8  C4  UNL     1     -33.942   4.319   3.839  1.00 20.00    -0.002 C 
HETATM    9  C2  UNL     1     -33.335   3.121   4.552  1.00 20.00     0.005 C 
ENDBRANCH   7   8
ENDBRANCH   4   7
ENDBRANCH   2   4
TORSDOF 4
ENDMDL
MODEL 8
REMARK VINA RESULT:      -0.8      2.133      3.815
REMARK  4 active torsions:
REMARK  status: ('A' for Active; 'I' for Inactive)
REMARK    1  A    between atoms: C4_4  and  C6_6 
REMARK    2  A    between atoms: C5_5  and  C7_7 
REMARK    3  A    between atoms: C6_6  and  C7_7 
REMARK    4  A    between atoms: C7_7  and  N8_8 
ROOT
HETATM    1  C1  UNL     1     -32.542   5.693   1.412  1.00 20.00     0.158 C 
HETATM    2  N8  UNL     1     -33.289   6.514   1.790  1.00 20.00    -0.270 NA
HETATM    3  S9  UNL     1     -31.550   4.570   0.874  1.00 20.00    -0.055 SA
ENDROOT
BRANCH   2   4
HETATM    4  C7  UNL     1     -32.816   7.289   2.945  1.00 20.00     0.109 C 
BRANCH   4   5
HETATM    5  C5  UNL     1     -33.995   7.548   3.891  1.00 20.00     0.023 C 
HETATM    6  C3  UNL     1     -35.028   6.428   3.858  1.00 20.00     0.007 C 
ENDBRANCH   4   5
BRANCH   4   7
HETATM    7  C6  UNL     1     -32.208   8.610   2.451  1.00 20.00     0.027 C 
BRANCH   7   8
HETATM    8  C4  UNL     1     -32.099   8.667   0.925  1.00 20.00    -0.002 C 
HETATM    9  C2  UNL     1     -32.571  10.008   0.385  1.00 20.00     0.005 C 
ENDBRANCH   7   8
ENDBRANCH   4   7
ENDBRANCH   2   4
TORSDOF 4
ENDMDL
MODEL 9
REMARK VINA RESULT:      -0.7      2.892      4.361
REMARK  4 active torsions:
REMARK  status: ('A' for Active; 'I' for Inactive)
REMARK    1  A    between atoms: C4_4  and  C6_6 
REMARK    2  A    between atoms: C5_5  and  C7_7 
REMARK    3  A    between atoms: C6_6  and  C7_7 
REMARK    4  A    between atoms: C7_7  and  N8_8 
ROOT
HETATM    1  C1  UNL     1     -33.498   5.170   2.940  1.00 20.00     0.158 C 
HETATM    2  N8  UNL     1     -33.148   5.916   2.106  1.00 20.00    -0.270 NA
HETATM    3  S9  UNL     1     -33.983   4.134   4.047  1.00 20.00    -0.055 SA
ENDROOT
BRANCH   2   4
HETATM    4  C7  UNL     1     -32.576   7.174   2.608  1.00 20.00     0.109 C 
BRANCH   4   5
HETATM    5  C5  UNL     1     -33.676   7.980   3.308  1.00 20.00     0.023 C 
HETATM    6  C3  UNL     1     -33.416   8.154   4.799  1.00 20.00     0.007 C 
ENDBRANCH   4   5
BRANCH   4   7
HETATM    7  C6  UNL     1     -31.982   7.961   1.431  1.00 20.00     0.027 C 
BRANCH   7   8
HETATM    8  C4  UNL     1     -32.614   9.347   1.277  1.00 20.00    -0.002 C 
HETATM    9  C2  UNL     1     -32.445   9.879  -0.138  1.00 20.00     0.005 C 
ENDBRANCH   7   8
ENDBRANCH   4   7
ENDBRANCH   2   4
TORSDOF 4
ENDMDL
