MODEL 1
REMARK VINA RESULT:      -2.1      0.000      0.000
REMARK  4 active torsions:
REMARK  status: ('A' for Active; 'I' for Inactive)
REMARK    1  A    between atoms: C4_4  and  C6_6 
REMARK    2  A    between atoms: C5_5  and  C7_7 
REMARK    3  A    between atoms: C6_6  and  C7_7 
REMARK    4  A    between atoms: C7_7  and  N8_8 
ROOT
HETATM    1  C1  UNL     1     -32.242   8.907   1.144  1.00 20.00     0.158 C 
HETATM    2  N8  UNL     1     -32.048   8.118   1.989  1.00 20.00    -0.270 NA
HETATM    3  S9  UNL     1     -32.474   9.994   0.003  1.00 20.00    -0.055 SA
ENDROOT
BRANCH   2   4
HETATM    4  C7  UNL     1     -33.121   7.128   2.160  1.00 20.00     0.109 C 
BRANCH   4   5
HETATM    5  C5  UNL     1     -32.587   5.740   1.785  1.00 20.00     0.023 C 
HETATM    6  C3  UNL     1     -33.221   5.194   0.512  1.00 20.00     0.007 C 
ENDBRANCH   4   5
BRANCH   4   7
HETATM    7  C6  UNL     1     -33.602   7.155   3.619  1.00 20.00     0.027 C 
BRANCH   7   8
HETATM    8  C4  UNL     1     -35.033   6.635   3.771  1.00 20.00    -0.002 C 
HETATM    9  C2  UNL     1     -35.056   5.239   4.375  1.00 20.00     0.005 C 
ENDBRANCH   7   8
ENDBRANCH   4   7
ENDBRANCH   2   4
TORSDOF 4
ENDMDL
MODEL 2
REMARK VINA RESULT:      -1.8      2.396      3.935
REMARK  4 active torsions:
REMARK  status: ('A' for Active; 'I' for Inactive)
REMARK    1  A    between atoms: C4_4  and  C6_6 
REMARK    2  A    between atoms: C5_5  and  C7_7 
REMARK    3  A    between atoms: C6_6  and  C7_7 
REMARK    4  A    between atoms: C7_7  and  N8_8 
ROOT
HETATM    1  C1  UNL     1     -34.017   7.179   3.533  1.00 20.00     0.158 C 
HETATM    2  N8  UNL     1     -33.191   7.916   3.146  1.00 20.00    -0.270 NA
HETATM    3  S9  UNL     1     -35.152   6.204   4.078  1.00 20.00    -0.055 SA
ENDROOT
BRANCH   2   4
HETATM    4  C7  UNL     1     -32.222   7.317   2.216  1.00 20.00     0.109 C 
BRANCH   4   5
HETATM    5  C5  UNL     1     -32.927   6.240   1.383  1.00 20.00     0.023 C 
HETATM    6  C3  UNL     1     -32.028   5.044   1.094  1.00 20.00     0.007 C 
ENDBRANCH   4   5
BRANCH   4   7
HETATM    7  C6  UNL     1     -31.645   8.419   1.315  1.00 20.00     0.027 C 
BRANCH   7   8
HETATM    8  C4  UNL     1     -32.654   9.537   1.041  1.00 20.00    -0.002 C 
HETATM    9  C2  UNL     1     -32.621   9.970  -0.417  1.00 20.00     0.005 C 
ENDBRANCH   7   8
ENDBRANCH   4   7
ENDBRANCH   2   4
TORSDOF 4
ENDMDL
MODEL 3
REMARK VINA RESULT:      -1.5      2.018      3.205
REMARK  4 active torsions:
REMARK  status: ('A' for Active; 'I' for Inactive)
REMARK    1  A    between atoms: C4_4  and  C6_6 
REMARK    2  A    between atoms: C5_5  and  C7_7 
REMARK    3  A    between atoms: C6_6  and  C7_7 
REMARK    4  A    between atoms: C7_7  and  N8_8 
ROOT
HETATM    1  C1  UNL     1     -32.673   6.692   1.869  1.00 20.00     0.158 C 
HETATM    2  N8  UNL     1     -33.295   5.762   2.220  1.00 20.00    -0.270 NA
HETATM    3  S9  UNL     1     -31.827   7.942   1.360  1.00 20.00    -0.055 SA
ENDROOT
BRANCH   2   4
HETATM    4  C7  UNL     1     -33.670   5.776   3.641  1.00 20.00     0.109 C 
BRANCH   4   5
HETATM    5  C5  UNL     1     -34.534   7.011   3.920  1.00 20.00     0.023 C 
HETATM    6  C3  UNL     1     -33.824   8.037   4.794  1.00 20.00     0.007 C 
ENDBRANCH   4   5
BRANCH   4   7
HETATM    7  C6  UNL     1     -34.433   4.485   3.972  1.00 20.00     0.027 C 
BRANCH   7   8
HETATM    8  C4  UNL     1     -33.521   3.256   3.988  1.00 20.00    -0.002 C 
HETATM    9  C2  UNL     1     -32.894   3.048   5.358  1.00 20.00     0.005 C 
ENDBRANCH   7   8
ENDBRANCH   4   7
ENDBRANCH   2   4
TORSDOF 4
ENDMDL
MODEL 4
REMARK VINA RESULT:      -1.4      0.927      1.382
REMARK  4 active torsions:
REMARK  status: ('A' for Active; 'I' for Inactive)
REMARK    1  A    between atoms: C4_4  and  C6_6 
REMARK    2  A    between atoms: C5_5  and  C7_7 
REMARK    3  A    between atoms: C6_6  and  C7_7 
REMARK    4  A    between atoms: C7_7  and  N8_8 
ROOT
HETATM    1  C1  UNL     1     -32.238   8.589   1.151  1.00 20.00     0.158 C 
HETATM    2  N8  UNL     1     -32.099   7.621   1.798  1.00 20.00    -0.270 NA
HETATM    3  S9  UNL     1     -32.394   9.915   0.284  1.00 20.00    -0.055 SA
ENDROOT
BRANCH   2   4
HETATM    4  C7  UNL     1     -33.234   6.687   1.756  1.00 20.00     0.109 C 
BRANCH   4   5
HETATM    5  C5  UNL     1     -32.887   5.519   0.824  1.00 20.00     0.023 C 
HETATM    6  C3  UNL     1     -31.538   4.891   1.151  1.00 20.00     0.007 C 
ENDBRANCH   4   5
BRANCH   4   7
HETATM    7  C6  UNL     1     -33.526   6.187   3.178  1.00 20.00     0.027 C 
BRANCH   7   8
HETATM    8  C4  UNL     1     -34.469   7.120   3.941  1.00 20.00    -0.002 C 
HETATM    9  C2  UNL     1     -33.696   8.101   4.810  1.00 20.00     0.005 C 
ENDBRANCH   7   8
ENDBRANCH   4   7
ENDBRANCH   2   4
TORSDOF 4
ENDMDL
MODEL 5
REMARK VINA RESULT:      -1.4      3.422      4.844
REMARK  4 active torsions:
REMARK  status: ('A' for Active; 'I' for Inactive)
REMARK    1  A    between atoms: C4_4  and  C6_6 
REMARK    2  A    between atoms: C5_5  and  C7_7 
REMARK    3  A    between atoms: C6_6  and  C7_7 
REMARK    4  A    between atoms: C7_7  and  N8_8 
ROOT
HETATM    1  C1  UNL     1     -34.215   4.132   4.414  1.00 20.00     0.158 C 
HETATM    2  N8  UNL     1     -34.978   5.015   4.308  1.00 20.00    -0.270 NA
HETATM    3  S9  UNL     1     -33.201   2.916   4.582  1.00 20.00    -0.055 SA
ENDROOT
BRANCH   2   4
HETATM    4  C7  UNL     1     -34.561   6.077   3.381  1.00 20.00     0.109 C 
BRANCH   4   5
HETATM    5  C5  UNL     1     -34.712   7.437   4.075  1.00 20.00     0.023 C 
HETATM    6  C3  UNL     1     -33.468   7.833   4.860  1.00 20.00     0.007 C 
ENDBRANCH   4   5
BRANCH   4   7
HETATM    7  C6  UNL     1     -33.104   5.834   2.961  1.00 20.00     0.027 C 
BRANCH   7   8
HETATM    8  C4  UNL     1     -32.808   6.353   1.551  1.00 20.00    -0.002 C 
HETATM    9  C2  UNL     1     -31.970   7.622   1.592  1.00 20.00     0.005 C 
ENDBRANCH   7   8
ENDBRANCH   4   7
ENDBRANCH   2   4
TORSDOF 4
ENDMDL
MODEL 6
REMARK VINA RESULT:      -1.0      2.935      4.542
REMARK  4 active torsions:
REMARK  status: ('A' for Active; 'I' for Inactive)
REMARK    1  A    between atoms: C4_4  and  C6_6 
REMARK    2  A    between atoms: C5_5  and  C7_7 
REMARK    3  A    between atoms: C6_6  and  C7_7 
REMARK    4  A    between atoms: C7_7  and  N8_8 
ROOT
HETATM    1  C1  UNL     1     -33.444   5.045   3.028  1.00 20.00     0.158 C 
HETATM    2  N8  UNL     1     -33.119   5.790   2.183  1.00 20.00    -0.270 NA
HETATM    3  S9  UNL     1     -33.872   4.007   4.156  1.00 20.00    -0.055 SA
ENDROOT
BRANCH   2   4
HETATM    4  C7  UNL     1     -33.477   7.194   2.431  1.00 20.00     0.109 C 
BRANCH   4   5
HETATM    5  C5  UNL     1     -34.159   7.302   3.801  1.00 20.00     0.023 C 
HETATM    6  C3  UNL     1     -33.392   8.198   4.766  1.00 20.00     0.007 C 
ENDBRANCH   4   5
BRANCH   4   7
HETATM    7  C6  UNL     1     -32.206   8.054   2.381  1.00 20.00     0.027 C 
BRANCH   7   8
HETATM    8  C4  UNL     1     -31.795   8.404   0.949  1.00 20.00    -0.002 C 
HETATM    9  C2  UNL     1     -32.439   9.703   0.489  1.00 20.00     0.005 C 
ENDBRANCH   7   8
ENDBRANCH   4   7
ENDBRANCH   2   4
TORSDOF 4
ENDMDL
MODEL 7
REMARK VINA RESULT:      -0.9      2.817      4.216
REMARK  4 active torsions:
REMARK  status: ('A' for Active; 'I' for Inactive)
REMARK    1  A    between atoms: C4_4  and  C6_6 
REMARK    2  A    between atoms: C5_5  and  C7_7 
REMARK    3  A    between atoms: C6_6  and  C7_7 
REMARK    4  A    between atoms: C7_7  and  N8_8 
ROOT
HETATM    1  C1  UNL     1     -34.020   5.610   3.688  1.00 20.00     0.158 C 
HETATM    2  N8  UNL     1     -33.914   6.687   3.238  1.00 20.00    -0.270 NA
HETATM    3  S9  UNL     1     -34.194   4.156   4.314  1.00 20.00    -0.055 SA
ENDROOT
BRANCH   2   4
HETATM    4  C7  UNL     1     -32.698   6.902   2.440  1.00 20.00     0.109 C 
BRANCH   4   5
HETATM    5  C5  UNL     1     -32.831   6.147   1.112  1.00 20.00     0.023 C 
HETATM    6  C3  UNL     1     -31.809   5.026   0.972  1.00 20.00     0.007 C 
ENDBRANCH   4   5
BRANCH   4   7
HETATM    7  C6  UNL     1     -32.514   8.407   2.199  1.00 20.00     0.027 C 
BRANCH   7   8
HETATM    8  C4  UNL     1     -31.922   8.710   0.821  1.00 20.00    -0.002 C 
HETATM    9  C2  UNL     1     -32.520   9.976   0.225  1.00 20.00     0.005 C 
ENDBRANCH   7   8
ENDBRANCH   4   7
ENDBRANCH   2   4
TORSDOF 4
ENDMDL
MODEL 8
REMARK VINA RESULT:      -0.9      2.362      3.911
REMARK  4 active torsions:
REMARK  status: ('A' for Active; 'I' for Inactive)
REMARK    1  A    between atoms: C4_4  and  C6_6 
REMARK    2  A    between atoms: C5_5  and  C7_7 
REMARK    3  A    between atoms: C6_6  and  C7_7 
REMARK    4  A    between atoms: C7_7  and  N8_8 
ROOT
HETATM    1  C1  UNL     1     -33.990   7.121   3.571  1.00 20.00     0.158 C 
HETATM    2  N8  UNL     1     -33.132   7.835   3.213  1.00 20.00    -0.270 NA
HETATM    3  S9  UNL     1     -35.156   6.168   4.087  1.00 20.00    -0.055 SA
ENDROOT
BRANCH   2   4
HETATM    4  C7  UNL     1     -32.688   7.616   1.829  1.00 20.00     0.109 C 
BRANCH   4   5
HETATM    5  C5  UNL     1     -31.818   8.799   1.388  1.00 20.00     0.023 C 
HETATM    6  C3  UNL     1     -32.433   9.577   0.231  1.00 20.00     0.007 C 
ENDBRANCH   4   5
BRANCH   4   7
HETATM    7  C6  UNL     1     -31.902   6.299   1.756  1.00 20.00     0.027 C 
BRANCH   7   8
HETATM    8  C4  UNL     1     -32.566   5.273   0.835  1.00 20.00    -0.002 C 
HETATM    9  C2  UNL     1     -31.549   4.293   0.269  1.00 20.00     0.005 C 
ENDBRANCH   7   8
ENDBRANCH   4   7
ENDBRANCH   2   4
TORSDOF 4
ENDMDL
MODEL 9
REMARK VINA RESULT:      -0.9      0.732      2.759
REMARK  4 active torsions:
REMARK  status: ('A' for Active; 'I' for Inactive)
REMARK    1  A    between atoms: C4_4  and  C6_6 
REMARK    2  A    between atoms: C5_5  and  C7_7 
REMARK    3  A    between atoms: C6_6  and  C7_7 
REMARK    4  A    between atoms: C7_7  and  N8_8 
ROOT
HETATM    1  C1  UNL     1     -32.152   8.847   1.466  1.00 20.00     0.158 C 
HETATM    2  N8  UNL     1     -31.868   8.213   2.410  1.00 20.00    -0.270 NA
HETATM    3  S9  UNL     1     -32.511   9.729   0.189  1.00 20.00    -0.055 SA
ENDROOT
BRANCH   2   4
HETATM    4  C7  UNL     1     -32.782   7.099   2.699  1.00 20.00     0.109 C 
BRANCH   4   5
HETATM    5  C5  UNL     1     -33.878   7.585   3.656  1.00 20.00     0.023 C 
HETATM    6  C3  UNL     1     -34.942   6.526   3.912  1.00 20.00     0.007 C 
ENDBRANCH   4   5
BRANCH   4   7
HETATM    7  C6  UNL     1     -33.389   6.592   1.382  1.00 20.00     0.027 C 
BRANCH   7   8
HETATM    8  C4  UNL     1     -32.998   5.144   1.080  1.00 20.00    -0.002 C 
HETATM    9  C2  UNL     1     -31.487   4.969   1.061  1.00 20.00     0.005 C 
ENDBRANCH   7   8
ENDBRANCH   4   7
ENDBRANCH   2   4
TORSDOF 4
ENDMDL
