MODEL 1
REMARK VINA RESULT:      -0.8      0.000      0.000
REMARK  3 active torsions:
REMARK  status: ('A' for Active; 'I' for Inactive)
REMARK    1  A    between atoms: C6_6  and  N10_10 
REMARK    2  A    between atoms: C7_7  and  C8_8 
REMARK    3  A    between atoms: C8_8  and  N10_10 
ROOT
HETATM    1  C1  UNL     1     -32.474   9.318   0.573  1.00 20.00     0.094 C 
HETATM    2  C2  UNL     1     -30.966   8.438   2.315  1.00 20.00     0.059 C 
HETATM    3  C6  UNL     1     -32.399   8.526   1.807  1.00 20.00     0.322 C 
HETATM    4  N9  UNL     1     -32.533   9.946  -0.402  1.00 20.00    -0.195 NA
ENDROOT
BRANCH   3   5
HETATM    5  N10 UNL     1     -32.947   7.193   1.577  1.00 20.00     0.105 N 
HETATM    6  H26 UNL     1     -32.298   6.667   0.989  1.00 20.00     0.318 HD
BRANCH   5   7
HETATM    7  C8  UNL     1     -33.155   6.489   2.826  1.00 20.00     0.221 C 
HETATM    8  C5  UNL     1     -33.372   5.007   2.529  1.00 20.00     0.043 C 
BRANCH   7   9
HETATM    9  C7  UNL     1     -34.314   7.121   3.632  1.00 20.00     0.010 C 
HETATM   10  C3  UNL     1     -35.376   6.115   4.086  1.00 20.00     0.011 C 
HETATM   11  C4  UNL     1     -33.788   7.901   4.842  1.00 20.00     0.011 C 
ENDBRANCH   7   9
ENDBRANCH   5   7
ENDBRANCH   3   5
TORSDOF 3
ENDMDL
MODEL 2
REMARK VINA RESULT:      -0.7      1.537      2.368
REMARK  3 active torsions:
REMARK  status: ('A' for Active; 'I' for Inactive)
REMARK    1  A    between atoms: C6_6  and  N10_10 
REMARK    2  A    between atoms: C7_7  and  C8_8 
REMARK    3  A    between atoms: C8_8  and  N10_10 
ROOT
HETATM    1  C1  UNL     1     -32.078   7.312   1.509  1.00 20.00     0.094 C 
HETATM    2  C2  UNL     1     -31.791   5.045   0.582  1.00 20.00     0.059 C 
HETATM    3  C6  UNL     1     -32.189   5.876   1.795  1.00 20.00     0.322 C 
HETATM    4  N9  UNL     1     -31.989   8.448   1.284  1.00 20.00    -0.195 NA
ENDROOT
BRANCH   3   5
HETATM    5  N10 UNL     1     -33.548   5.556   2.217  1.00 20.00     0.105 N 
HETATM    6  H26 UNL     1     -33.822   4.664   1.799  1.00 20.00     0.318 HD
BRANCH   5   7
HETATM    7  C8  UNL     1     -33.643   5.468   3.660  1.00 20.00     0.221 C 
HETATM    8  C5  UNL     1     -34.014   4.039   4.047  1.00 20.00     0.043 C 
BRANCH   7   9
HETATM    9  C7  UNL     1     -34.630   6.521   4.215  1.00 20.00     0.010 C 
HETATM   10  C3  UNL     1     -34.024   7.919   4.372  1.00 20.00     0.011 C 
HETATM   11  C4  UNL     1     -35.899   6.599   3.359  1.00 20.00     0.011 C 
ENDBRANCH   7   9
ENDBRANCH   5   7
ENDBRANCH   3   5
TORSDOF 3
ENDMDL
MODEL 3
REMARK VINA RESULT:      -0.5      2.374      5.134
REMARK  3 active torsions:
REMARK  status: ('A' for Active; 'I' for Inactive)
REMARK    1  A    between atoms: C6_6  and  N10_10 
REMARK    2  A    between atoms: C7_7  and  C8_8 
REMARK    3  A    between atoms: C8_8  and  N10_10 
ROOT
HETATM    1  C1  UNL     1     -33.739   3.526   4.454  1.00 20.00     0.094 C 
HETATM    2  C2  UNL     1     -35.697   4.985   4.801  1.00 20.00     0.059 C 
HETATM    3  C6  UNL     1     -34.231   4.909   4.399  1.00 20.00     0.322 C 
HETATM    4  N9  UNL     1     -33.350   2.433   4.499  1.00 20.00    -0.195 NA
ENDROOT
BRANCH   3   5
HETATM    5  N10 UNL     1     -34.033   5.454   3.060  1.00 20.00     0.105 N 
HETATM    6  H26 UNL     1     -34.945   5.692   2.664  1.00 20.00     0.318 HD
BRANCH   5   7
HETATM    7  C8  UNL     1     -33.192   6.634   3.093  1.00 20.00     0.221 C 
HETATM    8  C5  UNL     1     -33.971   7.781   3.731  1.00 20.00     0.043 C 
BRANCH   7   9
HETATM    9  C7  UNL     1     -32.662   6.974   1.681  1.00 20.00     0.010 C 
HETATM   10  C3  UNL     1     -31.699   8.165   1.649  1.00 20.00     0.011 C 
HETATM   11  C4  UNL     1     -32.001   5.755   1.026  1.00 20.00     0.011 C 
ENDBRANCH   7   9
ENDBRANCH   5   7
ENDBRANCH   3   5
TORSDOF 3
ENDMDL
MODEL 4
REMARK VINA RESULT:      -0.2      2.417      4.514
REMARK  3 active torsions:
REMARK  status: ('A' for Active; 'I' for Inactive)
REMARK    1  A    between atoms: C6_6  and  N10_10 
REMARK    2  A    between atoms: C7_7  and  C8_8 
REMARK    3  A    between atoms: C8_8  and  N10_10 
ROOT
HETATM    1  C1  UNL     1     -34.907   4.625   4.355  1.00 20.00     0.094 C 
HETATM    2  C2  UNL     1     -33.085   2.995   4.681  1.00 20.00     0.059 C 
HETATM    3  C6  UNL     1     -33.732   4.000   3.737  1.00 20.00     0.322 C 
HETATM    4  N9  UNL     1     -35.838   5.118   4.844  1.00 20.00    -0.195 NA
ENDROOT
BRANCH   3   5
HETATM    5  N10 UNL     1     -32.773   5.027   3.341  1.00 20.00     0.105 N 
HETATM    6  H26 UNL     1     -31.863   4.587   3.190  1.00 20.00     0.318 HD
BRANCH   5   7
HETATM    7  C8  UNL     1     -33.196   5.701   2.130  1.00 20.00     0.221 C 
HETATM    8  C5  UNL     1     -32.296   5.262   0.978  1.00 20.00     0.043 C 
BRANCH   7   9
HETATM    9  C7  UNL     1     -33.219   7.235   2.330  1.00 20.00     0.010 C 
HETATM   10  C3  UNL     1     -33.491   7.669   3.773  1.00 20.00     0.011 C 
HETATM   11  C4  UNL     1     -31.922   7.880   1.829  1.00 20.00     0.011 C 
ENDBRANCH   7   9
ENDBRANCH   5   7
ENDBRANCH   3   5
TORSDOF 3
ENDMDL
MODEL 5
REMARK VINA RESULT:      -0.2      1.880      4.391
REMARK  3 active torsions:
REMARK  status: ('A' for Active; 'I' for Inactive)
REMARK    1  A    between atoms: C6_6  and  N10_10 
REMARK    2  A    between atoms: C7_7  and  C8_8 
REMARK    3  A    between atoms: C8_8  and  N10_10 
ROOT
HETATM    1  C1  UNL     1     -33.881   4.632   3.874  1.00 20.00     0.094 C 
HETATM    2  C2  UNL     1     -34.960   6.847   3.983  1.00 20.00     0.059 C 
HETATM    3  C6  UNL     1     -33.837   6.014   3.381  1.00 20.00     0.322 C 
HETATM    4  N9  UNL     1     -33.915   3.540   4.266  1.00 20.00    -0.195 NA
ENDROOT
BRANCH   3   5
HETATM    5  N10 UNL     1     -33.911   6.025   1.923  1.00 20.00     0.105 N 
HETATM    6  H26 UNL     1     -34.714   6.590   1.638  1.00 20.00     0.318 HD
BRANCH   5   7
HETATM    7  C8  UNL     1     -32.701   6.568   1.340  1.00 20.00     0.221 C 
HETATM    8  C5  UNL     1     -31.544   5.611   1.619  1.00 20.00     0.043 C 
BRANCH   7   9
HETATM    9  C7  UNL     1     -32.436   8.003   1.850  1.00 20.00     0.010 C 
HETATM   10  C3  UNL     1     -31.152   8.144   2.672  1.00 20.00     0.011 C 
HETATM   11  C4  UNL     1     -32.424   9.010   0.694  1.00 20.00     0.011 C 
ENDBRANCH   7   9
ENDBRANCH   5   7
ENDBRANCH   3   5
TORSDOF 3
ENDMDL
MODEL 6
REMARK VINA RESULT:      -0.1      1.387      2.188
REMARK  3 active torsions:
REMARK  status: ('A' for Active; 'I' for Inactive)
REMARK    1  A    between atoms: C6_6  and  N10_10 
REMARK    2  A    between atoms: C7_7  and  C8_8 
REMARK    3  A    between atoms: C8_8  and  N10_10 
ROOT
HETATM    1  C1  UNL     1     -31.792   8.578   2.877  1.00 20.00     0.094 C 
HETATM    2  C2  UNL     1     -32.290   9.360   0.591  1.00 20.00     0.059 C 
HETATM    3  C6  UNL     1     -32.028   8.159   1.490  1.00 20.00     0.322 C 
HETATM    4  N9  UNL     1     -31.605   8.910   3.974  1.00 20.00    -0.195 NA
ENDROOT
BRANCH   3   5
HETATM    5  N10 UNL     1     -33.145   7.221   1.436  1.00 20.00     0.105 N 
HETATM    6  H26 UNL     1     -33.309   6.959   0.462  1.00 20.00     0.318 HD
BRANCH   5   7
HETATM    7  C8  UNL     1     -32.871   6.034   2.221  1.00 20.00     0.221 C 
HETATM    8  C5  UNL     1     -32.324   4.946   1.300  1.00 20.00     0.043 C 
BRANCH   7   9
HETATM    9  C7  UNL     1     -34.127   5.588   3.006  1.00 20.00     0.010 C 
HETATM   10  C3  UNL     1     -33.910   4.342   3.870  1.00 20.00     0.011 C 
HETATM   11  C4  UNL     1     -34.677   6.729   3.870  1.00 20.00     0.011 C 
ENDBRANCH   7   9
ENDBRANCH   5   7
ENDBRANCH   3   5
TORSDOF 3
ENDMDL
MODEL 7
REMARK VINA RESULT:       0.0      1.891      4.018
REMARK  3 active torsions:
REMARK  status: ('A' for Active; 'I' for Inactive)
REMARK    1  A    between atoms: C6_6  and  N10_10 
REMARK    2  A    between atoms: C7_7  and  C8_8 
REMARK    3  A    between atoms: C8_8  and  N10_10 
ROOT
HETATM    1  C1  UNL     1     -33.830   7.736   4.549  1.00 20.00     0.094 C 
HETATM    2  C2  UNL     1     -35.498   5.980   4.083  1.00 20.00     0.059 C 
HETATM    3  C6  UNL     1     -34.403   6.871   3.511  1.00 20.00     0.322 C 
HETATM    4  N9  UNL     1     -33.377   8.420   5.370  1.00 20.00    -0.195 NA
ENDROOT
BRANCH   3   5
HETATM    5  N10 UNL     1     -33.352   6.066   2.897  1.00 20.00     0.105 N 
HETATM    6  H26 UNL     1     -33.701   5.115   2.760  1.00 20.00     0.318 HD
BRANCH   5   7
HETATM    7  C8  UNL     1     -32.941   6.622   1.623  1.00 20.00     0.221 C 
HETATM    8  C5  UNL     1     -31.950   5.668   0.962  1.00 20.00     0.043 C 
BRANCH   7   9
HETATM    9  C7  UNL     1     -32.380   8.052   1.799  1.00 20.00     0.010 C 
HETATM   10  C3  UNL     1     -30.977   8.098   2.411  1.00 20.00     0.011 C 
HETATM   11  C4  UNL     1     -32.393   8.822   0.473  1.00 20.00     0.011 C 
ENDBRANCH   7   9
ENDBRANCH   5   7
ENDBRANCH   3   5
TORSDOF 3
ENDMDL
MODEL 8
REMARK VINA RESULT:       0.0      0.874      1.776
REMARK  3 active torsions:
REMARK  status: ('A' for Active; 'I' for Inactive)
REMARK    1  A    between atoms: C6_6  and  N10_10 
REMARK    2  A    between atoms: C7_7  and  C8_8 
REMARK    3  A    between atoms: C8_8  and  N10_10 
ROOT
HETATM    1  C1  UNL     1     -32.381   9.243   0.912  1.00 20.00     0.094 C 
HETATM    2  C2  UNL     1     -31.091   7.216   1.471  1.00 20.00     0.059 C 
HETATM    3  C6  UNL     1     -32.187   8.179   1.906  1.00 20.00     0.322 C 
HETATM    4  N9  UNL     1     -32.533  10.084   0.127  1.00 20.00    -0.195 NA
ENDROOT
BRANCH   3   5
HETATM    5  N10 UNL     1     -33.443   7.468   2.125  1.00 20.00     0.105 N 
HETATM    6  H26 UNL     1     -33.317   6.489   1.861  1.00 20.00     0.318 HD
BRANCH   5   7
HETATM    7  C8  UNL     1     -33.858   7.551   3.511  1.00 20.00     0.221 C 
HETATM    8  C5  UNL     1     -32.750   8.219   4.321  1.00 20.00     0.043 C 
BRANCH   7   9
HETATM    9  C7  UNL     1     -34.252   6.158   4.055  1.00 20.00     0.010 C 
HETATM   10  C3  UNL     1     -35.764   5.925   4.129  1.00 20.00     0.011 C 
HETATM   11  C4  UNL     1     -33.593   5.038   3.242  1.00 20.00     0.011 C 
ENDBRANCH   7   9
ENDBRANCH   5   7
ENDBRANCH   3   5
TORSDOF 3
ENDMDL
MODEL 9
REMARK VINA RESULT:       0.1      1.962      2.871
REMARK  3 active torsions:
REMARK  status: ('A' for Active; 'I' for Inactive)
REMARK    1  A    between atoms: C6_6  and  N10_10 
REMARK    2  A    between atoms: C7_7  and  C8_8 
REMARK    3  A    between atoms: C8_8  and  N10_10 
ROOT
HETATM    1  C1  UNL     1     -32.194   5.629   1.115  1.00 20.00     0.094 C 
HETATM    2  C2  UNL     1     -31.885   8.032   1.581  1.00 20.00     0.059 C 
HETATM    3  C6  UNL     1     -32.771   6.808   1.773  1.00 20.00     0.322 C 
HETATM    4  N9  UNL     1     -31.738   4.697   0.595  1.00 20.00    -0.195 NA
ENDROOT
BRANCH   3   5
HETATM    5  N10 UNL     1     -32.976   6.537   3.192  1.00 20.00     0.105 N 
HETATM    6  H26 UNL     1     -32.104   6.724   3.692  1.00 20.00     0.318 HD
BRANCH   5   7
HETATM    7  C8  UNL     1     -34.037   7.360   3.736  1.00 20.00     0.221 C 
HETATM    8  C5  UNL     1     -33.491   8.152   4.922  1.00 20.00     0.043 C 
BRANCH   7   9
HETATM    9  C7  UNL     1     -35.272   6.504   4.097  1.00 20.00     0.010 C 
HETATM   10  C3  UNL     1     -36.421   6.614   3.090  1.00 20.00     0.011 C 
HETATM   11  C4  UNL     1     -34.891   5.031   4.289  1.00 20.00     0.011 C 
ENDBRANCH   7   9
ENDBRANCH   5   7
ENDBRANCH   3   5
TORSDOF 3
ENDMDL
