MODEL 1
REMARK VINA RESULT:      -0.2      0.000      0.000
REMARK  3 active torsions:
REMARK  status: ('A' for Active; 'I' for Inactive)
REMARK    1  A    between atoms: C3_3  and  C5_5 
REMARK    2  A    between atoms: C5_5  and  C6_6 
REMARK    3  A    between atoms: C6_6  and  S9_9 
ROOT
HETATM    1  C1  UNL     1     -34.515   4.831   4.078  1.00 20.00     0.281 C 
HETATM    2  C2  UNL     1     -35.367   6.088   4.171  1.00 20.00     0.106 C 
HETATM    3  C3  UNL     1     -33.018   6.296   3.001  1.00 20.00     0.282 C 
HETATM    4  N7  UNL     1     -33.653   4.980   2.904  1.00 20.00     0.098 N 
HETATM    5  S8  UNL     1     -34.217   7.425   3.777  1.00 20.00    -0.132 SA
HETATM    6  H22 UNL     1     -32.949   4.245   2.878  1.00 20.00     0.317 HD
ENDROOT
BRANCH   3   7
HETATM    7  C5  UNL     1     -32.614   6.793   1.621  1.00 20.00     0.056 C 
BRANCH   7   8
HETATM    8  C6  UNL     1     -32.005   8.189   1.696  1.00 20.00     0.076 C 
BRANCH   8   9
HETATM    9  S9  UNL     1     -32.031   8.983   0.064  1.00 20.00    -0.173 SA
HETATM   10  C4  UNL     1     -32.723  10.578   0.558  1.00 20.00     0.089 C 
ENDBRANCH   8   9
ENDBRANCH   7   8
ENDBRANCH   3   7
TORSDOF 3
ENDMDL
MODEL 2
REMARK VINA RESULT:      -0.0      1.600      1.769
REMARK  3 active torsions:
REMARK  status: ('A' for Active; 'I' for Inactive)
REMARK    1  A    between atoms: C3_3  and  C5_5 
REMARK    2  A    between atoms: C5_5  and  C6_6 
REMARK    3  A    between atoms: C6_6  and  S9_9 
ROOT
HETATM    1  C1  UNL     1     -35.110   6.199   4.118  1.00 20.00     0.281 C 
HETATM    2  C2  UNL     1     -34.272   4.992   3.726  1.00 20.00     0.106 C 
HETATM    3  C3  UNL     1     -33.600   7.323   2.703  1.00 20.00     0.282 C 
HETATM    4  N7  UNL     1     -34.246   7.377   4.017  1.00 20.00     0.098 N 
HETATM    5  S8  UNL     1     -33.313   5.569   2.307  1.00 20.00    -0.132 SA
HETATM    6  H22 UNL     1     -34.790   8.232   4.113  1.00 20.00     0.317 HD
ENDROOT
BRANCH   3   7
HETATM    7  C5  UNL     1     -32.292   8.099   2.724  1.00 20.00     0.056 C 
BRANCH   7   8
HETATM    8  C6  UNL     1     -31.867   8.500   1.315  1.00 20.00     0.076 C 
BRANCH   8   9
HETATM    9  S9  UNL     1     -32.519  10.141   0.896  1.00 20.00    -0.173 SA
HETATM   10  C4  UNL     1     -32.687   9.908  -0.889  1.00 20.00     0.089 C 
ENDBRANCH   8   9
ENDBRANCH   7   8
ENDBRANCH   3   7
TORSDOF 3
ENDMDL
MODEL 3
REMARK VINA RESULT:       0.4      1.346      1.517
REMARK  3 active torsions:
REMARK  status: ('A' for Active; 'I' for Inactive)
REMARK    1  A    between atoms: C3_3  and  C5_5 
REMARK    2  A    between atoms: C5_5  and  C6_6 
REMARK    3  A    between atoms: C6_6  and  S9_9 
ROOT
HETATM    1  C1  UNL     1     -35.197   6.242   4.106  1.00 20.00     0.281 C 
HETATM    2  C2  UNL     1     -34.562   4.898   4.428  1.00 20.00     0.106 C 
HETATM    3  C3  UNL     1     -33.638   6.210   2.340  1.00 20.00     0.282 C 
HETATM    4  N7  UNL     1     -34.185   7.043   3.414  1.00 20.00     0.098 N 
HETATM    5  S8  UNL     1     -33.625   4.490   2.937  1.00 20.00    -0.132 SA
HETATM    6  H22 UNL     1     -34.596   7.893   3.032  1.00 20.00     0.317 HD
ENDROOT
BRANCH   3   7
HETATM    7  C5  UNL     1     -32.236   6.671   1.974  1.00 20.00     0.056 C 
BRANCH   7   8
HETATM    8  C6  UNL     1     -32.137   8.193   1.981  1.00 20.00     0.076 C 
BRANCH   8   9
HETATM    9  S9  UNL     1     -31.618   8.805   0.353  1.00 20.00    -0.173 SA
HETATM   10  C4  UNL     1     -32.645  10.291   0.292  1.00 20.00     0.089 C 
ENDBRANCH   8   9
ENDBRANCH   7   8
ENDBRANCH   3   7
TORSDOF 3
ENDMDL
MODEL 4
REMARK VINA RESULT:       0.6      2.152      4.943
REMARK  3 active torsions:
REMARK  status: ('A' for Active; 'I' for Inactive)
REMARK    1  A    between atoms: C3_3  and  C5_5 
REMARK    2  A    between atoms: C5_5  and  C6_6 
REMARK    3  A    between atoms: C6_6  and  S9_9 
ROOT
HETATM    1  C1  UNL     1     -31.970   8.376   2.875  1.00 20.00     0.281 C 
HETATM    2  C2  UNL     1     -32.224   7.923   1.445  1.00 20.00     0.106 C 
HETATM    3  C3  UNL     1     -33.345   6.531   3.379  1.00 20.00     0.282 C 
HETATM    4  N7  UNL     1     -33.119   7.948   3.674  1.00 20.00     0.098 N 
HETATM    5  S8  UNL     1     -32.916   6.263   1.630  1.00 20.00    -0.132 SA
HETATM    6  H22 UNL     1     -32.937   8.081   4.667  1.00 20.00     0.317 HD
ENDROOT
BRANCH   3   7
HETATM    7  C5  UNL     1     -34.794   6.157   3.649  1.00 20.00     0.056 C 
BRANCH   7   8
HETATM    8  C6  UNL     1     -34.890   4.848   4.425  1.00 20.00     0.076 C 
BRANCH   8   9
HETATM    9  S9  UNL     1     -33.679   3.648   3.802  1.00 20.00    -0.173 SA
HETATM   10  C4  UNL     1     -33.033   3.078   5.391  1.00 20.00     0.089 C 
ENDBRANCH   8   9
ENDBRANCH   7   8
ENDBRANCH   3   7
TORSDOF 3
ENDMDL
MODEL 5
REMARK VINA RESULT:       1.3      2.056      5.049
REMARK  3 active torsions:
REMARK  status: ('A' for Active; 'I' for Inactive)
REMARK    1  A    between atoms: C3_3  and  C5_5 
REMARK    2  A    between atoms: C5_5  and  C6_6 
REMARK    3  A    between atoms: C6_6  and  S9_9 
ROOT
HETATM    1  C1  UNL     1     -32.434   6.988   1.546  1.00 20.00     0.281 C 
HETATM    2  C2  UNL     1     -32.020   7.952   2.648  1.00 20.00     0.106 C 
HETATM    3  C3  UNL     1     -34.158   6.471   3.065  1.00 20.00     0.282 C 
HETATM    4  N7  UNL     1     -33.146   5.881   2.185  1.00 20.00     0.098 N 
HETATM    5  S8  UNL     1     -33.463   8.016   3.735  1.00 20.00    -0.132 SA
HETATM    6  H22 UNL     1     -33.586   5.284   1.486  1.00 20.00     0.317 HD
ENDROOT
BRANCH   3   7
HETATM    7  C5  UNL     1     -34.518   5.505   4.182  1.00 20.00     0.056 C 
BRANCH   7   8
HETATM    8  C6  UNL     1     -34.136   4.075   3.817  1.00 20.00     0.076 C 
BRANCH   8   9
HETATM    9  S9  UNL     1     -33.073   3.352   5.099  1.00 20.00    -0.173 SA
HETATM   10  C4  UNL     1     -33.249   1.614   4.637  1.00 20.00     0.089 C 
ENDBRANCH   8   9
ENDBRANCH   7   8
ENDBRANCH   3   7
TORSDOF 3
ENDMDL
MODEL 6
REMARK VINA RESULT:       1.3      1.816      5.006
REMARK  3 active torsions:
REMARK  status: ('A' for Active; 'I' for Inactive)
REMARK    1  A    between atoms: C3_3  and  C5_5 
REMARK    2  A    between atoms: C5_5  and  C6_6 
REMARK    3  A    between atoms: C6_6  and  S9_9 
ROOT
HETATM    1  C1  UNL     1     -32.700  10.544   0.879  1.00 20.00     0.281 C 
HETATM    2  C2  UNL     1     -32.421   9.820  -0.430  1.00 20.00     0.106 C 
HETATM    3  C3  UNL     1     -32.180   8.440   1.800  1.00 20.00     0.282 C 
HETATM    4  N7  UNL     1     -33.149   9.538   1.843  1.00 20.00     0.098 N 
HETATM    5  S8  UNL     1     -31.591   8.299   0.082  1.00 20.00    -0.132 SA
HETATM    6  H22 UNL     1     -33.199   9.933   2.780  1.00 20.00     0.317 HD
ENDROOT
BRANCH   3   7
HETATM    7  C5  UNL     1     -32.826   7.144   2.263  1.00 20.00     0.056 C 
BRANCH   7   8
HETATM    8  C6  UNL     1     -33.433   7.298   3.653  1.00 20.00     0.076 C 
BRANCH   8   9
HETATM    9  S9  UNL     1     -34.991   6.374   3.774  1.00 20.00    -0.173 SA
HETATM   10  C4  UNL     1     -34.298   4.724   4.025  1.00 20.00     0.089 C 
ENDBRANCH   8   9
ENDBRANCH   7   8
ENDBRANCH   3   7
TORSDOF 3
ENDMDL
MODEL 7
REMARK VINA RESULT:       1.4      2.290      4.885
REMARK  3 active torsions:
REMARK  status: ('A' for Active; 'I' for Inactive)
REMARK    1  A    between atoms: C3_3  and  C5_5 
REMARK    2  A    between atoms: C5_5  and  C6_6 
REMARK    3  A    between atoms: C6_6  and  S9_9 
ROOT
HETATM    1  C1  UNL     1     -32.047   8.101   1.795  1.00 20.00     0.281 C 
HETATM    2  C2  UNL     1     -32.421   8.337   3.250  1.00 20.00     0.106 C 
HETATM    3  C3  UNL     1     -33.365   6.171   2.087  1.00 20.00     0.282 C 
HETATM    4  N7  UNL     1     -32.084   6.656   1.567  1.00 20.00     0.098 N 
HETATM    5  S8  UNL     1     -33.780   7.182   3.544  1.00 20.00    -0.132 SA
HETATM    6  H22 UNL     1     -31.999   6.445   0.575  1.00 20.00     0.317 HD
ENDROOT
BRANCH   3   7
HETATM    7  C5  UNL     1     -33.266   4.699   2.455  1.00 20.00     0.056 C 
BRANCH   7   8
HETATM    8  C6  UNL     1     -33.808   4.444   3.857  1.00 20.00     0.076 C 
BRANCH   8   9
HETATM    9  S9  UNL     1     -33.335   2.789   4.432  1.00 20.00    -0.173 SA
HETATM   10  C4  UNL     1     -32.582   3.262   6.005  1.00 20.00     0.089 C 
ENDBRANCH   8   9
ENDBRANCH   7   8
ENDBRANCH   3   7
TORSDOF 3
ENDMDL
MODEL 8
REMARK VINA RESULT:       1.5      1.451      1.716
REMARK  3 active torsions:
REMARK  status: ('A' for Active; 'I' for Inactive)
REMARK    1  A    between atoms: C3_3  and  C5_5 
REMARK    2  A    between atoms: C5_5  and  C6_6 
REMARK    3  A    between atoms: C6_6  and  S9_9 
ROOT
HETATM    1  C1  UNL     1     -33.386   5.203   2.458  1.00 20.00     0.281 C 
HETATM    2  C2  UNL     1     -34.127   6.170   3.369  1.00 20.00     0.106 C 
HETATM    3  C3  UNL     1     -32.046   7.096   2.048  1.00 20.00     0.282 C 
HETATM    4  N7  UNL     1     -32.766   5.998   1.397  1.00 20.00     0.098 N 
HETATM    5  S8  UNL     1     -33.000   7.574   3.524  1.00 20.00    -0.132 SA
HETATM    6  H22 UNL     1     -32.126   5.429   0.847  1.00 20.00     0.317 HD
ENDROOT
BRANCH   3   7
HETATM    7  C5  UNL     1     -31.894   8.270   1.093  1.00 20.00     0.056 C 
BRANCH   7   8
HETATM    8  C6  UNL     1     -32.521   9.534   1.670  1.00 20.00     0.076 C 
BRANCH   8   9
HETATM    9  S9  UNL     1     -32.533  10.862   0.433  1.00 20.00    -0.173 SA
HETATM   10  C4  UNL     1     -32.594   9.836  -1.053  1.00 20.00     0.089 C 
ENDBRANCH   8   9
ENDBRANCH   7   8
ENDBRANCH   3   7
TORSDOF 3
ENDMDL
MODEL 9
REMARK VINA RESULT:       1.9      1.953      4.632
REMARK  3 active torsions:
REMARK  status: ('A' for Active; 'I' for Inactive)
REMARK    1  A    between atoms: C3_3  and  C5_5 
REMARK    2  A    between atoms: C5_5  and  C6_6 
REMARK    3  A    between atoms: C6_6  and  S9_9 
ROOT
HETATM    1  C1  UNL     1     -32.020   6.152   1.008  1.00 20.00     0.281 C 
HETATM    2  C2  UNL     1     -31.135   7.261   1.557  1.00 20.00     0.106 C 
HETATM    3  C3  UNL     1     -33.622   7.151   2.417  1.00 20.00     0.282 C 
HETATM    4  N7  UNL     1     -33.036   5.867   2.022  1.00 20.00     0.098 N 
HETATM    5  S8  UNL     1     -32.299   8.400   2.340  1.00 20.00    -0.132 SA
HETATM    6  H22 UNL     1     -33.753   5.247   1.651  1.00 20.00     0.317 HD
ENDROOT
BRANCH   3   7
HETATM    7  C5  UNL     1     -34.205   7.059   3.818  1.00 20.00     0.056 C 
BRANCH   7   8
HETATM    8  C6  UNL     1     -35.428   6.149   3.847  1.00 20.00     0.076 C 
BRANCH   8   9
HETATM    9  S9  UNL     1     -35.202   4.815   5.057  1.00 20.00    -0.173 SA
HETATM   10  C4  UNL     1     -33.901   3.900   4.199  1.00 20.00     0.089 C 
ENDBRANCH   8   9
ENDBRANCH   7   8
ENDBRANCH   3   7
TORSDOF 3
ENDMDL
