MODEL 1
REMARK VINA RESULT:      -2.4      0.000      0.000
REMARK  5 active torsions:
REMARK  status: ('A' for Active; 'I' for Inactive)
REMARK    1  A    between atoms: C5_5  and  N10_10 
REMARK    2  A    between atoms: C6_6  and  C7_7 
REMARK    3  A    between atoms: C6_6  and  C8_8 
REMARK    4  A    between atoms: C7_7  and  C9_9 
REMARK    5  A    between atoms: C8_8  and  N10_10 
ROOT
HETATM    1  C1  UNL     1     -32.894   2.721   5.233  1.00 20.00     0.013 C 
HETATM    2  C2  UNL     1     -33.508   3.473   4.527  1.00 20.00    -0.087 C 
HETATM    3  C5  UNL     1     -34.256   4.387   3.661  1.00 20.00     0.362 C 
ENDROOT
BRANCH   3   4
HETATM    4  N10 UNL     1     -35.248   5.136   4.434  1.00 20.00     0.094 N 
HETATM    5  H27 UNL     1     -36.163   4.688   4.303  1.00 20.00     0.317 HD
BRANCH   4   6
HETATM    6  C8  UNL     1     -35.307   6.514   4.030  1.00 20.00     0.270 C 
BRANCH   6   7
HETATM    7  C6  UNL     1     -33.936   7.184   4.040  1.00 20.00     0.030 C 
BRANCH   7   8
HETATM    8  C7  UNL     1     -33.656   7.964   2.750  1.00 20.00     0.005 C 
BRANCH   8   9
HETATM    9  C9  UNL     1     -32.304   7.611   2.103  1.00 20.00    -0.023 C 
HETATM   10  C3  UNL     1     -32.393   6.238   1.432  1.00 20.00     0.009 C 
HETATM   11  C4  UNL     1     -31.853   8.655   1.081  1.00 20.00     0.009 C 
ENDBRANCH   8   9
ENDBRANCH   7   8
ENDBRANCH   6   7
ENDBRANCH   4   6
ENDBRANCH   3   4
TORSDOF 5
ENDMDL
MODEL 2
REMARK VINA RESULT:      -2.3      0.540      1.241
REMARK  5 active torsions:
REMARK  status: ('A' for Active; 'I' for Inactive)
REMARK    1  A    between atoms: C5_5  and  N10_10 
REMARK    2  A    between atoms: C6_6  and  C7_7 
REMARK    3  A    between atoms: C6_6  and  C8_8 
REMARK    4  A    between atoms: C7_7  and  C9_9 
REMARK    5  A    between atoms: C8_8  and  N10_10 
ROOT
HETATM    1  C1  UNL     1     -32.797   2.786   5.274  1.00 20.00     0.013 C 
HETATM    2  C2  UNL     1     -33.532   3.429   4.574  1.00 20.00    -0.087 C 
HETATM    3  C5  UNL     1     -34.427   4.209   3.716  1.00 20.00     0.362 C 
ENDROOT
BRANCH   3   4
HETATM    4  N10 UNL     1     -35.140   5.220   4.499  1.00 20.00     0.094 N 
HETATM    5  H27 UNL     1     -36.054   4.835   4.765  1.00 20.00     0.317 HD
BRANCH   4   6
HETATM    6  C8  UNL     1     -35.312   6.441   3.759  1.00 20.00     0.270 C 
BRANCH   6   7
HETATM    7  C6  UNL     1     -34.324   7.523   4.182  1.00 20.00     0.030 C 
BRANCH   7   8
HETATM    8  C7  UNL     1     -32.936   7.325   3.561  1.00 20.00     0.005 C 
BRANCH   8   9
HETATM    9  C9  UNL     1     -32.958   7.273   2.021  1.00 20.00    -0.023 C 
HETATM   10  C3  UNL     1     -32.041   8.358   1.452  1.00 20.00     0.009 C 
HETATM   11  C4  UNL     1     -32.539   5.907   1.477  1.00 20.00     0.009 C 
ENDBRANCH   8   9
ENDBRANCH   7   8
ENDBRANCH   6   7
ENDBRANCH   4   6
ENDBRANCH   3   4
TORSDOF 5
ENDMDL
MODEL 3
REMARK VINA RESULT:      -2.0      2.328      5.446
REMARK  5 active torsions:
REMARK  status: ('A' for Active; 'I' for Inactive)
REMARK    1  A    between atoms: C5_5  and  N10_10 
REMARK    2  A    between atoms: C6_6  and  C7_7 
REMARK    3  A    between atoms: C6_6  and  C8_8 
REMARK    4  A    between atoms: C7_7  and  C9_9 
REMARK    5  A    between atoms: C8_8  and  N10_10 
ROOT
HETATM    1  C1  UNL     1     -33.104  10.612  -0.310  1.00 20.00     0.013 C 
HETATM    2  C2  UNL     1     -32.327   9.802   0.118  1.00 20.00    -0.087 C 
HETATM    3  C5  UNL     1     -31.375   8.817   0.636  1.00 20.00     0.362 C 
ENDROOT
BRANCH   3   4
HETATM    4  N10 UNL     1     -31.984   8.023   1.704  1.00 20.00     0.094 N 
HETATM    5  H27 UNL     1     -31.582   8.324   2.599  1.00 20.00     0.317 HD
BRANCH   4   6
HETATM    6  C8  UNL     1     -31.766   6.615   1.510  1.00 20.00     0.270 C 
BRANCH   6   7
HETATM    7  C6  UNL     1     -33.057   5.807   1.603  1.00 20.00     0.030 C 
BRANCH   7   8
HETATM    8  C7  UNL     1     -33.450   5.496   3.052  1.00 20.00     0.005 C 
BRANCH   8   9
HETATM    9  C9  UNL     1     -34.615   6.361   3.569  1.00 20.00    -0.023 C 
HETATM   10  C3  UNL     1     -35.520   5.524   4.477  1.00 20.00     0.009 C 
HETATM   11  C4  UNL     1     -34.133   7.601   4.323  1.00 20.00     0.009 C 
ENDBRANCH   8   9
ENDBRANCH   7   8
ENDBRANCH   6   7
ENDBRANCH   4   6
ENDBRANCH   3   4
TORSDOF 5
ENDMDL
MODEL 4
REMARK VINA RESULT:      -1.7      1.353      2.474
REMARK  5 active torsions:
REMARK  status: ('A' for Active; 'I' for Inactive)
REMARK    1  A    between atoms: C5_5  and  N10_10 
REMARK    2  A    between atoms: C6_6  and  C7_7 
REMARK    3  A    between atoms: C6_6  and  C8_8 
REMARK    4  A    between atoms: C7_7  and  C9_9 
REMARK    5  A    between atoms: C8_8  and  N10_10 
ROOT
HETATM    1  C1  UNL     1     -33.809   3.565   4.385  1.00 20.00     0.013 C 
HETATM    2  C2  UNL     1     -34.294   4.646   4.190  1.00 20.00    -0.087 C 
HETATM    3  C5  UNL     1     -34.889   5.964   3.955  1.00 20.00     0.362 C 
ENDROOT
BRANCH   3   4
HETATM    4  N10 UNL     1     -33.937   6.847   3.280  1.00 20.00     0.094 N 
HETATM    5  H27 UNL     1     -34.440   7.689   2.974  1.00 20.00     0.317 HD
BRANCH   4   6
HETATM    6  C8  UNL     1     -33.320   6.201   2.153  1.00 20.00     0.270 C 
BRANCH   6   7
HETATM    7  C6  UNL     1     -32.052   6.915   1.695  1.00 20.00     0.030 C 
BRANCH   7   8
HETATM    8  C7  UNL     1     -32.166   8.440   1.804  1.00 20.00     0.005 C 
BRANCH   8   9
HETATM    9  C9  UNL     1     -32.364   9.137   0.445  1.00 20.00    -0.023 C 
HETATM   10  C3  UNL     1     -32.753  10.601   0.664  1.00 20.00     0.009 C 
HETATM   11  C4  UNL     1     -31.117   9.062  -0.438  1.00 20.00     0.009 C 
ENDBRANCH   8   9
ENDBRANCH   7   8
ENDBRANCH   6   7
ENDBRANCH   4   6
ENDBRANCH   3   4
TORSDOF 5
ENDMDL
MODEL 5
REMARK VINA RESULT:      -1.7      1.398      2.415
REMARK  5 active torsions:
REMARK  status: ('A' for Active; 'I' for Inactive)
REMARK    1  A    between atoms: C5_5  and  N10_10 
REMARK    2  A    between atoms: C6_6  and  C7_7 
REMARK    3  A    between atoms: C6_6  and  C8_8 
REMARK    4  A    between atoms: C7_7  and  C9_9 
REMARK    5  A    between atoms: C8_8  and  N10_10 
ROOT
HETATM    1  C1  UNL     1     -33.857   3.640   4.383  1.00 20.00     0.013 C 
HETATM    2  C2  UNL     1     -34.443   4.678   4.243  1.00 20.00    -0.087 C 
HETATM    3  C5  UNL     1     -35.164   5.943   4.073  1.00 20.00     0.362 C 
ENDROOT
BRANCH   3   4
HETATM    4  N10 UNL     1     -34.225   7.053   3.906  1.00 20.00     0.094 N 
HETATM    5  H27 UNL     1     -34.766   7.923   3.836  1.00 20.00     0.317 HD
BRANCH   4   6
HETATM    6  C8  UNL     1     -33.404   6.883   2.738  1.00 20.00     0.270 C 
BRANCH   6   7
HETATM    7  C6  UNL     1     -32.485   8.076   2.494  1.00 20.00     0.030 C 
BRANCH   7   8
HETATM    8  C7  UNL     1     -32.035   8.179   1.031  1.00 20.00     0.005 C 
BRANCH   8   9
HETATM    9  C9  UNL     1     -32.039   9.621   0.490  1.00 20.00    -0.023 C 
HETATM   10  C3  UNL     1     -32.608   9.640  -0.931  1.00 20.00     0.009 C 
HETATM   11  C4  UNL     1     -32.838  10.576   1.378  1.00 20.00     0.009 C 
ENDBRANCH   8   9
ENDBRANCH   7   8
ENDBRANCH   6   7
ENDBRANCH   4   6
ENDBRANCH   3   4
TORSDOF 5
ENDMDL
MODEL 6
REMARK VINA RESULT:      -1.6      2.550      5.480
REMARK  5 active torsions:
REMARK  status: ('A' for Active; 'I' for Inactive)
REMARK    1  A    between atoms: C5_5  and  N10_10 
REMARK    2  A    between atoms: C6_6  and  C7_7 
REMARK    3  A    between atoms: C6_6  and  C8_8 
REMARK    4  A    between atoms: C7_7  and  C9_9 
REMARK    5  A    between atoms: C8_8  and  N10_10 
ROOT
HETATM    1  C1  UNL     1     -33.099  10.776   0.044  1.00 20.00     0.013 C 
HETATM    2  C2  UNL     1     -32.365   9.845   0.230  1.00 20.00    -0.087 C 
HETATM    3  C5  UNL     1     -31.465   8.711   0.453  1.00 20.00     0.362 C 
ENDROOT
BRANCH   3   4
HETATM    4  N10 UNL     1     -31.849   7.976   1.659  1.00 20.00     0.094 N 
HETATM    5  H27 UNL     1     -31.311   8.351   2.449  1.00 20.00     0.317 HD
BRANCH   4   6
HETATM    6  C8  UNL     1     -31.610   6.565   1.521  1.00 20.00     0.270 C 
BRANCH   6   7
HETATM    7  C6  UNL     1     -32.883   5.740   1.685  1.00 20.00     0.030 C 
BRANCH   7   8
HETATM    8  C7  UNL     1     -34.041   6.558   2.270  1.00 20.00     0.005 C 
BRANCH   8   9
HETATM    9  C9  UNL     1     -34.163   6.436   3.801  1.00 20.00    -0.023 C 
HETATM   10  C3  UNL     1     -33.960   7.809   4.449  1.00 20.00     0.009 C 
HETATM   11  C4  UNL     1     -35.508   5.855   4.235  1.00 20.00     0.009 C 
ENDBRANCH   8   9
ENDBRANCH   7   8
ENDBRANCH   6   7
ENDBRANCH   4   6
ENDBRANCH   3   4
TORSDOF 5
ENDMDL
MODEL 7
REMARK VINA RESULT:      -1.6      1.809      5.320
REMARK  5 active torsions:
REMARK  status: ('A' for Active; 'I' for Inactive)
REMARK    1  A    between atoms: C5_5  and  N10_10 
REMARK    2  A    between atoms: C6_6  and  C7_7 
REMARK    3  A    between atoms: C6_6  and  C8_8 
REMARK    4  A    between atoms: C7_7  and  C9_9 
REMARK    5  A    between atoms: C8_8  and  N10_10 
ROOT
HETATM    1  C1  UNL     1     -32.738  10.146  -0.343  1.00 20.00     0.013 C 
HETATM    2  C2  UNL     1     -32.143   9.396   0.381  1.00 20.00    -0.087 C 
HETATM    3  C5  UNL     1     -31.412   8.484   1.264  1.00 20.00     0.362 C 
ENDROOT
BRANCH   3   4
HETATM    4  N10 UNL     1     -32.306   7.453   1.794  1.00 20.00     0.094 N 
HETATM    5  H27 UNL     1     -32.839   7.056   1.012  1.00 20.00     0.317 HD
BRANCH   4   6
HETATM    6  C8  UNL     1     -33.200   7.984   2.787  1.00 20.00     0.270 C 
BRANCH   6   7
HETATM    7  C6  UNL     1     -33.864   6.890   3.618  1.00 20.00     0.030 C 
BRANCH   7   8
HETATM    8  C7  UNL     1     -33.456   5.482   3.166  1.00 20.00     0.005 C 
BRANCH   8   9
HETATM    9  C9  UNL     1     -34.303   4.366   3.807  1.00 20.00    -0.023 C 
HETATM   10  C3  UNL     1     -33.394   3.401   4.573  1.00 20.00     0.009 C 
HETATM   11  C4  UNL     1     -35.380   4.913   4.744  1.00 20.00     0.009 C 
ENDBRANCH   8   9
ENDBRANCH   7   8
ENDBRANCH   6   7
ENDBRANCH   4   6
ENDBRANCH   3   4
TORSDOF 5
ENDMDL
MODEL 8
REMARK VINA RESULT:      -1.1      0.956      1.634
REMARK  5 active torsions:
REMARK  status: ('A' for Active; 'I' for Inactive)
REMARK    1  A    between atoms: C5_5  and  N10_10 
REMARK    2  A    between atoms: C6_6  and  C7_7 
REMARK    3  A    between atoms: C6_6  and  C8_8 
REMARK    4  A    between atoms: C7_7  and  C9_9 
REMARK    5  A    between atoms: C8_8  and  N10_10 
ROOT
HETATM    1  C1  UNL     1     -32.925   2.772   5.295  1.00 20.00     0.013 C 
HETATM    2  C2  UNL     1     -33.534   3.446   4.510  1.00 20.00    -0.087 C 
HETATM    3  C5  UNL     1     -34.278   4.263   3.548  1.00 20.00     0.362 C 
ENDROOT
BRANCH   3   4
HETATM    4  N10 UNL     1     -34.438   5.629   4.046  1.00 20.00     0.094 N 
HETATM    5  H27 UNL     1     -35.442   5.824   4.137  1.00 20.00     0.317 HD
BRANCH   4   6
HETATM    6  C8  UNL     1     -33.822   6.589   3.171  1.00 20.00     0.270 C 
BRANCH   6   7
HETATM    7  C6  UNL     1     -33.119   5.931   1.988  1.00 20.00     0.030 C 
BRANCH   7   8
HETATM    8  C7  UNL     1     -32.155   6.887   1.274  1.00 20.00     0.005 C 
BRANCH   8   9
HETATM    9  C9  UNL     1     -32.280   8.348   1.746  1.00 20.00    -0.023 C 
HETATM   10  C3  UNL     1     -31.180   8.661   2.763  1.00 20.00     0.009 C 
HETATM   11  C4  UNL     1     -32.210   9.344   0.588  1.00 20.00     0.009 C 
ENDBRANCH   8   9
ENDBRANCH   7   8
ENDBRANCH   6   7
ENDBRANCH   4   6
ENDBRANCH   3   4
TORSDOF 5
ENDMDL
MODEL 9
REMARK VINA RESULT:      -1.1      2.026      3.299
REMARK  5 active torsions:
REMARK  status: ('A' for Active; 'I' for Inactive)
REMARK    1  A    between atoms: C5_5  and  N10_10 
REMARK    2  A    between atoms: C6_6  and  C7_7 
REMARK    3  A    between atoms: C6_6  and  C8_8 
REMARK    4  A    between atoms: C7_7  and  C9_9 
REMARK    5  A    between atoms: C8_8  and  N10_10 
ROOT
HETATM    1  C1  UNL     1     -33.868   8.272   4.856  1.00 20.00     0.013 C 
HETATM    2  C2  UNL     1     -34.190   7.284   4.254  1.00 20.00    -0.087 C 
HETATM    3  C5  UNL     1     -34.589   6.080   3.521  1.00 20.00     0.362 C 
ENDROOT
BRANCH   3   4
HETATM    4  N10 UNL     1     -33.435   5.479   2.850  1.00 20.00     0.094 N 
HETATM    5  H27 UNL     1     -32.630   5.534   3.484  1.00 20.00     0.317 HD
BRANCH   4   6
HETATM    6  C8  UNL     1     -33.137   6.142   1.609  1.00 20.00     0.270 C 
BRANCH   6   7
HETATM    7  C6  UNL     1     -31.804   6.883   1.650  1.00 20.00     0.030 C 
BRANCH   7   8
HETATM    8  C7  UNL     1     -31.981   8.404   1.719  1.00 20.00     0.005 C 
BRANCH   8   9
HETATM    9  C9  UNL     1     -32.270   9.049   0.351  1.00 20.00    -0.023 C 
HETATM   10  C3  UNL     1     -32.651  10.520   0.540  1.00 20.00     0.009 C 
HETATM   11  C4  UNL     1     -31.084   8.943  -0.608  1.00 20.00     0.009 C 
ENDBRANCH   8   9
ENDBRANCH   7   8
ENDBRANCH   6   7
ENDBRANCH   4   6
ENDBRANCH   3   4
TORSDOF 5
ENDMDL
