MODEL 1
REMARK VINA RESULT:      -0.5      0.000      0.000
REMARK  1 active torsions:
REMARK  status: ('A' for Active; 'I' for Inactive)
REMARK    1  A    between atoms: C9_9  and  O11_11 
ROOT
HETATM    1  C1  UNL     1     -33.160   4.952   1.922  1.00 20.00     0.052 A 
HETATM    2  C2  UNL     1     -31.710   6.730   1.111  1.00 20.00     0.049 A 
HETATM    3  C3  UNL     1     -33.739   5.865   2.789  1.00 20.00    -0.020 A 
HETATM    4  C4  UNL     1     -33.315   7.201   2.815  1.00 20.00    -0.043 A 
HETATM    5  C5  UNL     1     -32.307   7.648   1.978  1.00 20.00    -0.052 A 
HETATM    6  C6  UNL     1     -32.133   5.392   1.084  1.00 20.00     0.117 A 
HETATM    7  C7  UNL     1     -34.120   7.998   3.794  1.00 20.00     0.042 C 
HETATM    8  C8  UNL     1     -34.718   6.882   4.661  1.00 20.00     0.041 C 
HETATM    9  C9  UNL     1     -34.871   5.655   3.748  1.00 20.00     0.152 C 
HETATM   10  C10 UNL     1     -31.860   9.069   1.986  1.00 20.00     0.049 C 
HETATM   11  F12 UNL     1     -31.551   4.531   0.238  1.00 20.00    -0.206 F 
ENDROOT
BRANCH   9  12
HETATM   12  O11 UNL     1     -34.729   4.456   4.483  1.00 20.00    -0.391 OA
HETATM   13  H23 UNL     1     -34.736   4.694   5.427  1.00 20.00     0.210 HD
ENDBRANCH   9  12
TORSDOF 1
ENDMDL
MODEL 2
REMARK VINA RESULT:       0.8      2.269      3.609
REMARK  1 active torsions:
REMARK  status: ('A' for Active; 'I' for Inactive)
REMARK    1  A    between atoms: C9_9  and  O11_11 
ROOT
HETATM    1  C1  UNL     1     -33.845   4.799   3.097  1.00 20.00     0.052 A 
HETATM    2  C2  UNL     1     -34.825   6.548   4.478  1.00 20.00     0.049 A 
HETATM    3  C3  UNL     1     -33.070   5.768   2.480  1.00 20.00    -0.020 A 
HETATM    4  C4  UNL     1     -33.162   7.114   2.860  1.00 20.00    -0.043 A 
HETATM    5  C5  UNL     1     -34.031   7.517   3.860  1.00 20.00    -0.052 A 
HETATM    6  C6  UNL     1     -34.733   5.199   4.099  1.00 20.00     0.117 A 
HETATM    7  C7  UNL     1     -32.196   7.956   2.086  1.00 20.00     0.042 C 
HETATM    8  C8  UNL     1     -31.886   7.033   0.899  1.00 20.00     0.041 C 
HETATM    9  C9  UNL     1     -32.026   5.593   1.420  1.00 20.00     0.152 C 
HETATM   10  C10 UNL     1     -34.125   8.942   4.283  1.00 20.00     0.049 C 
HETATM   11  F12 UNL     1     -35.500   4.286   4.710  1.00 20.00    -0.206 F 
ENDROOT
BRANCH   9  12
HETATM   12  O11 UNL     1     -32.453   4.722   0.391  1.00 20.00    -0.391 OA
HETATM   13  H23 UNL     1     -32.828   3.932   0.819  1.00 20.00     0.210 HD
ENDBRANCH   9  12
TORSDOF 1
ENDMDL
MODEL 3
REMARK VINA RESULT:       0.8      1.792      2.878
REMARK  1 active torsions:
REMARK  status: ('A' for Active; 'I' for Inactive)
REMARK    1  A    between atoms: C9_9  and  O11_11 
ROOT
HETATM    1  C1  UNL     1     -33.388   7.850   2.758  1.00 20.00     0.052 A 
HETATM    2  C2  UNL     1     -31.848   6.991   1.081  1.00 20.00     0.049 A 
HETATM    3  C3  UNL     1     -33.608   6.547   3.175  1.00 20.00    -0.020 A 
HETATM    4  C4  UNL     1     -32.951   5.474   2.558  1.00 20.00    -0.043 A 
HETATM    5  C5  UNL     1     -32.065   5.681   1.514  1.00 20.00    -0.052 A 
HETATM    6  C6  UNL     1     -32.505   8.067   1.697  1.00 20.00     0.117 A 
HETATM    7  C7  UNL     1     -33.313   4.177   3.213  1.00 20.00     0.042 C 
HETATM    8  C8  UNL     1     -34.602   4.569   3.949  1.00 20.00     0.041 C 
HETATM    9  C9  UNL     1     -34.465   6.059   4.303  1.00 20.00     0.152 C 
HETATM   10  C10 UNL     1     -31.349   4.550   0.863  1.00 20.00     0.049 C 
HETATM   11  F12 UNL     1     -32.277   9.316   1.269  1.00 20.00    -0.206 F 
ENDROOT
BRANCH   9  12
HETATM   12  O11 UNL     1     -35.729   6.693   4.322  1.00 20.00    -0.391 OA
HETATM   13  H23 UNL     1     -36.397   6.000   4.468  1.00 20.00     0.210 HD
ENDBRANCH   9  12
TORSDOF 1
ENDMDL
MODEL 4
REMARK VINA RESULT:       1.1      1.922      2.936
REMARK  1 active torsions:
REMARK  status: ('A' for Active; 'I' for Inactive)
REMARK    1  A    between atoms: C9_9  and  O11_11 
ROOT
HETATM    1  C1  UNL     1     -32.704   8.454   2.295  1.00 20.00     0.052 A 
HETATM    2  C2  UNL     1     -31.704   6.961   0.654  1.00 20.00     0.049 A 
HETATM    3  C3  UNL     1     -33.285   7.349   2.898  1.00 20.00    -0.020 A 
HETATM    4  C4  UNL     1     -33.073   6.060   2.391  1.00 20.00    -0.043 A 
HETATM    5  C5  UNL     1     -32.282   5.850   1.274  1.00 20.00    -0.052 A 
HETATM    6  C6  UNL     1     -31.915   8.253   1.161  1.00 20.00     0.117 A 
HETATM    7  C7  UNL     1     -33.761   5.034   3.237  1.00 20.00     0.042 C 
HETATM    8  C8  UNL     1     -34.772   5.905   3.994  1.00 20.00     0.041 C 
HETATM    9  C9  UNL     1     -34.130   7.295   4.134  1.00 20.00     0.152 C 
HETATM   10  C10 UNL     1     -32.038   4.483   0.737  1.00 20.00     0.049 C 
HETATM   11  F12 UNL     1     -31.345   9.303   0.554  1.00 20.00    -0.206 F 
ENDROOT
BRANCH   9  12
HETATM   12  O11 UNL     1     -35.115   8.309   4.148  1.00 20.00    -0.391 OA
HETATM   13  H23 UNL     1     -35.943   7.902   4.457  1.00 20.00     0.210 HD
ENDBRANCH   9  12
TORSDOF 1
ENDMDL
MODEL 5
REMARK VINA RESULT:       1.2      2.486      3.886
REMARK  1 active torsions:
REMARK  status: ('A' for Active; 'I' for Inactive)
REMARK    1  A    between atoms: C9_9  and  O11_11 
ROOT
HETATM    1  C1  UNL     1     -33.989   7.095   4.084  1.00 20.00     0.052 A 
HETATM    2  C2  UNL     1     -34.202   5.173   2.605  1.00 20.00     0.049 A 
HETATM    3  C3  UNL     1     -32.982   7.573   3.261  1.00 20.00    -0.020 A 
HETATM    4  C4  UNL     1     -32.590   6.866   2.117  1.00 20.00    -0.043 A 
HETATM    5  C5  UNL     1     -33.194   5.668   1.774  1.00 20.00    -0.052 A 
HETATM    6  C6  UNL     1     -34.596   5.881   3.752  1.00 20.00     0.117 A 
HETATM    7  C7  UNL     1     -31.524   7.605   1.370  1.00 20.00     0.042 C 
HETATM    8  C8  UNL     1     -31.016   8.565   2.455  1.00 20.00     0.041 C 
HETATM    9  C9  UNL     1     -32.213   8.854   3.375  1.00 20.00     0.152 C 
HETATM   10  C10 UNL     1     -32.797   4.916   0.552  1.00 20.00     0.049 C 
HETATM   11  F12 UNL     1     -35.570   5.390   4.531  1.00 20.00    -0.206 F 
ENDROOT
BRANCH   9  12
HETATM   12  O11 UNL     1     -31.785   9.101   4.700  1.00 20.00    -0.391 OA
HETATM   13  H23 UNL     1     -31.198   8.368   4.955  1.00 20.00     0.210 HD
ENDBRANCH   9  12
TORSDOF 1
ENDMDL
MODEL 6
REMARK VINA RESULT:       1.4      2.826      4.552
REMARK  1 active torsions:
REMARK  status: ('A' for Active; 'I' for Inactive)
REMARK    1  A    between atoms: C9_9  and  O11_11 
ROOT
HETATM    1  C1  UNL     1     -34.468   6.845   3.363  1.00 20.00     0.052 A 
HETATM    2  C2  UNL     1     -34.643   4.719   4.534  1.00 20.00     0.049 A 
HETATM    3  C3  UNL     1     -33.454   6.299   2.593  1.00 20.00    -0.020 A 
HETATM    4  C4  UNL     1     -33.040   4.974   2.783  1.00 20.00    -0.043 A 
HETATM    5  C5  UNL     1     -33.629   4.171   3.746  1.00 20.00    -0.052 A 
HETATM    6  C6  UNL     1     -35.059   6.047   4.345  1.00 20.00     0.117 A 
HETATM    7  C7  UNL     1     -31.970   4.602   1.804  1.00 20.00     0.042 C 
HETATM    8  C8  UNL     1     -31.486   5.988   1.356  1.00 20.00     0.041 C 
HETATM    9  C9  UNL     1     -32.698   6.928   1.462  1.00 20.00     0.152 C 
HETATM   10  C10 UNL     1     -33.208   2.757   3.945  1.00 20.00     0.049 C 
HETATM   11  F12 UNL     1     -36.039   6.549   5.109  1.00 20.00    -0.206 F 
ENDROOT
BRANCH   9  12
HETATM   12  O11 UNL     1     -32.290   8.247   1.764  1.00 20.00    -0.391 OA
HETATM   13  H23 UNL     1     -31.317   8.252   1.780  1.00 20.00     0.210 HD
ENDBRANCH   9  12
TORSDOF 1
ENDMDL
MODEL 7
REMARK VINA RESULT:       1.6      2.865      4.567
REMARK  1 active torsions:
REMARK  status: ('A' for Active; 'I' for Inactive)
REMARK    1  A    between atoms: C9_9  and  O11_11 
ROOT
HETATM    1  C1  UNL     1     -33.293   8.180   3.285  1.00 20.00     0.052 A 
HETATM    2  C2  UNL     1     -34.313   6.410   4.608  1.00 20.00     0.049 A 
HETATM    3  C3  UNL     1     -32.901   7.221   2.365  1.00 20.00    -0.020 A 
HETATM    4  C4  UNL     1     -33.216   5.869   2.557  1.00 20.00    -0.043 A 
HETATM    5  C5  UNL     1     -33.925   5.450   3.670  1.00 20.00    -0.052 A 
HETATM    6  C6  UNL     1     -33.998   7.765   4.417  1.00 20.00     0.117 A 
HETATM    7  C7  UNL     1     -32.730   5.039   1.410  1.00 20.00     0.042 C 
HETATM    8  C8  UNL     1     -31.694   5.982   0.782  1.00 20.00     0.041 C 
HETATM    9  C9  UNL     1     -32.180   7.413   1.066  1.00 20.00     0.152 C 
HETATM   10  C10 UNL     1     -34.279   4.018   3.875  1.00 20.00     0.049 C 
HETATM   11  F12 UNL     1     -34.386   8.668   5.327  1.00 20.00    -0.206 F 
ENDROOT
BRANCH   9  12
HETATM   12  O11 UNL     1     -31.088   8.303   1.191  1.00 20.00    -0.391 OA
HETATM   13  H23 UNL     1     -30.679   8.381   0.311  1.00 20.00     0.210 HD
ENDBRANCH   9  12
TORSDOF 1
ENDMDL
MODEL 8
REMARK VINA RESULT:       1.6      1.330      1.963
REMARK  1 active torsions:
REMARK  status: ('A' for Active; 'I' for Inactive)
REMARK    1  A    between atoms: C9_9  and  O11_11 
ROOT
HETATM    1  C1  UNL     1     -32.469   5.404   2.207  1.00 20.00     0.052 A 
HETATM    2  C2  UNL     1     -32.770   7.819   2.219  1.00 20.00     0.049 A 
HETATM    3  C3  UNL     1     -33.535   5.301   3.085  1.00 20.00    -0.020 A 
HETATM    4  C4  UNL     1     -34.221   6.442   3.523  1.00 20.00    -0.043 A 
HETATM    5  C5  UNL     1     -33.853   7.706   3.094  1.00 20.00    -0.052 A 
HETATM    6  C6  UNL     1     -32.083   6.677   1.779  1.00 20.00     0.117 A 
HETATM    7  C7  UNL     1     -35.358   6.070   4.423  1.00 20.00     0.042 C 
HETATM    8  C8  UNL     1     -34.958   4.646   4.831  1.00 20.00     0.041 C 
HETATM    9  C9  UNL     1     -34.162   4.063   3.652  1.00 20.00     0.152 C 
HETATM   10  C10 UNL     1     -34.585   8.924   3.540  1.00 20.00     0.049 C 
HETATM   11  F12 UNL     1     -31.051   6.810   0.934  1.00 20.00    -0.206 F 
ENDROOT
BRANCH   9  12
HETATM   12  O11 UNL     1     -33.193   3.137   4.103  1.00 20.00    -0.391 OA
HETATM   13  H23 UNL     1     -32.560   3.005   3.376  1.00 20.00     0.210 HD
ENDBRANCH   9  12
TORSDOF 1
ENDMDL
MODEL 9
REMARK VINA RESULT:       1.7      1.967      3.177
REMARK  1 active torsions:
REMARK  status: ('A' for Active; 'I' for Inactive)
REMARK    1  A    between atoms: C9_9  and  O11_11 
ROOT
HETATM    1  C1  UNL     1     -31.909   6.384   1.102  1.00 20.00     0.052 A 
HETATM    2  C2  UNL     1     -32.926   4.397   2.071  1.00 20.00     0.049 A 
HETATM    3  C3  UNL     1     -32.565   7.144   2.056  1.00 20.00    -0.020 A 
HETATM    4  C4  UNL     1     -33.389   6.541   3.015  1.00 20.00    -0.043 A 
HETATM    5  C5  UNL     1     -33.575   5.168   3.038  1.00 20.00    -0.052 A 
HETATM    6  C6  UNL     1     -32.100   5.000   1.110  1.00 20.00     0.117 A 
HETATM    7  C7  UNL     1     -33.944   7.560   3.961  1.00 20.00     0.042 C 
HETATM    8  C8  UNL     1     -33.737   8.851   3.158  1.00 20.00     0.041 C 
HETATM    9  C9  UNL     1     -32.493   8.624   2.282  1.00 20.00     0.152 C 
HETATM   10  C10 UNL     1     -34.435   4.515   4.063  1.00 20.00     0.049 C 
HETATM   11  F12 UNL     1     -31.483   4.239   0.196  1.00 20.00    -0.206 F 
ENDROOT
BRANCH   9  12
HETATM   12  O11 UNL     1     -32.585   9.351   1.073  1.00 20.00    -0.391 OA
HETATM   13  H23 UNL     1     -32.041  10.151   1.177  1.00 20.00     0.210 HD
ENDBRANCH   9  12
TORSDOF 1
ENDMDL
