MODEL 1
REMARK VINA RESULT:      -3.5      0.000      0.000
REMARK  3 active torsions:
REMARK  status: ('A' for Active; 'I' for Inactive)
REMARK    1  A    between atoms: C3_3  and  C4_4 
REMARK    2  A    between atoms: C3_3  and  C5_5 
REMARK    3  A    between atoms: C5_5  and  C6_6 
ROOT
HETATM    1  C1  UNL     1     -32.464   9.780   0.106  1.00 20.00     0.012 C 
HETATM    2  C2  UNL     1     -32.152   8.949   0.914  1.00 20.00    -0.110 C 
HETATM    3  C4  UNL     1     -31.766   7.940   1.907  1.00 20.00     0.171 C 
ENDROOT
BRANCH   3   4
HETATM    4  C3  UNL     1     -32.565   6.656   1.776  1.00 20.00     0.146 C 
HETATM    5  O7  UNL     1     -32.055   5.592   1.427  1.00 20.00    -0.297 OA
BRANCH   4   6
HETATM    6  C5  UNL     1     -34.045   6.772   2.106  1.00 20.00     0.196 C 
BRANCH   6   7
HETATM    7  C6  UNL     1     -34.356   6.474   3.554  1.00 20.00     0.394 C 
HETATM    8  F8  UNL     1     -35.692   6.477   3.758  1.00 20.00    -0.171 F 
HETATM    9  F9  UNL     1     -33.891   5.261   3.921  1.00 20.00    -0.171 F 
HETATM   10  F10 UNL     1     -33.818   7.399   4.376  1.00 20.00    -0.171 F 
ENDBRANCH   6   7
ENDBRANCH   4   6
ENDBRANCH   3   4
TORSDOF 3
ENDMDL
MODEL 2
REMARK VINA RESULT:      -3.4      0.047      1.197
REMARK  3 active torsions:
REMARK  status: ('A' for Active; 'I' for Inactive)
REMARK    1  A    between atoms: C3_3  and  C4_4 
REMARK    2  A    between atoms: C3_3  and  C5_5 
REMARK    3  A    between atoms: C5_5  and  C6_6 
ROOT
HETATM    1  C1  UNL     1     -32.434   9.792   0.126  1.00 20.00     0.012 C 
HETATM    2  C2  UNL     1     -32.145   8.962   0.943  1.00 20.00    -0.110 C 
HETATM    3  C4  UNL     1     -31.786   7.953   1.947  1.00 20.00     0.171 C 
ENDROOT
BRANCH   3   4
HETATM    4  C3  UNL     1     -32.595   6.676   1.806  1.00 20.00     0.146 C 
HETATM    5  O7  UNL     1     -32.092   5.613   1.445  1.00 20.00    -0.297 OA
BRANCH   4   6
HETATM    6  C5  UNL     1     -34.072   6.799   2.141  1.00 20.00     0.196 C 
BRANCH   6   7
HETATM    7  C6  UNL     1     -34.384   6.470   3.583  1.00 20.00     0.394 C 
HETATM    8  F8  UNL     1     -33.890   5.254   3.905  1.00 20.00    -0.171 F 
HETATM    9  F9  UNL     1     -33.832   7.369   4.426  1.00 20.00    -0.171 F 
HETATM   10  F10 UNL     1     -35.714   6.441   3.808  1.00 20.00    -0.171 F 
ENDBRANCH   6   7
ENDBRANCH   4   6
ENDBRANCH   3   4
TORSDOF 3
ENDMDL
MODEL 3
REMARK VINA RESULT:      -3.4      0.055      1.196
REMARK  3 active torsions:
REMARK  status: ('A' for Active; 'I' for Inactive)
REMARK    1  A    between atoms: C3_3  and  C4_4 
REMARK    2  A    between atoms: C3_3  and  C5_5 
REMARK    3  A    between atoms: C5_5  and  C6_6 
ROOT
HETATM    1  C1  UNL     1     -32.408   9.808   0.116  1.00 20.00     0.012 C 
HETATM    2  C2  UNL     1     -32.124   8.979   0.937  1.00 20.00    -0.110 C 
HETATM    3  C4  UNL     1     -31.772   7.972   1.944  1.00 20.00     0.171 C 
ENDROOT
BRANCH   3   4
HETATM    4  C3  UNL     1     -32.591   6.700   1.809  1.00 20.00     0.146 C 
HETATM    5  O7  UNL     1     -32.097   5.632   1.450  1.00 20.00    -0.297 OA
BRANCH   4   6
HETATM    6  C5  UNL     1     -34.067   6.835   2.148  1.00 20.00     0.196 C 
BRANCH   6   7
HETATM    7  C6  UNL     1     -34.383   6.471   3.580  1.00 20.00     0.394 C 
HETATM    8  F8  UNL     1     -33.835   7.373   4.425  1.00 20.00    -0.171 F 
HETATM    9  F9  UNL     1     -35.714   6.459   3.805  1.00 20.00    -0.171 F 
HETATM   10  F10 UNL     1     -33.889   5.259   3.904  1.00 20.00    -0.171 F 
ENDBRANCH   6   7
ENDBRANCH   4   6
ENDBRANCH   3   4
TORSDOF 3
ENDMDL
MODEL 4
REMARK VINA RESULT:      -3.2      3.028      4.396
REMARK  3 active torsions:
REMARK  status: ('A' for Active; 'I' for Inactive)
REMARK    1  A    between atoms: C3_3  and  C4_4 
REMARK    2  A    between atoms: C3_3  and  C5_5 
REMARK    3  A    between atoms: C5_5  and  C6_6 
ROOT
HETATM    1  C1  UNL     1     -34.959   6.536   3.944  1.00 20.00     0.012 C 
HETATM    2  C2  UNL     1     -34.038   7.234   3.622  1.00 20.00    -0.110 C 
HETATM    3  C4  UNL     1     -32.911   8.092   3.236  1.00 20.00     0.171 C 
ENDROOT
BRANCH   3   4
HETATM    4  C3  UNL     1     -32.385   7.775   1.848  1.00 20.00     0.146 C 
HETATM    5  O7  UNL     1     -32.558   6.683   1.309  1.00 20.00    -0.297 OA
BRANCH   4   6
HETATM    6  C5  UNL     1     -31.628   8.903   1.164  1.00 20.00     0.196 C 
BRANCH   6   7
HETATM    7  C6  UNL     1     -32.521   9.811   0.350  1.00 20.00     0.394 C 
HETATM    8  F8  UNL     1     -31.825  10.883  -0.089  1.00 20.00    -0.171 F 
HETATM    9  F9  UNL     1     -33.017   9.176  -0.733  1.00 20.00    -0.171 F 
HETATM   10  F10 UNL     1     -33.558  10.271   1.081  1.00 20.00    -0.171 F 
ENDBRANCH   6   7
ENDBRANCH   4   6
ENDBRANCH   3   4
TORSDOF 3
ENDMDL
MODEL 5
REMARK VINA RESULT:      -3.2      3.032      4.425
REMARK  3 active torsions:
REMARK  status: ('A' for Active; 'I' for Inactive)
REMARK    1  A    between atoms: C3_3  and  C4_4 
REMARK    2  A    between atoms: C3_3  and  C5_5 
REMARK    3  A    between atoms: C5_5  and  C6_6 
ROOT
HETATM    1  C1  UNL     1     -34.963   6.536   3.948  1.00 20.00     0.012 C 
HETATM    2  C2  UNL     1     -34.043   7.236   3.623  1.00 20.00    -0.110 C 
HETATM    3  C4  UNL     1     -32.918   8.094   3.233  1.00 20.00     0.171 C 
ENDROOT
BRANCH   3   4
HETATM    4  C3  UNL     1     -32.398   7.780   1.842  1.00 20.00     0.146 C 
HETATM    5  O7  UNL     1     -32.591   6.696   1.294  1.00 20.00    -0.297 OA
BRANCH   4   6
HETATM    6  C5  UNL     1     -31.621   8.899   1.168  1.00 20.00     0.196 C 
BRANCH   6   7
HETATM    7  C6  UNL     1     -32.494   9.819   0.346  1.00 20.00     0.394 C 
HETATM    8  F8  UNL     1     -33.532  10.268   1.087  1.00 20.00    -0.171 F 
HETATM    9  F9  UNL     1     -31.807  10.897  -0.088  1.00 20.00    -0.171 F 
HETATM   10  F10 UNL     1     -33.007   9.185  -0.729  1.00 20.00    -0.171 F 
ENDBRANCH   6   7
ENDBRANCH   4   6
ENDBRANCH   3   4
TORSDOF 3
ENDMDL
MODEL 6
REMARK VINA RESULT:      -3.2      3.008      4.355
REMARK  3 active torsions:
REMARK  status: ('A' for Active; 'I' for Inactive)
REMARK    1  A    between atoms: C3_3  and  C4_4 
REMARK    2  A    between atoms: C3_3  and  C5_5 
REMARK    3  A    between atoms: C5_5  and  C6_6 
ROOT
HETATM    1  C1  UNL     1     -34.976   6.530   3.971  1.00 20.00     0.012 C 
HETATM    2  C2  UNL     1     -34.055   7.227   3.644  1.00 20.00    -0.110 C 
HETATM    3  C4  UNL     1     -32.928   8.082   3.253  1.00 20.00     0.171 C 
ENDROOT
BRANCH   3   4
HETATM    4  C3  UNL     1     -32.393   7.747   1.872  1.00 20.00     0.146 C 
HETATM    5  O7  UNL     1     -32.568   6.650   1.344  1.00 20.00    -0.297 OA
BRANCH   4   6
HETATM    6  C5  UNL     1     -31.625   8.863   1.182  1.00 20.00     0.196 C 
BRANCH   6   7
HETATM    7  C6  UNL     1     -32.512   9.790   0.384  1.00 20.00     0.394 C 
HETATM    8  F8  UNL     1     -33.020   9.145  -0.690  1.00 20.00    -0.171 F 
HETATM    9  F9  UNL     1     -33.552  10.236   1.120  1.00 20.00    -0.171 F 
HETATM   10  F10 UNL     1     -31.828  10.860  -0.072  1.00 20.00    -0.171 F 
ENDBRANCH   6   7
ENDBRANCH   4   6
ENDBRANCH   3   4
TORSDOF 3
ENDMDL
MODEL 7
REMARK VINA RESULT:      -3.1      2.635      4.456
REMARK  3 active torsions:
REMARK  status: ('A' for Active; 'I' for Inactive)
REMARK    1  A    between atoms: C3_3  and  C4_4 
REMARK    2  A    between atoms: C3_3  and  C5_5 
REMARK    3  A    between atoms: C5_5  and  C6_6 
ROOT
HETATM    1  C1  UNL     1     -33.646   3.460   4.347  1.00 20.00     0.012 C 
HETATM    2  C2  UNL     1     -34.256   4.483   4.193  1.00 20.00    -0.110 C 
HETATM    3  C4  UNL     1     -35.008   5.730   4.008  1.00 20.00     0.171 C 
ENDROOT
BRANCH   3   4
HETATM    4  C3  UNL     1     -34.119   6.892   3.602  1.00 20.00     0.146 C 
HETATM    5  O7  UNL     1     -34.093   7.953   4.224  1.00 20.00    -0.297 OA
BRANCH   4   6
HETATM    6  C5  UNL     1     -33.260   6.657   2.369  1.00 20.00     0.196 C 
BRANCH   6   7
HETATM    7  C6  UNL     1     -32.250   7.755   2.130  1.00 20.00     0.394 C 
HETATM    8  F8  UNL     1     -31.200   7.282   1.423  1.00 20.00    -0.171 F 
HETATM    9  F9  UNL     1     -32.787   8.776   1.428  1.00 20.00    -0.171 F 
HETATM   10  F10 UNL     1     -31.770   8.247   3.291  1.00 20.00    -0.171 F 
ENDBRANCH   6   7
ENDBRANCH   4   6
ENDBRANCH   3   4
TORSDOF 3
ENDMDL
MODEL 8
REMARK VINA RESULT:      -2.6      2.310      3.577
REMARK  3 active torsions:
REMARK  status: ('A' for Active; 'I' for Inactive)
REMARK    1  A    between atoms: C3_3  and  C4_4 
REMARK    2  A    between atoms: C3_3  and  C5_5 
REMARK    3  A    between atoms: C5_5  and  C6_6 
ROOT
HETATM    1  C1  UNL     1     -35.414   6.142   4.077  1.00 20.00     0.012 C 
HETATM    2  C2  UNL     1     -34.504   6.914   3.945  1.00 20.00    -0.110 C 
HETATM    3  C4  UNL     1     -33.393   7.860   3.790  1.00 20.00     0.171 C 
ENDROOT
BRANCH   3   4
HETATM    4  C3  UNL     1     -32.634   7.664   2.490  1.00 20.00     0.146 C 
HETATM    5  O7  UNL     1     -31.553   8.205   2.267  1.00 20.00    -0.297 OA
BRANCH   4   6
HETATM    6  C5  UNL     1     -33.303   6.748   1.477  1.00 20.00     0.196 C 
BRANCH   6   7
HETATM    7  C6  UNL     1     -32.648   5.389   1.380  1.00 20.00     0.394 C 
HETATM    8  F8  UNL     1     -32.928   4.653   2.479  1.00 20.00    -0.171 F 
HETATM    9  F9  UNL     1     -33.091   4.702   0.306  1.00 20.00    -0.171 F 
HETATM   10  F10 UNL     1     -31.306   5.492   1.292  1.00 20.00    -0.171 F 
ENDBRANCH   6   7
ENDBRANCH   4   6
ENDBRANCH   3   4
TORSDOF 3
ENDMDL
MODEL 9
REMARK VINA RESULT:      -2.6      2.519      4.349
REMARK  3 active torsions:
REMARK  status: ('A' for Active; 'I' for Inactive)
REMARK    1  A    between atoms: C3_3  and  C4_4 
REMARK    2  A    between atoms: C3_3  and  C5_5 
REMARK    3  A    between atoms: C5_5  and  C6_6 
ROOT
HETATM    1  C1  UNL     1     -33.443   2.991   4.545  1.00 20.00     0.012 C 
HETATM    2  C2  UNL     1     -33.864   4.061   4.202  1.00 20.00    -0.110 C 
HETATM    3  C4  UNL     1     -34.384   5.371   3.790  1.00 20.00     0.171 C 
ENDROOT
BRANCH   3   4
HETATM    4  C3  UNL     1     -33.551   6.011   2.694  1.00 20.00     0.146 C 
HETATM    5  O7  UNL     1     -33.049   5.359   1.780  1.00 20.00    -0.297 OA
BRANCH   4   6
HETATM    6  C5  UNL     1     -33.378   7.518   2.803  1.00 20.00     0.196 C 
BRANCH   6   7
HETATM    7  C6  UNL     1     -32.111   8.019   2.149  1.00 20.00     0.394 C 
HETATM    8  F8  UNL     1     -31.288   8.560   3.074  1.00 20.00    -0.171 F 
HETATM    9  F9  UNL     1     -31.439   7.019   1.541  1.00 20.00    -0.171 F 
HETATM   10  F10 UNL     1     -32.371   8.972   1.230  1.00 20.00    -0.171 F 
ENDBRANCH   6   7
ENDBRANCH   4   6
ENDBRANCH   3   4
TORSDOF 3
ENDMDL
