MODEL 1
REMARK VINA RESULT:      -2.1      0.000      0.000
REMARK  5 active torsions:
REMARK  status: ('A' for Active; 'I' for Inactive)
REMARK    1  A    between atoms: C1_1  and  C9_9 
REMARK    2  A    between atoms: C6_6  and  C7_7 
REMARK    3  A    between atoms: C7_7  and  C10_10 
REMARK    4  A    between atoms: C8_8  and  C9_9 
REMARK    5  A    between atoms: C8_8  and  C10_10 
ROOT
HETATM    1  C8  UNL     1     -33.992   6.519   2.194  1.00 20.00     0.016 C 
ENDROOT
BRANCH   1   2
HETATM    2  C9  UNL     1     -34.666   6.625   3.574  1.00 20.00     0.051 C 
HETATM    3  C4  UNL     1     -33.875   7.484   4.556  1.00 20.00     0.018 C 
BRANCH   2   4
HETATM    4  C1  UNL     1     -34.847   5.233   4.176  1.00 20.00     0.126 C 
HETATM    5  C2  UNL     1     -33.741   4.237   3.928  1.00 20.00     0.091 C 
HETATM    6  O11 UNL     1     -35.827   4.931   4.858  1.00 20.00    -0.298 OA
ENDBRANCH   2   4
ENDBRANCH   1   2
BRANCH   1   7
HETATM    7  C10 UNL     1     -32.465   6.744   2.177  1.00 20.00    -0.018 C 
HETATM    8  C5  UNL     1     -31.816   5.785   1.171  1.00 20.00     0.010 C 
BRANCH   7   9
HETATM    9  C7  UNL     1     -32.039   8.204   1.914  1.00 20.00     0.004 C 
BRANCH   9  10
HETATM   10  C6  UNL     1     -32.051   8.632   0.444  1.00 20.00    -0.004 C 
HETATM   11  C3  UNL     1     -32.523  10.071   0.293  1.00 20.00     0.005 C 
ENDBRANCH   9  10
ENDBRANCH   7   9
ENDBRANCH   1   7
TORSDOF 5
ENDMDL
MODEL 2
REMARK VINA RESULT:      -2.1      2.055      5.031
REMARK  5 active torsions:
REMARK  status: ('A' for Active; 'I' for Inactive)
REMARK    1  A    between atoms: C1_1  and  C9_9 
REMARK    2  A    between atoms: C6_6  and  C7_7 
REMARK    3  A    between atoms: C7_7  and  C10_10 
REMARK    4  A    between atoms: C8_8  and  C9_9 
REMARK    5  A    between atoms: C8_8  and  C10_10 
ROOT
HETATM    1  C8  UNL     1     -33.386   6.837   3.646  1.00 20.00     0.016 C 
ENDROOT
BRANCH   1   2
HETATM    2  C9  UNL     1     -33.217   7.069   2.133  1.00 20.00     0.051 C 
HETATM    3  C4  UNL     1     -32.778   5.813   1.387  1.00 20.00     0.018 C 
BRANCH   2   4
HETATM    4  C1  UNL     1     -32.190   8.171   1.884  1.00 20.00     0.126 C 
HETATM    5  C2  UNL     1     -32.454   9.097   0.723  1.00 20.00     0.091 C 
HETATM    6  O11 UNL     1     -31.204   8.329   2.606  1.00 20.00    -0.298 OA
ENDBRANCH   2   4
ENDBRANCH   1   2
BRANCH   1   7
HETATM    7  C10 UNL     1     -34.795   6.404   4.103  1.00 20.00    -0.018 C 
HETATM    8  C5  UNL     1     -35.823   6.786   3.030  1.00 20.00     0.010 C 
BRANCH   7   9
HETATM    9  C7  UNL     1     -34.911   4.913   4.484  1.00 20.00     0.004 C 
BRANCH   9  10
HETATM   10  C6  UNL     1     -33.858   3.996   3.856  1.00 20.00    -0.004 C 
HETATM   11  C3  UNL     1     -33.274   3.042   4.888  1.00 20.00     0.005 C 
ENDBRANCH   9  10
ENDBRANCH   7   9
ENDBRANCH   1   7
TORSDOF 5
ENDMDL
MODEL 3
REMARK VINA RESULT:      -1.8      1.908      4.552
REMARK  5 active torsions:
REMARK  status: ('A' for Active; 'I' for Inactive)
REMARK    1  A    between atoms: C1_1  and  C9_9 
REMARK    2  A    between atoms: C6_6  and  C7_7 
REMARK    3  A    between atoms: C7_7  and  C10_10 
REMARK    4  A    between atoms: C8_8  and  C9_9 
REMARK    5  A    between atoms: C8_8  and  C10_10 
ROOT
HETATM    1  C8  UNL     1     -33.492   7.875   2.581  1.00 20.00     0.016 C 
ENDROOT
BRANCH   1   2
HETATM    2  C9  UNL     1     -32.170   7.471   1.903  1.00 20.00     0.051 C 
HETATM    3  C4  UNL     1     -31.780   8.408   0.763  1.00 20.00     0.018 C 
BRANCH   2   4
HETATM    4  C1  UNL     1     -32.277   6.050   1.354  1.00 20.00     0.126 C 
HETATM    5  C2  UNL     1     -33.526   5.712   0.580  1.00 20.00     0.091 C 
HETATM    6  O11 UNL     1     -31.381   5.217   1.502  1.00 20.00    -0.298 OA
ENDBRANCH   2   4
ENDBRANCH   1   2
BRANCH   1   7
HETATM    7  C10 UNL     1     -33.827   7.128   3.890  1.00 20.00    -0.018 C 
HETATM    8  C5  UNL     1     -33.704   8.092   5.077  1.00 20.00     0.010 C 
BRANCH   7   9
HETATM    9  C7  UNL     1     -35.197   6.418   3.886  1.00 20.00     0.004 C 
BRANCH   9  10
HETATM   10  C6  UNL     1     -35.208   5.021   4.514  1.00 20.00    -0.004 C 
HETATM   11  C3  UNL     1     -34.004   4.206   4.066  1.00 20.00     0.005 C 
ENDBRANCH   9  10
ENDBRANCH   7   9
ENDBRANCH   1   7
TORSDOF 5
ENDMDL
MODEL 4
REMARK VINA RESULT:      -1.8      1.054      2.144
REMARK  5 active torsions:
REMARK  status: ('A' for Active; 'I' for Inactive)
REMARK    1  A    between atoms: C1_1  and  C9_9 
REMARK    2  A    between atoms: C6_6  and  C7_7 
REMARK    3  A    between atoms: C7_7  and  C10_10 
REMARK    4  A    between atoms: C8_8  and  C9_9 
REMARK    5  A    between atoms: C8_8  and  C10_10 
ROOT
HETATM    1  C8  UNL     1     -34.240   6.738   3.235  1.00 20.00     0.016 C 
ENDROOT
BRANCH   1   2
HETATM    2  C9  UNL     1     -33.416   5.438   3.293  1.00 20.00     0.051 C 
HETATM    3  C4  UNL     1     -33.141   4.851   1.912  1.00 20.00     0.018 C 
BRANCH   2   4
HETATM    4  C1  UNL     1     -34.145   4.394   4.135  1.00 20.00     0.126 C 
HETATM    5  C2  UNL     1     -33.390   3.127   4.450  1.00 20.00     0.091 C 
HETATM    6  O11 UNL     1     -35.284   4.574   4.568  1.00 20.00    -0.298 OA
ENDBRANCH   2   4
ENDBRANCH   1   2
BRANCH   1   7
HETATM    7  C10 UNL     1     -33.451   8.042   3.475  1.00 20.00    -0.018 C 
HETATM    8  C5  UNL     1     -33.219   8.233   4.979  1.00 20.00     0.010 C 
BRANCH   7   9
HETATM    9  C7  UNL     1     -32.127   8.139   2.688  1.00 20.00     0.004 C 
BRANCH   9  10
HETATM   10  C6  UNL     1     -32.277   8.215   1.166  1.00 20.00    -0.004 C 
HETATM   11  C3  UNL     1     -32.368   9.659   0.694  1.00 20.00     0.005 C 
ENDBRANCH   9  10
ENDBRANCH   7   9
ENDBRANCH   1   7
TORSDOF 5
ENDMDL
MODEL 5
REMARK VINA RESULT:      -1.7      2.581      5.281
REMARK  5 active torsions:
REMARK  status: ('A' for Active; 'I' for Inactive)
REMARK    1  A    between atoms: C1_1  and  C9_9 
REMARK    2  A    between atoms: C6_6  and  C7_7 
REMARK    3  A    between atoms: C7_7  and  C10_10 
REMARK    4  A    between atoms: C8_8  and  C9_9 
REMARK    5  A    between atoms: C8_8  and  C10_10 
ROOT
HETATM    1  C8  UNL     1     -33.212   7.070   1.944  1.00 20.00     0.016 C 
ENDROOT
BRANCH   1   2
HETATM    2  C9  UNL     1     -31.907   7.888   1.976  1.00 20.00     0.051 C 
HETATM    3  C4  UNL     1     -31.740   8.685   3.266  1.00 20.00     0.018 C 
BRANCH   2   4
HETATM    4  C1  UNL     1     -31.866   8.853   0.793  1.00 20.00     0.126 C 
HETATM    5  C2  UNL     1     -32.819  10.022   0.836  1.00 20.00     0.091 C 
HETATM    6  O11 UNL     1     -31.079   8.715  -0.144  1.00 20.00    -0.298 OA
ENDBRANCH   2   4
ENDBRANCH   1   2
BRANCH   1   7
HETATM    7  C10 UNL     1     -33.556   6.310   3.242  1.00 20.00    -0.018 C 
HETATM    8  C5  UNL     1     -34.920   6.778   3.765  1.00 20.00     0.010 C 
BRANCH   7   9
HETATM    9  C7  UNL     1     -33.504   4.773   3.113  1.00 20.00     0.004 C 
BRANCH   9  10
HETATM   10  C6  UNL     1     -34.076   3.999   4.304  1.00 20.00    -0.004 C 
HETATM   11  C3  UNL     1     -33.107   2.926   4.780  1.00 20.00     0.005 C 
ENDBRANCH   9  10
ENDBRANCH   7   9
ENDBRANCH   1   7
TORSDOF 5
ENDMDL
MODEL 6
REMARK VINA RESULT:      -1.6      2.486      5.173
REMARK  5 active torsions:
REMARK  status: ('A' for Active; 'I' for Inactive)
REMARK    1  A    between atoms: C1_1  and  C9_9 
REMARK    2  A    between atoms: C6_6  and  C7_7 
REMARK    3  A    between atoms: C7_7  and  C10_10 
REMARK    4  A    between atoms: C8_8  and  C9_9 
REMARK    5  A    between atoms: C8_8  and  C10_10 
ROOT
HETATM    1  C8  UNL     1     -32.468   8.249   2.990  1.00 20.00     0.016 C 
ENDROOT
BRANCH   1   2
HETATM    2  C9  UNL     1     -32.644   7.804   1.527  1.00 20.00     0.051 C 
HETATM    3  C4  UNL     1     -32.036   6.433   1.248  1.00 20.00     0.018 C 
BRANCH   2   4
HETATM    4  C1  UNL     1     -32.003   8.825   0.589  1.00 20.00     0.126 C 
HETATM    5  C2  UNL     1     -32.710  10.149   0.439  1.00 20.00     0.091 C 
HETATM    6  O11 UNL     1     -30.944   8.605  -0.000  1.00 20.00    -0.298 OA
ENDBRANCH   2   4
ENDBRANCH   1   2
BRANCH   1   7
HETATM    7  C10 UNL     1     -33.301   7.470   4.031  1.00 20.00    -0.018 C 
HETATM    8  C5  UNL     1     -33.335   8.252   5.350  1.00 20.00     0.010 C 
BRANCH   7   9
HETATM    9  C7  UNL     1     -34.724   7.101   3.561  1.00 20.00     0.004 C 
BRANCH   9  10
HETATM   10  C6  UNL     1     -35.295   5.814   4.163  1.00 20.00    -0.004 C 
HETATM   11  C3  UNL     1     -34.308   4.663   4.036  1.00 20.00     0.005 C 
ENDBRANCH   9  10
ENDBRANCH   7   9
ENDBRANCH   1   7
TORSDOF 5
ENDMDL
MODEL 7
REMARK VINA RESULT:      -1.6      0.965      1.905
REMARK  5 active torsions:
REMARK  status: ('A' for Active; 'I' for Inactive)
REMARK    1  A    between atoms: C1_1  and  C9_9 
REMARK    2  A    between atoms: C6_6  and  C7_7 
REMARK    3  A    between atoms: C7_7  and  C10_10 
REMARK    4  A    between atoms: C8_8  and  C9_9 
REMARK    5  A    between atoms: C8_8  and  C10_10 
ROOT
HETATM    1  C8  UNL     1     -33.408   5.557   1.988  1.00 20.00     0.016 C 
ENDROOT
BRANCH   1   2
HETATM    2  C9  UNL     1     -33.594   5.482   3.515  1.00 20.00     0.051 C 
HETATM    3  C4  UNL     1     -34.035   4.101   3.990  1.00 20.00     0.018 C 
BRANCH   2   4
HETATM    4  C1  UNL     1     -34.630   6.510   3.966  1.00 20.00     0.126 C 
HETATM    5  C2  UNL     1     -34.118   7.889   4.301  1.00 20.00     0.091 C 
HETATM    6  O11 UNL     1     -35.832   6.250   4.031  1.00 20.00    -0.298 OA
ENDBRANCH   2   4
ENDBRANCH   1   2
BRANCH   1   7
HETATM    7  C10 UNL     1     -31.991   5.933   1.505  1.00 20.00    -0.018 C 
HETATM    8  C5  UNL     1     -31.371   4.746   0.757  1.00 20.00     0.010 C 
BRANCH   7   9
HETATM    9  C7  UNL     1     -31.927   7.222   0.660  1.00 20.00     0.004 C 
BRANCH   9  10
HETATM   10  C6  UNL     1     -32.032   8.528   1.454  1.00 20.00    -0.004 C 
HETATM   11  C3  UNL     1     -32.354   9.702   0.541  1.00 20.00     0.005 C 
ENDBRANCH   9  10
ENDBRANCH   7   9
ENDBRANCH   1   7
TORSDOF 5
ENDMDL
MODEL 8
REMARK VINA RESULT:      -1.5      0.868      1.355
REMARK  5 active torsions:
REMARK  status: ('A' for Active; 'I' for Inactive)
REMARK    1  A    between atoms: C1_1  and  C9_9 
REMARK    2  A    between atoms: C6_6  and  C7_7 
REMARK    3  A    between atoms: C7_7  and  C10_10 
REMARK    4  A    between atoms: C8_8  and  C9_9 
REMARK    5  A    between atoms: C8_8  and  C10_10 
ROOT
HETATM    1  C8  UNL     1     -32.996   6.937   2.334  1.00 20.00     0.016 C 
ENDROOT
BRANCH   1   2
HETATM    2  C9  UNL     1     -34.168   7.080   3.321  1.00 20.00     0.051 C 
HETATM    3  C4  UNL     1     -33.829   7.963   4.519  1.00 20.00     0.018 C 
BRANCH   2   4
HETATM    4  C1  UNL     1     -34.594   5.705   3.831  1.00 20.00     0.126 C 
HETATM    5  C2  UNL     1     -33.650   4.559   3.565  1.00 20.00     0.091 C 
HETATM    6  O11 UNL     1     -35.640   5.528   4.456  1.00 20.00    -0.298 OA
ENDBRANCH   2   4
ENDBRANCH   1   2
BRANCH   1   7
HETATM    7  C10 UNL     1     -32.263   8.246   1.971  1.00 20.00    -0.018 C 
HETATM    8  C5  UNL     1     -31.036   8.416   2.875  1.00 20.00     0.010 C 
BRANCH   7   9
HETATM    9  C7  UNL     1     -31.882   8.370   0.481  1.00 20.00     0.004 C 
BRANCH   9  10
HETATM   10  C6  UNL     1     -32.514   9.554  -0.257  1.00 20.00    -0.004 C 
HETATM   11  C3  UNL     1     -32.756  10.724   0.686  1.00 20.00     0.005 C 
ENDBRANCH   9  10
ENDBRANCH   7   9
ENDBRANCH   1   7
TORSDOF 5
ENDMDL
MODEL 9
REMARK VINA RESULT:      -1.4      2.632      5.297
REMARK  5 active torsions:
REMARK  status: ('A' for Active; 'I' for Inactive)
REMARK    1  A    between atoms: C1_1  and  C9_9 
REMARK    2  A    between atoms: C6_6  and  C7_7 
REMARK    3  A    between atoms: C7_7  and  C10_10 
REMARK    4  A    between atoms: C8_8  and  C9_9 
REMARK    5  A    between atoms: C8_8  and  C10_10 
ROOT
HETATM    1  C8  UNL     1     -32.156   8.203   1.845  1.00 20.00     0.016 C 
ENDROOT
BRANCH   1   2
HETATM    2  C9  UNL     1     -31.977   8.560   0.358  1.00 20.00     0.051 C 
HETATM    3  C4  UNL     1     -30.511   8.675  -0.050  1.00 20.00     0.018 C 
BRANCH   2   4
HETATM    4  C1  UNL     1     -32.677   9.881   0.049  1.00 20.00     0.126 C 
HETATM    5  C2  UNL     1     -32.691  10.916   1.146  1.00 20.00     0.091 C 
HETATM    6  O11 UNL     1     -33.186  10.117  -1.048  1.00 20.00    -0.298 OA
ENDBRANCH   2   4
ENDBRANCH   1   2
BRANCH   1   7
HETATM    7  C10 UNL     1     -33.213   7.121   2.151  1.00 20.00    -0.018 C 
HETATM    8  C5  UNL     1     -32.694   5.753   1.692  1.00 20.00     0.010 C 
BRANCH   7   9
HETATM    9  C7  UNL     1     -33.676   7.080   3.622  1.00 20.00     0.004 C 
BRANCH   9  10
HETATM   10  C6  UNL     1     -35.099   6.560   3.843  1.00 20.00    -0.004 C 
HETATM   11  C3  UNL     1     -35.088   5.146   4.407  1.00 20.00     0.005 C 
ENDBRANCH   9  10
ENDBRANCH   7   9
ENDBRANCH   1   7
TORSDOF 5
ENDMDL
