MODEL 1
REMARK VINA RESULT:      -2.2      0.000      0.000
REMARK  5 active torsions:
REMARK  status: ('A' for Active; 'I' for Inactive)
REMARK    1  A    between atoms: C1_1  and  C9_9 
REMARK    2  A    between atoms: C6_6  and  C7_7 
REMARK    3  A    between atoms: C7_7  and  C10_10 
REMARK    4  A    between atoms: C8_8  and  C9_9 
REMARK    5  A    between atoms: C8_8  and  C10_10 
ROOT
HETATM    1  C8  UNL     1     -33.928   6.285   2.063  1.00 20.00     0.016 C 
ENDROOT
BRANCH   1   2
HETATM    2  C9  UNL     1     -33.781   6.227   3.595  1.00 20.00     0.051 C 
HETATM    3  C4  UNL     1     -34.334   7.466   4.291  1.00 20.00     0.018 C 
BRANCH   2   4
HETATM    4  C1  UNL     1     -34.499   4.993   4.143  1.00 20.00     0.126 C 
HETATM    5  C2  UNL     1     -33.707   3.712   4.190  1.00 20.00     0.091 C 
HETATM    6  O11 UNL     1     -35.656   5.036   4.558  1.00 20.00    -0.298 OA
ENDBRANCH   2   4
ENDBRANCH   1   2
BRANCH   1   7
HETATM    7  C10 UNL     1     -32.615   6.470   1.271  1.00 20.00    -0.018 C 
HETATM    8  C5  UNL     1     -31.794   5.177   1.331  1.00 20.00     0.010 C 
BRANCH   7   9
HETATM    9  C7  UNL     1     -31.772   7.687   1.703  1.00 20.00     0.004 C 
BRANCH   9  10
HETATM   10  C6  UNL     1     -32.447   9.048   1.511  1.00 20.00    -0.004 C 
HETATM   11  C3  UNL     1     -32.308   9.534   0.075  1.00 20.00     0.005 C 
ENDBRANCH   9  10
ENDBRANCH   7   9
ENDBRANCH   1   7
TORSDOF 5
ENDMDL
MODEL 2
REMARK VINA RESULT:      -1.5      1.900      4.892
REMARK  5 active torsions:
REMARK  status: ('A' for Active; 'I' for Inactive)
REMARK    1  A    between atoms: C1_1  and  C9_9 
REMARK    2  A    between atoms: C6_6  and  C7_7 
REMARK    3  A    between atoms: C7_7  and  C10_10 
REMARK    4  A    between atoms: C8_8  and  C9_9 
REMARK    5  A    between atoms: C8_8  and  C10_10 
ROOT
HETATM    1  C8  UNL     1     -34.098   6.600   2.272  1.00 20.00     0.016 C 
ENDROOT
BRANCH   1   2
HETATM    2  C9  UNL     1     -32.558   6.571   2.242  1.00 20.00     0.051 C 
HETATM    3  C4  UNL     1     -32.003   5.649   1.160  1.00 20.00     0.018 C 
BRANCH   2   4
HETATM    4  C1  UNL     1     -32.013   7.980   2.014  1.00 20.00     0.126 C 
HETATM    5  C2  UNL     1     -32.393   8.656   0.722  1.00 20.00     0.091 C 
HETATM    6  O11 UNL     1     -31.321   8.561   2.850  1.00 20.00    -0.298 OA
ENDBRANCH   2   4
ENDBRANCH   1   2
BRANCH   1   7
HETATM    7  C10 UNL     1     -34.740   6.591   3.675  1.00 20.00    -0.018 C 
HETATM    8  C5  UNL     1     -33.998   7.577   4.585  1.00 20.00     0.010 C 
BRANCH   7   9
HETATM    9  C7  UNL     1     -34.839   5.197   4.327  1.00 20.00     0.004 C 
BRANCH   9  10
HETATM   10  C6  UNL     1     -33.946   4.122   3.703  1.00 20.00    -0.004 C 
HETATM   11  C3  UNL     1     -33.416   3.164   4.760  1.00 20.00     0.005 C 
ENDBRANCH   9  10
ENDBRANCH   7   9
ENDBRANCH   1   7
TORSDOF 5
ENDMDL
MODEL 3
REMARK VINA RESULT:      -1.3      0.892      1.296
REMARK  5 active torsions:
REMARK  status: ('A' for Active; 'I' for Inactive)
REMARK    1  A    between atoms: C1_1  and  C9_9 
REMARK    2  A    between atoms: C6_6  and  C7_7 
REMARK    3  A    between atoms: C7_7  and  C10_10 
REMARK    4  A    between atoms: C8_8  and  C9_9 
REMARK    5  A    between atoms: C8_8  and  C10_10 
ROOT
HETATM    1  C8  UNL     1     -33.261   6.184   2.298  1.00 20.00     0.016 C 
ENDROOT
BRANCH   1   2
HETATM    2  C9  UNL     1     -33.889   6.264   3.702  1.00 20.00     0.051 C 
HETATM    3  C4  UNL     1     -35.019   7.285   3.789  1.00 20.00     0.018 C 
BRANCH   2   4
HETATM    4  C1  UNL     1     -34.430   4.895   4.113  1.00 20.00     0.126 C 
HETATM    5  C2  UNL     1     -33.494   3.723   3.969  1.00 20.00     0.091 C 
HETATM    6  O11 UNL     1     -35.563   4.745   4.569  1.00 20.00    -0.298 OA
ENDBRANCH   2   4
ENDBRANCH   1   2
BRANCH   1   7
HETATM    7  C10 UNL     1     -32.128   7.193   2.012  1.00 20.00    -0.018 C 
HETATM    8  C5  UNL     1     -32.031   8.195   3.169  1.00 20.00     0.010 C 
BRANCH   7   9
HETATM    9  C7  UNL     1     -32.241   7.916   0.655  1.00 20.00     0.004 C 
BRANCH   9  10
HETATM   10  C6  UNL     1     -32.085   9.438   0.714  1.00 20.00    -0.004 C 
HETATM   11  C3  UNL     1     -32.792  10.110  -0.455  1.00 20.00     0.005 C 
ENDBRANCH   9  10
ENDBRANCH   7   9
ENDBRANCH   1   7
TORSDOF 5
ENDMDL
MODEL 4
REMARK VINA RESULT:      -1.3      0.785      1.820
REMARK  5 active torsions:
REMARK  status: ('A' for Active; 'I' for Inactive)
REMARK    1  A    between atoms: C1_1  and  C9_9 
REMARK    2  A    between atoms: C6_6  and  C7_7 
REMARK    3  A    between atoms: C7_7  and  C10_10 
REMARK    4  A    between atoms: C8_8  and  C9_9 
REMARK    5  A    between atoms: C8_8  and  C10_10 
ROOT
HETATM    1  C8  UNL     1     -32.772   5.602   3.020  1.00 20.00     0.016 C 
ENDROOT
BRANCH   1   2
HETATM    2  C9  UNL     1     -33.944   4.671   3.385  1.00 20.00     0.051 C 
HETATM    3  C4  UNL     1     -33.508   3.467   4.215  1.00 20.00     0.018 C 
BRANCH   2   4
HETATM    4  C1  UNL     1     -35.006   5.447   4.163  1.00 20.00     0.126 C 
HETATM    5  C2  UNL     1     -34.989   6.947   4.023  1.00 20.00     0.091 C 
HETATM    6  O11 UNL     1     -35.860   4.886   4.849  1.00 20.00    -0.298 OA
ENDBRANCH   2   4
ENDBRANCH   1   2
BRANCH   1   7
HETATM    7  C10 UNL     1     -32.719   6.066   1.549  1.00 20.00    -0.018 C 
HETATM    8  C5  UNL     1     -32.374   4.875   0.647  1.00 20.00     0.010 C 
BRANCH   7   9
HETATM    9  C7  UNL     1     -31.776   7.257   1.286  1.00 20.00     0.004 C 
BRANCH   9  10
HETATM   10  C6  UNL     1     -32.367   8.636   1.593  1.00 20.00    -0.004 C 
HETATM   11  C3  UNL     1     -32.305   9.546   0.374  1.00 20.00     0.005 C 
ENDBRANCH   9  10
ENDBRANCH   7   9
ENDBRANCH   1   7
TORSDOF 5
ENDMDL
MODEL 5
REMARK VINA RESULT:      -1.1      1.930      4.714
REMARK  5 active torsions:
REMARK  status: ('A' for Active; 'I' for Inactive)
REMARK    1  A    between atoms: C1_1  and  C9_9 
REMARK    2  A    between atoms: C6_6  and  C7_7 
REMARK    3  A    between atoms: C7_7  and  C10_10 
REMARK    4  A    between atoms: C8_8  and  C9_9 
REMARK    5  A    between atoms: C8_8  and  C10_10 
ROOT
HETATM    1  C8  UNL     1     -33.421   6.833   3.348  1.00 20.00     0.016 C 
ENDROOT
BRANCH   1   2
HETATM    2  C9  UNL     1     -32.926   7.092   1.913  1.00 20.00     0.051 C 
HETATM    3  C4  UNL     1     -31.739   8.049   1.859  1.00 20.00     0.018 C 
BRANCH   2   4
HETATM    4  C1  UNL     1     -32.526   5.774   1.251  1.00 20.00     0.126 C 
HETATM    5  C2  UNL     1     -33.516   5.168   0.290  1.00 20.00     0.091 C 
HETATM    6  O11 UNL     1     -31.439   5.237   1.459  1.00 20.00    -0.298 OA
ENDBRANCH   2   4
ENDBRANCH   1   2
BRANCH   1   7
HETATM    7  C10 UNL     1     -34.612   5.860   3.480  1.00 20.00    -0.018 C 
HETATM    8  C5  UNL     1     -35.889   6.650   3.789  1.00 20.00     0.010 C 
BRANCH   7   9
HETATM    9  C7  UNL     1     -34.401   4.722   4.499  1.00 20.00     0.004 C 
BRANCH   9  10
HETATM   10  C6  UNL     1     -33.597   3.526   3.982  1.00 20.00    -0.004 C 
HETATM   11  C3  UNL     1     -32.933   2.772   5.125  1.00 20.00     0.005 C 
ENDBRANCH   9  10
ENDBRANCH   7   9
ENDBRANCH   1   7
TORSDOF 5
ENDMDL
MODEL 6
REMARK VINA RESULT:      -1.1      1.231      2.393
REMARK  5 active torsions:
REMARK  status: ('A' for Active; 'I' for Inactive)
REMARK    1  A    between atoms: C1_1  and  C9_9 
REMARK    2  A    between atoms: C6_6  and  C7_7 
REMARK    3  A    between atoms: C7_7  and  C10_10 
REMARK    4  A    between atoms: C8_8  and  C9_9 
REMARK    5  A    between atoms: C8_8  and  C10_10 
ROOT
HETATM    1  C8  UNL     1     -33.230   7.500   1.970  1.00 20.00     0.016 C 
ENDROOT
BRANCH   1   2
HETATM    2  C9  UNL     1     -33.502   5.985   1.927  1.00 20.00     0.051 C 
HETATM    3  C4  UNL     1     -32.263   5.169   1.572  1.00 20.00     0.018 C 
BRANCH   2   4
HETATM    4  C1  UNL     1     -34.033   5.510   3.280  1.00 20.00     0.126 C 
HETATM    5  C2  UNL     1     -34.996   6.425   3.991  1.00 20.00     0.091 C 
HETATM    6  O11 UNL     1     -33.723   4.421   3.763  1.00 20.00    -0.298 OA
ENDBRANCH   2   4
ENDBRANCH   1   2
BRANCH   1   7
HETATM    7  C10 UNL     1     -31.749   7.918   1.846  1.00 20.00    -0.018 C 
HETATM    8  C5  UNL     1     -31.325   8.685   3.104  1.00 20.00     0.010 C 
BRANCH   7   9
HETATM    9  C7  UNL     1     -31.411   8.711   0.568  1.00 20.00     0.004 C 
BRANCH   9  10
HETATM   10  C6  UNL     1     -32.594   9.436  -0.080  1.00 20.00    -0.004 C 
HETATM   11  C3  UNL     1     -32.743  10.848   0.468  1.00 20.00     0.005 C 
ENDBRANCH   9  10
ENDBRANCH   7   9
ENDBRANCH   1   7
TORSDOF 5
ENDMDL
MODEL 7
REMARK VINA RESULT:      -1.1      2.428      5.202
REMARK  5 active torsions:
REMARK  status: ('A' for Active; 'I' for Inactive)
REMARK    1  A    between atoms: C1_1  and  C9_9 
REMARK    2  A    between atoms: C6_6  and  C7_7 
REMARK    3  A    between atoms: C7_7  and  C10_10 
REMARK    4  A    between atoms: C8_8  and  C9_9 
REMARK    5  A    between atoms: C8_8  and  C10_10 
ROOT
HETATM    1  C8  UNL     1     -32.457   6.772   1.848  1.00 20.00     0.016 C 
ENDROOT
BRANCH   1   2
HETATM    2  C9  UNL     1     -32.405   8.295   2.074  1.00 20.00     0.051 C 
HETATM    3  C4  UNL     1     -31.433   8.698   3.178  1.00 20.00     0.018 C 
BRANCH   2   4
HETATM    4  C1  UNL     1     -32.002   9.003   0.781  1.00 20.00     0.126 C 
HETATM    5  C2  UNL     1     -32.756  10.260   0.431  1.00 20.00     0.091 C 
HETATM    6  O11 UNL     1     -31.088   8.595   0.065  1.00 20.00    -0.298 OA
ENDBRANCH   2   4
ENDBRANCH   1   2
BRANCH   1   7
HETATM    7  C10 UNL     1     -33.671   6.044   2.464  1.00 20.00    -0.018 C 
HETATM    8  C5  UNL     1     -34.201   6.850   3.655  1.00 20.00     0.010 C 
BRANCH   7   9
HETATM    9  C7  UNL     1     -33.407   4.576   2.856  1.00 20.00     0.004 C 
BRANCH   9  10
HETATM   10  C6  UNL     1     -34.029   4.136   4.183  1.00 20.00    -0.004 C 
HETATM   11  C3  UNL     1     -33.248   2.985   4.802  1.00 20.00     0.005 C 
ENDBRANCH   9  10
ENDBRANCH   7   9
ENDBRANCH   1   7
TORSDOF 5
ENDMDL
MODEL 8
REMARK VINA RESULT:      -0.9      1.662      2.001
REMARK  5 active torsions:
REMARK  status: ('A' for Active; 'I' for Inactive)
REMARK    1  A    between atoms: C1_1  and  C9_9 
REMARK    2  A    between atoms: C6_6  and  C7_7 
REMARK    3  A    between atoms: C7_7  and  C10_10 
REMARK    4  A    between atoms: C8_8  and  C9_9 
REMARK    5  A    between atoms: C8_8  and  C10_10 
ROOT
HETATM    1  C8  UNL     1     -33.655   7.500   2.541  1.00 20.00     0.016 C 
ENDROOT
BRANCH   1   2
HETATM    2  C9  UNL     1     -33.981   6.464   3.634  1.00 20.00     0.051 C 
HETATM    3  C4  UNL     1     -35.465   6.415   3.980  1.00 20.00     0.018 C 
BRANCH   2   4
HETATM    4  C1  UNL     1     -33.534   5.073   3.186  1.00 20.00     0.126 C 
HETATM    5  C2  UNL     1     -33.835   3.929   4.120  1.00 20.00     0.091 C 
HETATM    6  O11 UNL     1     -32.982   4.875   2.104  1.00 20.00    -0.298 OA
ENDBRANCH   2   4
ENDBRANCH   1   2
BRANCH   1   7
HETATM    7  C10 UNL     1     -32.163   7.865   2.388  1.00 20.00    -0.018 C 
HETATM    8  C5  UNL     1     -31.724   8.736   3.570  1.00 20.00     0.010 C 
BRANCH   7   9
HETATM    9  C7  UNL     1     -31.800   8.525   1.043  1.00 20.00     0.004 C 
BRANCH   9  10
HETATM   10  C6  UNL     1     -32.435   9.896   0.798  1.00 20.00    -0.004 C 
HETATM   11  C3  UNL     1     -32.810  10.076  -0.667  1.00 20.00     0.005 C 
ENDBRANCH   9  10
ENDBRANCH   7   9
ENDBRANCH   1   7
TORSDOF 5
ENDMDL
MODEL 9
REMARK VINA RESULT:      -0.8      1.093      2.508
REMARK  5 active torsions:
REMARK  status: ('A' for Active; 'I' for Inactive)
REMARK    1  A    between atoms: C1_1  and  C9_9 
REMARK    2  A    between atoms: C6_6  and  C7_7 
REMARK    3  A    between atoms: C7_7  and  C10_10 
REMARK    4  A    between atoms: C8_8  and  C9_9 
REMARK    5  A    between atoms: C8_8  and  C10_10 
ROOT
HETATM    1  C8  UNL     1     -33.566   7.942   2.567  1.00 20.00     0.016 C 
ENDROOT
BRANCH   1   2
HETATM    2  C9  UNL     1     -33.610   7.169   3.898  1.00 20.00     0.051 C 
HETATM    3  C4  UNL     1     -33.783   8.081   5.109  1.00 20.00     0.018 C 
BRANCH   2   4
HETATM    4  C1  UNL     1     -34.755   6.156   3.878  1.00 20.00     0.126 C 
HETATM    5  C2  UNL     1     -34.394   4.718   4.148  1.00 20.00     0.091 C 
HETATM    6  O11 UNL     1     -35.923   6.488   3.682  1.00 20.00    -0.298 OA
ENDBRANCH   2   4
ENDBRANCH   1   2
BRANCH   1   7
HETATM    7  C10 UNL     1     -32.169   8.100   1.930  1.00 20.00    -0.018 C 
HETATM    8  C5  UNL     1     -32.240   9.113   0.782  1.00 20.00     0.010 C 
BRANCH   7   9
HETATM    9  C7  UNL     1     -31.522   6.779   1.469  1.00 20.00     0.004 C 
BRANCH   9  10
HETATM   10  C6  UNL     1     -32.506   5.664   1.105  1.00 20.00    -0.004 C 
HETATM   11  C3  UNL     1     -31.790   4.484   0.463  1.00 20.00     0.005 C 
ENDBRANCH   9  10
ENDBRANCH   7   9
ENDBRANCH   1   7
TORSDOF 5
ENDMDL
