MODEL 1
REMARK VINA RESULT:      -3.0      0.000      0.000
REMARK  4 active torsions:
REMARK  status: ('A' for Active; 'I' for Inactive)
REMARK    1  A    between atoms: C2_2  and  C6_6 
REMARK    2  A    between atoms: C3_3  and  C6_6 
REMARK    3  A    between atoms: C3_3  and  C7_7 
REMARK    4  A    between atoms: C7_7  and  C8_8 
ROOT
HETATM    1  C1  UNL     1     -33.861   3.709   4.349  1.00 20.00    -0.111 C 
HETATM    2  C2  UNL     1     -34.364   4.773   4.111  1.00 20.00    -0.100 C 
HETATM    3  C4  UNL     1     -33.249   2.413   4.638  1.00 20.00     0.112 C 
ENDROOT
BRANCH   2   4
HETATM    4  C6  UNL     1     -34.971   6.076   3.820  1.00 20.00     0.172 C 
BRANCH   4   5
HETATM    5  C3  UNL     1     -33.938   7.147   3.520  1.00 20.00     0.137 C 
HETATM    6  O9  UNL     1     -33.728   8.094   4.278  1.00 20.00    -0.297 OA
BRANCH   5   7
HETATM    7  C7  UNL     1     -33.175   6.972   2.215  1.00 20.00     0.079 C 
BRANCH   7   8
HETATM    8  C8  UNL     1     -32.017   7.955   2.075  1.00 20.00     0.003 C 
HETATM    9  C5  UNL     1     -32.264   8.953   0.956  1.00 20.00     0.005 C 
ENDBRANCH   7   8
ENDBRANCH   5   7
ENDBRANCH   4   5
ENDBRANCH   2   4
TORSDOF 4
ENDMDL
MODEL 2
REMARK VINA RESULT:      -2.8      0.886      1.184
REMARK  4 active torsions:
REMARK  status: ('A' for Active; 'I' for Inactive)
REMARK    1  A    between atoms: C2_2  and  C6_6 
REMARK    2  A    between atoms: C3_3  and  C6_6 
REMARK    3  A    between atoms: C3_3  and  C7_7 
REMARK    4  A    between atoms: C7_7  and  C8_8 
ROOT
HETATM    1  C1  UNL     1     -33.906   3.884   4.358  1.00 20.00    -0.111 C 
HETATM    2  C2  UNL     1     -34.427   4.948   4.165  1.00 20.00    -0.100 C 
HETATM    3  C4  UNL     1     -33.272   2.587   4.591  1.00 20.00     0.112 C 
ENDROOT
BRANCH   2   4
HETATM    4  C6  UNL     1     -35.058   6.251   3.926  1.00 20.00     0.172 C 
BRANCH   4   5
HETATM    5  C3  UNL     1     -34.046   7.377   3.816  1.00 20.00     0.137 C 
HETATM    6  O9  UNL     1     -33.626   7.987   4.800  1.00 20.00    -0.297 OA
BRANCH   5   7
HETATM    7  C7  UNL     1     -33.581   7.704   2.405  1.00 20.00     0.079 C 
BRANCH   7   8
HETATM    8  C8  UNL     1     -32.248   7.048   2.058  1.00 20.00     0.003 C 
HETATM    9  C5  UNL     1     -32.447   5.749   1.293  1.00 20.00     0.005 C 
ENDBRANCH   7   8
ENDBRANCH   5   7
ENDBRANCH   4   5
ENDBRANCH   2   4
TORSDOF 4
ENDMDL
MODEL 3
REMARK VINA RESULT:      -2.8      1.748      5.353
REMARK  4 active torsions:
REMARK  status: ('A' for Active; 'I' for Inactive)
REMARK    1  A    between atoms: C2_2  and  C6_6 
REMARK    2  A    between atoms: C3_3  and  C6_6 
REMARK    3  A    between atoms: C3_3  and  C7_7 
REMARK    4  A    between atoms: C7_7  and  C8_8 
ROOT
HETATM    1  C1  UNL     1     -32.430   9.589   0.380  1.00 20.00    -0.111 C 
HETATM    2  C2  UNL     1     -32.149   8.720   1.160  1.00 20.00    -0.100 C 
HETATM    3  C4  UNL     1     -32.772  10.646  -0.571  1.00 20.00     0.112 C 
ENDROOT
BRANCH   2   4
HETATM    4  C6  UNL     1     -31.810   7.663   2.118  1.00 20.00     0.172 C 
BRANCH   4   5
HETATM    5  C3  UNL     1     -32.994   6.772   2.447  1.00 20.00     0.137 C 
HETATM    6  O9  UNL     1     -33.273   5.772   1.785  1.00 20.00    -0.297 OA
BRANCH   5   7
HETATM    7  C7  UNL     1     -33.817   7.197   3.654  1.00 20.00     0.079 C 
BRANCH   7   8
HETATM    8  C8  UNL     1     -35.167   6.488   3.724  1.00 20.00     0.003 C 
HETATM    9  C5  UNL     1     -35.059   5.152   4.442  1.00 20.00     0.005 C 
ENDBRANCH   7   8
ENDBRANCH   5   7
ENDBRANCH   4   5
ENDBRANCH   2   4
TORSDOF 4
ENDMDL
MODEL 4
REMARK VINA RESULT:      -2.6      2.219      5.073
REMARK  4 active torsions:
REMARK  status: ('A' for Active; 'I' for Inactive)
REMARK    1  A    between atoms: C2_2  and  C6_6 
REMARK    2  A    between atoms: C3_3  and  C6_6 
REMARK    3  A    between atoms: C3_3  and  C7_7 
REMARK    4  A    between atoms: C7_7  and  C8_8 
ROOT
HETATM    1  C1  UNL     1     -32.375   9.348   0.662  1.00 20.00    -0.111 C 
HETATM    2  C2  UNL     1     -32.108   8.314   1.211  1.00 20.00    -0.100 C 
HETATM    3  C4  UNL     1     -32.702  10.607  -0.006  1.00 20.00     0.112 C 
ENDROOT
BRANCH   2   4
HETATM    4  C6  UNL     1     -31.779   7.055   1.887  1.00 20.00     0.172 C 
BRANCH   4   5
HETATM    5  C3  UNL     1     -32.909   6.044   1.820  1.00 20.00     0.137 C 
HETATM    6  O9  UNL     1     -33.252   5.504   0.769  1.00 20.00    -0.297 OA
BRANCH   5   7
HETATM    7  C7  UNL     1     -33.594   5.741   3.145  1.00 20.00     0.079 C 
BRANCH   7   8
HETATM    8  C8  UNL     1     -34.584   6.827   3.557  1.00 20.00     0.003 C 
HETATM    9  C5  UNL     1     -33.963   7.804   4.541  1.00 20.00     0.005 C 
ENDBRANCH   7   8
ENDBRANCH   5   7
ENDBRANCH   4   5
ENDBRANCH   2   4
TORSDOF 4
ENDMDL
MODEL 5
REMARK VINA RESULT:      -2.6      0.745      4.876
REMARK  4 active torsions:
REMARK  status: ('A' for Active; 'I' for Inactive)
REMARK    1  A    between atoms: C2_2  and  C6_6 
REMARK    2  A    between atoms: C3_3  and  C6_6 
REMARK    3  A    between atoms: C3_3  and  C7_7 
REMARK    4  A    between atoms: C7_7  and  C8_8 
ROOT
HETATM    1  C1  UNL     1     -32.471   8.619   1.129  1.00 20.00    -0.111 C 
HETATM    2  C2  UNL     1     -32.701   7.597   1.715  1.00 20.00    -0.100 C 
HETATM    3  C4  UNL     1     -32.191   9.864   0.415  1.00 20.00     0.112 C 
ENDROOT
BRANCH   2   4
HETATM    4  C6  UNL     1     -32.979   6.351   2.438  1.00 20.00     0.172 C 
BRANCH   4   5
HETATM    5  C3  UNL     1     -33.985   6.539   3.559  1.00 20.00     0.137 C 
HETATM    6  O9  UNL     1     -34.284   7.648   4.000  1.00 20.00    -0.297 OA
BRANCH   5   7
HETATM    7  C7  UNL     1     -34.604   5.260   4.103  1.00 20.00     0.079 C 
BRANCH   7   8
HETATM    8  C8  UNL     1     -33.848   4.008   3.666  1.00 20.00     0.003 C 
HETATM    9  C5  UNL     1     -33.384   3.191   4.861  1.00 20.00     0.005 C 
ENDBRANCH   7   8
ENDBRANCH   5   7
ENDBRANCH   4   5
ENDBRANCH   2   4
TORSDOF 4
ENDMDL
MODEL 6
REMARK VINA RESULT:      -2.5      1.430      1.585
REMARK  4 active torsions:
REMARK  status: ('A' for Active; 'I' for Inactive)
REMARK    1  A    between atoms: C2_2  and  C6_6 
REMARK    2  A    between atoms: C3_3  and  C6_6 
REMARK    3  A    between atoms: C3_3  and  C7_7 
REMARK    4  A    between atoms: C7_7  and  C8_8 
ROOT
HETATM    1  C1  UNL     1     -33.612   3.728   4.241  1.00 20.00    -0.111 C 
HETATM    2  C2  UNL     1     -33.833   4.828   3.813  1.00 20.00    -0.100 C 
HETATM    3  C4  UNL     1     -33.342   2.389   4.763  1.00 20.00     0.112 C 
ENDROOT
BRANCH   2   4
HETATM    4  C6  UNL     1     -34.102   6.174   3.296  1.00 20.00     0.172 C 
BRANCH   4   5
HETATM    5  C3  UNL     1     -33.122   6.589   2.213  1.00 20.00     0.137 C 
HETATM    6  O9  UNL     1     -32.764   5.825   1.317  1.00 20.00    -0.297 OA
BRANCH   5   7
HETATM    7  C7  UNL     1     -32.612   8.019   2.307  1.00 20.00     0.079 C 
BRANCH   7   8
HETATM    8  C8  UNL     1     -31.830   8.447   1.068  1.00 20.00     0.003 C 
HETATM    9  C5  UNL     1     -32.423   9.697   0.437  1.00 20.00     0.005 C 
ENDBRANCH   7   8
ENDBRANCH   5   7
ENDBRANCH   4   5
ENDBRANCH   2   4
TORSDOF 4
ENDMDL
MODEL 7
REMARK VINA RESULT:      -2.5      2.122      3.027
REMARK  4 active torsions:
REMARK  status: ('A' for Active; 'I' for Inactive)
REMARK    1  A    between atoms: C2_2  and  C6_6 
REMARK    2  A    between atoms: C3_3  and  C6_6 
REMARK    3  A    between atoms: C3_3  and  C7_7 
REMARK    4  A    between atoms: C7_7  and  C8_8 
ROOT
HETATM    1  C1  UNL     1     -34.486   6.485   3.859  1.00 20.00    -0.111 C 
HETATM    2  C2  UNL     1     -33.661   7.254   3.446  1.00 20.00    -0.100 C 
HETATM    3  C4  UNL     1     -35.491   5.548   4.361  1.00 20.00     0.112 C 
ENDROOT
BRANCH   2   4
HETATM    4  C6  UNL     1     -32.650   8.187   2.940  1.00 20.00     0.172 C 
BRANCH   4   5
HETATM    5  C3  UNL     1     -31.981   7.691   1.671  1.00 20.00     0.137 C 
HETATM    6  O9  UNL     1     -31.915   6.496   1.382  1.00 20.00    -0.297 OA
BRANCH   5   7
HETATM    7  C7  UNL     1     -31.397   8.772   0.774  1.00 20.00     0.079 C 
BRANCH   7   8
HETATM    8  C8  UNL     1     -32.456   9.460  -0.083  1.00 20.00     0.003 C 
HETATM    9  C5  UNL     1     -32.774  10.853   0.436  1.00 20.00     0.005 C 
ENDBRANCH   7   8
ENDBRANCH   5   7
ENDBRANCH   4   5
ENDBRANCH   2   4
TORSDOF 4
ENDMDL
MODEL 8
REMARK VINA RESULT:      -2.4      1.149      4.684
REMARK  4 active torsions:
REMARK  status: ('A' for Active; 'I' for Inactive)
REMARK    1  A    between atoms: C2_2  and  C6_6 
REMARK    2  A    between atoms: C3_3  and  C6_6 
REMARK    3  A    between atoms: C3_3  and  C7_7 
REMARK    4  A    between atoms: C7_7  and  C8_8 
ROOT
HETATM    1  C1  UNL     1     -32.291   8.232   1.718  1.00 20.00    -0.111 C 
HETATM    2  C2  UNL     1     -32.889   7.916   2.711  1.00 20.00    -0.100 C 
HETATM    3  C4  UNL     1     -31.564   8.617   0.509  1.00 20.00     0.112 C 
ENDROOT
BRANCH   2   4
HETATM    4  C6  UNL     1     -33.620   7.537   3.924  1.00 20.00     0.172 C 
BRANCH   4   5
HETATM    5  C3  UNL     1     -34.456   6.285   3.734  1.00 20.00     0.137 C 
HETATM    6  O9  UNL     1     -35.686   6.294   3.796  1.00 20.00    -0.297 OA
BRANCH   5   7
HETATM    7  C7  UNL     1     -33.672   5.011   3.457  1.00 20.00     0.079 C 
BRANCH   7   8
HETATM    8  C8  UNL     1     -34.145   3.833   4.305  1.00 20.00     0.003 C 
HETATM    9  C5  UNL     1     -32.974   3.026   4.842  1.00 20.00     0.005 C 
ENDBRANCH   7   8
ENDBRANCH   5   7
ENDBRANCH   4   5
ENDBRANCH   2   4
TORSDOF 4
ENDMDL
MODEL 9
REMARK VINA RESULT:      -2.0      1.389      3.710
REMARK  4 active torsions:
REMARK  status: ('A' for Active; 'I' for Inactive)
REMARK    1  A    between atoms: C2_2  and  C6_6 
REMARK    2  A    between atoms: C3_3  and  C6_6 
REMARK    3  A    between atoms: C3_3  and  C7_7 
REMARK    4  A    between atoms: C7_7  and  C8_8 
ROOT
HETATM    1  C1  UNL     1     -32.316   5.704   1.295  1.00 20.00    -0.111 C 
HETATM    2  C2  UNL     1     -32.634   6.652   1.959  1.00 20.00    -0.100 C 
HETATM    3  C4  UNL     1     -31.929   4.549   0.485  1.00 20.00     0.112 C 
ENDROOT
BRANCH   2   4
HETATM    4  C6  UNL     1     -33.021   7.806   2.778  1.00 20.00     0.172 C 
BRANCH   4   5
HETATM    5  C3  UNL     1     -33.971   7.433   3.901  1.00 20.00     0.137 C 
HETATM    6  O9  UNL     1     -33.886   7.919   5.028  1.00 20.00    -0.297 OA
BRANCH   5   7
HETATM    7  C7  UNL     1     -35.041   6.413   3.540  1.00 20.00     0.079 C 
BRANCH   7   8
HETATM    8  C8  UNL     1     -35.090   5.241   4.516  1.00 20.00     0.003 C 
HETATM    9  C5  UNL     1     -34.089   4.160   4.140  1.00 20.00     0.005 C 
ENDBRANCH   7   8
ENDBRANCH   5   7
ENDBRANCH   4   5
ENDBRANCH   2   4
TORSDOF 4
ENDMDL
