MODEL 1
REMARK VINA RESULT:      -2.1      0.000      0.000
REMARK  4 active torsions:
REMARK  status: ('A' for Active; 'I' for Inactive)
REMARK    1  A    between atoms: C2_2  and  C5_5 
REMARK    2  A    between atoms: C2_2  and  C9_9 
REMARK    3  A    between atoms: C7_7  and  C9_9 
REMARK    4  A    between atoms: C8_8  and  C9_9 
ROOT
HETATM    1  C1  UNL     1     -32.254   9.253   0.733  1.00 20.00     0.059 C 
HETATM    2  C7  UNL     1     -31.917   8.344   1.839  1.00 20.00     0.136 C 
HETATM    3  N10 UNL     1     -32.521   9.972  -0.138  1.00 20.00    -0.197 NA
ENDROOT
BRANCH   2   4
HETATM    4  C9  UNL     1     -32.765   7.060   1.857  1.00 20.00     0.068 C 
BRANCH   4   5
HETATM    5  C2  UNL     1     -33.565   6.980   3.154  1.00 20.00     0.136 C 
HETATM    6  O11 UNL     1     -33.401   7.728   4.111  1.00 20.00    -0.297 OA
BRANCH   5   7
HETATM    7  C5  UNL     1     -34.586   5.893   3.231  1.00 20.00     0.056 A 
HETATM    8  C3  UNL     1     -34.344   4.752   4.160  1.00 20.00     0.013 A 
HETATM    9  C4  UNL     1     -35.400   5.769   4.475  1.00 20.00     0.013 A 
ENDBRANCH   5   7
ENDBRANCH   4   5
BRANCH   4  10
HETATM   10  C8  UNL     1     -31.913   5.799   1.625  1.00 20.00     0.008 C 
HETATM   11  C6  UNL     1     -32.498   4.892   0.549  1.00 20.00     0.006 C 
ENDBRANCH   4  10
ENDBRANCH   2   4
TORSDOF 4
ENDMDL
MODEL 2
REMARK VINA RESULT:      -1.9      2.456      4.378
REMARK  4 active torsions:
REMARK  status: ('A' for Active; 'I' for Inactive)
REMARK    1  A    between atoms: C2_2  and  C5_5 
REMARK    2  A    between atoms: C2_2  and  C9_9 
REMARK    3  A    between atoms: C7_7  and  C9_9 
REMARK    4  A    between atoms: C8_8  and  C9_9 
ROOT
HETATM    1  C1  UNL     1     -34.872   6.132   3.996  1.00 20.00     0.059 C 
HETATM    2  C7  UNL     1     -34.114   7.288   3.493  1.00 20.00     0.136 C 
HETATM    3  N10 UNL     1     -35.470   5.220   4.395  1.00 20.00    -0.197 NA
ENDROOT
BRANCH   2   4
HETATM    4  C9  UNL     1     -32.864   6.896   2.687  1.00 20.00     0.068 C 
BRANCH   4   5
HETATM    5  C2  UNL     1     -32.158   8.149   2.175  1.00 20.00     0.136 C 
HETATM    6  O11 UNL     1     -31.208   8.682   2.737  1.00 20.00    -0.297 OA
BRANCH   5   7
HETATM    7  C5  UNL     1     -32.704   8.744   0.919  1.00 20.00     0.056 A 
HETATM    8  C3  UNL     1     -32.636  10.223   0.744  1.00 20.00     0.013 A 
HETATM    9  C4  UNL     1     -31.746   9.328  -0.065  1.00 20.00     0.013 A 
ENDBRANCH   5   7
ENDBRANCH   4   5
BRANCH   4  10
HETATM   10  C8  UNL     1     -33.192   5.913   1.550  1.00 20.00     0.008 C 
HETATM   11  C6  UNL     1     -31.976   5.109   1.106  1.00 20.00     0.006 C 
ENDBRANCH   4  10
ENDBRANCH   2   4
TORSDOF 4
ENDMDL
MODEL 3
REMARK VINA RESULT:      -1.5      2.023      3.297
REMARK  4 active torsions:
REMARK  status: ('A' for Active; 'I' for Inactive)
REMARK    1  A    between atoms: C2_2  and  C5_5 
REMARK    2  A    between atoms: C2_2  and  C9_9 
REMARK    3  A    between atoms: C7_7  and  C9_9 
REMARK    4  A    between atoms: C8_8  and  C9_9 
ROOT
HETATM    1  C1  UNL     1     -32.419   7.092   1.690  1.00 20.00     0.059 C 
HETATM    2  C7  UNL     1     -33.269   5.976   2.133  1.00 20.00     0.136 C 
HETATM    3  N10 UNL     1     -31.747   7.972   1.340  1.00 20.00    -0.197 NA
ENDROOT
BRANCH   2   4
HETATM    4  C9  UNL     1     -33.631   6.039   3.627  1.00 20.00     0.068 C 
BRANCH   4   5
HETATM    5  C2  UNL     1     -34.301   4.737   4.058  1.00 20.00     0.136 C 
HETATM    6  O11 UNL     1     -35.415   4.672   4.566  1.00 20.00    -0.297 OA
BRANCH   5   7
HETATM    7  C5  UNL     1     -33.508   3.490   3.850  1.00 20.00     0.056 A 
HETATM    8  C3  UNL     1     -32.269   3.291   4.656  1.00 20.00     0.013 A 
HETATM    9  C4  UNL     1     -33.490   2.469   4.938  1.00 20.00     0.013 A 
ENDBRANCH   5   7
ENDBRANCH   4   5
BRANCH   4  10
HETATM   10  C8  UNL     1     -34.492   7.270   3.963  1.00 20.00     0.008 C 
HETATM   11  C6  UNL     1     -33.775   8.247   4.887  1.00 20.00     0.006 C 
ENDBRANCH   4  10
ENDBRANCH   2   4
TORSDOF 4
ENDMDL
MODEL 4
REMARK VINA RESULT:      -1.2      1.283      1.416
REMARK  4 active torsions:
REMARK  status: ('A' for Active; 'I' for Inactive)
REMARK    1  A    between atoms: C2_2  and  C5_5 
REMARK    2  A    between atoms: C2_2  and  C9_9 
REMARK    3  A    between atoms: C7_7  and  C9_9 
REMARK    4  A    between atoms: C8_8  and  C9_9 
ROOT
HETATM    1  C1  UNL     1     -32.173   8.830   0.966  1.00 20.00     0.059 C 
HETATM    2  C7  UNL     1     -31.872   7.737   1.902  1.00 20.00     0.136 C 
HETATM    3  N10 UNL     1     -32.410   9.695   0.228  1.00 20.00    -0.197 NA
ENDROOT
BRANCH   2   4
HETATM    4  C9  UNL     1     -32.554   6.408   1.530  1.00 20.00     0.068 C 
BRANCH   4   5
HETATM    5  C2  UNL     1     -33.420   5.922   2.689  1.00 20.00     0.136 C 
HETATM    6  O11 UNL     1     -33.306   4.823   3.220  1.00 20.00    -0.297 OA
BRANCH   5   7
HETATM    7  C5  UNL     1     -34.475   6.867   3.163  1.00 20.00     0.056 A 
HETATM    8  C3  UNL     1     -35.401   6.417   4.242  1.00 20.00     0.013 A 
HETATM    9  C4  UNL     1     -34.349   7.445   4.532  1.00 20.00     0.013 A 
ENDBRANCH   5   7
ENDBRANCH   4   5
BRANCH   4  10
HETATM   10  C8  UNL     1     -31.538   5.342   1.081  1.00 20.00     0.008 C 
HETATM   11  C6  UNL     1     -32.150   4.320   0.131  1.00 20.00     0.006 C 
ENDBRANCH   4  10
ENDBRANCH   2   4
TORSDOF 4
ENDMDL
MODEL 5
REMARK VINA RESULT:      -1.0      2.611      3.360
REMARK  4 active torsions:
REMARK  status: ('A' for Active; 'I' for Inactive)
REMARK    1  A    between atoms: C2_2  and  C5_5 
REMARK    2  A    between atoms: C2_2  and  C9_9 
REMARK    3  A    between atoms: C7_7  and  C9_9 
REMARK    4  A    between atoms: C8_8  and  C9_9 
ROOT
HETATM    1  C1  UNL     1     -33.832   7.776   4.513  1.00 20.00     0.059 C 
HETATM    2  C7  UNL     1     -34.831   7.051   3.714  1.00 20.00     0.136 C 
HETATM    3  N10 UNL     1     -33.044   8.351   5.143  1.00 20.00    -0.197 NA
ENDROOT
BRANCH   2   4
HETATM    4  C9  UNL     1     -34.283   5.764   3.072  1.00 20.00     0.068 C 
BRANCH   4   5
HETATM    5  C2  UNL     1     -34.364   4.609   4.066  1.00 20.00     0.136 C 
HETATM    6  O11 UNL     1     -35.312   4.412   4.818  1.00 20.00    -0.297 OA
BRANCH   5   7
HETATM    7  C5  UNL     1     -33.183   3.695   4.109  1.00 20.00     0.056 A 
HETATM    8  C3  UNL     1     -32.737   3.170   5.432  1.00 20.00     0.013 A 
HETATM    9  C4  UNL     1     -33.408   2.260   4.448  1.00 20.00     0.013 A 
ENDBRANCH   5   7
ENDBRANCH   4   5
BRANCH   4  10
HETATM   10  C8  UNL     1     -32.859   5.953   2.520  1.00 20.00     0.008 C 
HETATM   11  C6  UNL     1     -32.754   5.587   1.044  1.00 20.00     0.006 C 
ENDBRANCH   4  10
ENDBRANCH   2   4
TORSDOF 4
ENDMDL
MODEL 6
REMARK VINA RESULT:      -1.0      3.186      4.352
REMARK  4 active torsions:
REMARK  status: ('A' for Active; 'I' for Inactive)
REMARK    1  A    between atoms: C2_2  and  C5_5 
REMARK    2  A    between atoms: C2_2  and  C9_9 
REMARK    3  A    between atoms: C7_7  and  C9_9 
REMARK    4  A    between atoms: C8_8  and  C9_9 
ROOT
HETATM    1  C1  UNL     1     -33.236   3.398   4.612  1.00 20.00     0.059 C 
HETATM    2  C7  UNL     1     -34.074   4.065   3.604  1.00 20.00     0.136 C 
HETATM    3  N10 UNL     1     -32.577   2.871   5.409  1.00 20.00    -0.197 NA
ENDROOT
BRANCH   2   4
HETATM    4  C9  UNL     1     -33.596   5.484   3.253  1.00 20.00     0.068 C 
BRANCH   4   5
HETATM    5  C2  UNL     1     -34.594   6.516   3.772  1.00 20.00     0.136 C 
HETATM    6  O11 UNL     1     -35.769   6.272   4.021  1.00 20.00    -0.297 OA
BRANCH   5   7
HETATM    7  C5  UNL     1     -34.072   7.903   3.954  1.00 20.00     0.056 A 
HETATM    8  C3  UNL     1     -33.138   8.169   5.086  1.00 20.00     0.013 A 
HETATM    9  C4  UNL     1     -32.629   8.161   3.676  1.00 20.00     0.013 A 
ENDBRANCH   5   7
ENDBRANCH   4   5
BRANCH   4  10
HETATM   10  C8  UNL     1     -33.326   5.649   1.746  1.00 20.00     0.008 C 
HETATM   11  C6  UNL     1     -31.863   5.421   1.389  1.00 20.00     0.006 C 
ENDBRANCH   4  10
ENDBRANCH   2   4
TORSDOF 4
ENDMDL
MODEL 7
REMARK VINA RESULT:      -0.8      2.012      4.396
REMARK  4 active torsions:
REMARK  status: ('A' for Active; 'I' for Inactive)
REMARK    1  A    between atoms: C2_2  and  C5_5 
REMARK    2  A    between atoms: C2_2  and  C9_9 
REMARK    3  A    between atoms: C7_7  and  C9_9 
REMARK    4  A    between atoms: C8_8  and  C9_9 
ROOT
HETATM    1  C1  UNL     1     -32.201   5.078   1.237  1.00 20.00     0.059 C 
HETATM    2  C7  UNL     1     -32.748   5.592   2.501  1.00 20.00     0.136 C 
HETATM    3  N10 UNL     1     -31.767   4.672   0.239  1.00 20.00    -0.197 NA
ENDROOT
BRANCH   2   4
HETATM    4  C9  UNL     1     -33.410   6.974   2.365  1.00 20.00     0.068 C 
BRANCH   4   5
HETATM    5  C2  UNL     1     -32.375   8.007   1.927  1.00 20.00     0.136 C 
HETATM    6  O11 UNL     1     -31.360   8.275   2.559  1.00 20.00    -0.297 OA
BRANCH   5   7
HETATM    7  C5  UNL     1     -32.666   8.731   0.654  1.00 20.00     0.056 A 
HETATM    8  C3  UNL     1     -32.618  10.222   0.655  1.00 20.00     0.013 A 
HETATM    9  C4  UNL     1     -31.546   9.434  -0.037  1.00 20.00     0.013 A 
ENDBRANCH   5   7
ENDBRANCH   4   5
BRANCH   4  10
HETATM   10  C8  UNL     1     -34.139   7.397   3.652  1.00 20.00     0.008 C 
HETATM   11  C6  UNL     1     -35.207   6.394   4.072  1.00 20.00     0.006 C 
ENDBRANCH   4  10
ENDBRANCH   2   4
TORSDOF 4
ENDMDL
MODEL 8
REMARK VINA RESULT:      -0.6      2.637      4.793
REMARK  4 active torsions:
REMARK  status: ('A' for Active; 'I' for Inactive)
REMARK    1  A    between atoms: C2_2  and  C5_5 
REMARK    2  A    between atoms: C2_2  and  C9_9 
REMARK    3  A    between atoms: C7_7  and  C9_9 
REMARK    4  A    between atoms: C8_8  and  C9_9 
ROOT
HETATM    1  C1  UNL     1     -33.425   4.571   3.254  1.00 20.00     0.059 C 
HETATM    2  C7  UNL     1     -32.862   5.473   2.237  1.00 20.00     0.136 C 
HETATM    3  N10 UNL     1     -33.870   3.859   4.055  1.00 20.00    -0.197 NA
ENDROOT
BRANCH   2   4
HETATM    4  C9  UNL     1     -33.404   6.910   2.327  1.00 20.00     0.068 C 
BRANCH   4   5
HETATM    5  C2  UNL     1     -32.347   7.898   1.839  1.00 20.00     0.136 C 
HETATM    6  O11 UNL     1     -31.259   8.063   2.377  1.00 20.00    -0.297 OA
BRANCH   5   7
HETATM    7  C5  UNL     1     -32.711   8.711   0.640  1.00 20.00     0.056 A 
HETATM    8  C3  UNL     1     -32.719  10.197   0.763  1.00 20.00     0.013 A 
HETATM    9  C4  UNL     1     -31.643   9.512  -0.026  1.00 20.00     0.013 A 
ENDBRANCH   5   7
ENDBRANCH   4   5
BRANCH   4  10
HETATM   10  C8  UNL     1     -33.906   7.253   3.741  1.00 20.00     0.008 C 
HETATM   11  C6  UNL     1     -35.363   6.861   3.951  1.00 20.00     0.006 C 
ENDBRANCH   4  10
ENDBRANCH   2   4
TORSDOF 4
ENDMDL
MODEL 9
REMARK VINA RESULT:      -0.6      2.369      4.101
REMARK  4 active torsions:
REMARK  status: ('A' for Active; 'I' for Inactive)
REMARK    1  A    between atoms: C2_2  and  C5_5 
REMARK    2  A    between atoms: C2_2  and  C9_9 
REMARK    3  A    between atoms: C7_7  and  C9_9 
REMARK    4  A    between atoms: C8_8  and  C9_9 
ROOT
HETATM    1  C1  UNL     1     -34.214   7.533   4.558  1.00 20.00     0.059 C 
HETATM    2  C7  UNL     1     -34.626   6.394   3.724  1.00 20.00     0.136 C 
HETATM    3  N10 UNL     1     -33.889   8.434   5.215  1.00 20.00    -0.197 NA
ENDROOT
BRANCH   2   4
HETATM    4  C9  UNL     1     -33.457   5.481   3.315  1.00 20.00     0.068 C 
BRANCH   4   5
HETATM    5  C2  UNL     1     -32.912   5.906   1.955  1.00 20.00     0.136 C 
HETATM    6  O11 UNL     1     -32.541   5.124   1.087  1.00 20.00    -0.297 OA
BRANCH   5   7
HETATM    7  C5  UNL     1     -32.821   7.377   1.714  1.00 20.00     0.056 A 
HETATM    8  C3  UNL     1     -31.654   8.119   2.273  1.00 20.00     0.013 A 
HETATM    9  C4  UNL     1     -31.759   7.883   0.796  1.00 20.00     0.013 A 
ENDBRANCH   5   7
ENDBRANCH   4   5
BRANCH   4  10
HETATM   10  C8  UNL     1     -33.848   3.992   3.341  1.00 20.00     0.008 C 
HETATM   11  C6  UNL     1     -33.456   3.309   4.645  1.00 20.00     0.006 C 
ENDBRANCH   4  10
ENDBRANCH   2   4
TORSDOF 4
ENDMDL
