MODEL 1
REMARK VINA RESULT:      -1.5      0.000      0.000
REMARK  3 active torsions:
REMARK  status: ('A' for Active; 'I' for Inactive)
REMARK    1  A    between atoms: C2_2  and  C9_9 
REMARK    2  A    between atoms: C7_7  and  N10_10 
REMARK    3  A    between atoms: C9_9  and  N10_10 
ROOT
HETATM    1  C1  UNL     1     -32.371   9.467   0.574  1.00 20.00    -0.109 C 
HETATM    2  C2  UNL     1     -32.067   8.435   1.110  1.00 20.00    -0.077 C 
HETATM    3  C8  UNL     1     -32.742  10.722  -0.075  1.00 20.00     0.112 C 
ENDROOT
BRANCH   2   4
HETATM    4  C9  UNL     1     -31.702   7.176   1.764  1.00 20.00     0.363 C 
BRANCH   4   5
HETATM    5  N10 UNL     1     -32.777   6.205   1.660  1.00 20.00     0.099 N 
HETATM    6  H26 UNL     1     -33.520   6.578   1.074  1.00 20.00     0.317 HD
BRANCH   5   7
HETATM    7  C7  UNL     1     -33.321   5.908   2.962  1.00 20.00     0.225 C 
HETATM    8  C3  UNL     1     -33.478   4.400   3.158  1.00 20.00     0.062 C 
HETATM    9  C5  UNL     1     -34.173   4.098   4.479  1.00 20.00     0.169 C 
HETATM   10  O11 UNL     1     -35.430   4.770   4.556  1.00 20.00    -0.391 OA
HETATM   11  C6  UNL     1     -35.289   6.189   4.496  1.00 20.00     0.169 C 
HETATM   12  C4  UNL     1     -34.662   6.613   3.175  1.00 20.00     0.062 C 
ENDBRANCH   5   7
ENDBRANCH   4   5
ENDBRANCH   2   4
TORSDOF 3
ENDMDL
MODEL 2
REMARK VINA RESULT:      -0.8      2.548      5.245
REMARK  3 active torsions:
REMARK  status: ('A' for Active; 'I' for Inactive)
REMARK    1  A    between atoms: C2_2  and  C9_9 
REMARK    2  A    between atoms: C7_7  and  N10_10 
REMARK    3  A    between atoms: C9_9  and  N10_10 
ROOT
HETATM    1  C1  UNL     1     -33.898   3.820   4.511  1.00 20.00    -0.109 C 
HETATM    2  C2  UNL     1     -34.576   4.782   4.270  1.00 20.00    -0.077 C 
HETATM    3  C8  UNL     1     -33.073   2.650   4.805  1.00 20.00     0.112 C 
ENDROOT
BRANCH   2   4
HETATM    4  C9  UNL     1     -35.398   5.959   3.975  1.00 20.00     0.363 C 
BRANCH   4   5
HETATM    5  N10 UNL     1     -34.619   7.179   4.090  1.00 20.00     0.099 N 
HETATM    6  H26 UNL     1     -35.137   7.955   3.688  1.00 20.00     0.317 HD
BRANCH   5   7
HETATM    7  C7  UNL     1     -33.364   7.049   3.393  1.00 20.00     0.225 C 
HETATM    8  C3  UNL     1     -32.714   8.416   3.177  1.00 20.00     0.062 C 
HETATM    9  C5  UNL     1     -31.457   8.287   2.328  1.00 20.00     0.169 C 
HETATM   10  O11 UNL     1     -31.748   7.644   1.086  1.00 20.00    -0.391 OA
HETATM   11  C6  UNL     1     -32.243   6.318   1.268  1.00 20.00     0.169 C 
HETATM   12  C4  UNL     1     -33.548   6.332   2.054  1.00 20.00     0.062 C 
ENDBRANCH   5   7
ENDBRANCH   4   5
ENDBRANCH   2   4
TORSDOF 3
ENDMDL
MODEL 3
REMARK VINA RESULT:      -0.8      0.556      1.573
REMARK  3 active torsions:
REMARK  status: ('A' for Active; 'I' for Inactive)
REMARK    1  A    between atoms: C2_2  and  C9_9 
REMARK    2  A    between atoms: C7_7  and  N10_10 
REMARK    3  A    between atoms: C9_9  and  N10_10 
ROOT
HETATM    1  C1  UNL     1     -32.377   9.643   0.426  1.00 20.00    -0.109 C 
HETATM    2  C2  UNL     1     -32.229   8.782   1.251  1.00 20.00    -0.077 C 
HETATM    3  C8  UNL     1     -32.558  10.688  -0.579  1.00 20.00     0.112 C 
ENDROOT
BRANCH   2   4
HETATM    4  C9  UNL     1     -32.048   7.729   2.254  1.00 20.00     0.363 C 
BRANCH   4   5
HETATM    5  N10 UNL     1     -32.324   6.420   1.688  1.00 20.00     0.099 N 
HETATM    6  H26 UNL     1     -32.521   6.511   0.695  1.00 20.00     0.317 HD
BRANCH   5   7
HETATM    7  C7  UNL     1     -33.463   5.817   2.333  1.00 20.00     0.225 C 
HETATM    8  C3  UNL     1     -34.206   6.837   3.196  1.00 20.00     0.062 C 
HETATM    9  C5  UNL     1     -35.330   6.167   3.976  1.00 20.00     0.169 C 
HETATM   10  O11 UNL     1     -34.827   5.084   4.759  1.00 20.00    -0.391 OA
HETATM   11  C6  UNL     1     -34.237   4.064   3.955  1.00 20.00     0.169 C 
HETATM   12  C4  UNL     1     -33.048   4.611   3.176  1.00 20.00     0.062 C 
ENDBRANCH   5   7
ENDBRANCH   4   5
ENDBRANCH   2   4
TORSDOF 3
ENDMDL
MODEL 4
REMARK VINA RESULT:      -0.7      2.347      5.128
REMARK  3 active torsions:
REMARK  status: ('A' for Active; 'I' for Inactive)
REMARK    1  A    between atoms: C2_2  and  C9_9 
REMARK    2  A    between atoms: C7_7  and  N10_10 
REMARK    3  A    between atoms: C9_9  and  N10_10 
ROOT
HETATM    1  C1  UNL     1     -33.904   3.721   4.528  1.00 20.00    -0.109 C 
HETATM    2  C2  UNL     1     -34.543   4.722   4.347  1.00 20.00    -0.077 C 
HETATM    3  C8  UNL     1     -33.125   2.504   4.748  1.00 20.00     0.112 C 
ENDROOT
BRANCH   2   4
HETATM    4  C9  UNL     1     -35.319   5.945   4.122  1.00 20.00     0.363 C 
BRANCH   4   5
HETATM    5  N10 UNL     1     -34.460   7.116   4.141  1.00 20.00     0.099 N 
HETATM    6  H26 UNL     1     -35.019   7.947   4.318  1.00 20.00     0.317 HD
BRANCH   5   7
HETATM    7  C7  UNL     1     -33.786   7.272   2.877  1.00 20.00     0.225 C 
HETATM    8  C3  UNL     1     -33.271   5.928   2.361  1.00 20.00     0.062 C 
HETATM    9  C5  UNL     1     -32.448   6.117   1.093  1.00 20.00     0.169 C 
HETATM   10  O11 UNL     1     -31.379   7.037   1.315  1.00 20.00    -0.391 OA
HETATM   11  C6  UNL     1     -31.851   8.334   1.680  1.00 20.00     0.169 C 
HETATM   12  C4  UNL     1     -32.636   8.275   2.984  1.00 20.00     0.062 C 
ENDBRANCH   5   7
ENDBRANCH   4   5
ENDBRANCH   2   4
TORSDOF 3
ENDMDL
MODEL 5
REMARK VINA RESULT:      -0.1      1.031      1.132
REMARK  3 active torsions:
REMARK  status: ('A' for Active; 'I' for Inactive)
REMARK    1  A    between atoms: C2_2  and  C9_9 
REMARK    2  A    between atoms: C7_7  and  N10_10 
REMARK    3  A    between atoms: C9_9  and  N10_10 
ROOT
HETATM    1  C1  UNL     1     -32.351   9.599   0.260  1.00 20.00    -0.109 C 
HETATM    2  C2  UNL     1     -32.359   8.764   1.124  1.00 20.00    -0.077 C 
HETATM    3  C8  UNL     1     -32.341  10.616  -0.790  1.00 20.00     0.112 C 
ENDROOT
BRANCH   2   4
HETATM    4  C9  UNL     1     -32.375   7.745   2.177  1.00 20.00     0.363 C 
BRANCH   4   5
HETATM    5  N10 UNL     1     -33.605   7.814   2.947  1.00 20.00     0.099 N 
HETATM    6  H26 UNL     1     -33.582   8.625   3.558  1.00 20.00     0.317 HD
BRANCH   5   7
HETATM    7  C7  UNL     1     -33.766   6.630   3.754  1.00 20.00     0.225 C 
HETATM    8  C3  UNL     1     -33.151   5.411   3.066  1.00 20.00     0.062 C 
HETATM    9  C5  UNL     1     -33.437   4.143   3.860  1.00 20.00     0.169 C 
HETATM   10  O11 UNL     1     -34.841   3.978   4.063  1.00 20.00    -0.391 OA
HETATM   11  C6  UNL     1     -35.408   5.053   4.812  1.00 20.00     0.169 C 
HETATM   12  C4  UNL     1     -35.239   6.374   4.072  1.00 20.00     0.062 C 
ENDBRANCH   5   7
ENDBRANCH   4   5
ENDBRANCH   2   4
TORSDOF 3
ENDMDL
MODEL 6
REMARK VINA RESULT:       0.8      2.525      5.606
REMARK  3 active torsions:
REMARK  status: ('A' for Active; 'I' for Inactive)
REMARK    1  A    between atoms: C2_2  and  C9_9 
REMARK    2  A    between atoms: C7_7  and  N10_10 
REMARK    3  A    between atoms: C9_9  and  N10_10 
ROOT
HETATM    1  C1  UNL     1     -33.662   4.249   4.009  1.00 20.00    -0.109 C 
HETATM    2  C2  UNL     1     -33.822   5.335   3.520  1.00 20.00    -0.077 C 
HETATM    3  C8  UNL     1     -33.465   2.928   4.604  1.00 20.00     0.112 C 
ENDROOT
BRANCH   2   4
HETATM    4  C9  UNL     1     -34.016   6.657   2.919  1.00 20.00     0.363 C 
BRANCH   4   5
HETATM    5  N10 UNL     1     -33.159   7.645   3.550  1.00 20.00     0.099 N 
HETATM    6  H26 UNL     1     -33.723   8.277   4.114  1.00 20.00     0.317 HD
BRANCH   5   7
HETATM    7  C7  UNL     1     -32.455   8.416   2.557  1.00 20.00     0.225 C 
HETATM    8  C3  UNL     1     -33.354   9.506   1.972  1.00 20.00     0.062 C 
HETATM    9  C5  UNL     1     -32.650  10.232   0.833  1.00 20.00     0.169 C 
HETATM   10  O11 UNL     1     -32.225   9.309  -0.171  1.00 20.00    -0.391 OA
HETATM   11  C6  UNL     1     -31.290   8.356   0.334  1.00 20.00     0.169 C 
HETATM   12  C4  UNL     1     -31.915   7.519   1.442  1.00 20.00     0.062 C 
ENDBRANCH   5   7
ENDBRANCH   4   5
ENDBRANCH   2   4
TORSDOF 3
ENDMDL
MODEL 7
REMARK VINA RESULT:       0.9      2.730      5.269
REMARK  3 active torsions:
REMARK  status: ('A' for Active; 'I' for Inactive)
REMARK    1  A    between atoms: C2_2  and  C9_9 
REMARK    2  A    between atoms: C7_7  and  N10_10 
REMARK    3  A    between atoms: C9_9  and  N10_10 
ROOT
HETATM    1  C1  UNL     1     -34.309   6.038   3.336  1.00 20.00    -0.109 C 
HETATM    2  C2  UNL     1     -33.403   5.959   2.552  1.00 20.00    -0.077 C 
HETATM    3  C8  UNL     1     -35.413   6.133   4.290  1.00 20.00     0.112 C 
ENDROOT
BRANCH   2   4
HETATM    4  C9  UNL     1     -32.300   5.861   1.591  1.00 20.00     0.363 C 
BRANCH   4   5
HETATM    5  N10 UNL     1     -31.504   7.075   1.588  1.00 20.00     0.099 N 
HETATM    6  H26 UNL     1     -31.199   7.288   2.534  1.00 20.00     0.317 HD
BRANCH   5   7
HETATM    7  C7  UNL     1     -32.275   8.187   1.090  1.00 20.00     0.225 C 
HETATM    8  C3  UNL     1     -31.769   8.632  -0.283  1.00 20.00     0.062 C 
HETATM    9  C5  UNL     1     -32.500   9.886  -0.745  1.00 20.00     0.169 C 
HETATM   10  O11 UNL     1     -32.378  10.930   0.222  1.00 20.00    -0.391 OA
HETATM   11  C6  UNL     1     -32.955  10.573   1.477  1.00 20.00     0.169 C 
HETATM   12  C4  UNL     1     -32.250   9.360   2.071  1.00 20.00     0.062 C 
ENDBRANCH   5   7
ENDBRANCH   4   5
ENDBRANCH   2   4
TORSDOF 3
ENDMDL
MODEL 8
REMARK VINA RESULT:       1.2      2.711      5.584
REMARK  3 active torsions:
REMARK  status: ('A' for Active; 'I' for Inactive)
REMARK    1  A    between atoms: C2_2  and  C9_9 
REMARK    2  A    between atoms: C7_7  and  N10_10 
REMARK    3  A    between atoms: C9_9  and  N10_10 
ROOT
HETATM    1  C1  UNL     1     -34.365   6.046   3.479  1.00 20.00    -0.109 C 
HETATM    2  C2  UNL     1     -33.462   6.339   2.743  1.00 20.00    -0.077 C 
HETATM    3  C8  UNL     1     -35.463   5.688   4.374  1.00 20.00     0.112 C 
ENDROOT
BRANCH   2   4
HETATM    4  C9  UNL     1     -32.364   6.697   1.840  1.00 20.00     0.363 C 
BRANCH   4   5
HETATM    5  N10 UNL     1     -31.666   7.878   2.315  1.00 20.00     0.099 N 
HETATM    6  H26 UNL     1     -32.116   8.227   3.157  1.00 20.00     0.317 HD
BRANCH   5   7
HETATM    7  C7  UNL     1     -31.687   8.917   1.315  1.00 20.00     0.225 C 
HETATM    8  C3  UNL     1     -32.875   9.856   1.527  1.00 20.00     0.062 C 
HETATM    9  C5  UNL     1     -32.968  10.871   0.395  1.00 20.00     0.169 C 
HETATM   10  O11 UNL     1     -33.038  10.214  -0.871  1.00 20.00    -0.391 OA
HETATM   11  C6  UNL     1     -31.877   9.427  -1.136  1.00 20.00     0.169 C 
HETATM   12  C4  UNL     1     -31.722   8.326  -0.095  1.00 20.00     0.062 C 
ENDBRANCH   5   7
ENDBRANCH   4   5
ENDBRANCH   2   4
TORSDOF 3
ENDMDL
