MODEL 1
REMARK VINA RESULT:      -1.3      0.000      0.000
REMARK  4 active torsions:
REMARK  status: ('A' for Active; 'I' for Inactive)
REMARK    1  A    between atoms: C2_2  and  C7_7 
REMARK    2  A    between atoms: C7_7  and  N11_11 
REMARK    3  A    between atoms: C8_8  and  C9_9 
REMARK    4  A    between atoms: C8_8  and  N11_11 
ROOT
HETATM    1  C1  UNL     1     -32.331   9.386   0.636  1.00 20.00    -0.109 C 
HETATM    2  C2  UNL     1     -31.985   8.398   1.224  1.00 20.00    -0.079 C 
HETATM    3  C4  UNL     1     -32.754  10.588  -0.079  1.00 20.00     0.112 C 
ENDROOT
BRANCH   2   4
HETATM    4  C7  UNL     1     -31.561   7.193   1.934  1.00 20.00     0.327 C 
BRANCH   4   5
HETATM    5  N11 UNL     1     -32.710   6.218   2.010  1.00 20.00    -0.064 N 
HETATM    6  C6  UNL     1     -32.718   5.288   0.822  1.00 20.00     0.270 C 
HETATM    7  H26 UNL     1     -32.529   5.625   2.837  1.00 20.00     0.280 HD
BRANCH   5   8
HETATM    8  C8  UNL     1     -34.018   6.893   2.213  1.00 20.00     0.254 C 
BRANCH   8   9
HETATM    9  C9  UNL     1     -34.597   6.610   3.603  1.00 20.00     0.114 C 
HETATM   10  C3  UNL     1     -34.388   5.205   4.000  1.00 20.00     0.065 C 
HETATM   11  N10 UNL     1     -34.225   4.099   4.313  1.00 20.00    -0.197 NA
HETATM   12  C5  UNL     1     -34.058   7.554   4.678  1.00 20.00     0.027 C 
ENDBRANCH   8   9
ENDBRANCH   5   8
ENDBRANCH   4   5
ENDBRANCH   2   4
TORSDOF 4
ENDMDL
MODEL 2
REMARK VINA RESULT:      -1.2      1.483      4.948
REMARK  4 active torsions:
REMARK  status: ('A' for Active; 'I' for Inactive)
REMARK    1  A    between atoms: C2_2  and  C7_7 
REMARK    2  A    between atoms: C7_7  and  N11_11 
REMARK    3  A    between atoms: C8_8  and  C9_9 
REMARK    4  A    between atoms: C8_8  and  N11_11 
ROOT
HETATM    1  C1  UNL     1     -33.824   3.880   4.307  1.00 20.00    -0.109 C 
HETATM    2  C2  UNL     1     -34.251   4.976   4.067  1.00 20.00    -0.079 C 
HETATM    3  C4  UNL     1     -33.304   2.545   4.600  1.00 20.00     0.112 C 
ENDROOT
BRANCH   2   4
HETATM    4  C7  UNL     1     -34.764   6.312   3.774  1.00 20.00     0.327 C 
BRANCH   4   5
HETATM    5  N11 UNL     1     -33.641   7.316   3.853  1.00 20.00    -0.064 N 
HETATM    6  C6  UNL     1     -33.753   8.165   5.095  1.00 20.00     0.270 C 
HETATM    7  H26 UNL     1     -32.772   6.767   3.959  1.00 20.00     0.280 HD
BRANCH   5   8
HETATM    8  C8  UNL     1     -33.514   8.129   2.617  1.00 20.00     0.254 C 
BRANCH   8   9
HETATM    9  C9  UNL     1     -32.188   7.870   1.895  1.00 20.00     0.114 C 
HETATM   10  C3  UNL     1     -32.066   6.460   1.480  1.00 20.00     0.065 C 
HETATM   11  N10 UNL     1     -31.968   5.350   1.154  1.00 20.00    -0.197 NA
HETATM   12  C5  UNL     1     -31.966   8.799   0.701  1.00 20.00     0.027 C 
ENDBRANCH   8   9
ENDBRANCH   5   8
ENDBRANCH   4   5
ENDBRANCH   2   4
TORSDOF 4
ENDMDL
MODEL 3
REMARK VINA RESULT:      -0.7      1.902      5.373
REMARK  4 active torsions:
REMARK  status: ('A' for Active; 'I' for Inactive)
REMARK    1  A    between atoms: C2_2  and  C7_7 
REMARK    2  A    between atoms: C7_7  and  N11_11 
REMARK    3  A    between atoms: C8_8  and  C9_9 
REMARK    4  A    between atoms: C8_8  and  N11_11 
ROOT
HETATM    1  C1  UNL     1     -33.837   3.979   4.263  1.00 20.00    -0.109 C 
HETATM    2  C2  UNL     1     -34.254   5.073   3.998  1.00 20.00    -0.079 C 
HETATM    3  C4  UNL     1     -33.329   2.647   4.585  1.00 20.00     0.112 C 
ENDROOT
BRANCH   2   4
HETATM    4  C7  UNL     1     -34.766   6.402   3.671  1.00 20.00     0.327 C 
BRANCH   4   5
HETATM    5  N11 UNL     1     -33.638   7.403   3.705  1.00 20.00    -0.064 N 
HETATM    6  C6  UNL     1     -33.507   8.033   5.069  1.00 20.00     0.270 C 
HETATM    7  H26 UNL     1     -32.770   6.862   3.555  1.00 20.00     0.280 HD
BRANCH   5   8
HETATM    8  C8  UNL     1     -33.737   8.411   2.619  1.00 20.00     0.254 C 
BRANCH   8   9
HETATM    9  C9  UNL     1     -32.769   8.111   1.470  1.00 20.00     0.114 C 
HETATM   10  C3  UNL     1     -32.539   9.303   0.632  1.00 20.00     0.065 C 
HETATM   11  N10 UNL     1     -32.360  10.241  -0.029  1.00 20.00    -0.197 NA
HETATM   12  C5  UNL     1     -31.438   7.530   1.947  1.00 20.00     0.027 C 
ENDBRANCH   8   9
ENDBRANCH   5   8
ENDBRANCH   4   5
ENDBRANCH   2   4
TORSDOF 4
ENDMDL
MODEL 4
REMARK VINA RESULT:      -0.5      1.887      5.185
REMARK  4 active torsions:
REMARK  status: ('A' for Active; 'I' for Inactive)
REMARK    1  A    between atoms: C2_2  and  C7_7 
REMARK    2  A    between atoms: C7_7  and  N11_11 
REMARK    3  A    between atoms: C8_8  and  C9_9 
REMARK    4  A    between atoms: C8_8  and  N11_11 
ROOT
HETATM    1  C1  UNL     1     -33.743   3.744   4.362  1.00 20.00    -0.109 C 
HETATM    2  C2  UNL     1     -34.196   4.814   4.056  1.00 20.00    -0.079 C 
HETATM    3  C4  UNL     1     -33.193   2.442   4.736  1.00 20.00     0.112 C 
ENDROOT
BRANCH   2   4
HETATM    4  C7  UNL     1     -34.740   6.118   3.685  1.00 20.00     0.327 C 
BRANCH   4   5
HETATM    5  N11 UNL     1     -33.997   6.656   2.487  1.00 20.00    -0.064 N 
HETATM    6  C6  UNL     1     -33.124   5.596   1.864  1.00 20.00     0.270 C 
HETATM    7  H26 UNL     1     -34.718   6.884   1.782  1.00 20.00     0.280 HD
BRANCH   5   8
HETATM    8  C8  UNL     1     -33.251   7.903   2.792  1.00 20.00     0.254 C 
BRANCH   8   9
HETATM    9  C9  UNL     1     -32.064   8.105   1.845  1.00 20.00     0.114 C 
HETATM   10  C3  UNL     1     -32.345   9.151   0.843  1.00 20.00     0.065 C 
HETATM   11  N10 UNL     1     -32.566   9.972   0.053  1.00 20.00    -0.197 NA
HETATM   12  C5  UNL     1     -30.758   8.408   2.579  1.00 20.00     0.027 C 
ENDBRANCH   8   9
ENDBRANCH   5   8
ENDBRANCH   4   5
ENDBRANCH   2   4
TORSDOF 4
ENDMDL
MODEL 5
REMARK VINA RESULT:      -0.4      1.175      2.308
REMARK  4 active torsions:
REMARK  status: ('A' for Active; 'I' for Inactive)
REMARK    1  A    between atoms: C2_2  and  C7_7 
REMARK    2  A    between atoms: C7_7  and  N11_11 
REMARK    3  A    between atoms: C8_8  and  C9_9 
REMARK    4  A    between atoms: C8_8  and  N11_11 
ROOT
HETATM    1  C1  UNL     1     -32.456   9.373   0.596  1.00 20.00    -0.109 C 
HETATM    2  C2  UNL     1     -32.321   8.746   1.611  1.00 20.00    -0.079 C 
HETATM    3  C4  UNL     1     -32.621  10.137  -0.639  1.00 20.00     0.112 C 
ENDROOT
BRANCH   2   4
HETATM    4  C7  UNL     1     -32.157   7.977   2.843  1.00 20.00     0.327 C 
BRANCH   4   5
HETATM    5  N11 UNL     1     -33.474   7.902   3.573  1.00 20.00    -0.064 N 
HETATM    6  C6  UNL     1     -33.296   8.155   5.050  1.00 20.00     0.270 C 
HETATM    7  H26 UNL     1     -34.046   8.685   3.215  1.00 20.00     0.280 HD
BRANCH   5   8
HETATM    8  C8  UNL     1     -34.209   6.641   3.296  1.00 20.00     0.254 C 
BRANCH   8   9
HETATM    9  C9  UNL     1     -33.257   5.478   2.999  1.00 20.00     0.114 C 
HETATM   10  C3  UNL     1     -33.618   4.274   3.772  1.00 20.00     0.065 C 
HETATM   11  N10 UNL     1     -33.900   3.327   4.381  1.00 20.00    -0.197 NA
HETATM   12  C5  UNL     1     -33.164   5.147   1.509  1.00 20.00     0.027 C 
ENDBRANCH   8   9
ENDBRANCH   5   8
ENDBRANCH   4   5
ENDBRANCH   2   4
TORSDOF 4
ENDMDL
MODEL 6
REMARK VINA RESULT:      -0.3      1.853      5.212
REMARK  4 active torsions:
REMARK  status: ('A' for Active; 'I' for Inactive)
REMARK    1  A    between atoms: C2_2  and  C7_7 
REMARK    2  A    between atoms: C7_7  and  N11_11 
REMARK    3  A    between atoms: C8_8  and  C9_9 
REMARK    4  A    between atoms: C8_8  and  N11_11 
ROOT
HETATM    1  C1  UNL     1     -33.884   3.912   4.347  1.00 20.00    -0.109 C 
HETATM    2  C2  UNL     1     -34.417   4.951   4.066  1.00 20.00    -0.079 C 
HETATM    3  C4  UNL     1     -33.236   2.647   4.689  1.00 20.00     0.112 C 
ENDROOT
BRANCH   2   4
HETATM    4  C7  UNL     1     -35.066   6.216   3.730  1.00 20.00     0.327 C 
BRANCH   4   5
HETATM    5  N11 UNL     1     -34.128   7.361   4.023  1.00 20.00    -0.064 N 
HETATM    6  C6  UNL     1     -34.760   8.686   3.679  1.00 20.00     0.270 C 
HETATM    7  H26 UNL     1     -33.992   7.365   5.047  1.00 20.00     0.280 HD
BRANCH   5   8
HETATM    8  C8  UNL     1     -32.796   7.183   3.390  1.00 20.00     0.254 C 
BRANCH   8   9
HETATM    9  C9  UNL     1     -32.895   7.086   1.864  1.00 20.00     0.114 C 
HETATM   10  C3  UNL     1     -32.360   8.295   1.210  1.00 20.00     0.065 C 
HETATM   11  N10 UNL     1     -31.940   9.247   0.695  1.00 20.00    -0.197 NA
HETATM   12  C5  UNL     1     -32.226   5.833   1.300  1.00 20.00     0.027 C 
ENDBRANCH   8   9
ENDBRANCH   5   8
ENDBRANCH   4   5
ENDBRANCH   2   4
TORSDOF 4
ENDMDL
MODEL 7
REMARK VINA RESULT:       0.2      1.969      5.345
REMARK  4 active torsions:
REMARK  status: ('A' for Active; 'I' for Inactive)
REMARK    1  A    between atoms: C2_2  and  C7_7 
REMARK    2  A    between atoms: C7_7  and  N11_11 
REMARK    3  A    between atoms: C8_8  and  C9_9 
REMARK    4  A    between atoms: C8_8  and  N11_11 
ROOT
HETATM    1  C1  UNL     1     -33.598   4.112   4.089  1.00 20.00    -0.109 C 
HETATM    2  C2  UNL     1     -33.746   5.222   3.656  1.00 20.00    -0.079 C 
HETATM    3  C4  UNL     1     -33.418   2.761   4.618  1.00 20.00     0.112 C 
ENDROOT
BRANCH   2   4
HETATM    4  C7  UNL     1     -33.921   6.574   3.130  1.00 20.00     0.327 C 
BRANCH   4   5
HETATM    5  N11 UNL     1     -33.129   6.729   1.855  1.00 20.00    -0.064 N 
HETATM    6  C6  UNL     1     -32.390   5.459   1.513  1.00 20.00     0.270 C 
HETATM    7  H26 UNL     1     -33.823   6.869   1.102  1.00 20.00     0.280 HD
BRANCH   5   8
HETATM    8  C8  UNL     1     -32.238   7.918   1.878  1.00 20.00     0.254 C 
BRANCH   8   9
HETATM    9  C9  UNL     1     -32.178   8.613   0.514  1.00 20.00     0.114 C 
HETATM   10  C3  UNL     1     -32.548  10.037   0.617  1.00 20.00     0.065 C 
HETATM   11  N10 UNL     1     -32.840  11.158   0.698  1.00 20.00    -0.197 NA
HETATM   12  C5  UNL     1     -30.821   8.463  -0.174  1.00 20.00     0.027 C 
ENDBRANCH   8   9
ENDBRANCH   5   8
ENDBRANCH   4   5
ENDBRANCH   2   4
TORSDOF 4
ENDMDL
MODEL 8
REMARK VINA RESULT:       0.4      1.248      2.078
REMARK  4 active torsions:
REMARK  status: ('A' for Active; 'I' for Inactive)
REMARK    1  A    between atoms: C2_2  and  C7_7 
REMARK    2  A    between atoms: C7_7  and  N11_11 
REMARK    3  A    between atoms: C8_8  and  C9_9 
REMARK    4  A    between atoms: C8_8  and  N11_11 
ROOT
HETATM    1  C1  UNL     1     -32.325   9.381   0.601  1.00 20.00    -0.109 C 
HETATM    2  C2  UNL     1     -32.162   8.312   1.122  1.00 20.00    -0.079 C 
HETATM    3  C4  UNL     1     -32.524  10.682  -0.035  1.00 20.00     0.112 C 
ENDROOT
BRANCH   2   4
HETATM    4  C7  UNL     1     -31.958   7.010   1.753  1.00 20.00     0.327 C 
BRANCH   4   5
HETATM    5  N11 UNL     1     -33.259   6.522   2.343  1.00 20.00    -0.064 N 
HETATM    6  C6  UNL     1     -33.584   7.247   3.625  1.00 20.00     0.270 C 
HETATM    7  H26 UNL     1     -33.996   6.788   1.669  1.00 20.00     0.280 HD
BRANCH   5   8
HETATM    8  C8  UNL     1     -33.297   5.046   2.497  1.00 20.00     0.254 C 
BRANCH   8   9
HETATM    9  C9  UNL     1     -33.502   4.628   3.957  1.00 20.00     0.114 C 
HETATM   10  C3  UNL     1     -34.895   4.849   4.391  1.00 20.00     0.065 C 
HETATM   11  N10 UNL     1     -35.991   5.024   4.733  1.00 20.00    -0.197 NA
HETATM   12  C5  UNL     1     -33.081   3.185   4.231  1.00 20.00     0.027 C 
ENDBRANCH   8   9
ENDBRANCH   5   8
ENDBRANCH   4   5
ENDBRANCH   2   4
TORSDOF 4
ENDMDL
MODEL 9
REMARK VINA RESULT:       0.9      1.407      3.253
REMARK  4 active torsions:
REMARK  status: ('A' for Active; 'I' for Inactive)
REMARK    1  A    between atoms: C2_2  and  C7_7 
REMARK    2  A    between atoms: C7_7  and  N11_11 
REMARK    3  A    between atoms: C8_8  and  C9_9 
REMARK    4  A    between atoms: C8_8  and  N11_11 
ROOT
HETATM    1  C1  UNL     1     -33.524   4.291  -0.066  1.00 20.00    -0.109 C 
HETATM    2  C2  UNL     1     -32.796   4.995   0.580  1.00 20.00    -0.079 C 
HETATM    3  C4  UNL     1     -34.410   3.435  -0.852  1.00 20.00     0.112 C 
ENDROOT
BRANCH   2   4
HETATM    4  C7  UNL     1     -31.915   5.854   1.367  1.00 20.00     0.327 C 
BRANCH   4   5
HETATM    5  N11 UNL     1     -32.705   7.007   1.935  1.00 20.00    -0.064 N 
HETATM    6  C6  UNL     1     -31.947   8.305   1.806  1.00 20.00     0.270 C 
HETATM    7  H26 UNL     1     -33.542   7.103   1.336  1.00 20.00     0.280 HD
BRANCH   5   8
HETATM    8  C8  UNL     1     -33.168   6.753   3.323  1.00 20.00     0.254 C 
BRANCH   8   9
HETATM    9  C9  UNL     1     -34.386   5.824   3.358  1.00 20.00     0.114 C 
HETATM   10  C3  UNL     1     -34.048   4.512   3.942  1.00 20.00     0.065 C 
HETATM   11  N10 UNL     1     -33.782   3.479   4.400  1.00 20.00    -0.197 NA
HETATM   12  C5  UNL     1     -35.584   6.437   4.082  1.00 20.00     0.027 C 
ENDBRANCH   8   9
ENDBRANCH   5   8
ENDBRANCH   4   5
ENDBRANCH   2   4
TORSDOF 4
ENDMDL
