MODEL 1
REMARK VINA RESULT:      -1.6      0.000      0.000
REMARK  2 active torsions:
REMARK  status: ('A' for Active; 'I' for Inactive)
REMARK    1  A    between atoms: C2_2  and  C11_11 
REMARK    2  A    between atoms: C7_7  and  C11_11 
ROOT
HETATM    1  C1  UNL     1     -32.470   9.257   0.604  1.00 20.00    -0.111 C 
HETATM    2  C2  UNL     1     -32.261   8.441   1.460  1.00 20.00    -0.106 C 
HETATM    3  C9  UNL     1     -32.724  10.251  -0.438  1.00 20.00     0.112 C 
ENDROOT
BRANCH   2   4
HETATM    4  C11 UNL     1     -32.000   7.451   2.509  1.00 20.00     0.106 C 
BRANCH   4   5
HETATM    5  C7  UNL     1     -33.209   6.545   2.720  1.00 20.00     0.067 C 
HETATM    6  C3  UNL     1     -34.248   7.192   3.628  1.00 20.00     0.132 C 
HETATM    7  C4  UNL     1     -35.430   6.325   4.003  1.00 20.00     0.079 C 
HETATM    8  O12 UNL     1     -34.193   8.371   3.972  1.00 20.00    -0.298 OA
HETATM    9  C5  UNL     1     -34.959   4.987   4.555  1.00 20.00     0.011 C 
HETATM   10  C8  UNL     1     -33.985   4.288   3.598  1.00 20.00    -0.017 C 
HETATM   11  C6  UNL     1     -32.779   5.197   3.309  1.00 20.00     0.017 C 
HETATM   12  C10 UNL     1     -33.524   2.953   4.180  1.00 20.00     0.010 C 
ENDBRANCH   4   5
ENDBRANCH   2   4
TORSDOF 2
ENDMDL
MODEL 2
REMARK VINA RESULT:       0.1      1.827      2.767
REMARK  2 active torsions:
REMARK  status: ('A' for Active; 'I' for Inactive)
REMARK    1  A    between atoms: C2_2  and  C11_11 
REMARK    2  A    between atoms: C7_7  and  C11_11 
ROOT
HETATM    1  C1  UNL     1     -32.441   9.778   0.255  1.00 20.00    -0.111 C 
HETATM    2  C2  UNL     1     -31.936   8.732   0.558  1.00 20.00    -0.106 C 
HETATM    3  C9  UNL     1     -33.057  11.052  -0.115  1.00 20.00     0.112 C 
ENDROOT
BRANCH   2   4
HETATM    4  C11 UNL     1     -31.321   7.451   0.920  1.00 20.00     0.106 C 
BRANCH   4   5
HETATM    5  C7  UNL     1     -32.006   6.840   2.139  1.00 20.00     0.067 C 
HETATM    6  C3  UNL     1     -33.042   5.796   1.740  1.00 20.00     0.132 C 
HETATM    7  C4  UNL     1     -33.867   5.218   2.869  1.00 20.00     0.079 C 
HETATM    8  O12 UNL     1     -33.154   5.370   0.591  1.00 20.00    -0.298 OA
HETATM    9  C5  UNL     1     -34.486   6.331   3.703  1.00 20.00     0.011 C 
HETATM   10  C8  UNL     1     -33.430   7.333   4.187  1.00 20.00    -0.017 C 
HETATM   11  C6  UNL     1     -32.673   7.927   2.988  1.00 20.00     0.017 C 
HETATM   12  C10 UNL     1     -34.080   8.441   5.014  1.00 20.00     0.010 C 
ENDBRANCH   4   5
ENDBRANCH   2   4
TORSDOF 2
ENDMDL
MODEL 3
REMARK VINA RESULT:       1.1      1.180      5.104
REMARK  2 active torsions:
REMARK  status: ('A' for Active; 'I' for Inactive)
REMARK    1  A    between atoms: C2_2  and  C11_11 
REMARK    2  A    between atoms: C7_7  and  C11_11 
ROOT
HETATM    1  C1  UNL     1     -33.652   3.306   4.326  1.00 20.00    -0.111 C 
HETATM    2  C2  UNL     1     -33.977   4.372   3.881  1.00 20.00    -0.106 C 
HETATM    3  C9  UNL     1     -33.254   2.007   4.867  1.00 20.00     0.112 C 
ENDROOT
BRANCH   2   4
HETATM    4  C11 UNL     1     -34.370   5.673   3.331  1.00 20.00     0.106 C 
BRANCH   4   5
HETATM    5  C7  UNL     1     -33.157   6.582   3.155  1.00 20.00     0.067 C 
HETATM    6  C3  UNL     1     -33.224   7.797   4.072  1.00 20.00     0.132 C 
HETATM    7  C4  UNL     1     -32.131   8.827   3.886  1.00 20.00     0.079 C 
HETATM    8  O12 UNL     1     -34.053   7.909   4.973  1.00 20.00    -0.298 OA
HETATM    9  C5  UNL     1     -32.023   9.235   2.424  1.00 20.00     0.011 C 
HETATM   10  C8  UNL     1     -31.860   8.017   1.505  1.00 20.00    -0.017 C 
HETATM   11  C6  UNL     1     -33.034   7.043   1.699  1.00 20.00     0.017 C 
HETATM   12  C10 UNL     1     -31.761   8.456   0.045  1.00 20.00     0.010 C 
ENDBRANCH   4   5
ENDBRANCH   2   4
TORSDOF 2
ENDMDL
MODEL 4
REMARK VINA RESULT:       1.1      1.827      5.062
REMARK  2 active torsions:
REMARK  status: ('A' for Active; 'I' for Inactive)
REMARK    1  A    between atoms: C2_2  and  C11_11 
REMARK    2  A    between atoms: C7_7  and  C11_11 
ROOT
HETATM    1  C1  UNL     1     -33.758   3.815   4.457  1.00 20.00    -0.111 C 
HETATM    2  C2  UNL     1     -34.386   4.767   4.082  1.00 20.00    -0.106 C 
HETATM    3  C9  UNL     1     -32.993   2.655   4.914  1.00 20.00     0.112 C 
ENDROOT
BRANCH   2   4
HETATM    4  C11 UNL     1     -35.148   5.929   3.615  1.00 20.00     0.106 C 
BRANCH   4   5
HETATM    5  C7  UNL     1     -34.220   7.010   3.069  1.00 20.00     0.067 C 
HETATM    6  C3  UNL     1     -33.319   6.474   1.962  1.00 20.00     0.132 C 
HETATM    7  C4  UNL     1     -32.273   7.433   1.437  1.00 20.00     0.079 C 
HETATM    8  O12 UNL     1     -33.476   5.366   1.451  1.00 20.00    -0.298 OA
HETATM    9  C5  UNL     1     -31.462   8.019   2.584  1.00 20.00     0.011 C 
HETATM   10  C8  UNL     1     -32.364   8.645   3.656  1.00 20.00    -0.017 C 
HETATM   11  C6  UNL     1     -33.358   7.602   4.190  1.00 20.00     0.017 C 
HETATM   12  C10 UNL     1     -31.523   9.218   4.796  1.00 20.00     0.010 C 
ENDBRANCH   4   5
ENDBRANCH   2   4
TORSDOF 2
ENDMDL
MODEL 5
REMARK VINA RESULT:       1.3      2.087      5.107
REMARK  2 active torsions:
REMARK  status: ('A' for Active; 'I' for Inactive)
REMARK    1  A    between atoms: C2_2  and  C11_11 
REMARK    2  A    between atoms: C7_7  and  C11_11 
ROOT
HETATM    1  C1  UNL     1     -33.116   3.332   4.861  1.00 20.00    -0.111 C 
HETATM    2  C2  UNL     1     -33.480   3.723   3.786  1.00 20.00    -0.106 C 
HETATM    3  C9  UNL     1     -32.671   2.856   6.171  1.00 20.00     0.112 C 
ENDROOT
BRANCH   2   4
HETATM    4  C11 UNL     1     -33.917   4.199   2.470  1.00 20.00     0.106 C 
BRANCH   4   5
HETATM    5  C7  UNL     1     -33.781   5.715   2.363  1.00 20.00     0.067 C 
HETATM    6  C3  UNL     1     -32.469   6.119   1.701  1.00 20.00     0.132 C 
HETATM    7  C4  UNL     1     -32.179   7.603   1.659  1.00 20.00     0.079 C 
HETATM    8  O12 UNL     1     -31.723   5.312   1.149  1.00 20.00    -0.298 OA
HETATM    9  C5  UNL     1     -32.317   8.215   3.046  1.00 20.00     0.011 C 
HETATM   10  C8  UNL     1     -33.677   7.888   3.678  1.00 20.00    -0.017 C 
HETATM   11  C6  UNL     1     -33.880   6.366   3.747  1.00 20.00     0.017 C 
HETATM   12  C10 UNL     1     -33.785   8.508   5.070  1.00 20.00     0.010 C 
ENDBRANCH   4   5
ENDBRANCH   2   4
TORSDOF 2
ENDMDL
