MODEL 1
REMARK VINA RESULT:      -3.4      0.000      0.000
REMARK  3 active torsions:
REMARK  status: ('A' for Active; 'I' for Inactive)
REMARK    1  A    between atoms: C2_2  and  C7_7 
REMARK    2  A    between atoms: C3_3  and  C8_8 
REMARK    3  A    between atoms: C7_7  and  C8_8 
ROOT
HETATM    1  C1  UNL     1     -33.869   3.954   4.415  1.00 20.00    -0.111 C 
HETATM    2  C2  UNL     1     -34.428   4.977   4.124  1.00 20.00    -0.106 C 
HETATM    3  C4  UNL     1     -33.185   2.711   4.768  1.00 20.00     0.112 C 
ENDROOT
BRANCH   2   4
HETATM    4  C7  UNL     1     -35.112   6.230   3.771  1.00 20.00     0.105 C 
BRANCH   4   5
HETATM    5  C8  UNL     1     -34.146   7.389   3.486  1.00 20.00     0.062 C 
HETATM    6  C6  UNL     1     -33.443   7.876   4.755  1.00 20.00     0.018 C 
BRANCH   5   7
HETATM    7  C3  UNL     1     -33.138   7.035   2.391  1.00 20.00     0.127 C 
HETATM    8  C5  UNL     1     -32.040   8.034   2.121  1.00 20.00     0.091 C 
HETATM    9  O9  UNL     1     -33.192   5.979   1.760  1.00 20.00    -0.298 OA
ENDBRANCH   5   7
ENDBRANCH   4   5
ENDBRANCH   2   4
TORSDOF 3
ENDMDL
MODEL 2
REMARK VINA RESULT:      -3.2      1.949      4.997
REMARK  3 active torsions:
REMARK  status: ('A' for Active; 'I' for Inactive)
REMARK    1  A    between atoms: C2_2  and  C7_7 
REMARK    2  A    between atoms: C3_3  and  C8_8 
REMARK    3  A    between atoms: C7_7  and  C8_8 
ROOT
HETATM    1  C1  UNL     1     -32.376   9.612   0.455  1.00 20.00    -0.111 C 
HETATM    2  C2  UNL     1     -32.201   8.680   1.192  1.00 20.00    -0.106 C 
HETATM    3  C4  UNL     1     -32.590  10.744  -0.445  1.00 20.00     0.112 C 
ENDROOT
BRANCH   2   4
HETATM    4  C7  UNL     1     -31.990   7.537   2.094  1.00 20.00     0.105 C 
BRANCH   4   5
HETATM    5  C8  UNL     1     -33.027   6.420   1.911  1.00 20.00     0.062 C 
HETATM    6  C6  UNL     1     -32.406   5.154   1.316  1.00 20.00     0.018 C 
BRANCH   5   7
HETATM    7  C3  UNL     1     -33.775   6.116   3.210  1.00 20.00     0.127 C 
HETATM    8  C5  UNL     1     -34.341   7.293   3.966  1.00 20.00     0.091 C 
HETATM    9  O9  UNL     1     -33.935   4.969   3.627  1.00 20.00    -0.298 OA
ENDBRANCH   5   7
ENDBRANCH   4   5
ENDBRANCH   2   4
TORSDOF 3
ENDMDL
MODEL 3
REMARK VINA RESULT:      -3.0      2.022      5.068
REMARK  3 active torsions:
REMARK  status: ('A' for Active; 'I' for Inactive)
REMARK    1  A    between atoms: C2_2  and  C7_7 
REMARK    2  A    between atoms: C3_3  and  C8_8 
REMARK    3  A    between atoms: C7_7  and  C8_8 
ROOT
HETATM    1  C1  UNL     1     -32.372   9.641   0.440  1.00 20.00    -0.111 C 
HETATM    2  C2  UNL     1     -32.256   8.757   1.245  1.00 20.00    -0.106 C 
HETATM    3  C4  UNL     1     -32.518  10.714  -0.542  1.00 20.00     0.112 C 
ENDROOT
BRANCH   2   4
HETATM    4  C7  UNL     1     -32.116   7.676   2.233  1.00 20.00     0.105 C 
BRANCH   4   5
HETATM    5  C8  UNL     1     -33.369   6.797   2.352  1.00 20.00     0.062 C 
HETATM    6  C6  UNL     1     -33.055   5.317   2.124  1.00 20.00     0.018 C 
BRANCH   5   7
HETATM    7  C3  UNL     1     -34.095   7.015   3.681  1.00 20.00     0.127 C 
HETATM    8  C5  UNL     1     -35.267   6.113   3.977  1.00 20.00     0.091 C 
HETATM    9  O9  UNL     1     -33.742   7.870   4.493  1.00 20.00    -0.298 OA
ENDBRANCH   5   7
ENDBRANCH   4   5
ENDBRANCH   2   4
TORSDOF 3
ENDMDL
MODEL 4
REMARK VINA RESULT:      -2.9      0.941      1.131
REMARK  3 active torsions:
REMARK  status: ('A' for Active; 'I' for Inactive)
REMARK    1  A    between atoms: C2_2  and  C7_7 
REMARK    2  A    between atoms: C3_3  and  C8_8 
REMARK    3  A    between atoms: C7_7  and  C8_8 
ROOT
HETATM    1  C1  UNL     1     -33.850   4.024   4.378  1.00 20.00    -0.111 C 
HETATM    2  C2  UNL     1     -34.379   5.047   4.039  1.00 20.00    -0.106 C 
HETATM    3  C4  UNL     1     -33.201   2.779   4.788  1.00 20.00     0.112 C 
ENDROOT
BRANCH   2   4
HETATM    4  C7  UNL     1     -35.026   6.302   3.627  1.00 20.00     0.105 C 
BRANCH   4   5
HETATM    5  C8  UNL     1     -34.059   7.494   3.573  1.00 20.00     0.062 C 
HETATM    6  C6  UNL     1     -33.470   7.818   4.947  1.00 20.00     0.018 C 
BRANCH   5   7
HETATM    7  C3  UNL     1     -32.959   7.289   2.529  1.00 20.00     0.127 C 
HETATM    8  C5  UNL     1     -33.107   6.110   1.599  1.00 20.00     0.091 C 
HETATM    9  O9  UNL     1     -31.999   8.052   2.424  1.00 20.00    -0.298 OA
ENDBRANCH   5   7
ENDBRANCH   4   5
ENDBRANCH   2   4
TORSDOF 3
ENDMDL
MODEL 5
REMARK VINA RESULT:      -2.7      1.666      4.370
REMARK  3 active torsions:
REMARK  status: ('A' for Active; 'I' for Inactive)
REMARK    1  A    between atoms: C2_2  and  C7_7 
REMARK    2  A    between atoms: C3_3  and  C8_8 
REMARK    3  A    between atoms: C7_7  and  C8_8 
ROOT
HETATM    1  C1  UNL     1     -32.380   8.215   1.208  1.00 20.00    -0.111 C 
HETATM    2  C2  UNL     1     -32.724   7.170   1.688  1.00 20.00    -0.106 C 
HETATM    3  C4  UNL     1     -31.966   9.488   0.620  1.00 20.00     0.112 C 
ENDROOT
BRANCH   2   4
HETATM    4  C7  UNL     1     -33.147   5.891   2.280  1.00 20.00     0.105 C 
BRANCH   4   5
HETATM    5  C8  UNL     1     -33.668   6.030   3.717  1.00 20.00     0.062 C 
HETATM    6  C6  UNL     1     -34.551   7.267   3.890  1.00 20.00     0.018 C 
BRANCH   5   7
HETATM    7  C3  UNL     1     -34.384   4.763   4.190  1.00 20.00     0.127 C 
HETATM    8  C5  UNL     1     -33.591   3.480   4.172  1.00 20.00     0.091 C 
HETATM    9  O9  UNL     1     -35.549   4.773   4.588  1.00 20.00    -0.298 OA
ENDBRANCH   5   7
ENDBRANCH   4   5
ENDBRANCH   2   4
TORSDOF 3
ENDMDL
MODEL 6
REMARK VINA RESULT:      -2.3      2.117      3.187
REMARK  3 active torsions:
REMARK  status: ('A' for Active; 'I' for Inactive)
REMARK    1  A    between atoms: C2_2  and  C7_7 
REMARK    2  A    between atoms: C3_3  and  C8_8 
REMARK    3  A    between atoms: C7_7  and  C8_8 
ROOT
HETATM    1  C1  UNL     1     -34.515   6.533   3.870  1.00 20.00    -0.111 C 
HETATM    2  C2  UNL     1     -33.741   7.360   3.470  1.00 20.00    -0.106 C 
HETATM    3  C4  UNL     1     -35.454   5.526   4.361  1.00 20.00     0.112 C 
ENDROOT
BRANCH   2   4
HETATM    4  C7  UNL     1     -32.794   8.374   2.982  1.00 20.00     0.105 C 
BRANCH   4   5
HETATM    5  C8  UNL     1     -31.903   7.871   1.837  1.00 20.00     0.062 C 
HETATM    6  C6  UNL     1     -32.334   6.490   1.339  1.00 20.00     0.018 C 
BRANCH   5   7
HETATM    7  C3  UNL     1     -31.825   8.880   0.690  1.00 20.00     0.127 C 
HETATM    8  C5  UNL     1     -32.737  10.079   0.768  1.00 20.00     0.091 C 
HETATM    9  O9  UNL     1     -31.047   8.746  -0.255  1.00 20.00    -0.298 OA
ENDBRANCH   5   7
ENDBRANCH   4   5
ENDBRANCH   2   4
TORSDOF 3
ENDMDL
MODEL 7
REMARK VINA RESULT:      -1.5      1.569      2.194
REMARK  3 active torsions:
REMARK  status: ('A' for Active; 'I' for Inactive)
REMARK    1  A    between atoms: C2_2  and  C7_7 
REMARK    2  A    between atoms: C3_3  and  C8_8 
REMARK    3  A    between atoms: C7_7  and  C8_8 
ROOT
HETATM    1  C1  UNL     1     -33.535   3.732   4.197  1.00 20.00    -0.111 C 
HETATM    2  C2  UNL     1     -33.648   4.802   3.663  1.00 20.00    -0.106 C 
HETATM    3  C4  UNL     1     -33.394   2.429   4.845  1.00 20.00     0.112 C 
ENDROOT
BRANCH   2   4
HETATM    4  C7  UNL     1     -33.784   6.113   3.010  1.00 20.00     0.105 C 
BRANCH   4   5
HETATM    5  C8  UNL     1     -32.654   6.416   2.016  1.00 20.00     0.062 C 
HETATM    6  C6  UNL     1     -33.021   6.006   0.588  1.00 20.00     0.018 C 
BRANCH   5   7
HETATM    7  C3  UNL     1     -32.214   7.879   2.081  1.00 20.00     0.127 C 
HETATM    8  C5  UNL     1     -32.184   8.644   0.781  1.00 20.00     0.091 C 
HETATM    9  O9  UNL     1     -31.911   8.431   3.139  1.00 20.00    -0.298 OA
ENDBRANCH   5   7
ENDBRANCH   4   5
ENDBRANCH   2   4
TORSDOF 3
ENDMDL
MODEL 8
REMARK VINA RESULT:      -1.5      1.475      1.731
REMARK  3 active torsions:
REMARK  status: ('A' for Active; 'I' for Inactive)
REMARK    1  A    between atoms: C2_2  and  C7_7 
REMARK    2  A    between atoms: C3_3  and  C8_8 
REMARK    3  A    between atoms: C7_7  and  C8_8 
ROOT
HETATM    1  C1  UNL     1     -33.355   3.542   4.185  1.00 20.00    -0.111 C 
HETATM    2  C2  UNL     1     -33.510   4.413   3.373  1.00 20.00    -0.106 C 
HETATM    3  C4  UNL     1     -33.163   2.479   5.170  1.00 20.00     0.112 C 
ENDROOT
BRANCH   2   4
HETATM    4  C7  UNL     1     -33.698   5.482   2.380  1.00 20.00     0.105 C 
BRANCH   4   5
HETATM    5  C8  UNL     1     -34.223   6.790   2.988  1.00 20.00     0.062 C 
HETATM    6  C6  UNL     1     -35.200   6.537   4.137  1.00 20.00     0.018 C 
BRANCH   5   7
HETATM    7  C3  UNL     1     -33.084   7.717   3.418  1.00 20.00     0.127 C 
HETATM    8  C5  UNL     1     -32.103   8.138   2.351  1.00 20.00     0.091 C 
HETATM    9  O9  UNL     1     -32.967   8.127   4.573  1.00 20.00    -0.298 OA
ENDBRANCH   5   7
ENDBRANCH   4   5
ENDBRANCH   2   4
TORSDOF 3
ENDMDL
MODEL 9
REMARK VINA RESULT:      -1.5      1.473      1.883
REMARK  3 active torsions:
REMARK  status: ('A' for Active; 'I' for Inactive)
REMARK    1  A    between atoms: C2_2  and  C7_7 
REMARK    2  A    between atoms: C3_3  and  C8_8 
REMARK    3  A    between atoms: C7_7  and  C8_8 
ROOT
HETATM    1  C1  UNL     1     -33.344   4.078   3.741  1.00 20.00    -0.111 C 
HETATM    2  C2  UNL     1     -33.227   4.881   2.855  1.00 20.00    -0.106 C 
HETATM    3  C4  UNL     1     -33.490   3.104   4.820  1.00 20.00     0.112 C 
ENDROOT
BRANCH   2   4
HETATM    4  C7  UNL     1     -33.086   5.862   1.768  1.00 20.00     0.105 C 
BRANCH   4   5
HETATM    5  C8  UNL     1     -33.373   7.303   2.210  1.00 20.00     0.062 C 
HETATM    6  C6  UNL     1     -33.805   7.379   3.676  1.00 20.00     0.018 C 
BRANCH   5   7
HETATM    7  C3  UNL     1     -32.192   8.234   1.928  1.00 20.00     0.127 C 
HETATM    8  C5  UNL     1     -32.299   9.131   0.720  1.00 20.00     0.091 C 
HETATM    9  O9  UNL     1     -31.198   8.276   2.653  1.00 20.00    -0.298 OA
ENDBRANCH   5   7
ENDBRANCH   4   5
ENDBRANCH   2   4
TORSDOF 3
ENDMDL
