MODEL 1
REMARK VINA RESULT:      -1.5      0.000      0.000
REMARK  4 active torsions:
REMARK  status: ('A' for Active; 'I' for Inactive)
REMARK    1  A    between atoms: C1_1  and  C3_3 
REMARK    2  A    between atoms: C4_4  and  C10_10 
REMARK    3  A    between atoms: C8_8  and  C10_10 
REMARK    4  A    between atoms: C9_9  and  C10_10 
ROOT
HETATM    1  C2  UNL     1     -31.262   8.852   2.451  1.00 20.00     0.018 A 
HETATM    2  C3  UNL     1     -31.378   8.774   0.949  1.00 20.00     0.060 A 
HETATM    3  C4  UNL     1     -31.732   7.580   1.802  1.00 20.00     0.002 A 
ENDROOT
BRANCH   3   4
HETATM    4  C10 UNL     1     -33.179   7.114   1.991  1.00 20.00    -0.010 C 
BRANCH   4   5
HETATM    5  C8  UNL     1     -33.668   7.352   3.435  1.00 20.00     0.000 C 
HETATM    6  C6  UNL     1     -34.884   6.520   3.818  1.00 20.00     0.005 C 
ENDBRANCH   4   5
BRANCH   4   7
HETATM    7  C9  UNL     1     -33.342   5.619   1.644  1.00 20.00     0.000 C 
HETATM    8  C7  UNL     1     -32.098   4.988   1.033  1.00 20.00     0.005 C 
ENDBRANCH   4   7
ENDBRANCH   3   4
BRANCH   2   9
HETATM    9  C1  UNL     1     -32.419   9.550   0.267  1.00 20.00     0.127 C 
HETATM   10  C5  UNL     1     -32.905  10.792   0.964  1.00 20.00     0.091 C 
HETATM   11  O11 UNL     1     -32.872   9.203  -0.824  1.00 20.00    -0.298 OA
ENDBRANCH   2   9
TORSDOF 4
ENDMDL
MODEL 2
REMARK VINA RESULT:      -1.3      1.877      3.136
REMARK  4 active torsions:
REMARK  status: ('A' for Active; 'I' for Inactive)
REMARK    1  A    between atoms: C1_1  and  C3_3 
REMARK    2  A    between atoms: C4_4  and  C10_10 
REMARK    3  A    between atoms: C8_8  and  C10_10 
REMARK    4  A    between atoms: C9_9  and  C10_10 
ROOT
HETATM    1  C2  UNL     1     -32.066   5.260   1.360  1.00 20.00     0.018 A 
HETATM    2  C3  UNL     1     -32.634   6.616   1.020  1.00 20.00     0.060 A 
HETATM    3  C4  UNL     1     -33.424   5.650   1.871  1.00 20.00     0.002 A 
ENDROOT
BRANCH   3   4
HETATM    4  C10 UNL     1     -33.643   5.876   3.370  1.00 20.00    -0.010 C 
BRANCH   4   5
HETATM    5  C8  UNL     1     -34.384   4.689   4.020  1.00 20.00     0.000 C 
HETATM    6  C6  UNL     1     -33.490   3.493   4.317  1.00 20.00     0.005 C 
ENDBRANCH   4   5
BRANCH   4   7
HETATM    7  C9  UNL     1     -34.436   7.173   3.637  1.00 20.00     0.000 C 
HETATM    8  C7  UNL     1     -33.854   8.034   4.749  1.00 20.00     0.005 C 
ENDBRANCH   4   7
ENDBRANCH   3   4
BRANCH   2   9
HETATM    9  C1  UNL     1     -32.029   7.816   1.605  1.00 20.00     0.127 C 
HETATM   10  C5  UNL     1     -32.485   9.142   1.056  1.00 20.00     0.091 C 
HETATM   11  O11 UNL     1     -31.190   7.745   2.503  1.00 20.00    -0.298 OA
ENDBRANCH   2   9
TORSDOF 4
ENDMDL
MODEL 3
REMARK VINA RESULT:      -0.4      1.918      4.177
REMARK  4 active torsions:
REMARK  status: ('A' for Active; 'I' for Inactive)
REMARK    1  A    between atoms: C1_1  and  C3_3 
REMARK    2  A    between atoms: C4_4  and  C10_10 
REMARK    3  A    between atoms: C8_8  and  C10_10 
REMARK    4  A    between atoms: C9_9  and  C10_10 
ROOT
HETATM    1  C2  UNL     1     -32.806   7.521   4.523  1.00 20.00     0.018 A 
HETATM    2  C3  UNL     1     -34.257   7.723   4.159  1.00 20.00     0.060 A 
HETATM    3  C4  UNL     1     -33.165   8.279   3.276  1.00 20.00     0.002 A 
ENDROOT
BRANCH   3   4
HETATM    4  C10 UNL     1     -32.848   7.684   1.901  1.00 20.00    -0.010 C 
BRANCH   4   5
HETATM    5  C8  UNL     1     -32.160   6.308   2.023  1.00 20.00     0.000 C 
HETATM    6  C6  UNL     1     -32.665   5.277   1.023  1.00 20.00     0.005 C 
ENDBRANCH   4   5
BRANCH   4   7
HETATM    7  C9  UNL     1     -31.950   8.625   1.070  1.00 20.00     0.000 C 
HETATM    8  C7  UNL     1     -32.680   9.834   0.503  1.00 20.00     0.005 C 
ENDBRANCH   4   7
ENDBRANCH   3   4
BRANCH   2   9
HETATM    9  C1  UNL     1     -35.058   6.571   3.733  1.00 20.00     0.127 C 
HETATM   10  C5  UNL     1     -34.597   5.216   4.197  1.00 20.00     0.091 C 
HETATM   11  O11 UNL     1     -36.061   6.706   3.033  1.00 20.00    -0.298 OA
ENDBRANCH   2   9
TORSDOF 4
ENDMDL
MODEL 4
REMARK VINA RESULT:      -0.1      1.562      2.703
REMARK  4 active torsions:
REMARK  status: ('A' for Active; 'I' for Inactive)
REMARK    1  A    between atoms: C1_1  and  C3_3 
REMARK    2  A    between atoms: C4_4  and  C10_10 
REMARK    3  A    between atoms: C8_8  and  C10_10 
REMARK    4  A    between atoms: C9_9  and  C10_10 
ROOT
HETATM    1  C2  UNL     1     -32.188   5.778   2.038  1.00 20.00     0.018 A 
HETATM    2  C3  UNL     1     -32.528   6.935   1.131  1.00 20.00     0.060 A 
HETATM    3  C4  UNL     1     -33.589   6.321   2.013  1.00 20.00     0.002 A 
ENDROOT
BRANCH   3   4
HETATM    4  C10 UNL     1     -34.151   7.048   3.238  1.00 20.00    -0.010 C 
BRANCH   4   5
HETATM    5  C8  UNL     1     -33.079   7.221   4.336  1.00 20.00     0.000 C 
HETATM    6  C6  UNL     1     -33.313   8.424   5.240  1.00 20.00     0.005 C 
ENDBRANCH   4   5
BRANCH   4   7
HETATM    7  C9  UNL     1     -35.364   6.303   3.832  1.00 20.00     0.000 C 
HETATM    8  C7  UNL     1     -35.025   4.939   4.419  1.00 20.00     0.005 C 
ENDBRANCH   4   7
ENDBRANCH   3   4
BRANCH   2   9
HETATM    9  C1  UNL     1     -31.980   8.263   1.424  1.00 20.00     0.127 C 
HETATM   10  C5  UNL     1     -32.474   9.403   0.573  1.00 20.00     0.091 C 
HETATM   11  O11 UNL     1     -31.158   8.439   2.323  1.00 20.00    -0.298 OA
ENDBRANCH   2   9
TORSDOF 4
ENDMDL
MODEL 5
REMARK VINA RESULT:       0.1      2.534      4.453
REMARK  4 active torsions:
REMARK  status: ('A' for Active; 'I' for Inactive)
REMARK    1  A    between atoms: C1_1  and  C3_3 
REMARK    2  A    between atoms: C4_4  and  C10_10 
REMARK    3  A    between atoms: C8_8  and  C10_10 
REMARK    4  A    between atoms: C9_9  and  C10_10 
ROOT
HETATM    1  C2  UNL     1     -33.968   7.702   4.342  1.00 20.00     0.018 A 
HETATM    2  C3  UNL     1     -34.939   6.663   3.837  1.00 20.00     0.060 A 
HETATM    3  C4  UNL     1     -33.981   7.338   2.884  1.00 20.00     0.002 A 
ENDROOT
BRANCH   3   4
HETATM    4  C10 UNL     1     -32.789   6.600   2.268  1.00 20.00    -0.010 C 
BRANCH   4   5
HETATM    5  C8  UNL     1     -31.657   7.575   1.880  1.00 20.00     0.000 C 
HETATM    6  C6  UNL     1     -32.134   8.792   1.100  1.00 20.00     0.005 C 
ENDBRANCH   4   5
BRANCH   4   7
HETATM    7  C9  UNL     1     -33.207   5.791   1.021  1.00 20.00     0.000 C 
HETATM    8  C7  UNL     1     -32.151   4.803   0.545  1.00 20.00     0.005 C 
ENDBRANCH   4   7
ENDBRANCH   3   4
BRANCH   2   9
HETATM    9  C1  UNL     1     -34.756   5.260   4.222  1.00 20.00     0.127 C 
HETATM   10  C5  UNL     1     -33.407   4.651   3.945  1.00 20.00     0.091 C 
HETATM   11  O11 UNL     1     -35.660   4.612   4.749  1.00 20.00    -0.298 OA
ENDBRANCH   2   9
TORSDOF 4
ENDMDL
MODEL 6
REMARK VINA RESULT:       0.1      2.597      4.102
REMARK  4 active torsions:
REMARK  status: ('A' for Active; 'I' for Inactive)
REMARK    1  A    between atoms: C1_1  and  C3_3 
REMARK    2  A    between atoms: C4_4  and  C10_10 
REMARK    3  A    between atoms: C8_8  and  C10_10 
REMARK    4  A    between atoms: C9_9  and  C10_10 
ROOT
HETATM    1  C2  UNL     1     -35.371   6.889   3.099  1.00 20.00     0.018 A 
HETATM    2  C3  UNL     1     -34.594   7.338   4.311  1.00 20.00     0.060 A 
HETATM    3  C4  UNL     1     -34.773   5.866   4.024  1.00 20.00     0.002 A 
ENDROOT
BRANCH   3   4
HETATM    4  C10 UNL     1     -33.618   4.983   3.545  1.00 20.00    -0.010 C 
BRANCH   4   5
HETATM    5  C8  UNL     1     -33.480   5.013   2.008  1.00 20.00     0.000 C 
HETATM    6  C6  UNL     1     -32.083   5.372   1.522  1.00 20.00     0.005 C 
ENDBRANCH   4   5
BRANCH   4   7
HETATM    7  C9  UNL     1     -33.794   3.520   4.006  1.00 20.00     0.000 C 
HETATM    8  C7  UNL     1     -32.804   3.088   5.079  1.00 20.00     0.005 C 
ENDBRANCH   4   7
ENDBRANCH   3   4
BRANCH   2   9
HETATM    9  C1  UNL     1     -33.292   7.988   4.131  1.00 20.00     0.127 C 
HETATM   10  C5  UNL     1     -32.888   8.315   2.718  1.00 20.00     0.091 C 
HETATM   11  O11 UNL     1     -32.566   8.257   5.087  1.00 20.00    -0.298 OA
ENDBRANCH   2   9
TORSDOF 4
ENDMDL
MODEL 7
REMARK VINA RESULT:       0.5      1.849      4.402
REMARK  4 active torsions:
REMARK  status: ('A' for Active; 'I' for Inactive)
REMARK    1  A    between atoms: C1_1  and  C3_3 
REMARK    2  A    between atoms: C4_4  and  C10_10 
REMARK    3  A    between atoms: C8_8  and  C10_10 
REMARK    4  A    between atoms: C9_9  and  C10_10 
ROOT
HETATM    1  C2  UNL     1     -33.108   5.674   0.941  1.00 20.00     0.018 A 
HETATM    2  C3  UNL     1     -33.068   5.431   2.429  1.00 20.00     0.060 A 
HETATM    3  C4  UNL     1     -32.175   6.476   1.804  1.00 20.00     0.002 A 
ENDROOT
BRANCH   3   4
HETATM    4  C10 UNL     1     -32.415   7.975   2.002  1.00 20.00    -0.010 C 
BRANCH   4   5
HETATM    5  C8  UNL     1     -31.954   8.791   0.776  1.00 20.00     0.000 C 
HETATM    6  C6  UNL     1     -32.699  10.106   0.595  1.00 20.00     0.005 C 
ENDBRANCH   4   5
BRANCH   4   7
HETATM    7  C9  UNL     1     -31.691   8.503   3.259  1.00 20.00     0.000 C 
HETATM    8  C7  UNL     1     -32.550   8.492   4.516  1.00 20.00     0.005 C 
ENDBRANCH   4   7
ENDBRANCH   3   4
BRANCH   2   9
HETATM    9  C1  UNL     1     -34.219   5.816   3.252  1.00 20.00     0.127 C 
HETATM   10  C5  UNL     1     -34.619   4.863   4.347  1.00 20.00     0.091 C 
HETATM   11  O11 UNL     1     -34.828   6.868   3.059  1.00 20.00    -0.298 OA
ENDBRANCH   2   9
TORSDOF 4
ENDMDL
MODEL 8
REMARK VINA RESULT:       0.5      2.213      4.401
REMARK  4 active torsions:
REMARK  status: ('A' for Active; 'I' for Inactive)
REMARK    1  A    between atoms: C1_1  and  C3_3 
REMARK    2  A    between atoms: C4_4  and  C10_10 
REMARK    3  A    between atoms: C8_8  and  C10_10 
REMARK    4  A    between atoms: C9_9  and  C10_10 
ROOT
HETATM    1  C2  UNL     1     -34.060   4.264   3.333  1.00 20.00     0.018 A 
HETATM    2  C3  UNL     1     -33.830   5.521   4.135  1.00 20.00     0.060 A 
HETATM    3  C4  UNL     1     -32.903   5.163   2.998  1.00 20.00     0.002 A 
ENDROOT
BRANCH   3   4
HETATM    4  C10 UNL     1     -32.894   5.940   1.679  1.00 20.00    -0.010 C 
BRANCH   4   5
HETATM    5  C8  UNL     1     -32.770   4.996   0.465  1.00 20.00     0.000 C 
HETATM    6  C6  UNL     1     -31.408   4.327   0.342  1.00 20.00     0.005 C 
ENDBRANCH   4   5
BRANCH   4   7
HETATM    7  C9  UNL     1     -31.745   6.970   1.635  1.00 20.00     0.000 C 
HETATM    8  C7  UNL     1     -32.204   8.397   1.373  1.00 20.00     0.005 C 
ENDBRANCH   4   7
ENDBRANCH   3   4
BRANCH   2   9
HETATM    9  C1  UNL     1     -34.776   6.635   4.015  1.00 20.00     0.127 C 
HETATM   10  C5  UNL     1     -34.259   8.005   4.362  1.00 20.00     0.091 C 
HETATM   11  O11 UNL     1     -35.937   6.458   3.645  1.00 20.00    -0.298 OA
ENDBRANCH   2   9
TORSDOF 4
ENDMDL
MODEL 9
REMARK VINA RESULT:       0.6      3.121      5.258
REMARK  4 active torsions:
REMARK  status: ('A' for Active; 'I' for Inactive)
REMARK    1  A    between atoms: C1_1  and  C3_3 
REMARK    2  A    between atoms: C4_4  and  C10_10 
REMARK    3  A    between atoms: C8_8  and  C10_10 
REMARK    4  A    between atoms: C9_9  and  C10_10 
ROOT
HETATM    1  C2  UNL     1     -35.089   4.868   4.731  1.00 20.00     0.018 A 
HETATM    2  C3  UNL     1     -34.259   3.862   3.972  1.00 20.00     0.060 A 
HETATM    3  C4  UNL     1     -34.498   5.239   3.400  1.00 20.00     0.002 A 
ENDROOT
BRANCH   3   4
HETATM    4  C10 UNL     1     -33.389   6.293   3.322  1.00 20.00    -0.010 C 
BRANCH   4   5
HETATM    5  C8  UNL     1     -33.890   7.678   3.783  1.00 20.00     0.000 C 
HETATM    6  C6  UNL     1     -33.286   8.142   5.102  1.00 20.00     0.005 C 
ENDBRANCH   4   5
BRANCH   4   7
HETATM    7  C9  UNL     1     -32.822   6.413   1.891  1.00 20.00     0.000 C 
HETATM    8  C7  UNL     1     -31.976   7.658   1.666  1.00 20.00     0.005 C 
ENDBRANCH   4   7
ENDBRANCH   3   4
BRANCH   2   9
HETATM    9  C1  UNL     1     -32.941   3.479   4.491  1.00 20.00     0.127 C 
HETATM   10  C5  UNL     1     -32.840   3.244   5.974  1.00 20.00     0.091 C 
HETATM   11  O11 UNL     1     -31.967   3.354   3.749  1.00 20.00    -0.298 OA
ENDBRANCH   2   9
TORSDOF 4
ENDMDL
