MODEL 1
REMARK VINA RESULT:      -2.9      0.000      0.000
REMARK  4 active torsions:
REMARK  status: ('A' for Active; 'I' for Inactive)
REMARK    1  A    between atoms: C2_2  and  C6_6 
REMARK    2  A    between atoms: C6_6  and  C7_7 
REMARK    3  A    between atoms: C7_7  and  C8_8 
REMARK    4  A    between atoms: C8_8  and  O9_9 
ROOT
HETATM    1  C1  UNL     1     -32.366   8.343   1.213  1.00 20.00    -0.111 C 
HETATM    2  C2  UNL     1     -32.638   7.314   1.769  1.00 20.00    -0.107 C 
HETATM    3  C3  UNL     1     -32.034   9.596   0.539  1.00 20.00     0.112 C 
ENDROOT
BRANCH   2   4
HETATM    4  C6  UNL     1     -32.975   6.054   2.448  1.00 20.00     0.100 C 
BRANCH   4   5
HETATM    5  C7  UNL     1     -34.203   6.163   3.374  1.00 20.00     0.021 C 
HETATM    6  C4  UNL     1     -34.244   7.534   4.071  1.00 20.00     0.013 C 
BRANCH   5   7
HETATM    7  C8  UNL     1     -34.322   5.017   4.406  1.00 20.00     0.118 C 
HETATM    8  C5  UNL     1     -33.717   3.702   3.928  1.00 20.00     0.040 C 
BRANCH   7   9
HETATM    9  O9  UNL     1     -35.709   4.790   4.671  1.00 20.00    -0.396 OA
HETATM   10  H23 UNL     1     -36.069   4.359   3.882  1.00 20.00     0.210 HD
ENDBRANCH   7   9
ENDBRANCH   5   7
ENDBRANCH   4   5
ENDBRANCH   2   4
TORSDOF 4
ENDMDL
MODEL 2
REMARK VINA RESULT:      -2.3      0.679      1.961
REMARK  4 active torsions:
REMARK  status: ('A' for Active; 'I' for Inactive)
REMARK    1  A    between atoms: C2_2  and  C6_6 
REMARK    2  A    between atoms: C6_6  and  C7_7 
REMARK    3  A    between atoms: C7_7  and  C8_8 
REMARK    4  A    between atoms: C8_8  and  O9_9 
ROOT
HETATM    1  C1  UNL     1     -32.285   8.062   1.163  1.00 20.00    -0.111 C 
HETATM    2  C2  UNL     1     -32.539   6.946   1.527  1.00 20.00    -0.107 C 
HETATM    3  C3  UNL     1     -31.973   9.419   0.723  1.00 20.00     0.112 C 
ENDROOT
BRANCH   2   4
HETATM    4  C6  UNL     1     -32.855   5.580   1.971  1.00 20.00     0.100 C 
BRANCH   4   5
HETATM    5  C7  UNL     1     -33.446   5.517   3.394  1.00 20.00     0.021 C 
HETATM    6  C4  UNL     1     -33.827   4.074   3.765  1.00 20.00     0.013 C 
BRANCH   5   7
HETATM    7  C8  UNL     1     -34.634   6.479   3.630  1.00 20.00     0.118 C 
HETATM    8  C5  UNL     1     -34.265   7.714   4.444  1.00 20.00     0.040 C 
BRANCH   7   9
HETATM    9  O9  UNL     1     -35.652   5.772   4.343  1.00 20.00    -0.396 OA
HETATM   10  H23 UNL     1     -35.203   5.300   5.060  1.00 20.00     0.210 HD
ENDBRANCH   7   9
ENDBRANCH   5   7
ENDBRANCH   4   5
ENDBRANCH   2   4
TORSDOF 4
ENDMDL
MODEL 3
REMARK VINA RESULT:      -2.3      2.277      4.562
REMARK  4 active torsions:
REMARK  status: ('A' for Active; 'I' for Inactive)
REMARK    1  A    between atoms: C2_2  and  C6_6 
REMARK    2  A    between atoms: C6_6  and  C7_7 
REMARK    3  A    between atoms: C7_7  and  C8_8 
REMARK    4  A    between atoms: C8_8  and  O9_9 
ROOT
HETATM    1  C1  UNL     1     -33.715   3.439   4.375  1.00 20.00    -0.111 C 
HETATM    2  C2  UNL     1     -34.138   4.520   4.070  1.00 20.00    -0.107 C 
HETATM    3  C3  UNL     1     -33.202   2.123   4.749  1.00 20.00     0.112 C 
ENDROOT
BRANCH   2   4
HETATM    4  C6  UNL     1     -34.652   5.846   3.697  1.00 20.00     0.100 C 
BRANCH   4   5
HETATM    5  C7  UNL     1     -33.549   6.911   3.537  1.00 20.00     0.021 C 
HETATM    6  C4  UNL     1     -33.964   8.234   4.204  1.00 20.00     0.013 C 
BRANCH   5   7
HETATM    7  C8  UNL     1     -33.105   7.148   2.074  1.00 20.00     0.118 C 
HETATM    8  C5  UNL     1     -32.620   5.884   1.373  1.00 20.00     0.040 C 
BRANCH   7   9
HETATM    9  O9  UNL     1     -32.028   8.088   2.076  1.00 20.00    -0.396 OA
HETATM   10  H23 UNL     1     -31.289   7.656   1.622  1.00 20.00     0.210 HD
ENDBRANCH   7   9
ENDBRANCH   5   7
ENDBRANCH   4   5
ENDBRANCH   2   4
TORSDOF 4
ENDMDL
MODEL 4
REMARK VINA RESULT:      -2.2      1.606      2.427
REMARK  4 active torsions:
REMARK  status: ('A' for Active; 'I' for Inactive)
REMARK    1  A    between atoms: C2_2  and  C6_6 
REMARK    2  A    between atoms: C6_6  and  C7_7 
REMARK    3  A    between atoms: C7_7  and  C8_8 
REMARK    4  A    between atoms: C8_8  and  O9_9 
ROOT
HETATM    1  C1  UNL     1     -32.467   9.443   0.472  1.00 20.00    -0.111 C 
HETATM    2  C2  UNL     1     -32.122   8.646   1.301  1.00 20.00    -0.107 C 
HETATM    3  C3  UNL     1     -32.886  10.411  -0.539  1.00 20.00     0.112 C 
ENDROOT
BRANCH   2   4
HETATM    4  C6  UNL     1     -31.698   7.673   2.319  1.00 20.00     0.100 C 
BRANCH   4   5
HETATM    5  C7  UNL     1     -32.745   6.577   2.598  1.00 20.00     0.021 C 
HETATM    6  C4  UNL     1     -33.077   5.798   1.313  1.00 20.00     0.013 C 
BRANCH   5   7
HETATM    7  C8  UNL     1     -34.035   7.092   3.278  1.00 20.00     0.118 C 
HETATM    8  C5  UNL     1     -33.772   7.966   4.499  1.00 20.00     0.040 C 
BRANCH   7   9
HETATM    9  O9  UNL     1     -34.801   5.963   3.706  1.00 20.00    -0.396 OA
HETATM   10  H23 UNL     1     -34.458   5.716   4.577  1.00 20.00     0.210 HD
ENDBRANCH   7   9
ENDBRANCH   5   7
ENDBRANCH   4   5
ENDBRANCH   2   4
TORSDOF 4
ENDMDL
MODEL 5
REMARK VINA RESULT:      -2.2      0.998      1.155
REMARK  4 active torsions:
REMARK  status: ('A' for Active; 'I' for Inactive)
REMARK    1  A    between atoms: C2_2  and  C6_6 
REMARK    2  A    between atoms: C6_6  and  C7_7 
REMARK    3  A    between atoms: C7_7  and  C8_8 
REMARK    4  A    between atoms: C8_8  and  O9_9 
ROOT
HETATM    1  C1  UNL     1     -32.435   8.998   0.892  1.00 20.00    -0.111 C 
HETATM    2  C2  UNL     1     -32.623   8.113   1.682  1.00 20.00    -0.107 C 
HETATM    3  C3  UNL     1     -32.204  10.074  -0.068  1.00 20.00     0.112 C 
ENDROOT
BRANCH   2   4
HETATM    4  C6  UNL     1     -32.856   7.031   2.650  1.00 20.00     0.100 C 
BRANCH   4   5
HETATM    5  C7  UNL     1     -33.964   7.350   3.673  1.00 20.00     0.021 C 
HETATM    6  C4  UNL     1     -33.401   8.154   4.858  1.00 20.00     0.013 C 
BRANCH   5   7
HETATM    7  C8  UNL     1     -34.743   6.110   4.170  1.00 20.00     0.118 C 
HETATM    8  C5  UNL     1     -34.134   4.787   3.720  1.00 20.00     0.040 C 
BRANCH   7   9
HETATM    9  O9  UNL     1     -36.075   6.176   3.655  1.00 20.00    -0.396 OA
HETATM   10  H23 UNL     1     -36.342   5.263   3.474  1.00 20.00     0.210 HD
ENDBRANCH   7   9
ENDBRANCH   5   7
ENDBRANCH   4   5
ENDBRANCH   2   4
TORSDOF 4
ENDMDL
MODEL 6
REMARK VINA RESULT:      -2.0      1.497      1.755
REMARK  4 active torsions:
REMARK  status: ('A' for Active; 'I' for Inactive)
REMARK    1  A    between atoms: C2_2  and  C6_6 
REMARK    2  A    between atoms: C6_6  and  C7_7 
REMARK    3  A    between atoms: C7_7  and  C8_8 
REMARK    4  A    between atoms: C8_8  and  O9_9 
ROOT
HETATM    1  C1  UNL     1     -32.361   9.384   0.603  1.00 20.00    -0.111 C 
HETATM    2  C2  UNL     1     -32.367   8.555   1.471  1.00 20.00    -0.107 C 
HETATM    3  C3  UNL     1     -32.349  10.393  -0.454  1.00 20.00     0.112 C 
ENDROOT
BRANCH   2   4
HETATM    4  C6  UNL     1     -32.378   7.542   2.537  1.00 20.00     0.100 C 
BRANCH   4   5
HETATM    5  C7  UNL     1     -33.722   7.453   3.288  1.00 20.00     0.021 C 
HETATM    6  C4  UNL     1     -33.567   7.921   4.745  1.00 20.00     0.013 C 
BRANCH   5   7
HETATM    7  C8  UNL     1     -34.391   6.060   3.225  1.00 20.00     0.118 C 
HETATM    8  C5  UNL     1     -35.397   5.817   4.345  1.00 20.00     0.040 C 
BRANCH   7   9
HETATM    9  O9  UNL     1     -33.370   5.064   3.330  1.00 20.00    -0.396 OA
HETATM   10  H23 UNL     1     -32.918   5.049   2.474  1.00 20.00     0.210 HD
ENDBRANCH   7   9
ENDBRANCH   5   7
ENDBRANCH   4   5
ENDBRANCH   2   4
TORSDOF 4
ENDMDL
MODEL 7
REMARK VINA RESULT:      -1.8      2.434      4.854
REMARK  4 active torsions:
REMARK  status: ('A' for Active; 'I' for Inactive)
REMARK    1  A    between atoms: C2_2  and  C6_6 
REMARK    2  A    between atoms: C6_6  and  C7_7 
REMARK    3  A    between atoms: C7_7  and  C8_8 
REMARK    4  A    between atoms: C8_8  and  O9_9 
ROOT
HETATM    1  C1  UNL     1     -33.576   4.064   4.078  1.00 20.00    -0.111 C 
HETATM    2  C2  UNL     1     -33.744   5.143   3.579  1.00 20.00    -0.107 C 
HETATM    3  C3  UNL     1     -33.371   2.752   4.689  1.00 20.00     0.112 C 
ENDROOT
BRANCH   2   4
HETATM    4  C6  UNL     1     -33.947   6.463   2.965  1.00 20.00     0.100 C 
BRANCH   4   5
HETATM    5  C7  UNL     1     -33.063   6.707   1.725  1.00 20.00     0.021 C 
HETATM    6  C4  UNL     1     -32.383   5.404   1.272  1.00 20.00     0.013 C 
BRANCH   5   7
HETATM    7  C8  UNL     1     -32.023   7.838   1.902  1.00 20.00     0.118 C 
HETATM    8  C5  UNL     1     -32.039   8.469   3.290  1.00 20.00     0.040 C 
BRANCH   7   9
HETATM    9  O9  UNL     1     -32.308   8.867   0.951  1.00 20.00    -0.396 OA
HETATM   10  H23 UNL     1     -33.248   9.077   1.052  1.00 20.00     0.210 HD
ENDBRANCH   7   9
ENDBRANCH   5   7
ENDBRANCH   4   5
ENDBRANCH   2   4
TORSDOF 4
ENDMDL
MODEL 8
REMARK VINA RESULT:      -1.6      2.869      5.266
REMARK  4 active torsions:
REMARK  status: ('A' for Active; 'I' for Inactive)
REMARK    1  A    between atoms: C2_2  and  C6_6 
REMARK    2  A    between atoms: C6_6  and  C7_7 
REMARK    3  A    between atoms: C7_7  and  C8_8 
REMARK    4  A    between atoms: C8_8  and  O9_9 
ROOT
HETATM    1  C1  UNL     1     -34.626   6.392   3.974  1.00 20.00    -0.111 C 
HETATM    2  C2  UNL     1     -33.865   7.218   3.548  1.00 20.00    -0.107 C 
HETATM    3  C3  UNL     1     -35.549   5.385   4.494  1.00 20.00     0.112 C 
ENDROOT
BRANCH   2   4
HETATM    4  C6  UNL     1     -32.936   8.229   3.023  1.00 20.00     0.100 C 
BRANCH   4   5
HETATM    5  C7  UNL     1     -32.570   8.017   1.540  1.00 20.00     0.021 C 
HETATM    6  C4  UNL     1     -31.821   6.688   1.346  1.00 20.00     0.013 C 
BRANCH   5   7
HETATM    7  C8  UNL     1     -31.784   9.189   0.908  1.00 20.00     0.118 C 
HETATM    8  C5  UNL     1     -32.678  10.271   0.312  1.00 20.00     0.040 C 
BRANCH   7   9
HETATM    9  O9  UNL     1     -30.966   8.670  -0.143  1.00 20.00    -0.396 OA
HETATM   10  H23 UNL     1     -30.053   8.900   0.084  1.00 20.00     0.210 HD
ENDBRANCH   7   9
ENDBRANCH   5   7
ENDBRANCH   4   5
ENDBRANCH   2   4
TORSDOF 4
ENDMDL
MODEL 9
REMARK VINA RESULT:      -1.4      1.495      1.969
REMARK  4 active torsions:
REMARK  status: ('A' for Active; 'I' for Inactive)
REMARK    1  A    between atoms: C2_2  and  C6_6 
REMARK    2  A    between atoms: C6_6  and  C7_7 
REMARK    3  A    between atoms: C7_7  and  C8_8 
REMARK    4  A    between atoms: C8_8  and  O9_9 
ROOT
HETATM    1  C1  UNL     1     -32.441   9.584   0.370  1.00 20.00    -0.111 C 
HETATM    2  C2  UNL     1     -32.338   8.932   1.373  1.00 20.00    -0.107 C 
HETATM    3  C3  UNL     1     -32.569  10.380  -0.849  1.00 20.00     0.112 C 
ENDROOT
BRANCH   2   4
HETATM    4  C6  UNL     1     -32.211   8.129   2.598  1.00 20.00     0.100 C 
BRANCH   4   5
HETATM    5  C7  UNL     1     -33.379   7.147   2.814  1.00 20.00     0.021 C 
HETATM    6  C4  UNL     1     -34.083   7.418   4.154  1.00 20.00     0.013 C 
BRANCH   5   7
HETATM    7  C8  UNL     1     -32.984   5.657   2.692  1.00 20.00     0.118 C 
HETATM    8  C5  UNL     1     -32.843   5.180   1.250  1.00 20.00     0.040 C 
BRANCH   7   9
HETATM    9  O9  UNL     1     -33.999   4.867   3.316  1.00 20.00    -0.396 OA
HETATM   10  H23 UNL     1     -33.946   3.988   2.913  1.00 20.00     0.210 HD
ENDBRANCH   7   9
ENDBRANCH   5   7
ENDBRANCH   4   5
ENDBRANCH   2   4
TORSDOF 4
ENDMDL
