MODEL 1
REMARK VINA RESULT:      -0.6      0.000      0.000
REMARK  3 active torsions:
REMARK  status: ('A' for Active; 'I' for Inactive)
REMARK    1  A    between atoms: C2_2  and  C10_10 
REMARK    2  A    between atoms: C7_7  and  N11_11 
REMARK    3  A    between atoms: C10_10  and  N11_11 
ROOT
HETATM    1  C1  UNL     1     -32.357   9.727   0.401  1.00 20.00    -0.109 C 
HETATM    2  C2  UNL     1     -32.186   8.751   1.081  1.00 20.00    -0.077 C 
HETATM    3  C8  UNL     1     -32.565  10.914  -0.425  1.00 20.00     0.112 C 
ENDROOT
BRANCH   2   4
HETATM    4  C10 UNL     1     -31.983   7.562   1.914  1.00 20.00     0.363 C 
BRANCH   4   5
HETATM    5  N11 UNL     1     -33.120   6.664   1.823  1.00 20.00     0.103 N 
HETATM    6  H28 UNL     1     -33.840   7.080   1.240  1.00 20.00     0.318 HD
BRANCH   5   7
HETATM    7  C7  UNL     1     -33.676   6.414   3.134  1.00 20.00     0.155 C 
HETATM    8  C5  UNL     1     -33.505   4.944   3.534  1.00 20.00     0.041 C 
HETATM    9  C3  UNL     1     -34.600   4.683   4.566  1.00 20.00     0.003 C 
HETATM   10  C4  UNL     1     -35.690   5.721   4.302  1.00 20.00     0.003 C 
HETATM   11  C6  UNL     1     -35.201   6.561   3.124  1.00 20.00     0.041 C 
HETATM   12  C9  UNL     1     -33.021   7.359   4.148  1.00 20.00     0.049 C 
ENDBRANCH   5   7
ENDBRANCH   4   5
ENDBRANCH   2   4
TORSDOF 3
ENDMDL
MODEL 2
REMARK VINA RESULT:      -0.5      0.968      1.765
REMARK  3 active torsions:
REMARK  status: ('A' for Active; 'I' for Inactive)
REMARK    1  A    between atoms: C2_2  and  C10_10 
REMARK    2  A    between atoms: C7_7  and  N11_11 
REMARK    3  A    between atoms: C10_10  and  N11_11 
ROOT
HETATM    1  C1  UNL     1     -32.450   9.574   0.325  1.00 20.00    -0.109 C 
HETATM    2  C2  UNL     1     -32.134   8.838   1.221  1.00 20.00    -0.077 C 
HETATM    3  C8  UNL     1     -32.835  10.470  -0.764  1.00 20.00     0.112 C 
ENDROOT
BRANCH   2   4
HETATM    4  C10 UNL     1     -31.754   7.937   2.312  1.00 20.00     0.363 C 
BRANCH   4   5
HETATM    5  N11 UNL     1     -31.926   6.549   1.923  1.00 20.00     0.103 N 
HETATM    6  H28 UNL     1     -31.812   6.458   0.917  1.00 20.00     0.318 HD
BRANCH   5   7
HETATM    7  C7  UNL     1     -33.245   6.080   2.282  1.00 20.00     0.155 C 
HETATM    8  C5  UNL     1     -33.977   7.106   3.155  1.00 20.00     0.041 C 
HETATM    9  C3  UNL     1     -35.013   6.299   3.933  1.00 20.00     0.003 C 
HETATM   10  C4  UNL     1     -34.491   4.863   3.976  1.00 20.00     0.003 C 
HETATM   11  C6  UNL     1     -33.164   4.871   3.221  1.00 20.00     0.041 C 
HETATM   12  C9  UNL     1     -34.030   5.756   1.006  1.00 20.00     0.049 C 
ENDBRANCH   5   7
ENDBRANCH   4   5
ENDBRANCH   2   4
TORSDOF 3
ENDMDL
MODEL 3
REMARK VINA RESULT:       0.1      0.784      1.663
REMARK  3 active torsions:
REMARK  status: ('A' for Active; 'I' for Inactive)
REMARK    1  A    between atoms: C2_2  and  C10_10 
REMARK    2  A    between atoms: C7_7  and  N11_11 
REMARK    3  A    between atoms: C10_10  and  N11_11 
ROOT
HETATM    1  C1  UNL     1     -32.350   9.398   0.543  1.00 20.00    -0.109 C 
HETATM    2  C2  UNL     1     -32.049   8.341   1.030  1.00 20.00    -0.077 C 
HETATM    3  C8  UNL     1     -32.718  10.682  -0.049  1.00 20.00     0.112 C 
ENDROOT
BRANCH   2   4
HETATM    4  C10 UNL     1     -31.678   7.050   1.617  1.00 20.00     0.363 C 
BRANCH   4   5
HETATM    5  N11 UNL     1     -32.794   6.122   1.574  1.00 20.00     0.103 N 
HETATM    6  H28 UNL     1     -33.454   6.410   0.858  1.00 20.00     0.318 HD
BRANCH   5   7
HETATM    7  C7  UNL     1     -33.479   6.092   2.847  1.00 20.00     0.155 C 
HETATM    8  C5  UNL     1     -34.981   6.342   2.671  1.00 20.00     0.041 C 
HETATM    9  C3  UNL     1     -35.456   6.877   4.019  1.00 20.00     0.003 C 
HETATM   10  C4  UNL     1     -34.225   7.479   4.697  1.00 20.00     0.003 C 
HETATM   11  C6  UNL     1     -33.065   7.278   3.724  1.00 20.00     0.041 C 
HETATM   12  C9  UNL     1     -33.203   4.751   3.537  1.00 20.00     0.049 C 
ENDBRANCH   5   7
ENDBRANCH   4   5
ENDBRANCH   2   4
TORSDOF 3
ENDMDL
MODEL 4
REMARK VINA RESULT:       0.4      1.384      5.077
REMARK  3 active torsions:
REMARK  status: ('A' for Active; 'I' for Inactive)
REMARK    1  A    between atoms: C2_2  and  C10_10 
REMARK    2  A    between atoms: C7_7  and  N11_11 
REMARK    3  A    between atoms: C10_10  and  N11_11 
ROOT
HETATM    1  C1  UNL     1     -33.942   3.863   4.412  1.00 20.00    -0.109 C 
HETATM    2  C2  UNL     1     -34.489   4.928   4.308  1.00 20.00    -0.077 C 
HETATM    3  C8  UNL     1     -33.277   2.568   4.539  1.00 20.00     0.112 C 
ENDROOT
BRANCH   2   4
HETATM    4  C10 UNL     1     -35.152   6.230   4.186  1.00 20.00     0.363 C 
BRANCH   4   5
HETATM    5  N11 UNL     1     -34.891   6.825   2.888  1.00 20.00     0.103 N 
HETATM    6  H28 UNL     1     -35.003   6.124   2.161  1.00 20.00     0.318 HD
BRANCH   5   7
HETATM    7  C7  UNL     1     -33.543   7.343   2.827  1.00 20.00     0.155 C 
HETATM    8  C5  UNL     1     -33.464   8.568   1.909  1.00 20.00     0.041 C 
HETATM    9  C3  UNL     1     -32.007   8.633   1.458  1.00 20.00     0.003 C 
HETATM   10  C4  UNL     1     -31.455   7.214   1.593  1.00 20.00     0.003 C 
HETATM   11  C6  UNL     1     -32.605   6.359   2.119  1.00 20.00     0.041 C 
HETATM   12  C9  UNL     1     -33.062   7.665   4.247  1.00 20.00     0.049 C 
ENDBRANCH   5   7
ENDBRANCH   4   5
ENDBRANCH   2   4
TORSDOF 3
ENDMDL
MODEL 5
REMARK VINA RESULT:       0.4      1.292      5.229
REMARK  3 active torsions:
REMARK  status: ('A' for Active; 'I' for Inactive)
REMARK    1  A    between atoms: C2_2  and  C10_10 
REMARK    2  A    between atoms: C7_7  and  N11_11 
REMARK    3  A    between atoms: C10_10  and  N11_11 
ROOT
HETATM    1  C1  UNL     1     -33.744   4.108   4.234  1.00 20.00    -0.109 C 
HETATM    2  C2  UNL     1     -34.036   5.226   3.902  1.00 20.00    -0.077 C 
HETATM    3  C8  UNL     1     -33.389   2.749   4.639  1.00 20.00     0.112 C 
ENDROOT
BRANCH   2   4
HETATM    4  C10 UNL     1     -34.386   6.589   3.493  1.00 20.00     0.363 C 
BRANCH   4   5
HETATM    5  N11 UNL     1     -33.211   7.442   3.471  1.00 20.00     0.103 N 
HETATM    6  H28 UNL     1     -33.428   8.336   3.902  1.00 20.00     0.318 HD
BRANCH   5   7
HETATM    7  C7  UNL     1     -32.778   7.676   2.112  1.00 20.00     0.155 C 
HETATM    8  C5  UNL     1     -31.282   8.007   2.059  1.00 20.00     0.041 C 
HETATM    9  C3  UNL     1     -31.095   8.794   0.765  1.00 20.00     0.003 C 
HETATM   10  C4  UNL     1     -32.457   9.405   0.436  1.00 20.00     0.003 C 
HETATM   11  C6  UNL     1     -33.402   8.958   1.548  1.00 20.00     0.041 C 
HETATM   12  C9  UNL     1     -33.120   6.453   1.255  1.00 20.00     0.049 C 
ENDBRANCH   5   7
ENDBRANCH   4   5
ENDBRANCH   2   4
TORSDOF 3
ENDMDL
MODEL 6
REMARK VINA RESULT:       0.6      1.369      5.257
REMARK  3 active torsions:
REMARK  status: ('A' for Active; 'I' for Inactive)
REMARK    1  A    between atoms: C2_2  and  C10_10 
REMARK    2  A    between atoms: C7_7  and  N11_11 
REMARK    3  A    between atoms: C10_10  and  N11_11 
ROOT
HETATM    1  C1  UNL     1     -33.531   4.056   4.024  1.00 20.00    -0.109 C 
HETATM    2  C2  UNL     1     -33.678   5.052   3.367  1.00 20.00    -0.077 C 
HETATM    3  C8  UNL     1     -33.351   2.846   4.824  1.00 20.00     0.112 C 
ENDROOT
BRANCH   2   4
HETATM    4  C10 UNL     1     -33.856   6.262   2.560  1.00 20.00     0.363 C 
BRANCH   4   5
HETATM    5  N11 UNL     1     -33.408   7.439   3.283  1.00 20.00     0.103 N 
HETATM    6  H28 UNL     1     -34.203   8.033   3.498  1.00 20.00     0.318 HD
BRANCH   5   7
HETATM    7  C7  UNL     1     -32.468   8.196   2.487  1.00 20.00     0.155 C 
HETATM    8  C5  UNL     1     -33.176   9.314   1.713  1.00 20.00     0.041 C 
HETATM    9  C3  UNL     1     -32.269   9.611   0.523  1.00 20.00     0.003 C 
HETATM   10  C4  UNL     1     -31.445   8.344   0.288  1.00 20.00     0.003 C 
HETATM   11  C6  UNL     1     -31.895   7.343   1.349  1.00 20.00     0.041 C 
HETATM   12  C9  UNL     1     -31.364   8.745   3.397  1.00 20.00     0.049 C 
ENDBRANCH   5   7
ENDBRANCH   4   5
ENDBRANCH   2   4
TORSDOF 3
ENDMDL
MODEL 7
REMARK VINA RESULT:       0.9      1.909      5.093
REMARK  3 active torsions:
REMARK  status: ('A' for Active; 'I' for Inactive)
REMARK    1  A    between atoms: C2_2  and  C10_10 
REMARK    2  A    between atoms: C7_7  and  N11_11 
REMARK    3  A    between atoms: C10_10  and  N11_11 
ROOT
HETATM    1  C1  UNL     1     -33.827   3.659   4.440  1.00 20.00    -0.109 C 
HETATM    2  C2  UNL     1     -34.416   4.690   4.256  1.00 20.00    -0.077 C 
HETATM    3  C8  UNL     1     -33.109   2.406   4.666  1.00 20.00     0.112 C 
ENDROOT
BRANCH   2   4
HETATM    4  C10 UNL     1     -35.130   5.949   4.027  1.00 20.00     0.363 C 
BRANCH   4   5
HETATM    5  N11 UNL     1     -34.349   7.080   4.495  1.00 20.00     0.103 N 
HETATM    6  H28 UNL     1     -34.960   7.757   4.944  1.00 20.00     0.318 HD
BRANCH   5   7
HETATM    7  C7  UNL     1     -33.678   7.727   3.389  1.00 20.00     0.155 C 
HETATM    8  C5  UNL     1     -33.367   6.725   2.272  1.00 20.00     0.041 C 
HETATM    9  C3  UNL     1     -32.195   7.333   1.507  1.00 20.00     0.003 C 
HETATM   10  C4  UNL     1     -31.492   8.276   2.484  1.00 20.00     0.003 C 
HETATM   11  C6  UNL     1     -32.274   8.192   3.792  1.00 20.00     0.041 C 
HETATM   12  C9  UNL     1     -34.540   8.890   2.886  1.00 20.00     0.049 C 
ENDBRANCH   5   7
ENDBRANCH   4   5
ENDBRANCH   2   4
TORSDOF 3
ENDMDL
MODEL 8
REMARK VINA RESULT:       1.0      1.828      4.939
REMARK  3 active torsions:
REMARK  status: ('A' for Active; 'I' for Inactive)
REMARK    1  A    between atoms: C2_2  and  C10_10 
REMARK    2  A    between atoms: C7_7  and  N11_11 
REMARK    3  A    between atoms: C10_10  and  N11_11 
ROOT
HETATM    1  C1  UNL     1     -33.800   3.906   4.354  1.00 20.00    -0.109 C 
HETATM    2  C2  UNL     1     -34.153   5.020   4.072  1.00 20.00    -0.077 C 
HETATM    3  C8  UNL     1     -33.370   2.552   4.697  1.00 20.00     0.112 C 
ENDROOT
BRANCH   2   4
HETATM    4  C10 UNL     1     -34.577   6.380   3.730  1.00 20.00     0.363 C 
BRANCH   4   5
HETATM    5  N11 UNL     1     -33.433   7.217   3.416  1.00 20.00     0.103 N 
HETATM    6  H28 UNL     1     -33.713   8.193   3.411  1.00 20.00     0.318 HD
BRANCH   5   7
HETATM    7  C7  UNL     1     -32.900   6.882   2.115  1.00 20.00     0.155 C 
HETATM    8  C5  UNL     1     -33.968   6.225   1.234  1.00 20.00     0.041 C 
HETATM    9  C3  UNL     1     -33.190   5.408   0.207  1.00 20.00     0.003 C 
HETATM   10  C4  UNL     1     -31.829   5.115   0.838  1.00 20.00     0.003 C 
HETATM   11  C6  UNL     1     -31.851   5.769   2.217  1.00 20.00     0.041 C 
HETATM   12  C9  UNL     1     -32.326   8.146   1.464  1.00 20.00     0.049 C 
ENDBRANCH   5   7
ENDBRANCH   4   5
ENDBRANCH   2   4
TORSDOF 3
ENDMDL
MODEL 9
REMARK VINA RESULT:       1.2      1.787      2.505
REMARK  3 active torsions:
REMARK  status: ('A' for Active; 'I' for Inactive)
REMARK    1  A    between atoms: C2_2  and  C10_10 
REMARK    2  A    between atoms: C7_7  and  N11_11 
REMARK    3  A    between atoms: C10_10  and  N11_11 
ROOT
HETATM    1  C1  UNL     1     -32.464   9.699   0.316  1.00 20.00    -0.109 C 
HETATM    2  C2  UNL     1     -32.189   8.961   1.223  1.00 20.00    -0.077 C 
HETATM    3  C8  UNL     1     -32.800  10.598  -0.786  1.00 20.00     0.112 C 
ENDROOT
BRANCH   2   4
HETATM    4  C10 UNL     1     -31.858   8.055   2.327  1.00 20.00     0.363 C 
BRANCH   4   5
HETATM    5  N11 UNL     1     -33.040   7.353   2.795  1.00 20.00     0.103 N 
HETATM    6  H28 UNL     1     -33.008   7.264   3.806  1.00 20.00     0.318 HD
BRANCH   5   7
HETATM    7  C7  UNL     1     -33.107   6.030   2.216  1.00 20.00     0.155 C 
HETATM    8  C5  UNL     1     -31.731   5.578   1.712  1.00 20.00     0.041 C 
HETATM    9  C3  UNL     1     -32.025   4.530   0.642  1.00 20.00     0.003 C 
HETATM   10  C4  UNL     1     -33.436   4.823   0.134  1.00 20.00     0.003 C 
HETATM   11  C6  UNL     1     -33.928   6.034   0.922  1.00 20.00     0.041 C 
HETATM   12  C9  UNL     1     -33.681   5.056   3.251  1.00 20.00     0.049 C 
ENDBRANCH   5   7
ENDBRANCH   4   5
ENDBRANCH   2   4
TORSDOF 3
ENDMDL
