MODEL 1
REMARK VINA RESULT:      -2.3      0.000      0.000
REMARK  2 active torsions:
REMARK  status: ('A' for Active; 'I' for Inactive)
REMARK    1  A    between atoms: C1_1  and  C5_5 
REMARK    2  A    between atoms: C6_6  and  C7_7 
ROOT
HETATM    1  C4  UNL     1     -31.896   6.589   1.419  1.00 20.00     0.021 A 
HETATM    2  C5  UNL     1     -31.978   8.028   1.859  1.00 20.00     0.091 A 
HETATM    3  C7  UNL     1     -33.168   7.106   2.039  1.00 20.00     0.005 A 
ENDROOT
BRANCH   2   4
HETATM    4  C1  UNL     1     -32.065   9.042   0.828  1.00 20.00     0.177 C 
HETATM    5  O8  UNL     1     -32.845  10.001   1.081  1.00 20.00    -0.648 OA
HETATM    6  O9  UNL     1     -31.346   8.829  -0.187  1.00 20.00    -0.648 OA
ENDBRANCH   2   4
BRANCH   3   7
HETATM    7  C6  UNL     1     -33.652   6.660   3.410  1.00 20.00    -0.010 A 
HETATM    8  C2  UNL     1     -34.326   7.595   4.375  1.00 20.00     0.005 A 
HETATM    9  C3  UNL     1     -35.109   6.482   3.736  1.00 20.00     0.005 A 
ENDBRANCH   3   7
TORSDOF 2
ENDMDL
MODEL 2
REMARK VINA RESULT:      -2.2      2.601      4.021
REMARK  2 active torsions:
REMARK  status: ('A' for Active; 'I' for Inactive)
REMARK    1  A    between atoms: C1_1  and  C5_5 
REMARK    2  A    between atoms: C6_6  and  C7_7 
ROOT
HETATM    1  C4  UNL     1     -31.982   8.119   2.784  1.00 20.00     0.021 A 
HETATM    2  C5  UNL     1     -31.970   7.101   1.674  1.00 20.00     0.091 A 
HETATM    3  C7  UNL     1     -32.618   8.454   1.461  1.00 20.00     0.005 A 
ENDROOT
BRANCH   2   4
HETATM    4  C1  UNL     1     -32.844   5.952   1.807  1.00 20.00     0.177 C 
HETATM    5  O8  UNL     1     -33.637   5.989   2.789  1.00 20.00    -0.648 OA
HETATM    6  O9  UNL     1     -32.695   5.067   0.919  1.00 20.00    -0.648 OA
ENDBRANCH   2   4
BRANCH   3   7
HETATM    7  C6  UNL     1     -32.039   9.493   0.513  1.00 20.00    -0.010 A 
HETATM    8  C2  UNL     1     -32.743   9.923  -0.745  1.00 20.00     0.005 A 
HETATM    9  C3  UNL     1     -32.595  10.885   0.399  1.00 20.00     0.005 A 
ENDBRANCH   3   7
TORSDOF 2
ENDMDL
MODEL 3
REMARK VINA RESULT:      -1.8      3.359      4.730
REMARK  2 active torsions:
REMARK  status: ('A' for Active; 'I' for Inactive)
REMARK    1  A    between atoms: C1_1  and  C5_5 
REMARK    2  A    between atoms: C6_6  and  C7_7 
ROOT
HETATM    1  C4  UNL     1     -34.263   7.272   3.747  1.00 20.00     0.021 A 
HETATM    2  C5  UNL     1     -33.637   5.917   3.944  1.00 20.00     0.091 A 
HETATM    3  C7  UNL     1     -33.681   6.543   2.565  1.00 20.00     0.005 A 
ENDROOT
BRANCH   2   4
HETATM    4  C1  UNL     1     -34.522   4.799   4.202  1.00 20.00     0.177 C 
HETATM    5  O8  UNL     1     -33.997   3.657   4.081  1.00 20.00    -0.648 OA
HETATM    6  O9  UNL     1     -35.702   5.118   4.515  1.00 20.00    -0.648 OA
ENDBRANCH   2   4
BRANCH   3   7
HETATM    7  C6  UNL     1     -32.428   7.016   1.845  1.00 20.00    -0.010 A 
HETATM    8  C2  UNL     1     -32.389   8.282   1.034  1.00 20.00     0.005 A 
HETATM    9  C3  UNL     1     -31.615   8.189   2.320  1.00 20.00     0.005 A 
ENDBRANCH   3   7
TORSDOF 2
ENDMDL
MODEL 4
REMARK VINA RESULT:      -1.8      3.347      4.605
REMARK  2 active torsions:
REMARK  status: ('A' for Active; 'I' for Inactive)
REMARK    1  A    between atoms: C1_1  and  C5_5 
REMARK    2  A    between atoms: C6_6  and  C7_7 
ROOT
HETATM    1  C4  UNL     1     -34.261   7.295   3.763  1.00 20.00     0.021 A 
HETATM    2  C5  UNL     1     -33.635   5.939   3.951  1.00 20.00     0.091 A 
HETATM    3  C7  UNL     1     -33.674   6.577   2.577  1.00 20.00     0.005 A 
ENDROOT
BRANCH   2   4
HETATM    4  C1  UNL     1     -34.519   4.818   4.195  1.00 20.00     0.177 C 
HETATM    5  O8  UNL     1     -35.703   5.124   4.512  1.00 20.00    -0.648 OA
HETATM    6  O9  UNL     1     -33.986   3.682   4.058  1.00 20.00    -0.648 OA
ENDBRANCH   2   4
BRANCH   3   7
HETATM    7  C6  UNL     1     -32.419   7.058   1.866  1.00 20.00    -0.010 A 
HETATM    8  C2  UNL     1     -32.377   8.333   1.069  1.00 20.00     0.005 A 
HETATM    9  C3  UNL     1     -31.608   8.226   2.356  1.00 20.00     0.005 A 
ENDBRANCH   3   7
TORSDOF 2
ENDMDL
MODEL 5
REMARK VINA RESULT:      -1.8      2.247      3.892
REMARK  2 active torsions:
REMARK  status: ('A' for Active; 'I' for Inactive)
REMARK    1  A    between atoms: C1_1  and  C5_5 
REMARK    2  A    between atoms: C6_6  and  C7_7 
ROOT
HETATM    1  C4  UNL     1     -32.012   6.513   1.521  1.00 20.00     0.021 A 
HETATM    2  C5  UNL     1     -33.303   7.164   1.943  1.00 20.00     0.091 A 
HETATM    3  C7  UNL     1     -32.021   7.970   1.902  1.00 20.00     0.005 A 
ENDROOT
BRANCH   2   4
HETATM    4  C1  UNL     1     -33.836   6.817   3.245  1.00 20.00     0.177 C 
HETATM    5  O8  UNL     1     -34.101   7.796   3.997  1.00 20.00    -0.648 OA
HETATM    6  O9  UNL     1     -33.964   5.578   3.453  1.00 20.00    -0.648 OA
ENDBRANCH   2   4
BRANCH   3   7
HETATM    7  C6  UNL     1     -31.791   9.083   0.891  1.00 20.00    -0.010 A 
HETATM    8  C2  UNL     1     -32.691   9.299  -0.294  1.00 20.00     0.005 A 
HETATM    9  C3  UNL     1     -32.663  10.307   0.821  1.00 20.00     0.005 A 
ENDBRANCH   3   7
TORSDOF 2
ENDMDL
MODEL 6
REMARK VINA RESULT:      -1.3      2.763      3.788
REMARK  2 active torsions:
REMARK  status: ('A' for Active; 'I' for Inactive)
REMARK    1  A    between atoms: C1_1  and  C5_5 
REMARK    2  A    between atoms: C6_6  and  C7_7 
ROOT
HETATM    1  C4  UNL     1     -35.424   5.922   4.030  1.00 20.00     0.021 A 
HETATM    2  C5  UNL     1     -34.169   6.225   3.255  1.00 20.00     0.091 A 
HETATM    3  C7  UNL     1     -34.139   5.225   4.393  1.00 20.00     0.005 A 
ENDROOT
BRANCH   2   4
HETATM    4  C1  UNL     1     -33.538   7.511   3.475  1.00 20.00     0.177 C 
HETATM    5  O8  UNL     1     -33.931   8.136   4.499  1.00 20.00    -0.648 OA
HETATM    6  O9  UNL     1     -32.676   7.833   2.610  1.00 20.00    -0.648 OA
ENDBRANCH   2   4
BRANCH   3   7
HETATM    7  C6  UNL     1     -33.921   3.737   4.163  1.00 20.00    -0.010 A 
HETATM    8  C2  UNL     1     -32.566   3.153   3.874  1.00 20.00     0.005 A 
HETATM    9  C3  UNL     1     -33.251   2.851   5.177  1.00 20.00     0.005 A 
ENDBRANCH   3   7
TORSDOF 2
ENDMDL
MODEL 7
REMARK VINA RESULT:      -1.1      2.685      3.439
REMARK  2 active torsions:
REMARK  status: ('A' for Active; 'I' for Inactive)
REMARK    1  A    between atoms: C1_1  and  C5_5 
REMARK    2  A    between atoms: C6_6  and  C7_7 
ROOT
HETATM    1  C4  UNL     1     -34.487   6.350   3.688  1.00 20.00     0.021 A 
HETATM    2  C5  UNL     1     -33.754   5.723   2.532  1.00 20.00     0.091 A 
HETATM    3  C7  UNL     1     -33.482   5.260   3.949  1.00 20.00     0.005 A 
ENDROOT
BRANCH   2   4
HETATM    4  C1  UNL     1     -32.731   6.512   1.876  1.00 20.00     0.177 C 
HETATM    5  O8  UNL     1     -32.722   7.738   2.177  1.00 20.00    -0.648 OA
HETATM    6  O9  UNL     1     -31.984   5.865   1.091  1.00 20.00    -0.648 OA
ENDBRANCH   2   4
BRANCH   3   7
HETATM    7  C6  UNL     1     -33.882   3.879   4.445  1.00 20.00    -0.010 A 
HETATM    8  C2  UNL     1     -33.119   2.635   4.081  1.00 20.00     0.005 A 
HETATM    9  C3  UNL     1     -33.103   3.138   5.497  1.00 20.00     0.005 A 
ENDBRANCH   3   7
TORSDOF 2
ENDMDL
MODEL 8
REMARK VINA RESULT:      -1.1      1.987      2.668
REMARK  2 active torsions:
REMARK  status: ('A' for Active; 'I' for Inactive)
REMARK    1  A    between atoms: C1_1  and  C5_5 
REMARK    2  A    between atoms: C6_6  and  C7_7 
ROOT
HETATM    1  C4  UNL     1     -31.585   8.684   2.272  1.00 20.00     0.021 A 
HETATM    2  C5  UNL     1     -32.749   8.910   1.344  1.00 20.00     0.091 A 
HETATM    3  C7  UNL     1     -31.947   7.627   1.262  1.00 20.00     0.005 A 
ENDROOT
BRANCH   2   4
HETATM    4  C1  UNL     1     -32.581   9.875   0.276  1.00 20.00     0.177 C 
HETATM    5  O8  UNL     1     -32.809   9.438  -0.886  1.00 20.00    -0.648 OA
HETATM    6  O9  UNL     1     -32.228  11.027   0.654  1.00 20.00    -0.648 OA
ENDBRANCH   2   4
BRANCH   3   7
HETATM    7  C6  UNL     1     -32.526   6.278   1.660  1.00 20.00    -0.010 A 
HETATM    8  C2  UNL     1     -33.219   5.373   0.679  1.00 20.00     0.005 A 
HETATM    9  C3  UNL     1     -31.892   4.974   1.260  1.00 20.00     0.005 A 
ENDBRANCH   3   7
TORSDOF 2
ENDMDL
MODEL 9
REMARK VINA RESULT:      -1.1      1.561      2.344
REMARK  2 active torsions:
REMARK  status: ('A' for Active; 'I' for Inactive)
REMARK    1  A    between atoms: C1_1  and  C5_5 
REMARK    2  A    between atoms: C6_6  and  C7_7 
ROOT
HETATM    1  C4  UNL     1     -33.753   7.774   3.734  1.00 20.00     0.021 A 
HETATM    2  C5  UNL     1     -33.473   7.481   2.284  1.00 20.00     0.091 A 
HETATM    3  C7  UNL     1     -33.314   6.392   3.326  1.00 20.00     0.005 A 
ENDROOT
BRANCH   2   4
HETATM    4  C1  UNL     1     -32.266   8.038   1.707  1.00 20.00     0.177 C 
HETATM    5  O8  UNL     1     -31.253   7.285   1.745  1.00 20.00    -0.648 OA
HETATM    6  O9  UNL     1     -32.390   9.205   1.242  1.00 20.00    -0.648 OA
ENDBRANCH   2   4
BRANCH   3   7
HETATM    7  C6  UNL     1     -34.238   5.186   3.390  1.00 20.00    -0.010 A 
HETATM    8  C2  UNL     1     -33.952   3.991   4.258  1.00 20.00     0.005 A 
HETATM    9  C3  UNL     1     -35.109   4.895   4.581  1.00 20.00     0.005 A 
ENDBRANCH   3   7
TORSDOF 2
ENDMDL
