MODEL 1
REMARK VINA RESULT:      -2.4      0.000      0.000
REMARK  3 active torsions:
REMARK  status: ('A' for Active; 'I' for Inactive)
REMARK    1  A    between atoms: C2_2  and  C9_9 
REMARK    2  A    between atoms: C6_6  and  C9_9 
REMARK    3  A    between atoms: C7_7  and  O10_10 
ROOT
HETATM    1  C1  UNL     1     -33.805   3.802   4.422  1.00 20.00    -0.111 C 
HETATM    2  C2  UNL     1     -34.378   4.814   4.119  1.00 20.00    -0.107 C 
HETATM    3  C8  UNL     1     -33.110   2.571   4.790  1.00 20.00     0.112 C 
ENDROOT
BRANCH   2   4
HETATM    4  C9  UNL     1     -35.073   6.053   3.752  1.00 20.00     0.101 C 
BRANCH   4   5
HETATM    5  C6  UNL     1     -34.153   6.998   2.996  1.00 20.00     0.025 C 
HETATM    6  C4  UNL     1     -33.365   7.931   3.912  1.00 20.00     0.008 C 
HETATM    7  C3  UNL     1     -32.167   8.382   3.074  1.00 20.00     0.003 C 
HETATM    8  C5  UNL     1     -32.066   7.402   1.906  1.00 20.00     0.032 C 
HETATM    9  C7  UNL     1     -33.044   6.279   2.231  1.00 20.00     0.123 C 
BRANCH   9  10
HETATM   10  O10 UNL     1     -33.545   5.670   1.056  1.00 20.00    -0.395 OA
HETATM   11  H24 UNL     1     -32.932   5.894   0.334  1.00 20.00     0.210 HD
ENDBRANCH   9  10
ENDBRANCH   4   5
ENDBRANCH   2   4
TORSDOF 3
ENDMDL
MODEL 2
REMARK VINA RESULT:      -1.7      1.994      4.875
REMARK  3 active torsions:
REMARK  status: ('A' for Active; 'I' for Inactive)
REMARK    1  A    between atoms: C2_2  and  C9_9 
REMARK    2  A    between atoms: C6_6  and  C9_9 
REMARK    3  A    between atoms: C7_7  and  O10_10 
ROOT
HETATM    1  C1  UNL     1     -32.362   9.394   0.671  1.00 20.00    -0.111 C 
HETATM    2  C2  UNL     1     -32.215   8.377   1.295  1.00 20.00    -0.107 C 
HETATM    3  C8  UNL     1     -32.541  10.630  -0.087  1.00 20.00     0.112 C 
ENDROOT
BRANCH   2   4
HETATM    4  C9  UNL     1     -32.040   7.136   2.057  1.00 20.00     0.101 C 
BRANCH   4   5
HETATM    5  C6  UNL     1     -33.379   6.572   2.505  1.00 20.00     0.025 C 
HETATM    6  C4  UNL     1     -33.306   5.102   2.912  1.00 20.00     0.008 C 
HETATM    7  C3  UNL     1     -34.530   4.883   3.803  1.00 20.00     0.003 C 
HETATM    8  C5  UNL     1     -35.014   6.271   4.221  1.00 20.00     0.032 C 
HETATM    9  C7  UNL     1     -33.922   7.234   3.768  1.00 20.00     0.123 C 
BRANCH   9  10
HETATM   10  O10 UNL     1     -34.447   8.518   3.487  1.00 20.00    -0.395 OA
HETATM   11  H24 UNL     1     -33.689   9.105   3.316  1.00 20.00     0.210 HD
ENDBRANCH   9  10
ENDBRANCH   4   5
ENDBRANCH   2   4
TORSDOF 3
ENDMDL
MODEL 3
REMARK VINA RESULT:      -1.7      1.714      4.425
REMARK  3 active torsions:
REMARK  status: ('A' for Active; 'I' for Inactive)
REMARK    1  A    between atoms: C2_2  and  C9_9 
REMARK    2  A    between atoms: C6_6  and  C9_9 
REMARK    3  A    between atoms: C7_7  and  O10_10 
ROOT
HETATM    1  C1  UNL     1     -32.306   8.528   1.030  1.00 20.00    -0.111 C 
HETATM    2  C2  UNL     1     -32.381   7.412   1.468  1.00 20.00    -0.107 C 
HETATM    3  C8  UNL     1     -32.215   9.886   0.498  1.00 20.00     0.112 C 
ENDROOT
BRANCH   2   4
HETATM    4  C9  UNL     1     -32.476   6.048   2.000  1.00 20.00     0.101 C 
BRANCH   4   5
HETATM    5  C6  UNL     1     -33.340   6.003   3.250  1.00 20.00     0.025 C 
HETATM    6  C4  UNL     1     -34.490   7.007   3.223  1.00 20.00     0.008 C 
HETATM    7  C3  UNL     1     -35.505   6.466   4.231  1.00 20.00     0.003 C 
HETATM    8  C5  UNL     1     -35.130   5.005   4.478  1.00 20.00     0.032 C 
HETATM    9  C7  UNL     1     -34.071   4.676   3.432  1.00 20.00     0.123 C 
BRANCH   9  10
HETATM   10  O10 UNL     1     -33.190   3.665   3.886  1.00 20.00    -0.395 OA
HETATM   11  H24 UNL     1     -32.823   3.966   4.735  1.00 20.00     0.210 HD
ENDBRANCH   9  10
ENDBRANCH   4   5
ENDBRANCH   2   4
TORSDOF 3
ENDMDL
MODEL 4
REMARK VINA RESULT:      -1.5      1.835      4.699
REMARK  3 active torsions:
REMARK  status: ('A' for Active; 'I' for Inactive)
REMARK    1  A    between atoms: C2_2  and  C9_9 
REMARK    2  A    between atoms: C6_6  and  C9_9 
REMARK    3  A    between atoms: C7_7  and  O10_10 
ROOT
HETATM    1  C1  UNL     1     -32.477   9.694   0.331  1.00 20.00    -0.111 C 
HETATM    2  C2  UNL     1     -31.954   8.824   0.974  1.00 20.00    -0.107 C 
HETATM    3  C8  UNL     1     -33.115  10.751  -0.451  1.00 20.00     0.112 C 
ENDROOT
BRANCH   2   4
HETATM    4  C9  UNL     1     -31.312   7.762   1.755  1.00 20.00     0.101 C 
BRANCH   4   5
HETATM    5  C6  UNL     1     -32.279   7.154   2.758  1.00 20.00     0.025 C 
HETATM    6  C4  UNL     1     -33.068   8.198   3.543  1.00 20.00     0.008 C 
HETATM    7  C3  UNL     1     -34.301   7.453   4.056  1.00 20.00     0.003 C 
HETATM    8  C5  UNL     1     -34.406   6.173   3.229  1.00 20.00     0.032 C 
HETATM    9  C7  UNL     1     -33.387   6.330   2.106  1.00 20.00     0.123 C 
BRANCH   9  10
HETATM   10  O10 UNL     1     -32.901   5.076   1.666  1.00 20.00    -0.395 OA
HETATM   11  H24 UNL     1     -32.212   5.254   1.001  1.00 20.00     0.210 HD
ENDBRANCH   9  10
ENDBRANCH   4   5
ENDBRANCH   2   4
TORSDOF 3
ENDMDL
MODEL 5
REMARK VINA RESULT:      -1.3      1.585      2.030
REMARK  3 active torsions:
REMARK  status: ('A' for Active; 'I' for Inactive)
REMARK    1  A    between atoms: C2_2  and  C9_9 
REMARK    2  A    between atoms: C6_6  and  C9_9 
REMARK    3  A    between atoms: C7_7  and  O10_10 
ROOT
HETATM    1  C1  UNL     1     -33.642   3.097   4.401  1.00 20.00    -0.111 C 
HETATM    2  C2  UNL     1     -33.998   4.190   4.051  1.00 20.00    -0.107 C 
HETATM    3  C8  UNL     1     -33.209   1.768   4.827  1.00 20.00     0.112 C 
ENDROOT
BRANCH   2   4
HETATM    4  C9  UNL     1     -34.428   5.525   3.623  1.00 20.00     0.101 C 
BRANCH   4   5
HETATM    5  C6  UNL     1     -33.238   6.391   3.240  1.00 20.00     0.025 C 
HETATM    6  C4  UNL     1     -32.894   6.317   1.754  1.00 20.00     0.008 C 
HETATM    7  C3  UNL     1     -32.093   7.591   1.475  1.00 20.00     0.003 C 
HETATM    8  C5  UNL     1     -32.358   8.532   2.649  1.00 20.00     0.032 C 
HETATM    9  C7  UNL     1     -33.486   7.884   3.443  1.00 20.00     0.123 C 
BRANCH   9  10
HETATM   10  O10 UNL     1     -33.423   8.231   4.813  1.00 20.00    -0.395 OA
HETATM   11  H24 UNL     1     -32.884   9.039   4.879  1.00 20.00     0.210 HD
ENDBRANCH   9  10
ENDBRANCH   4   5
ENDBRANCH   2   4
TORSDOF 3
ENDMDL
MODEL 6
REMARK VINA RESULT:      -0.5      1.776      2.794
REMARK  3 active torsions:
REMARK  status: ('A' for Active; 'I' for Inactive)
REMARK    1  A    between atoms: C2_2  and  C9_9 
REMARK    2  A    between atoms: C6_6  and  C9_9 
REMARK    3  A    between atoms: C7_7  and  O10_10 
ROOT
HETATM    1  C1  UNL     1     -34.683   6.361   4.084  1.00 20.00    -0.111 C 
HETATM    2  C2  UNL     1     -34.002   7.305   3.787  1.00 20.00    -0.107 C 
HETATM    3  C8  UNL     1     -35.512   5.213   4.446  1.00 20.00     0.112 C 
ENDROOT
BRANCH   2   4
HETATM    4  C9  UNL     1     -33.167   8.454   3.422  1.00 20.00     0.101 C 
BRANCH   4   5
HETATM    5  C6  UNL     1     -32.983   8.546   1.916  1.00 20.00     0.025 C 
HETATM    6  C4  UNL     1     -32.908   9.983   1.405  1.00 20.00     0.008 C 
HETATM    7  C3  UNL     1     -32.206   9.879   0.050  1.00 20.00     0.003 C 
HETATM    8  C5  UNL     1     -31.537   8.507   0.014  1.00 20.00     0.032 C 
HETATM    9  C7  UNL     1     -31.660   7.959   1.431  1.00 20.00     0.123 C 
BRANCH   9  10
HETATM   10  O10 UNL     1     -31.695   6.544   1.440  1.00 20.00    -0.395 OA
HETATM   11  H24 UNL     1     -32.304   6.269   0.732  1.00 20.00     0.210 HD
ENDBRANCH   9  10
ENDBRANCH   4   5
ENDBRANCH   2   4
TORSDOF 3
ENDMDL
MODEL 7
REMARK VINA RESULT:      -0.0      2.302      3.442
REMARK  3 active torsions:
REMARK  status: ('A' for Active; 'I' for Inactive)
REMARK    1  A    between atoms: C2_2  and  C9_9 
REMARK    2  A    between atoms: C6_6  and  C9_9 
REMARK    3  A    between atoms: C7_7  and  O10_10 
ROOT
HETATM    1  C1  UNL     1     -34.183   6.222   3.188  1.00 20.00    -0.111 C 
HETATM    2  C2  UNL     1     -33.282   6.299   2.397  1.00 20.00    -0.107 C 
HETATM    3  C8  UNL     1     -35.279   6.127   4.150  1.00 20.00     0.112 C 
ENDROOT
BRANCH   2   4
HETATM    4  C9  UNL     1     -32.183   6.399   1.430  1.00 20.00     0.101 C 
BRANCH   4   5
HETATM    5  C6  UNL     1     -31.868   7.849   1.101  1.00 20.00     0.025 C 
HETATM    6  C4  UNL     1     -32.547   8.338  -0.176  1.00 20.00     0.008 C 
HETATM    7  C3  UNL     1     -32.570   9.862  -0.048  1.00 20.00     0.003 C 
HETATM    8  C5  UNL     1     -32.312  10.175   1.425  1.00 20.00     0.032 C 
HETATM    9  C7  UNL     1     -32.391   8.833   2.145  1.00 20.00     0.123 C 
BRANCH   9  10
HETATM   10  O10 UNL     1     -31.586   8.820   3.309  1.00 20.00    -0.395 OA
HETATM   11  H24 UNL     1     -31.765   7.982   3.770  1.00 20.00     0.210 HD
ENDBRANCH   9  10
ENDBRANCH   4   5
ENDBRANCH   2   4
TORSDOF 3
ENDMDL
MODEL 8
REMARK VINA RESULT:       0.6      2.512      3.632
REMARK  3 active torsions:
REMARK  status: ('A' for Active; 'I' for Inactive)
REMARK    1  A    between atoms: C2_2  and  C9_9 
REMARK    2  A    between atoms: C6_6  and  C9_9 
REMARK    3  A    between atoms: C7_7  and  O10_10 
ROOT
HETATM    1  C1  UNL     1     -34.134   6.721   3.476  1.00 20.00    -0.111 C 
HETATM    2  C2  UNL     1     -33.180   7.193   2.918  1.00 20.00    -0.107 C 
HETATM    3  C8  UNL     1     -35.294   6.147   4.153  1.00 20.00     0.112 C 
ENDROOT
BRANCH   2   4
HETATM    4  C9  UNL     1     -32.017   7.774   2.239  1.00 20.00     0.101 C 
BRANCH   4   5
HETATM    5  C6  UNL     1     -32.441   8.639   1.062  1.00 20.00     0.025 C 
HETATM    6  C4  UNL     1     -33.192   9.900   1.483  1.00 20.00     0.008 C 
HETATM    7  C3  UNL     1     -33.050  10.854   0.295  1.00 20.00     0.003 C 
HETATM    8  C5  UNL     1     -31.907  10.310  -0.560  1.00 20.00     0.032 C 
HETATM    9  C7  UNL     1     -31.263   9.209   0.275  1.00 20.00     0.123 C 
BRANCH   9  10
HETATM   10  O10 UNL     1     -30.667   8.219  -0.541  1.00 20.00    -0.395 OA
HETATM   11  H24 UNL     1     -29.998   7.765   0.001  1.00 20.00     0.210 HD
ENDBRANCH   9  10
ENDBRANCH   4   5
ENDBRANCH   2   4
TORSDOF 3
ENDMDL
