MODEL 1
REMARK VINA RESULT:      -2.8      0.000      0.000
REMARK  4 active torsions:
REMARK  status: ('A' for Active; 'I' for Inactive)
REMARK    1  A    between atoms: C2_2  and  C7_7 
REMARK    2  A    between atoms: C3_3  and  C8_8 
REMARK    3  A    between atoms: C3_3  and  C9_9 
REMARK    4  A    between atoms: C7_7  and  C8_8 
ROOT
HETATM    1  C1  UNL     1     -33.896   3.822   4.451  1.00 20.00    -0.111 C 
HETATM    2  C2  UNL     1     -34.563   4.813   4.324  1.00 20.00    -0.107 C 
HETATM    3  C4  UNL     1     -33.084   2.617   4.610  1.00 20.00     0.112 C 
ENDROOT
BRANCH   2   4
HETATM    4  C7  UNL     1     -35.378   6.027   4.172  1.00 20.00     0.101 C 
BRANCH   4   5
HETATM    5  C8  UNL     1     -34.800   6.968   3.118  1.00 20.00     0.090 C 
BRANCH   5   6
HETATM    6  C3  UNL     1     -33.379   7.431   3.421  1.00 20.00     0.131 C 
HETATM    7  O10 UNL     1     -33.078   7.967   4.488  1.00 20.00    -0.298 OA
BRANCH   6   8
HETATM    8  C9  UNL     1     -32.344   7.190   2.325  1.00 20.00     0.047 C 
HETATM    9  C5  UNL     1     -32.758   5.984   1.490  1.00 20.00     0.017 C 
HETATM   10  C6  UNL     1     -32.175   8.429   1.451  1.00 20.00     0.017 C 
ENDBRANCH   6   8
ENDBRANCH   5   6
ENDBRANCH   4   5
ENDBRANCH   2   4
TORSDOF 4
ENDMDL
MODEL 2
REMARK VINA RESULT:      -2.7      1.889      4.893
REMARK  4 active torsions:
REMARK  status: ('A' for Active; 'I' for Inactive)
REMARK    1  A    between atoms: C2_2  and  C7_7 
REMARK    2  A    between atoms: C3_3  and  C8_8 
REMARK    3  A    between atoms: C3_3  and  C9_9 
REMARK    4  A    between atoms: C7_7  and  C8_8 
ROOT
HETATM    1  C1  UNL     1     -32.356   9.395   0.593  1.00 20.00    -0.111 C 
HETATM    2  C2  UNL     1     -32.064   8.351   1.111  1.00 20.00    -0.107 C 
HETATM    3  C4  UNL     1     -32.716  10.663  -0.038  1.00 20.00     0.112 C 
ENDROOT
BRANCH   2   4
HETATM    4  C7  UNL     1     -31.710   7.072   1.743  1.00 20.00     0.101 C 
BRANCH   4   5
HETATM    5  C8  UNL     1     -32.830   6.044   1.605  1.00 20.00     0.090 C 
BRANCH   5   6
HETATM    6  C3  UNL     1     -33.528   5.716   2.920  1.00 20.00     0.131 C 
HETATM    7  O10 UNL     1     -33.323   4.665   3.527  1.00 20.00    -0.298 OA
BRANCH   6   8
HETATM    8  C9  UNL     1     -34.499   6.770   3.447  1.00 20.00     0.047 C 
HETATM    9  C5  UNL     1     -35.625   6.087   4.214  1.00 20.00     0.017 C 
HETATM   10  C6  UNL     1     -33.777   7.787   4.325  1.00 20.00     0.017 C 
ENDBRANCH   6   8
ENDBRANCH   5   6
ENDBRANCH   4   5
ENDBRANCH   2   4
TORSDOF 4
ENDMDL
MODEL 3
REMARK VINA RESULT:      -2.6      0.435      1.198
REMARK  4 active torsions:
REMARK  status: ('A' for Active; 'I' for Inactive)
REMARK    1  A    between atoms: C2_2  and  C7_7 
REMARK    2  A    between atoms: C3_3  and  C8_8 
REMARK    3  A    between atoms: C3_3  and  C9_9 
REMARK    4  A    between atoms: C7_7  and  C8_8 
ROOT
HETATM    1  C1  UNL     1     -33.831   3.691   4.476  1.00 20.00    -0.111 C 
HETATM    2  C2  UNL     1     -34.546   4.655   4.439  1.00 20.00    -0.107 C 
HETATM    3  C4  UNL     1     -32.966   2.514   4.521  1.00 20.00     0.112 C 
ENDROOT
BRANCH   2   4
HETATM    4  C7  UNL     1     -35.424   5.834   4.395  1.00 20.00     0.101 C 
BRANCH   4   5
HETATM    5  C8  UNL     1     -35.108   6.730   3.201  1.00 20.00     0.090 C 
BRANCH   5   6
HETATM    6  C3  UNL     1     -33.678   7.261   3.192  1.00 20.00     0.131 C 
HETATM    7  O10 UNL     1     -33.154   7.747   4.194  1.00 20.00    -0.298 OA
BRANCH   6   8
HETATM    8  C9  UNL     1     -32.929   7.154   1.866  1.00 20.00     0.047 C 
HETATM    9  C5  UNL     1     -31.706   8.063   1.898  1.00 20.00     0.017 C 
HETATM   10  C6  UNL     1     -32.531   5.709   1.579  1.00 20.00     0.017 C 
ENDBRANCH   6   8
ENDBRANCH   5   6
ENDBRANCH   4   5
ENDBRANCH   2   4
TORSDOF 4
ENDMDL
MODEL 4
REMARK VINA RESULT:      -2.3      1.371      1.718
REMARK  4 active torsions:
REMARK  status: ('A' for Active; 'I' for Inactive)
REMARK    1  A    between atoms: C2_2  and  C7_7 
REMARK    2  A    between atoms: C3_3  and  C8_8 
REMARK    3  A    between atoms: C3_3  and  C9_9 
REMARK    4  A    between atoms: C7_7  and  C8_8 
ROOT
HETATM    1  C1  UNL     1     -33.856   3.870   4.378  1.00 20.00    -0.111 C 
HETATM    2  C2  UNL     1     -34.359   4.922   4.092  1.00 20.00    -0.107 C 
HETATM    3  C4  UNL     1     -33.241   2.591   4.727  1.00 20.00     0.112 C 
ENDROOT
BRANCH   2   4
HETATM    4  C7  UNL     1     -34.972   6.213   3.745  1.00 20.00     0.101 C 
BRANCH   4   5
HETATM    5  C8  UNL     1     -33.919   7.284   3.474  1.00 20.00     0.090 C 
BRANCH   5   6
HETATM    6  C3  UNL     1     -33.026   6.977   2.276  1.00 20.00     0.131 C 
HETATM    7  O10 UNL     1     -33.199   5.987   1.566  1.00 20.00    -0.298 OA
BRANCH   6   8
HETATM    8  C9  UNL     1     -31.902   7.974   2.002  1.00 20.00     0.047 C 
HETATM    9  C5  UNL     1     -32.319   8.916   0.879  1.00 20.00     0.017 C 
HETATM   10  C6  UNL     1     -31.542   8.751   3.264  1.00 20.00     0.017 C 
ENDBRANCH   6   8
ENDBRANCH   5   6
ENDBRANCH   4   5
ENDBRANCH   2   4
TORSDOF 4
ENDMDL
MODEL 5
REMARK VINA RESULT:      -2.1      1.254      4.997
REMARK  4 active torsions:
REMARK  status: ('A' for Active; 'I' for Inactive)
REMARK    1  A    between atoms: C2_2  and  C7_7 
REMARK    2  A    between atoms: C3_3  and  C8_8 
REMARK    3  A    between atoms: C3_3  and  C9_9 
REMARK    4  A    between atoms: C7_7  and  C8_8 
ROOT
HETATM    1  C1  UNL     1     -32.410   9.511   0.421  1.00 20.00    -0.111 C 
HETATM    2  C2  UNL     1     -32.061   8.535   1.029  1.00 20.00    -0.107 C 
HETATM    3  C4  UNL     1     -32.831  10.697  -0.323  1.00 20.00     0.112 C 
ENDROOT
BRANCH   2   4
HETATM    4  C7  UNL     1     -31.633   7.340   1.770  1.00 20.00     0.101 C 
BRANCH   4   5
HETATM    5  C8  UNL     1     -32.757   6.314   1.888  1.00 20.00     0.090 C 
BRANCH   5   6
HETATM    6  C3  UNL     1     -33.609   6.479   3.142  1.00 20.00     0.131 C 
HETATM    7  O10 UNL     1     -33.575   7.500   3.828  1.00 20.00    -0.298 OA
BRANCH   6   8
HETATM    8  C9  UNL     1     -34.513   5.302   3.500  1.00 20.00     0.047 C 
HETATM    9  C5  UNL     1     -33.668   4.161   4.055  1.00 20.00     0.017 C 
HETATM   10  C6  UNL     1     -35.588   5.723   4.498  1.00 20.00     0.017 C 
ENDBRANCH   6   8
ENDBRANCH   5   6
ENDBRANCH   4   5
ENDBRANCH   2   4
TORSDOF 4
ENDMDL
MODEL 6
REMARK VINA RESULT:      -1.6      1.523      4.525
REMARK  4 active torsions:
REMARK  status: ('A' for Active; 'I' for Inactive)
REMARK    1  A    between atoms: C2_2  and  C7_7 
REMARK    2  A    between atoms: C3_3  and  C8_8 
REMARK    3  A    between atoms: C3_3  and  C9_9 
REMARK    4  A    between atoms: C7_7  and  C8_8 
ROOT
HETATM    1  C1  UNL     1     -32.429   9.226   0.878  1.00 20.00    -0.111 C 
HETATM    2  C2  UNL     1     -32.424   8.642   1.927  1.00 20.00    -0.107 C 
HETATM    3  C4  UNL     1     -32.440   9.938  -0.399  1.00 20.00     0.112 C 
ENDROOT
BRANCH   2   4
HETATM    4  C7  UNL     1     -32.422   7.926   3.212  1.00 20.00     0.101 C 
BRANCH   4   5
HETATM    5  C8  UNL     1     -33.825   7.821   3.802  1.00 20.00     0.090 C 
BRANCH   5   6
HETATM    6  C3  UNL     1     -34.413   6.415   3.742  1.00 20.00     0.131 C 
HETATM    7  O10 UNL     1     -35.595   6.187   3.998  1.00 20.00    -0.298 OA
BRANCH   6   8
HETATM    8  C9  UNL     1     -33.449   5.299   3.344  1.00 20.00     0.047 C 
HETATM    9  C5  UNL     1     -33.912   3.983   3.956  1.00 20.00     0.017 C 
HETATM   10  C6  UNL     1     -33.339   5.190   1.826  1.00 20.00     0.017 C 
ENDBRANCH   6   8
ENDBRANCH   5   6
ENDBRANCH   4   5
ENDBRANCH   2   4
TORSDOF 4
ENDMDL
MODEL 7
REMARK VINA RESULT:      -1.1      1.351      2.226
REMARK  4 active torsions:
REMARK  status: ('A' for Active; 'I' for Inactive)
REMARK    1  A    between atoms: C2_2  and  C7_7 
REMARK    2  A    between atoms: C3_3  and  C8_8 
REMARK    3  A    between atoms: C3_3  and  C9_9 
REMARK    4  A    between atoms: C7_7  and  C8_8 
ROOT
HETATM    1  C1  UNL     1     -33.580   4.051   4.076  1.00 20.00    -0.111 C 
HETATM    2  C2  UNL     1     -33.730   5.123   3.554  1.00 20.00    -0.107 C 
HETATM    3  C4  UNL     1     -33.404   2.748   4.713  1.00 20.00     0.112 C 
ENDROOT
BRANCH   2   4
HETATM    4  C7  UNL     1     -33.916   6.435   2.916  1.00 20.00     0.101 C 
BRANCH   4   5
HETATM    5  C8  UNL     1     -32.913   6.663   1.789  1.00 20.00     0.090 C 
BRANCH   5   6
HETATM    6  C3  UNL     1     -32.249   8.036   1.827  1.00 20.00     0.131 C 
HETATM    7  O10 UNL     1     -31.655   8.449   2.822  1.00 20.00    -0.298 OA
BRANCH   6   8
HETATM    8  C9  UNL     1     -32.361   8.872   0.554  1.00 20.00     0.047 C 
HETATM    9  C5  UNL     1     -32.739  10.303   0.917  1.00 20.00     0.017 C 
HETATM   10  C6  UNL     1     -31.059   8.833  -0.240  1.00 20.00     0.017 C 
ENDBRANCH   6   8
ENDBRANCH   5   6
ENDBRANCH   4   5
ENDBRANCH   2   4
TORSDOF 4
ENDMDL
MODEL 8
REMARK VINA RESULT:      -0.8      1.835      3.170
REMARK  4 active torsions:
REMARK  status: ('A' for Active; 'I' for Inactive)
REMARK    1  A    between atoms: C2_2  and  C7_7 
REMARK    2  A    between atoms: C3_3  and  C8_8 
REMARK    3  A    between atoms: C3_3  and  C9_9 
REMARK    4  A    between atoms: C7_7  and  C8_8 
ROOT
HETATM    1  C1  UNL     1     -34.397   5.998   3.324  1.00 20.00    -0.111 C 
HETATM    2  C2  UNL     1     -33.604   5.896   2.428  1.00 20.00    -0.107 C 
HETATM    3  C4  UNL     1     -35.364   6.126   4.413  1.00 20.00     0.112 C 
ENDROOT
BRANCH   2   4
HETATM    4  C7  UNL     1     -32.634   5.776   1.329  1.00 20.00     0.101 C 
BRANCH   4   5
HETATM    5  C8  UNL     1     -31.510   6.800   1.453  1.00 20.00     0.090 C 
BRANCH   5   6
HETATM    6  C3  UNL     1     -31.999   8.219   1.728  1.00 20.00     0.131 C 
HETATM    7  O10 UNL     1     -32.072   8.677   2.868  1.00 20.00    -0.298 OA
BRANCH   6   8
HETATM    8  C9  UNL     1     -32.392   9.044   0.504  1.00 20.00     0.047 C 
HETATM    9  C5  UNL     1     -32.765  10.455   0.941  1.00 20.00     0.017 C 
HETATM   10  C6  UNL     1     -31.265   9.067  -0.523  1.00 20.00     0.017 C 
ENDBRANCH   6   8
ENDBRANCH   5   6
ENDBRANCH   4   5
ENDBRANCH   2   4
TORSDOF 4
ENDMDL
MODEL 9
REMARK VINA RESULT:      -0.5      1.308      2.516
REMARK  4 active torsions:
REMARK  status: ('A' for Active; 'I' for Inactive)
REMARK    1  A    between atoms: C2_2  and  C7_7 
REMARK    2  A    between atoms: C3_3  and  C8_8 
REMARK    3  A    between atoms: C3_3  and  C9_9 
REMARK    4  A    between atoms: C7_7  and  C8_8 
ROOT
HETATM    1  C1  UNL     1     -33.027   3.730   3.749  1.00 20.00    -0.111 C 
HETATM    2  C2  UNL     1     -32.805   4.421   2.792  1.00 20.00    -0.107 C 
HETATM    3  C4  UNL     1     -33.299   2.886   4.911  1.00 20.00     0.112 C 
ENDROOT
BRANCH   2   4
HETATM    4  C7  UNL     1     -32.534   5.263   1.617  1.00 20.00     0.101 C 
BRANCH   4   5
HETATM    5  C8  UNL     1     -33.392   6.525   1.617  1.00 20.00     0.090 C 
BRANCH   5   6
HETATM    6  C3  UNL     1     -32.962   7.560   2.652  1.00 20.00     0.131 C 
HETATM    7  O10 UNL     1     -31.874   8.132   2.593  1.00 20.00    -0.298 OA
BRANCH   6   8
HETATM    8  C9  UNL     1     -33.962   7.850   3.769  1.00 20.00     0.047 C 
HETATM    9  C5  UNL     1     -34.969   6.710   3.860  1.00 20.00     0.017 C 
HETATM   10  C6  UNL     1     -33.247   8.058   5.101  1.00 20.00     0.017 C 
ENDBRANCH   6   8
ENDBRANCH   5   6
ENDBRANCH   4   5
ENDBRANCH   2   4
TORSDOF 4
ENDMDL
