MODEL 1
REMARK VINA RESULT:      -1.8      0.000      0.000
REMARK  4 active torsions:
REMARK  status: ('A' for Active; 'I' for Inactive)
REMARK    1  A    between atoms: C2_2  and  C6_6 
REMARK    2  A    between atoms: C6_6  and  N10_10 
REMARK    3  A    between atoms: C7_7  and  N10_10 
REMARK    4  A    between atoms: C8_8  and  N10_10 
ROOT
HETATM    1  C1  UNL     1     -32.362   9.700   0.288  1.00 20.00    -0.109 C 
HETATM    2  C2  UNL     1     -32.203   8.845   1.116  1.00 20.00    -0.077 C 
HETATM    3  C4  UNL     1     -32.556  10.742  -0.720  1.00 20.00     0.112 C 
ENDROOT
BRANCH   2   4
HETATM    4  C6  UNL     1     -32.015   7.801   2.128  1.00 20.00     0.366 C 
BRANCH   4   5
HETATM    5  N10 UNL     1     -33.255   7.056   2.347  1.00 20.00     0.111 N 
BRANCH   5   6
HETATM    6  C7  UNL     1     -33.817   7.373   3.659  1.00 20.00     0.396 C 
HETATM    7  C3  UNL     1     -34.806   6.373   4.057  1.00 20.00     0.089 C 
HETATM    8  N9  UNL     1     -35.592   5.582   4.376  1.00 20.00    -0.195 NA
ENDBRANCH   5   6
BRANCH   5   9
HETATM    9  C8  UNL     1     -33.014   5.619   2.227  1.00 20.00     0.270 C 
HETATM   10  C5  UNL     1     -32.092   5.320   1.095  1.00 20.00     0.037 C 
ENDBRANCH   5   9
ENDBRANCH   4   5
ENDBRANCH   2   4
TORSDOF 4
ENDMDL
MODEL 2
REMARK VINA RESULT:      -1.6      1.810      2.810
REMARK  4 active torsions:
REMARK  status: ('A' for Active; 'I' for Inactive)
REMARK    1  A    between atoms: C2_2  and  C6_6 
REMARK    2  A    between atoms: C6_6  and  N10_10 
REMARK    3  A    between atoms: C7_7  and  N10_10 
REMARK    4  A    between atoms: C8_8  and  N10_10 
ROOT
HETATM    1  C1  UNL     1     -32.341   8.160   1.201  1.00 20.00    -0.109 C 
HETATM    2  C2  UNL     1     -32.672   7.091   1.637  1.00 20.00    -0.077 C 
HETATM    3  C4  UNL     1     -31.938   9.462   0.670  1.00 20.00     0.112 C 
ENDROOT
BRANCH   2   4
HETATM    4  C6  UNL     1     -33.083   5.787   2.167  1.00 20.00     0.366 C 
BRANCH   4   5
HETATM    5  N10 UNL     1     -33.603   5.916   3.528  1.00 20.00     0.111 N 
BRANCH   5   6
HETATM    6  C7  UNL     1     -34.461   4.779   3.857  1.00 20.00     0.396 C 
HETATM    7  C3  UNL     1     -33.674   3.669   4.391  1.00 20.00     0.089 C 
HETATM    8  N9  UNL     1     -33.051   2.787   4.815  1.00 20.00    -0.195 NA
ENDBRANCH   5   6
BRANCH   5   9
HETATM    9  C8  UNL     1     -34.338   7.172   3.677  1.00 20.00     0.270 C 
HETATM   10  C5  UNL     1     -33.779   7.995   4.786  1.00 20.00     0.037 C 
ENDBRANCH   5   9
ENDBRANCH   4   5
ENDBRANCH   2   4
TORSDOF 4
ENDMDL
MODEL 3
REMARK VINA RESULT:      -1.3      1.823      4.486
REMARK  4 active torsions:
REMARK  status: ('A' for Active; 'I' for Inactive)
REMARK    1  A    between atoms: C2_2  and  C6_6 
REMARK    2  A    between atoms: C6_6  and  N10_10 
REMARK    3  A    between atoms: C7_7  and  N10_10 
REMARK    4  A    between atoms: C8_8  and  N10_10 
ROOT
HETATM    1  C1  UNL     1     -34.596   6.462   3.910  1.00 20.00    -0.109 C 
HETATM    2  C2  UNL     1     -33.847   7.282   3.453  1.00 20.00    -0.077 C 
HETATM    3  C4  UNL     1     -35.507   5.463   4.466  1.00 20.00     0.112 C 
ENDROOT
BRANCH   2   4
HETATM    4  C6  UNL     1     -32.930   8.279   2.891  1.00 20.00     0.366 C 
BRANCH   4   5
HETATM    5  N10 UNL     1     -31.976   7.655   1.976  1.00 20.00     0.111 N 
BRANCH   5   6
HETATM    6  C7  UNL     1     -31.299   8.671   1.172  1.00 20.00     0.396 C 
HETATM    7  C3  UNL     1     -32.240   9.337   0.273  1.00 20.00     0.089 C 
HETATM    8  N9  UNL     1     -32.985   9.867  -0.442  1.00 20.00    -0.195 NA
ENDBRANCH   5   6
BRANCH   5   9
HETATM    9  C8  UNL     1     -32.653   6.688   1.113  1.00 20.00     0.270 C 
HETATM   10  C5  UNL     1     -32.013   5.345   1.203  1.00 20.00     0.037 C 
ENDBRANCH   5   9
ENDBRANCH   4   5
ENDBRANCH   2   4
TORSDOF 4
ENDMDL
MODEL 4
REMARK VINA RESULT:      -1.1      1.830      5.082
REMARK  4 active torsions:
REMARK  status: ('A' for Active; 'I' for Inactive)
REMARK    1  A    between atoms: C2_2  and  C6_6 
REMARK    2  A    between atoms: C6_6  and  N10_10 
REMARK    3  A    between atoms: C7_7  and  N10_10 
REMARK    4  A    between atoms: C8_8  and  N10_10 
ROOT
HETATM    1  C1  UNL     1     -33.310   4.122   3.609  1.00 20.00    -0.109 C 
HETATM    2  C2  UNL     1     -33.153   4.915   2.720  1.00 20.00    -0.077 C 
HETATM    3  C4  UNL     1     -33.500   3.157   4.691  1.00 20.00     0.112 C 
ENDROOT
BRANCH   2   4
HETATM    4  C6  UNL     1     -32.956   5.881   1.635  1.00 20.00     0.366 C 
BRANCH   4   5
HETATM    5  N10 UNL     1     -33.042   7.253   2.134  1.00 20.00     0.111 N 
BRANCH   5   6
HETATM    6  C7  UNL     1     -31.860   8.016   1.738  1.00 20.00     0.396 C 
HETATM    7  C3  UNL     1     -32.224   9.119   0.851  1.00 20.00     0.089 C 
HETATM    8  N9  UNL     1     -32.511   9.995   0.147  1.00 20.00    -0.195 NA
ENDBRANCH   5   6
BRANCH   5   9
HETATM    9  C8  UNL     1     -33.191   7.258   3.589  1.00 20.00     0.270 C 
HETATM   10  C5  UNL     1     -34.585   7.606   3.986  1.00 20.00     0.037 C 
ENDBRANCH   5   9
ENDBRANCH   4   5
ENDBRANCH   2   4
TORSDOF 4
ENDMDL
MODEL 5
REMARK VINA RESULT:      -1.1      1.968      5.326
REMARK  4 active torsions:
REMARK  status: ('A' for Active; 'I' for Inactive)
REMARK    1  A    between atoms: C2_2  and  C6_6 
REMARK    2  A    between atoms: C6_6  and  N10_10 
REMARK    3  A    between atoms: C7_7  and  N10_10 
REMARK    4  A    between atoms: C8_8  and  N10_10 
ROOT
HETATM    1  C1  UNL     1     -33.857   3.852   4.365  1.00 20.00    -0.109 C 
HETATM    2  C2  UNL     1     -34.384   4.900   4.109  1.00 20.00    -0.077 C 
HETATM    3  C4  UNL     1     -33.215   2.575   4.677  1.00 20.00     0.112 C 
ENDROOT
BRANCH   2   4
HETATM    4  C6  UNL     1     -35.021   6.183   3.795  1.00 20.00     0.366 C 
BRANCH   4   5
HETATM    5  N10 UNL     1     -34.040   7.144   3.292  1.00 20.00     0.111 N 
BRANCH   5   6
HETATM    6  C7  UNL     1     -33.287   6.570   2.178  1.00 20.00     0.396 C 
HETATM    7  C3  UNL     1     -32.323   7.534   1.649  1.00 20.00     0.089 C 
HETATM    8  N9  UNL     1     -31.558   8.298   1.226  1.00 20.00    -0.195 NA
ENDBRANCH   5   6
BRANCH   5   9
HETATM    9  C8  UNL     1     -33.134   7.558   4.363  1.00 20.00     0.270 C 
HETATM   10  C5  UNL     1     -33.830   8.434   5.348  1.00 20.00     0.037 C 
ENDBRANCH   5   9
ENDBRANCH   4   5
ENDBRANCH   2   4
TORSDOF 4
ENDMDL
MODEL 6
REMARK VINA RESULT:      -1.1      1.066      1.251
REMARK  4 active torsions:
REMARK  status: ('A' for Active; 'I' for Inactive)
REMARK    1  A    between atoms: C2_2  and  C6_6 
REMARK    2  A    between atoms: C6_6  and  N10_10 
REMARK    3  A    between atoms: C7_7  and  N10_10 
REMARK    4  A    between atoms: C8_8  and  N10_10 
ROOT
HETATM    1  C1  UNL     1     -32.308   9.490   0.610  1.00 20.00    -0.109 C 
HETATM    2  C2  UNL     1     -32.154   8.441   1.174  1.00 20.00    -0.077 C 
HETATM    3  C4  UNL     1     -32.495  10.768  -0.076  1.00 20.00     0.112 C 
ENDROOT
BRANCH   2   4
HETATM    4  C6  UNL     1     -31.973   7.160   1.863  1.00 20.00     0.366 C 
BRANCH   4   5
HETATM    5  N10 UNL     1     -33.135   6.293   1.669  1.00 20.00     0.111 N 
BRANCH   5   6
HETATM    6  C7  UNL     1     -33.631   5.807   2.956  1.00 20.00     0.396 C 
HETATM    7  C3  UNL     1     -34.063   6.919   3.801  1.00 20.00     0.089 C 
HETATM    8  N9  UNL     1     -34.407   7.800   4.473  1.00 20.00    -0.195 NA
ENDBRANCH   5   6
BRANCH   5   9
HETATM    9  C8  UNL     1     -32.794   5.170   0.796  1.00 20.00     0.270 C 
HETATM   10  C5  UNL     1     -31.379   4.744   0.994  1.00 20.00     0.037 C 
ENDBRANCH   5   9
ENDBRANCH   4   5
ENDBRANCH   2   4
TORSDOF 4
ENDMDL
MODEL 7
REMARK VINA RESULT:      -1.0      1.711      4.355
REMARK  4 active torsions:
REMARK  status: ('A' for Active; 'I' for Inactive)
REMARK    1  A    between atoms: C2_2  and  C6_6 
REMARK    2  A    between atoms: C6_6  and  N10_10 
REMARK    3  A    between atoms: C7_7  and  N10_10 
REMARK    4  A    between atoms: C8_8  and  N10_10 
ROOT
HETATM    1  C1  UNL     1     -34.562   6.522   3.903  1.00 20.00    -0.109 C 
HETATM    2  C2  UNL     1     -33.800   7.358   3.500  1.00 20.00    -0.077 C 
HETATM    3  C4  UNL     1     -35.490   5.503   4.392  1.00 20.00     0.112 C 
ENDROOT
BRANCH   2   4
HETATM    4  C6  UNL     1     -32.871   8.377   3.003  1.00 20.00     0.366 C 
BRANCH   4   5
HETATM    5  N10 UNL     1     -32.473   8.094   1.625  1.00 20.00     0.111 N 
BRANCH   5   6
HETATM    6  C7  UNL     1     -31.574   6.942   1.579  1.00 20.00     0.396 C 
HETATM    7  C3  UNL     1     -32.272   5.755   1.089  1.00 20.00     0.089 C 
HETATM    8  N9  UNL     1     -32.823   4.811   0.700  1.00 20.00    -0.195 NA
ENDBRANCH   5   6
BRANCH   5   9
HETATM    9  C8  UNL     1     -31.834   9.266   1.026  1.00 20.00     0.270 C 
HETATM   10  C5  UNL     1     -32.656   9.816  -0.088  1.00 20.00     0.037 C 
ENDBRANCH   5   9
ENDBRANCH   4   5
ENDBRANCH   2   4
TORSDOF 4
ENDMDL
MODEL 8
REMARK VINA RESULT:      -1.0      1.178      2.779
REMARK  4 active torsions:
REMARK  status: ('A' for Active; 'I' for Inactive)
REMARK    1  A    between atoms: C2_2  and  C6_6 
REMARK    2  A    between atoms: C6_6  and  N10_10 
REMARK    3  A    between atoms: C7_7  and  N10_10 
REMARK    4  A    between atoms: C8_8  and  N10_10 
ROOT
HETATM    1  C1  UNL     1     -32.470   9.421   0.576  1.00 20.00    -0.109 C 
HETATM    2  C2  UNL     1     -32.219   8.778   1.559  1.00 20.00    -0.077 C 
HETATM    3  C4  UNL     1     -32.775  10.204  -0.621  1.00 20.00     0.112 C 
ENDROOT
BRANCH   2   4
HETATM    4  C6  UNL     1     -31.911   7.988   2.755  1.00 20.00     0.366 C 
BRANCH   4   5
HETATM    5  N10 UNL     1     -32.919   6.950   2.970  1.00 20.00     0.111 N 
BRANCH   5   6
HETATM    6  C7  UNL     1     -33.324   6.359   1.696  1.00 20.00     0.396 C 
HETATM    7  C3  UNL     1     -32.315   5.416   1.215  1.00 20.00     0.089 C 
HETATM    8  N9  UNL     1     -31.516   4.668   0.831  1.00 20.00    -0.195 NA
ENDBRANCH   5   6
BRANCH   5   9
HETATM    9  C8  UNL     1     -34.079   7.503   3.669  1.00 20.00     0.270 C 
HETATM   10  C5  UNL     1     -35.085   6.443   3.964  1.00 20.00     0.037 C 
ENDBRANCH   5   9
ENDBRANCH   4   5
ENDBRANCH   2   4
TORSDOF 4
ENDMDL
MODEL 9
REMARK VINA RESULT:      -0.6      2.074      5.038
REMARK  4 active torsions:
REMARK  status: ('A' for Active; 'I' for Inactive)
REMARK    1  A    between atoms: C2_2  and  C6_6 
REMARK    2  A    between atoms: C6_6  and  N10_10 
REMARK    3  A    between atoms: C7_7  and  N10_10 
REMARK    4  A    between atoms: C8_8  and  N10_10 
ROOT
HETATM    1  C1  UNL     1     -33.614   3.676   4.271  1.00 20.00    -0.109 C 
HETATM    2  C2  UNL     1     -33.830   4.778   3.847  1.00 20.00    -0.077 C 
HETATM    3  C4  UNL     1     -33.351   2.333   4.788  1.00 20.00     0.112 C 
ENDROOT
BRANCH   2   4
HETATM    4  C6  UNL     1     -34.087   6.125   3.327  1.00 20.00     0.366 C 
BRANCH   4   5
HETATM    5  N10 UNL     1     -32.921   6.640   2.611  1.00 20.00     0.111 N 
BRANCH   5   6
HETATM    6  C7  UNL     1     -32.888   8.101   2.673  1.00 20.00     0.396 C 
HETATM    7  C3  UNL     1     -32.392   8.664   1.418  1.00 20.00     0.089 C 
HETATM    8  N9  UNL     1     -31.998   9.114   0.424  1.00 20.00    -0.195 NA
ENDBRANCH   5   6
BRANCH   5   9
HETATM    9  C8  UNL     1     -32.933   6.187   1.221  1.00 20.00     0.270 C 
HETATM   10  C5  UNL     1     -31.923   5.114   0.996  1.00 20.00     0.037 C 
ENDBRANCH   5   9
ENDBRANCH   4   5
ENDBRANCH   2   4
TORSDOF 4
ENDMDL
