MODEL 1
REMARK VINA RESULT:       1.0      0.000      0.000
REMARK  2 active torsions:
REMARK  status: ('A' for Active; 'I' for Inactive)
REMARK    1  A    between atoms: C2_2  and  C11_11 
REMARK    2  A    between atoms: C7_7  and  C11_11 
ROOT
HETATM    1  C1  UNL     1     -32.375   8.901   1.081  1.00 20.00    -0.111 C 
HETATM    2  C2  UNL     1     -32.569   8.085   1.940  1.00 20.00    -0.106 C 
HETATM    3  C9  UNL     1     -32.138   9.895   0.035  1.00 20.00     0.112 C 
ENDROOT
BRANCH   2   4
HETATM    4  C11 UNL     1     -32.816   7.090   2.988  1.00 20.00     0.106 C 
BRANCH   4   5
HETATM    5  C7  UNL     1     -33.904   6.109   2.564  1.00 20.00     0.067 C 
HETATM    6  C3  UNL     1     -35.195   6.417   3.305  1.00 20.00     0.132 C 
HETATM    7  C4  UNL     1     -35.301   5.946   4.738  1.00 20.00     0.079 C 
HETATM    8  O12 UNL     1     -36.079   7.104   2.792  1.00 20.00    -0.298 OA
HETATM    9  C5  UNL     1     -34.900   4.482   4.861  1.00 20.00     0.011 C 
HETATM   10  C8  UNL     1     -33.518   4.216   4.250  1.00 20.00    -0.017 C 
HETATM   11  C6  UNL     1     -33.503   4.645   2.775  1.00 20.00     0.017 C 
HETATM   12  C10 UNL     1     -33.151   2.738   4.381  1.00 20.00     0.010 C 
ENDBRANCH   4   5
ENDBRANCH   2   4
TORSDOF 2
ENDMDL
MODEL 2
REMARK VINA RESULT:       1.3      2.686      3.965
REMARK  2 active torsions:
REMARK  status: ('A' for Active; 'I' for Inactive)
REMARK    1  A    between atoms: C2_2  and  C11_11 
REMARK    2  A    between atoms: C7_7  and  C11_11 
ROOT
HETATM    1  C1  UNL     1     -30.962   3.862  -0.074  1.00 20.00    -0.111 C 
HETATM    2  C2  UNL     1     -31.251   4.602   0.826  1.00 20.00    -0.106 C 
HETATM    3  C9  UNL     1     -30.613   2.959  -1.171  1.00 20.00     0.112 C 
ENDROOT
BRANCH   2   4
HETATM    4  C11 UNL     1     -31.594   5.503   1.930  1.00 20.00     0.106 C 
BRANCH   4   5
HETATM    5  C7  UNL     1     -32.753   6.418   1.549  1.00 20.00     0.067 C 
HETATM    6  C3  UNL     1     -32.417   7.856   1.906  1.00 20.00     0.132 C 
HETATM    7  C4  UNL     1     -32.550   8.259   3.358  1.00 20.00     0.079 C 
HETATM    8  O12 UNL     1     -31.962   8.634   1.067  1.00 20.00    -0.298 OA
HETATM    9  C5  UNL     1     -33.896   7.824   3.922  1.00 20.00     0.011 C 
HETATM   10  C8  UNL     1     -34.153   6.329   3.696  1.00 20.00    -0.017 C 
HETATM   11  C6  UNL     1     -34.079   6.003   2.196  1.00 20.00     0.017 C 
HETATM   12  C10 UNL     1     -35.513   5.928   4.265  1.00 20.00     0.010 C 
ENDBRANCH   4   5
ENDBRANCH   2   4
TORSDOF 2
ENDMDL
MODEL 3
REMARK VINA RESULT:       1.4      1.904      4.310
REMARK  2 active torsions:
REMARK  status: ('A' for Active; 'I' for Inactive)
REMARK    1  A    between atoms: C2_2  and  C11_11 
REMARK    2  A    between atoms: C7_7  and  C11_11 
ROOT
HETATM    1  C1  UNL     1     -32.790   3.700   3.657  1.00 20.00    -0.111 C 
HETATM    2  C2  UNL     1     -32.387   4.432   2.795  1.00 20.00    -0.106 C 
HETATM    3  C9  UNL     1     -33.283   2.810   4.708  1.00 20.00     0.112 C 
ENDROOT
BRANCH   2   4
HETATM    4  C11 UNL     1     -31.885   5.324   1.746  1.00 20.00     0.106 C 
BRANCH   4   5
HETATM    5  C7  UNL     1     -32.889   6.431   1.443  1.00 20.00     0.067 C 
HETATM    6  C3  UNL     1     -32.311   7.778   1.842  1.00 20.00     0.132 C 
HETATM    7  C4  UNL     1     -32.333   8.135   3.312  1.00 20.00     0.079 C 
HETATM    8  O12 UNL     1     -31.760   8.508   1.016  1.00 20.00    -0.298 OA
HETATM    9  C5  UNL     1     -33.714   7.900   3.908  1.00 20.00     0.011 C 
HETATM   10  C8  UNL     1     -34.219   6.478   3.634  1.00 20.00    -0.017 C 
HETATM   11  C6  UNL     1     -34.245   6.209   2.122  1.00 20.00     0.017 C 
HETATM   12  C10 UNL     1     -35.610   6.279   4.237  1.00 20.00     0.010 C 
ENDBRANCH   4   5
ENDBRANCH   2   4
TORSDOF 2
ENDMDL
MODEL 4
REMARK VINA RESULT:       1.6      2.245      3.345
REMARK  2 active torsions:
REMARK  status: ('A' for Active; 'I' for Inactive)
REMARK    1  A    between atoms: C2_2  and  C11_11 
REMARK    2  A    between atoms: C7_7  and  C11_11 
ROOT
HETATM    1  C1  UNL     1     -32.406  10.585   0.833  1.00 20.00    -0.111 C 
HETATM    2  C2  UNL     1     -32.452   9.398   0.655  1.00 20.00    -0.106 C 
HETATM    3  C9  UNL     1     -32.349  12.030   1.048  1.00 20.00     0.112 C 
ENDROOT
BRANCH   2   4
HETATM    4  C11 UNL     1     -32.512   7.948   0.448  1.00 20.00     0.106 C 
BRANCH   4   5
HETATM    5  C7  UNL     1     -31.885   7.203   1.623  1.00 20.00     0.067 C 
HETATM    6  C3  UNL     1     -32.270   5.734   1.567  1.00 20.00     0.132 C 
HETATM    7  C4  UNL     1     -33.657   5.362   2.045  1.00 20.00     0.079 C 
HETATM    8  O12 UNL     1     -31.522   4.895   1.065  1.00 20.00    -0.298 OA
HETATM    9  C5  UNL     1     -33.949   5.985   3.403  1.00 20.00     0.011 C 
HETATM   10  C8  UNL     1     -33.709   7.500   3.400  1.00 20.00    -0.017 C 
HETATM   11  C6  UNL     1     -32.262   7.804   2.981  1.00 20.00     0.017 C 
HETATM   12  C10 UNL     1     -34.002   8.092   4.778  1.00 20.00     0.010 C 
ENDBRANCH   4   5
ENDBRANCH   2   4
TORSDOF 2
ENDMDL
MODEL 5
REMARK VINA RESULT:       2.0      2.004      2.998
REMARK  2 active torsions:
REMARK  status: ('A' for Active; 'I' for Inactive)
REMARK    1  A    between atoms: C2_2  and  C11_11 
REMARK    2  A    between atoms: C7_7  and  C11_11 
ROOT
HETATM    1  C1  UNL     1     -32.437  10.244   0.244  1.00 20.00    -0.111 C 
HETATM    2  C2  UNL     1     -33.023   9.748   1.168  1.00 20.00    -0.106 C 
HETATM    3  C9  UNL     1     -31.722  10.848  -0.880  1.00 20.00     0.112 C 
ENDROOT
BRANCH   2   4
HETATM    4  C11 UNL     1     -33.748   9.146   2.291  1.00 20.00     0.106 C 
BRANCH   4   5
HETATM    5  C7  UNL     1     -32.863   8.159   3.046  1.00 20.00     0.067 C 
HETATM    6  C3  UNL     1     -32.149   7.247   2.064  1.00 20.00     0.132 C 
HETATM    7  C4  UNL     1     -32.948   6.108   1.470  1.00 20.00     0.079 C 
HETATM    8  O12 UNL     1     -30.999   7.482   1.692  1.00 20.00    -0.298 OA
HETATM    9  C5  UNL     1     -33.674   5.328   2.557  1.00 20.00     0.011 C 
HETATM   10  C8  UNL     1     -34.522   6.246   3.447  1.00 20.00    -0.017 C 
HETATM   11  C6  UNL     1     -33.638   7.332   4.078  1.00 20.00     0.017 C 
HETATM   12  C10 UNL     1     -35.230   5.435   4.532  1.00 20.00     0.010 C 
ENDBRANCH   4   5
ENDBRANCH   2   4
TORSDOF 2
ENDMDL
MODEL 6
REMARK VINA RESULT:       2.2      2.027      4.647
REMARK  2 active torsions:
REMARK  status: ('A' for Active; 'I' for Inactive)
REMARK    1  A    between atoms: C2_2  and  C11_11 
REMARK    2  A    between atoms: C7_7  and  C11_11 
ROOT
HETATM    1  C1  UNL     1     -33.373   4.267   3.513  1.00 20.00    -0.111 C 
HETATM    2  C2  UNL     1     -33.007   4.953   2.599  1.00 20.00    -0.106 C 
HETATM    3  C9  UNL     1     -33.819   3.432   4.628  1.00 20.00     0.112 C 
ENDROOT
BRANCH   2   4
HETATM    4  C11 UNL     1     -32.552   5.784   1.480  1.00 20.00     0.106 C 
BRANCH   4   5
HETATM    5  C7  UNL     1     -33.175   7.175   1.544  1.00 20.00     0.067 C 
HETATM    6  C3  UNL     1     -32.101   8.232   1.349  1.00 20.00     0.132 C 
HETATM    7  C4  UNL     1     -31.218   8.551   2.535  1.00 20.00     0.079 C 
HETATM    8  O12 UNL     1     -31.894   8.738   0.245  1.00 20.00    -0.298 OA
HETATM    9  C5  UNL     1     -32.054   8.801   3.783  1.00 20.00     0.011 C 
HETATM   10  C8  UNL     1     -33.025   7.646   4.060  1.00 20.00    -0.017 C 
HETATM   11  C6  UNL     1     -33.942   7.427   2.846  1.00 20.00     0.017 C 
HETATM   12  C10 UNL     1     -33.854   7.932   5.312  1.00 20.00     0.010 C 
ENDBRANCH   4   5
ENDBRANCH   2   4
TORSDOF 2
ENDMDL
MODEL 7
REMARK VINA RESULT:       2.3      1.397      2.208
REMARK  2 active torsions:
REMARK  status: ('A' for Active; 'I' for Inactive)
REMARK    1  A    between atoms: C2_2  and  C11_11 
REMARK    2  A    between atoms: C7_7  and  C11_11 
ROOT
HETATM    1  C1  UNL     1     -32.343   9.702   0.710  1.00 20.00    -0.111 C 
HETATM    2  C2  UNL     1     -32.587   8.943   1.607  1.00 20.00    -0.106 C 
HETATM    3  C9  UNL     1     -32.045  10.628  -0.383  1.00 20.00     0.112 C 
ENDROOT
BRANCH   2   4
HETATM    4  C11 UNL     1     -32.895   8.015   2.699  1.00 20.00     0.106 C 
BRANCH   4   5
HETATM    5  C7  UNL     1     -33.863   6.930   2.237  1.00 20.00     0.067 C 
HETATM    6  C3  UNL     1     -34.252   6.049   3.412  1.00 20.00     0.132 C 
HETATM    7  C4  UNL     1     -33.255   5.000   3.852  1.00 20.00     0.079 C 
HETATM    8  O12 UNL     1     -35.292   6.244   4.042  1.00 20.00    -0.298 OA
HETATM    9  C5  UNL     1     -32.758   4.189   2.663  1.00 20.00     0.011 C 
HETATM   10  C8  UNL     1     -32.217   5.090   1.545  1.00 20.00    -0.017 C 
HETATM   11  C6  UNL     1     -33.303   6.078   1.093  1.00 20.00     0.017 C 
HETATM   12  C10 UNL     1     -31.736   4.246   0.364  1.00 20.00     0.010 C 
ENDBRANCH   4   5
ENDBRANCH   2   4
TORSDOF 2
ENDMDL
MODEL 8
REMARK VINA RESULT:       2.5      1.737      5.320
REMARK  2 active torsions:
REMARK  status: ('A' for Active; 'I' for Inactive)
REMARK    1  A    between atoms: C2_2  and  C11_11 
REMARK    2  A    between atoms: C7_7  and  C11_11 
ROOT
HETATM    1  C1  UNL     1     -33.520   4.588   3.384  1.00 20.00    -0.111 C 
HETATM    2  C2  UNL     1     -33.220   5.359   2.514  1.00 20.00    -0.106 C 
HETATM    3  C9  UNL     1     -33.884   3.650   4.446  1.00 20.00     0.112 C 
ENDROOT
BRANCH   2   4
HETATM    4  C11 UNL     1     -32.855   6.291   1.444  1.00 20.00     0.106 C 
BRANCH   4   5
HETATM    5  C7  UNL     1     -31.969   7.414   1.975  1.00 20.00     0.067 C 
HETATM    6  C3  UNL     1     -32.720   8.209   3.030  1.00 20.00     0.132 C 
HETATM    7  C4  UNL     1     -33.739   9.216   2.545  1.00 20.00     0.079 C 
HETATM    8  O12 UNL     1     -32.575   7.976   4.231  1.00 20.00    -0.298 OA
HETATM    9  C5  UNL     1     -33.148  10.108   1.461  1.00 20.00     0.011 C 
HETATM   10  C8  UNL     1     -32.534   9.287   0.319  1.00 20.00    -0.017 C 
HETATM   11  C6  UNL     1     -31.455   8.343   0.870  1.00 20.00     0.017 C 
HETATM   12  C10 UNL     1     -31.943  10.211  -0.746  1.00 20.00     0.010 C 
ENDBRANCH   4   5
ENDBRANCH   2   4
TORSDOF 2
ENDMDL
MODEL 9
REMARK VINA RESULT:       2.5      1.818      2.804
REMARK  2 active torsions:
REMARK  status: ('A' for Active; 'I' for Inactive)
REMARK    1  A    between atoms: C2_2  and  C11_11 
REMARK    2  A    between atoms: C7_7  and  C11_11 
ROOT
HETATM    1  C1  UNL     1     -32.370   8.197   0.841  1.00 20.00    -0.111 C 
HETATM    2  C2  UNL     1     -32.662   7.081   1.177  1.00 20.00    -0.106 C 
HETATM    3  C9  UNL     1     -32.013   9.555   0.433  1.00 20.00     0.112 C 
ENDROOT
BRANCH   2   4
HETATM    4  C11 UNL     1     -33.029   5.722   1.583  1.00 20.00     0.106 C 
BRANCH   4   5
HETATM    5  C7  UNL     1     -32.829   5.527   3.083  1.00 20.00     0.067 C 
HETATM    6  C3  UNL     1     -33.904   4.606   3.633  1.00 20.00     0.132 C 
HETATM    7  C4  UNL     1     -35.273   5.202   3.873  1.00 20.00     0.079 C 
HETATM    8  O12 UNL     1     -33.697   3.401   3.785  1.00 20.00    -0.298 OA
HETATM    9  C5  UNL     1     -35.169   6.502   4.660  1.00 20.00     0.011 C 
HETATM   10  C8  UNL     1     -34.197   7.491   4.003  1.00 20.00    -0.017 C 
HETATM   11  C6  UNL     1     -32.809   6.849   3.859  1.00 20.00     0.017 C 
HETATM   12  C10 UNL     1     -34.110   8.779   4.821  1.00 20.00     0.010 C 
ENDBRANCH   4   5
ENDBRANCH   2   4
TORSDOF 2
ENDMDL
