MODEL 1
REMARK VINA RESULT:      -1.7      0.000      0.000
REMARK  4 active torsions:
REMARK  status: ('A' for Active; 'I' for Inactive)
REMARK    1  A    between atoms: C2_2  and  C7_7 
REMARK    2  A    between atoms: C7_7  and  N11_11 
REMARK    3  A    between atoms: C8_8  and  C9_9 
REMARK    4  A    between atoms: C8_8  and  N11_11 
ROOT
HETATM    1  C1  UNL     1     -32.371   9.452   0.603  1.00 20.00    -0.109 C 
HETATM    2  C2  UNL     1     -32.103   8.421   1.157  1.00 20.00    -0.077 C 
HETATM    3  C4  UNL     1     -32.699  10.707  -0.071  1.00 20.00     0.112 C 
ENDROOT
BRANCH   2   4
HETATM    4  C7  UNL     1     -31.780   7.160   1.832  1.00 20.00     0.365 C 
BRANCH   4   5
HETATM    5  N11 UNL     1     -32.853   6.176   1.644  1.00 20.00     0.096 N 
HETATM    6  C6  UNL     1     -32.368   5.063   0.819  1.00 20.00     0.311 C 
BRANCH   5   7
HETATM    7  C8  UNL     1     -33.352   5.701   2.915  1.00 20.00     0.291 C 
BRANCH   7   8
HETATM    8  C9  UNL     1     -34.421   6.634   3.498  1.00 20.00     0.117 C 
HETATM    9  C3  UNL     1     -33.828   7.638   4.402  1.00 20.00     0.065 C 
HETATM   10  N10 UNL     1     -33.363   8.430   5.111  1.00 20.00    -0.197 NA
HETATM   11  C5  UNL     1     -35.534   5.863   4.209  1.00 20.00     0.027 C 
ENDBRANCH   7   8
ENDBRANCH   5   7
ENDBRANCH   4   5
ENDBRANCH   2   4
TORSDOF 4
ENDMDL
MODEL 2
REMARK VINA RESULT:      -1.6      1.551      1.948
REMARK  4 active torsions:
REMARK  status: ('A' for Active; 'I' for Inactive)
REMARK    1  A    between atoms: C2_2  and  C7_7 
REMARK    2  A    between atoms: C7_7  and  N11_11 
REMARK    3  A    between atoms: C8_8  and  C9_9 
REMARK    4  A    between atoms: C8_8  and  N11_11 
ROOT
HETATM    1  C1  UNL     1     -32.361   9.506   0.655  1.00 20.00    -0.109 C 
HETATM    2  C2  UNL     1     -32.219   8.495   1.286  1.00 20.00    -0.077 C 
HETATM    3  C4  UNL     1     -32.535  10.736  -0.116  1.00 20.00     0.112 C 
ENDROOT
BRANCH   2   4
HETATM    4  C7  UNL     1     -32.039   7.258   2.054  1.00 20.00     0.365 C 
BRANCH   4   5
HETATM    5  N11 UNL     1     -32.572   6.104   1.320  1.00 20.00     0.096 N 
HETATM    6  C6  UNL     1     -31.597   5.005   1.348  1.00 20.00     0.311 C 
BRANCH   5   7
HETATM    7  C8  UNL     1     -33.844   5.683   1.863  1.00 20.00     0.291 C 
BRANCH   7   8
HETATM    8  C9  UNL     1     -33.864   5.747   3.396  1.00 20.00     0.117 C 
HETATM    9  C3  UNL     1     -33.844   4.399   3.993  1.00 20.00     0.065 C 
HETATM   10  N10 UNL     1     -33.826   3.338   4.464  1.00 20.00    -0.197 NA
HETATM   11  C5  UNL     1     -35.053   6.550   3.923  1.00 20.00     0.027 C 
ENDBRANCH   7   8
ENDBRANCH   5   7
ENDBRANCH   4   5
ENDBRANCH   2   4
TORSDOF 4
ENDMDL
MODEL 3
REMARK VINA RESULT:      -1.6      1.921      4.987
REMARK  4 active torsions:
REMARK  status: ('A' for Active; 'I' for Inactive)
REMARK    1  A    between atoms: C2_2  and  C7_7 
REMARK    2  A    between atoms: C7_7  and  N11_11 
REMARK    3  A    between atoms: C8_8  and  C9_9 
REMARK    4  A    between atoms: C8_8  and  N11_11 
ROOT
HETATM    1  C1  UNL     1     -33.948   3.888   4.434  1.00 20.00    -0.109 C 
HETATM    2  C2  UNL     1     -34.579   4.901   4.308  1.00 20.00    -0.077 C 
HETATM    3  C4  UNL     1     -33.178   2.654   4.590  1.00 20.00     0.112 C 
ENDROOT
BRANCH   2   4
HETATM    4  C7  UNL     1     -35.346   6.141   4.155  1.00 20.00     0.365 C 
BRANCH   4   5
HETATM    5  N11 UNL     1     -34.535   7.183   3.514  1.00 20.00     0.096 N 
HETATM    6  C6  UNL     1     -33.466   7.612   4.426  1.00 20.00     0.311 C 
BRANCH   5   7
HETATM    7  C8  UNL     1     -33.991   6.721   2.258  1.00 20.00     0.291 C 
BRANCH   7   8
HETATM    8  C9  UNL     1     -32.500   7.055   2.119  1.00 20.00     0.117 C 
HETATM    9  C3  UNL     1     -32.293   8.296   1.350  1.00 20.00     0.065 C 
HETATM   10  N10 UNL     1     -32.129   9.274   0.747  1.00 20.00    -0.197 NA
HETATM   11  C5  UNL     1     -31.706   5.903   1.503  1.00 20.00     0.027 C 
ENDBRANCH   7   8
ENDBRANCH   5   7
ENDBRANCH   4   5
ENDBRANCH   2   4
TORSDOF 4
ENDMDL
MODEL 4
REMARK VINA RESULT:      -1.3      1.681      5.225
REMARK  4 active torsions:
REMARK  status: ('A' for Active; 'I' for Inactive)
REMARK    1  A    between atoms: C2_2  and  C7_7 
REMARK    2  A    between atoms: C7_7  and  N11_11 
REMARK    3  A    between atoms: C8_8  and  C9_9 
REMARK    4  A    between atoms: C8_8  and  N11_11 
ROOT
HETATM    1  C1  UNL     1     -33.954   3.956   4.379  1.00 20.00    -0.109 C 
HETATM    2  C2  UNL     1     -34.519   5.000   4.200  1.00 20.00    -0.077 C 
HETATM    3  C4  UNL     1     -33.266   2.685   4.599  1.00 20.00     0.112 C 
ENDROOT
BRANCH   2   4
HETATM    4  C7  UNL     1     -35.203   6.278   3.979  1.00 20.00     0.365 C 
BRANCH   4   5
HETATM    5  N11 UNL     1     -34.236   7.362   3.774  1.00 20.00     0.096 N 
HETATM    6  C6  UNL     1     -34.062   8.116   5.022  1.00 20.00     0.311 C 
BRANCH   5   7
HETATM    7  C8  UNL     1     -32.972   6.849   3.296  1.00 20.00     0.291 C 
BRANCH   7   8
HETATM    8  C9  UNL     1     -32.820   7.016   1.779  1.00 20.00     0.117 C 
HETATM    9  C3  UNL     1     -32.385   5.761   1.138  1.00 20.00     0.065 C 
HETATM   10  N10 UNL     1     -32.045   4.773   0.632  1.00 20.00    -0.197 NA
HETATM   11  C5  UNL     1     -31.873   8.160   1.416  1.00 20.00     0.027 C 
ENDBRANCH   7   8
ENDBRANCH   5   7
ENDBRANCH   4   5
ENDBRANCH   2   4
TORSDOF 4
ENDMDL
MODEL 5
REMARK VINA RESULT:      -0.7      1.368      1.616
REMARK  4 active torsions:
REMARK  status: ('A' for Active; 'I' for Inactive)
REMARK    1  A    between atoms: C2_2  and  C7_7 
REMARK    2  A    between atoms: C7_7  and  N11_11 
REMARK    3  A    between atoms: C8_8  and  C9_9 
REMARK    4  A    between atoms: C8_8  and  N11_11 
ROOT
HETATM    1  C1  UNL     1     -32.375   9.299   0.665  1.00 20.00    -0.109 C 
HETATM    2  C2  UNL     1     -32.089   8.257   1.189  1.00 20.00    -0.077 C 
HETATM    3  C4  UNL     1     -32.721  10.568   0.028  1.00 20.00     0.112 C 
ENDROOT
BRANCH   2   4
HETATM    4  C7  UNL     1     -31.742   6.987   1.835  1.00 20.00     0.365 C 
BRANCH   4   5
HETATM    5  N11 UNL     1     -32.886   6.068   1.834  1.00 20.00     0.096 N 
HETATM    6  C6  UNL     1     -33.140   5.592   0.469  1.00 20.00     0.311 C 
BRANCH   5   7
HETATM    7  C8  UNL     1     -32.667   4.962   2.738  1.00 20.00     0.291 C 
BRANCH   7   8
HETATM    8  C9  UNL     1     -33.962   4.522   3.433  1.00 20.00     0.117 C 
HETATM    9  C3  UNL     1     -34.743   5.680   3.906  1.00 20.00     0.065 C 
HETATM   10  N10 UNL     1     -35.359   6.591   4.276  1.00 20.00    -0.197 NA
HETATM   11  C5  UNL     1     -33.697   3.548   4.582  1.00 20.00     0.027 C 
ENDBRANCH   7   8
ENDBRANCH   5   7
ENDBRANCH   4   5
ENDBRANCH   2   4
TORSDOF 4
ENDMDL
MODEL 6
REMARK VINA RESULT:      -0.7      1.571      2.315
REMARK  4 active torsions:
REMARK  status: ('A' for Active; 'I' for Inactive)
REMARK    1  A    between atoms: C2_2  and  C7_7 
REMARK    2  A    between atoms: C7_7  and  N11_11 
REMARK    3  A    between atoms: C8_8  and  C9_9 
REMARK    4  A    between atoms: C8_8  and  N11_11 
ROOT
HETATM    1  C1  UNL     1     -32.393   9.631   0.385  1.00 20.00    -0.109 C 
HETATM    2  C2  UNL     1     -32.066   8.565   0.828  1.00 20.00    -0.077 C 
HETATM    3  C4  UNL     1     -32.790  10.931  -0.153  1.00 20.00     0.112 C 
ENDROOT
BRANCH   2   4
HETATM    4  C7  UNL     1     -31.671   7.262   1.374  1.00 20.00     0.365 C 
BRANCH   4   5
HETATM    5  N11 UNL     1     -32.333   7.009   2.659  1.00 20.00     0.096 N 
HETATM    6  C6  UNL     1     -32.629   8.284   3.325  1.00 20.00     0.311 C 
BRANCH   5   7
HETATM    7  C8  UNL     1     -33.534   6.225   2.481  1.00 20.00     0.291 C 
BRANCH   7   8
HETATM    8  C9  UNL     1     -34.161   5.822   3.822  1.00 20.00     0.117 C 
HETATM    9  C3  UNL     1     -33.963   4.388   4.103  1.00 20.00     0.065 C 
HETATM   10  N10 UNL     1     -33.805   3.260   4.326  1.00 20.00    -0.197 NA
HETATM   11  C5  UNL     1     -35.645   6.183   3.895  1.00 20.00     0.027 C 
ENDBRANCH   7   8
ENDBRANCH   5   7
ENDBRANCH   4   5
ENDBRANCH   2   4
TORSDOF 4
ENDMDL
MODEL 7
REMARK VINA RESULT:      -0.2      2.176      5.090
REMARK  4 active torsions:
REMARK  status: ('A' for Active; 'I' for Inactive)
REMARK    1  A    between atoms: C2_2  and  C7_7 
REMARK    2  A    between atoms: C7_7  and  N11_11 
REMARK    3  A    between atoms: C8_8  and  C9_9 
REMARK    4  A    between atoms: C8_8  and  N11_11 
ROOT
HETATM    1  C1  UNL     1     -33.632   3.502   4.329  1.00 20.00    -0.109 C 
HETATM    2  C2  UNL     1     -33.928   4.599   3.943  1.00 20.00    -0.077 C 
HETATM    3  C4  UNL     1     -33.274   2.165   4.801  1.00 20.00     0.112 C 
ENDROOT
BRANCH   2   4
HETATM    4  C7  UNL     1     -34.289   5.942   3.476  1.00 20.00     0.365 C 
BRANCH   4   5
HETATM    5  N11 UNL     1     -33.247   6.490   2.600  1.00 20.00     0.096 N 
HETATM    6  C6  UNL     1     -33.214   5.741   1.337  1.00 20.00     0.311 C 
BRANCH   5   7
HETATM    7  C8  UNL     1     -33.456   7.901   2.362  1.00 20.00     0.291 C 
BRANCH   7   8
HETATM    8  C9  UNL     1     -32.186   8.591   1.849  1.00 20.00     0.117 C 
HETATM    9  C3  UNL     1     -32.453   9.378   0.630  1.00 20.00     0.065 C 
HETATM   10  N10 UNL     1     -32.662   9.999  -0.328  1.00 20.00    -0.197 NA
HETATM   11  C5  UNL     1     -31.048   7.599   1.608  1.00 20.00     0.027 C 
ENDBRANCH   7   8
ENDBRANCH   5   7
ENDBRANCH   4   5
ENDBRANCH   2   4
TORSDOF 4
ENDMDL
MODEL 8
REMARK VINA RESULT:       0.2      1.535      2.882
REMARK  4 active torsions:
REMARK  status: ('A' for Active; 'I' for Inactive)
REMARK    1  A    between atoms: C2_2  and  C7_7 
REMARK    2  A    between atoms: C7_7  and  N11_11 
REMARK    3  A    between atoms: C8_8  and  C9_9 
REMARK    4  A    between atoms: C8_8  and  N11_11 
ROOT
HETATM    1  C1  UNL     1     -32.385   9.367   0.678  1.00 20.00    -0.109 C 
HETATM    2  C2  UNL     1     -32.178   8.860   1.746  1.00 20.00    -0.077 C 
HETATM    3  C4  UNL     1     -32.636   9.983  -0.624  1.00 20.00     0.112 C 
ENDROOT
BRANCH   2   4
HETATM    4  C7  UNL     1     -31.919   8.241   3.050  1.00 20.00     0.365 C 
BRANCH   4   5
HETATM    5  N11 UNL     1     -33.000   7.320   3.418  1.00 20.00     0.096 N 
HETATM    6  C6  UNL     1     -33.920   7.981   4.352  1.00 20.00     0.311 C 
BRANCH   5   7
HETATM    7  C8  UNL     1     -33.702   6.846   2.247  1.00 20.00     0.291 C 
BRANCH   7   8
HETATM    8  C9  UNL     1     -33.462   5.351   1.999  1.00 20.00     0.117 C 
HETATM    9  C3  UNL     1     -33.725   4.553   3.211  1.00 20.00     0.065 C 
HETATM   10  N10 UNL     1     -33.934   3.923   4.163  1.00 20.00    -0.197 NA
HETATM   11  C5  UNL     1     -32.055   5.073   1.469  1.00 20.00     0.027 C 
ENDBRANCH   7   8
ENDBRANCH   5   7
ENDBRANCH   4   5
ENDBRANCH   2   4
TORSDOF 4
ENDMDL
MODEL 9
REMARK VINA RESULT:       0.7      1.701      4.692
REMARK  4 active torsions:
REMARK  status: ('A' for Active; 'I' for Inactive)
REMARK    1  A    between atoms: C2_2  and  C7_7 
REMARK    2  A    between atoms: C7_7  and  N11_11 
REMARK    3  A    between atoms: C8_8  and  C9_9 
REMARK    4  A    between atoms: C8_8  and  N11_11 
ROOT
HETATM    1  C1  UNL     1     -33.520   3.710   4.189  1.00 20.00    -0.109 C 
HETATM    2  C2  UNL     1     -33.693   4.693   3.523  1.00 20.00    -0.077 C 
HETATM    3  C4  UNL     1     -33.308   2.513   5.002  1.00 20.00     0.112 C 
ENDROOT
BRANCH   2   4
HETATM    4  C7  UNL     1     -33.899   5.896   2.710  1.00 20.00     0.365 C 
BRANCH   4   5
HETATM    5  N11 UNL     1     -32.733   6.161   1.860  1.00 20.00     0.096 N 
HETATM    6  C6  UNL     1     -32.392   4.955   1.094  1.00 20.00     0.311 C 
BRANCH   5   7
HETATM    7  C8  UNL     1     -32.972   7.284   0.982  1.00 20.00     0.291 C 
BRANCH   7   8
HETATM    8  C9  UNL     1     -31.969   8.421   1.216  1.00 20.00     0.117 C 
HETATM    9  C3  UNL     1     -31.761   8.670   2.655  1.00 20.00     0.065 C 
HETATM   10  N10 UNL     1     -31.594   8.866   3.787  1.00 20.00    -0.197 NA
HETATM   11  C5  UNL     1     -32.381   9.709   0.503  1.00 20.00     0.027 C 
ENDBRANCH   7   8
ENDBRANCH   5   7
ENDBRANCH   4   5
ENDBRANCH   2   4
TORSDOF 4
ENDMDL
