MODEL 1
REMARK VINA RESULT:      -3.4      0.000      0.000
REMARK  6 active torsions:
REMARK  status: ('A' for Active; 'I' for Inactive)
REMARK    1  A    between atoms: C2_2  and  C5_5 
REMARK    2  A    between atoms: C5_5  and  C7_7 
REMARK    3  A    between atoms: C6_6  and  C8_8 
REMARK    4  A    between atoms: C7_7  and  C9_9 
REMARK    5  A    between atoms: C8_8  and  C9_9 
REMARK    6  A    between atoms: C9_9  and  O10_10 
ROOT
HETATM    1  C1  UNL     1     -33.836   3.866   4.345  1.00 20.00    -0.111 C 
HETATM    2  C2  UNL     1     -34.276   4.950   4.073  1.00 20.00    -0.107 C 
HETATM    3  C3  UNL     1     -33.301   2.547   4.682  1.00 20.00     0.112 C 
ENDROOT
BRANCH   2   4
HETATM    4  C5  UNL     1     -34.811   6.276   3.739  1.00 20.00     0.096 C 
BRANCH   4   5
HETATM    5  C7  UNL     1     -33.706   7.296   3.465  1.00 20.00     0.044 C 
BRANCH   5   6
HETATM    6  C9  UNL     1     -33.178   7.332   2.022  1.00 20.00     0.119 C 
BRANCH   6   7
HETATM    7  C8  UNL     1     -31.979   8.272   1.833  1.00 20.00     0.031 C 
BRANCH   7   8
HETATM    8  C6  UNL     1     -31.933   8.877   0.426  1.00 20.00    -0.002 C 
HETATM    9  C4  UNL     1     -32.570  10.257   0.394  1.00 20.00     0.005 C 
ENDBRANCH   7   8
ENDBRANCH   6   7
BRANCH   6  10
HETATM   10  O10 UNL     1     -32.799   6.001   1.663  1.00 20.00    -0.396 OA
HETATM   11  H26 UNL     1     -32.118   5.733   2.297  1.00 20.00     0.210 HD
ENDBRANCH   6  10
ENDBRANCH   5   6
ENDBRANCH   4   5
ENDBRANCH   2   4
TORSDOF 6
ENDMDL
MODEL 2
REMARK VINA RESULT:      -3.3      1.758      2.148
REMARK  6 active torsions:
REMARK  status: ('A' for Active; 'I' for Inactive)
REMARK    1  A    between atoms: C2_2  and  C5_5 
REMARK    2  A    between atoms: C5_5  and  C7_7 
REMARK    3  A    between atoms: C6_6  and  C8_8 
REMARK    4  A    between atoms: C7_7  and  C9_9 
REMARK    5  A    between atoms: C8_8  and  C9_9 
REMARK    6  A    between atoms: C9_9  and  O10_10 
ROOT
HETATM    1  C1  UNL     1     -33.957   3.969   4.382  1.00 20.00    -0.111 C 
HETATM    2  C2  UNL     1     -34.591   4.956   4.124  1.00 20.00    -0.107 C 
HETATM    3  C3  UNL     1     -33.182   2.769   4.693  1.00 20.00     0.112 C 
ENDROOT
BRANCH   2   4
HETATM    4  C5  UNL     1     -35.368   6.160   3.806  1.00 20.00     0.096 C 
BRANCH   4   5
HETATM    5  C7  UNL     1     -34.623   7.445   4.166  1.00 20.00     0.044 C 
BRANCH   5   6
HETATM    6  C9  UNL     1     -33.130   7.472   3.801  1.00 20.00     0.119 C 
BRANCH   6   7
HETATM    7  C8  UNL     1     -32.848   8.095   2.427  1.00 20.00     0.031 C 
BRANCH   7   8
HETATM    8  C6  UNL     1     -31.958   7.201   1.558  1.00 20.00    -0.002 C 
HETATM    9  C4  UNL     1     -32.541   5.803   1.420  1.00 20.00     0.005 C 
ENDBRANCH   7   8
ENDBRANCH   6   7
BRANCH   6  10
HETATM   10  O10 UNL     1     -32.449   8.221   4.811  1.00 20.00    -0.396 OA
HETATM   11  H26 UNL     1     -31.699   8.648   4.372  1.00 20.00     0.210 HD
ENDBRANCH   6  10
ENDBRANCH   5   6
ENDBRANCH   4   5
ENDBRANCH   2   4
TORSDOF 6
ENDMDL
MODEL 3
REMARK VINA RESULT:      -3.1      1.284      5.600
REMARK  6 active torsions:
REMARK  status: ('A' for Active; 'I' for Inactive)
REMARK    1  A    between atoms: C2_2  and  C5_5 
REMARK    2  A    between atoms: C5_5  and  C7_7 
REMARK    3  A    between atoms: C6_6  and  C8_8 
REMARK    4  A    between atoms: C7_7  and  C9_9 
REMARK    5  A    between atoms: C8_8  and  C9_9 
REMARK    6  A    between atoms: C9_9  and  O10_10 
ROOT
HETATM    1  C1  UNL     1     -32.379   9.246   0.673  1.00 20.00    -0.111 C 
HETATM    2  C2  UNL     1     -32.340   8.398   1.523  1.00 20.00    -0.107 C 
HETATM    3  C3  UNL     1     -32.425  10.281  -0.358  1.00 20.00     0.112 C 
ENDROOT
BRANCH   2   4
HETATM    4  C5  UNL     1     -32.297   7.362   2.562  1.00 20.00     0.096 C 
BRANCH   4   5
HETATM    5  C7  UNL     1     -33.439   6.355   2.427  1.00 20.00     0.044 C 
BRANCH   5   6
HETATM    6  C9  UNL     1     -34.531   6.441   3.506  1.00 20.00     0.119 C 
BRANCH   6   7
HETATM    7  C8  UNL     1     -34.693   5.148   4.316  1.00 20.00     0.031 C 
BRANCH   7   8
HETATM    8  C6  UNL     1     -33.839   4.004   3.759  1.00 20.00    -0.002 C 
HETATM    9  C4  UNL     1     -33.324   3.103   4.871  1.00 20.00     0.005 C 
ENDBRANCH   7   8
ENDBRANCH   6   7
BRANCH   6  10
HETATM   10  O10 UNL     1     -34.189   7.514   4.387  1.00 20.00    -0.396 OA
HETATM   11  H26 UNL     1     -34.792   7.448   5.141  1.00 20.00     0.210 HD
ENDBRANCH   6  10
ENDBRANCH   5   6
ENDBRANCH   4   5
ENDBRANCH   2   4
TORSDOF 6
ENDMDL
MODEL 4
REMARK VINA RESULT:      -2.8      1.710      4.847
REMARK  6 active torsions:
REMARK  status: ('A' for Active; 'I' for Inactive)
REMARK    1  A    between atoms: C2_2  and  C5_5 
REMARK    2  A    between atoms: C5_5  and  C7_7 
REMARK    3  A    between atoms: C6_6  and  C8_8 
REMARK    4  A    between atoms: C7_7  and  C9_9 
REMARK    5  A    between atoms: C8_8  and  C9_9 
REMARK    6  A    between atoms: C9_9  and  O10_10 
ROOT
HETATM    1  C1  UNL     1     -32.281   8.992   0.841  1.00 20.00    -0.111 C 
HETATM    2  C2  UNL     1     -32.095   7.870   1.230  1.00 20.00    -0.107 C 
HETATM    3  C3  UNL     1     -32.501  10.358   0.370  1.00 20.00     0.112 C 
ENDROOT
BRANCH   2   4
HETATM    4  C5  UNL     1     -31.871   6.500   1.707  1.00 20.00     0.096 C 
BRANCH   4   5
HETATM    5  C7  UNL     1     -33.179   5.751   1.960  1.00 20.00     0.044 C 
BRANCH   5   6
HETATM    6  C9  UNL     1     -33.603   5.633   3.432  1.00 20.00     0.119 C 
BRANCH   6   7
HETATM    7  C8  UNL     1     -34.830   6.484   3.785  1.00 20.00     0.031 C 
BRANCH   7   8
HETATM    8  C6  UNL     1     -34.456   7.938   4.096  1.00 20.00    -0.002 C 
HETATM    9  C4  UNL     1     -33.148   8.022   4.867  1.00 20.00     0.005 C 
ENDBRANCH   7   8
ENDBRANCH   6   7
BRANCH   6  10
HETATM   10  O10 UNL     1     -33.889   4.256   3.694  1.00 20.00    -0.396 OA
HETATM   11  H26 UNL     1     -33.411   3.748   3.023  1.00 20.00     0.210 HD
ENDBRANCH   6  10
ENDBRANCH   5   6
ENDBRANCH   4   5
ENDBRANCH   2   4
TORSDOF 6
ENDMDL
MODEL 5
REMARK VINA RESULT:      -2.3      2.006      4.712
REMARK  6 active torsions:
REMARK  status: ('A' for Active; 'I' for Inactive)
REMARK    1  A    between atoms: C2_2  and  C5_5 
REMARK    2  A    between atoms: C5_5  and  C7_7 
REMARK    3  A    between atoms: C6_6  and  C8_8 
REMARK    4  A    between atoms: C7_7  and  C9_9 
REMARK    5  A    between atoms: C8_8  and  C9_9 
REMARK    6  A    between atoms: C9_9  and  O10_10 
ROOT
HETATM    1  C1  UNL     1     -32.166   5.684   1.284  1.00 20.00    -0.111 C 
HETATM    2  C2  UNL     1     -32.553   6.596   1.962  1.00 20.00    -0.107 C 
HETATM    3  C3  UNL     1     -31.700   4.570   0.459  1.00 20.00     0.112 C 
ENDROOT
BRANCH   2   4
HETATM    4  C5  UNL     1     -33.024   7.711   2.794  1.00 20.00     0.096 C 
BRANCH   4   5
HETATM    5  C7  UNL     1     -33.975   7.251   3.898  1.00 20.00     0.044 C 
BRANCH   5   6
HETATM    6  C9  UNL     1     -34.838   6.023   3.563  1.00 20.00     0.119 C 
BRANCH   6   7
HETATM    7  C8  UNL     1     -34.634   4.850   4.533  1.00 20.00     0.031 C 
BRANCH   7   8
HETATM    8  C6  UNL     1     -33.766   3.742   3.927  1.00 20.00    -0.002 C 
HETATM    9  C4  UNL     1     -33.060   2.937   5.007  1.00 20.00     0.005 C 
ENDBRANCH   7   8
ENDBRANCH   6   7
BRANCH   6  10
HETATM   10  O10 UNL     1     -36.207   6.432   3.594  1.00 20.00    -0.396 OA
HETATM   11  H26 UNL     1     -36.398   6.806   2.722  1.00 20.00     0.210 HD
ENDBRANCH   6  10
ENDBRANCH   5   6
ENDBRANCH   4   5
ENDBRANCH   2   4
TORSDOF 6
ENDMDL
MODEL 6
REMARK VINA RESULT:      -2.3      0.898      5.567
REMARK  6 active torsions:
REMARK  status: ('A' for Active; 'I' for Inactive)
REMARK    1  A    between atoms: C2_2  and  C5_5 
REMARK    2  A    between atoms: C5_5  and  C7_7 
REMARK    3  A    between atoms: C6_6  and  C8_8 
REMARK    4  A    between atoms: C7_7  and  C9_9 
REMARK    5  A    between atoms: C8_8  and  C9_9 
REMARK    6  A    between atoms: C9_9  and  O10_10 
ROOT
HETATM    1  C1  UNL     1     -32.479   9.690   0.245  1.00 20.00    -0.111 C 
HETATM    2  C2  UNL     1     -32.129   8.928   1.104  1.00 20.00    -0.107 C 
HETATM    3  C3  UNL     1     -32.910  10.616  -0.802  1.00 20.00     0.112 C 
ENDROOT
BRANCH   2   4
HETATM    4  C5  UNL     1     -31.698   7.994   2.152  1.00 20.00     0.096 C 
BRANCH   4   5
HETATM    5  C7  UNL     1     -32.793   7.736   3.187  1.00 20.00     0.044 C 
BRANCH   5   6
HETATM    6  C9  UNL     1     -33.428   6.337   3.147  1.00 20.00     0.119 C 
BRANCH   6   7
HETATM    7  C8  UNL     1     -34.864   6.302   3.689  1.00 20.00     0.031 C 
BRANCH   7   8
HETATM    8  C6  UNL     1     -35.169   4.999   4.436  1.00 20.00    -0.002 C 
HETATM    9  C4  UNL     1     -33.999   4.030   4.362  1.00 20.00     0.005 C 
ENDBRANCH   7   8
ENDBRANCH   6   7
BRANCH   6  10
HETATM   10  O10 UNL     1     -33.424   5.896   1.787  1.00 20.00    -0.396 OA
HETATM   11  H26 UNL     1     -34.158   6.353   1.351  1.00 20.00     0.210 HD
ENDBRANCH   6  10
ENDBRANCH   5   6
ENDBRANCH   4   5
ENDBRANCH   2   4
TORSDOF 6
ENDMDL
MODEL 7
REMARK VINA RESULT:      -2.2      1.655      5.480
REMARK  6 active torsions:
REMARK  status: ('A' for Active; 'I' for Inactive)
REMARK    1  A    between atoms: C2_2  and  C5_5 
REMARK    2  A    between atoms: C5_5  and  C7_7 
REMARK    3  A    between atoms: C6_6  and  C8_8 
REMARK    4  A    between atoms: C7_7  and  C9_9 
REMARK    5  A    between atoms: C8_8  and  C9_9 
REMARK    6  A    between atoms: C9_9  and  O10_10 
ROOT
HETATM    1  C1  UNL     1     -32.381   9.542   0.370  1.00 20.00    -0.111 C 
HETATM    2  C2  UNL     1     -32.087   8.555   0.987  1.00 20.00    -0.107 C 
HETATM    3  C3  UNL     1     -32.745  10.744  -0.380  1.00 20.00     0.112 C 
ENDROOT
BRANCH   2   4
HETATM    4  C5  UNL     1     -31.726   7.346   1.738  1.00 20.00     0.096 C 
BRANCH   4   5
HETATM    5  C7  UNL     1     -32.872   6.843   2.616  1.00 20.00     0.044 C 
BRANCH   5   6
HETATM    6  C9  UNL     1     -33.426   7.856   3.630  1.00 20.00     0.119 C 
BRANCH   6   7
HETATM    7  C8  UNL     1     -34.571   7.299   4.487  1.00 20.00     0.031 C 
BRANCH   7   8
HETATM    8  C6  UNL     1     -35.293   6.134   3.803  1.00 20.00    -0.002 C 
HETATM    9  C4  UNL     1     -34.997   4.813   4.496  1.00 20.00     0.005 C 
ENDBRANCH   7   8
ENDBRANCH   6   7
BRANCH   6  10
HETATM   10  O10 UNL     1     -32.347   8.255   4.480  1.00 20.00    -0.396 OA
HETATM   11  H26 UNL     1     -31.597   8.440   3.897  1.00 20.00     0.210 HD
ENDBRANCH   6  10
ENDBRANCH   5   6
ENDBRANCH   4   5
ENDBRANCH   2   4
TORSDOF 6
ENDMDL
MODEL 8
REMARK VINA RESULT:      -1.8      1.563      5.094
REMARK  6 active torsions:
REMARK  status: ('A' for Active; 'I' for Inactive)
REMARK    1  A    between atoms: C2_2  and  C5_5 
REMARK    2  A    between atoms: C5_5  and  C7_7 
REMARK    3  A    between atoms: C6_6  and  C8_8 
REMARK    4  A    between atoms: C7_7  and  C9_9 
REMARK    5  A    between atoms: C8_8  and  C9_9 
REMARK    6  A    between atoms: C9_9  and  O10_10 
ROOT
HETATM    1  C1  UNL     1     -32.246   8.150   1.876  1.00 20.00    -0.111 C 
HETATM    2  C2  UNL     1     -32.593   8.014   3.018  1.00 20.00    -0.107 C 
HETATM    3  C3  UNL     1     -31.820   8.311   0.486  1.00 20.00     0.112 C 
ENDROOT
BRANCH   2   4
HETATM    4  C5  UNL     1     -33.015   7.851   4.414  1.00 20.00     0.096 C 
BRANCH   4   5
HETATM    5  C7  UNL     1     -34.492   7.476   4.536  1.00 20.00     0.044 C 
BRANCH   5   6
HETATM    6  C9  UNL     1     -34.943   6.275   3.689  1.00 20.00     0.119 C 
BRANCH   6   7
HETATM    7  C8  UNL     1     -34.773   4.926   4.400  1.00 20.00     0.031 C 
BRANCH   7   8
HETATM    8  C6  UNL     1     -33.580   4.132   3.858  1.00 20.00    -0.002 C 
HETATM    9  C4  UNL     1     -33.273   2.925   4.731  1.00 20.00     0.005 C 
ENDBRANCH   7   8
ENDBRANCH   6   7
BRANCH   6  10
HETATM   10  O10 UNL     1     -36.322   6.468   3.361  1.00 20.00    -0.396 OA
HETATM   11  H26 UNL     1     -36.394   7.368   3.012  1.00 20.00     0.210 HD
ENDBRANCH   6  10
ENDBRANCH   5   6
ENDBRANCH   4   5
ENDBRANCH   2   4
TORSDOF 6
ENDMDL
MODEL 9
REMARK VINA RESULT:      -1.8      1.922      4.739
REMARK  6 active torsions:
REMARK  status: ('A' for Active; 'I' for Inactive)
REMARK    1  A    between atoms: C2_2  and  C5_5 
REMARK    2  A    between atoms: C5_5  and  C7_7 
REMARK    3  A    between atoms: C6_6  and  C8_8 
REMARK    4  A    between atoms: C7_7  and  C9_9 
REMARK    5  A    between atoms: C8_8  and  C9_9 
REMARK    6  A    between atoms: C9_9  and  O10_10 
ROOT
HETATM    1  C1  UNL     1     -32.450   9.249   0.965  1.00 20.00    -0.111 C 
HETATM    2  C2  UNL     1     -32.407   8.716   2.040  1.00 20.00    -0.107 C 
HETATM    3  C3  UNL     1     -32.498   9.899  -0.345  1.00 20.00     0.112 C 
ENDROOT
BRANCH   2   4
HETATM    4  C5  UNL     1     -32.355   8.067   3.356  1.00 20.00     0.096 C 
BRANCH   4   5
HETATM    5  C7  UNL     1     -33.747   7.769   3.913  1.00 20.00     0.044 C 
BRANCH   5   6
HETATM    6  C9  UNL     1     -34.458   6.549   3.307  1.00 20.00     0.119 C 
BRANCH   6   7
HETATM    7  C8  UNL     1     -33.499   5.422   2.900  1.00 20.00     0.031 C 
BRANCH   7   8
HETATM    8  C6  UNL     1     -33.249   5.391   1.389  1.00 20.00    -0.002 C 
HETATM    9  C4  UNL     1     -31.777   5.179   1.074  1.00 20.00     0.005 C 
ENDBRANCH   7   8
ENDBRANCH   6   7
BRANCH   6  10
HETATM   10  O10 UNL     1     -35.384   6.057   4.280  1.00 20.00    -0.396 OA
HETATM   11  H26 UNL     1     -36.244   6.014   3.838  1.00 20.00     0.210 HD
ENDBRANCH   6  10
ENDBRANCH   5   6
ENDBRANCH   4   5
ENDBRANCH   2   4
TORSDOF 6
ENDMDL
