MODEL 1
REMARK VINA RESULT:      -2.7      0.000      0.000
REMARK  4 active torsions:
REMARK  status: ('A' for Active; 'I' for Inactive)
REMARK    1  A    between atoms: C2_2  and  C7_7 
REMARK    2  A    between atoms: C5_5  and  C8_8 
REMARK    3  A    between atoms: C7_7  and  C8_8 
REMARK    4  A    between atoms: C8_8  and  O9_9 
ROOT
HETATM    1  C1  UNL     1     -32.403   9.411   0.547  1.00 20.00    -0.111 C 
HETATM    2  C2  UNL     1     -32.050   8.480   1.220  1.00 20.00    -0.104 C 
HETATM    3  C6  UNL     1     -32.834  10.544  -0.271  1.00 20.00     0.112 C 
ENDROOT
BRANCH   2   4
HETATM    4  C7  UNL     1     -31.615   7.341   2.044  1.00 20.00     0.126 C 
BRANCH   4   5
HETATM    5  C8  UNL     1     -32.783   6.404   2.358  1.00 20.00     0.133 C 
BRANCH   5   6
HETATM    6  C5  UNL     1     -33.979   7.178   2.896  1.00 20.00     0.015 A 
HETATM    7  C3  UNL     1     -34.952   6.517   3.832  1.00 20.00     0.007 A 
HETATM    8  C4  UNL     1     -34.028   7.587   4.343  1.00 20.00     0.007 A 
ENDBRANCH   5   6
BRANCH   5   9
HETATM    9  O9  UNL     1     -33.175   5.741   1.157  1.00 20.00    -0.394 OA
HETATM   10  H21 UNL     1     -34.103   5.490   1.271  1.00 20.00     0.210 HD
ENDBRANCH   5   9
ENDBRANCH   4   5
ENDBRANCH   2   4
TORSDOF 4
ENDMDL
MODEL 2
REMARK VINA RESULT:      -2.6      1.492      4.221
REMARK  4 active torsions:
REMARK  status: ('A' for Active; 'I' for Inactive)
REMARK    1  A    between atoms: C2_2  and  C7_7 
REMARK    2  A    between atoms: C5_5  and  C8_8 
REMARK    3  A    between atoms: C7_7  and  C8_8 
REMARK    4  A    between atoms: C8_8  and  O9_9 
ROOT
HETATM    1  C1  UNL     1     -34.221   6.321   3.240  1.00 20.00    -0.111 C 
HETATM    2  C2  UNL     1     -33.314   6.452   2.462  1.00 20.00    -0.104 C 
HETATM    3  C6  UNL     1     -35.323   6.160   4.187  1.00 20.00     0.112 C 
ENDROOT
BRANCH   2   4
HETATM    4  C7  UNL     1     -32.204   6.614   1.511  1.00 20.00     0.126 C 
BRANCH   4   5
HETATM    5  C8  UNL     1     -31.719   8.065   1.462  1.00 20.00     0.133 C 
BRANCH   5   6
HETATM    6  C5  UNL     1     -32.749   8.965   0.792  1.00 20.00     0.015 A 
HETATM    7  C3  UNL     1     -32.645  10.460   0.916  1.00 20.00     0.007 A 
HETATM    8  C4  UNL     1     -32.365   9.795  -0.403  1.00 20.00     0.007 A 
ENDBRANCH   5   6
BRANCH   5   9
HETATM    9  O9  UNL     1     -31.515   8.525   2.797  1.00 20.00    -0.394 OA
HETATM   10  H21 UNL     1     -31.308   7.742   3.329  1.00 20.00     0.210 HD
ENDBRANCH   5   9
ENDBRANCH   4   5
ENDBRANCH   2   4
TORSDOF 4
ENDMDL
MODEL 3
REMARK VINA RESULT:      -2.5      2.505      5.099
REMARK  4 active torsions:
REMARK  status: ('A' for Active; 'I' for Inactive)
REMARK    1  A    between atoms: C2_2  and  C7_7 
REMARK    2  A    between atoms: C5_5  and  C8_8 
REMARK    3  A    between atoms: C7_7  and  C8_8 
REMARK    4  A    between atoms: C8_8  and  O9_9 
ROOT
HETATM    1  C1  UNL     1     -33.772   3.572   4.368  1.00 20.00    -0.111 C 
HETATM    2  C2  UNL     1     -34.227   4.655   4.111  1.00 20.00    -0.104 C 
HETATM    3  C6  UNL     1     -33.219   2.256   4.681  1.00 20.00     0.112 C 
ENDROOT
BRANCH   2   4
HETATM    4  C7  UNL     1     -34.782   5.980   3.798  1.00 20.00     0.126 C 
BRANCH   4   5
HETATM    5  C8  UNL     1     -33.677   7.030   3.666  1.00 20.00     0.133 C 
BRANCH   5   6
HETATM    6  C5  UNL     1     -33.315   7.267   2.205  1.00 20.00     0.015 A 
HETATM    7  C3  UNL     1     -32.025   7.949   1.844  1.00 20.00     0.007 A 
HETATM    8  C4  UNL     1     -32.203   6.483   1.565  1.00 20.00     0.007 A 
ENDBRANCH   5   6
BRANCH   5   9
HETATM    9  O9  UNL     1     -34.143   8.259   4.222  1.00 20.00    -0.394 OA
HETATM   10  H21 UNL     1     -33.887   8.956   3.600  1.00 20.00     0.210 HD
ENDBRANCH   5   9
ENDBRANCH   4   5
ENDBRANCH   2   4
TORSDOF 4
ENDMDL
MODEL 4
REMARK VINA RESULT:      -2.2      1.157      4.346
REMARK  4 active torsions:
REMARK  status: ('A' for Active; 'I' for Inactive)
REMARK    1  A    between atoms: C2_2  and  C7_7 
REMARK    2  A    between atoms: C5_5  and  C8_8 
REMARK    3  A    between atoms: C7_7  and  C8_8 
REMARK    4  A    between atoms: C8_8  and  O9_9 
ROOT
HETATM    1  C1  UNL     1     -34.526   6.445   3.902  1.00 20.00    -0.111 C 
HETATM    2  C2  UNL     1     -33.725   7.240   3.491  1.00 20.00    -0.104 C 
HETATM    3  C6  UNL     1     -35.501   5.477   4.401  1.00 20.00     0.112 C 
ENDROOT
BRANCH   2   4
HETATM    4  C7  UNL     1     -32.742   8.214   2.988  1.00 20.00     0.126 C 
BRANCH   4   5
HETATM    5  C8  UNL     1     -32.473   8.012   1.495  1.00 20.00     0.133 C 
BRANCH   5   6
HETATM    6  C5  UNL     1     -31.942   9.289   0.856  1.00 20.00     0.015 A 
HETATM    7  C3  UNL     1     -32.482   9.755  -0.468  1.00 20.00     0.007 A 
HETATM    8  C4  UNL     1     -32.809  10.517   0.786  1.00 20.00     0.007 A 
ENDBRANCH   5   6
BRANCH   5   9
HETATM    9  O9  UNL     1     -31.493   6.987   1.340  1.00 20.00    -0.394 OA
HETATM   10  H21 UNL     1     -31.753   6.267   1.934  1.00 20.00     0.210 HD
ENDBRANCH   5   9
ENDBRANCH   4   5
ENDBRANCH   2   4
TORSDOF 4
ENDMDL
MODEL 5
REMARK VINA RESULT:      -2.0      1.987      4.793
REMARK  4 active torsions:
REMARK  status: ('A' for Active; 'I' for Inactive)
REMARK    1  A    between atoms: C2_2  and  C7_7 
REMARK    2  A    between atoms: C5_5  and  C8_8 
REMARK    3  A    between atoms: C7_7  and  C8_8 
REMARK    4  A    between atoms: C8_8  and  O9_9 
ROOT
HETATM    1  C1  UNL     1     -33.664   3.863   4.244  1.00 20.00    -0.111 C 
HETATM    2  C2  UNL     1     -33.943   4.967   3.860  1.00 20.00    -0.104 C 
HETATM    3  C6  UNL     1     -33.325   2.519   4.710  1.00 20.00     0.112 C 
ENDROOT
BRANCH   2   4
HETATM    4  C7  UNL     1     -34.282   6.319   3.389  1.00 20.00     0.126 C 
BRANCH   4   5
HETATM    5  C8  UNL     1     -33.535   6.664   2.099  1.00 20.00     0.133 C 
BRANCH   5   6
HETATM    6  C5  UNL     1     -32.541   7.795   2.326  1.00 20.00     0.015 A 
HETATM    7  C3  UNL     1     -31.260   7.848   1.541  1.00 20.00     0.007 A 
HETATM    8  C4  UNL     1     -32.346   8.853   1.274  1.00 20.00     0.007 A 
ENDBRANCH   5   6
BRANCH   5   9
HETATM    9  O9  UNL     1     -32.817   5.510   1.663  1.00 20.00    -0.394 OA
HETATM   10  H21 UNL     1     -33.249   5.210   0.850  1.00 20.00     0.210 HD
ENDBRANCH   5   9
ENDBRANCH   4   5
ENDBRANCH   2   4
TORSDOF 4
ENDMDL
MODEL 6
REMARK VINA RESULT:      -1.9      0.991      1.065
REMARK  4 active torsions:
REMARK  status: ('A' for Active; 'I' for Inactive)
REMARK    1  A    between atoms: C2_2  and  C7_7 
REMARK    2  A    between atoms: C5_5  and  C8_8 
REMARK    3  A    between atoms: C7_7  and  C8_8 
REMARK    4  A    between atoms: C8_8  and  O9_9 
ROOT
HETATM    1  C1  UNL     1     -32.339   8.761   0.878  1.00 20.00    -0.111 C 
HETATM    2  C2  UNL     1     -32.321   7.595   1.167  1.00 20.00    -0.104 C 
HETATM    3  C6  UNL     1     -32.363  10.179   0.525  1.00 20.00     0.112 C 
ENDROOT
BRANCH   2   4
HETATM    4  C7  UNL     1     -32.298   6.167   1.524  1.00 20.00     0.126 C 
BRANCH   4   5
HETATM    5  C8  UNL     1     -32.951   5.923   2.886  1.00 20.00     0.133 C 
BRANCH   5   6
HETATM    6  C5  UNL     1     -34.178   6.805   3.072  1.00 20.00     0.015 A 
HETATM    7  C3  UNL     1     -35.260   6.406   4.038  1.00 20.00     0.007 A 
HETATM    8  C4  UNL     1     -34.369   7.576   4.350  1.00 20.00     0.007 A 
ENDBRANCH   5   6
BRANCH   5   9
HETATM    9  O9  UNL     1     -33.359   4.557   2.960  1.00 20.00    -0.394 OA
HETATM   10  H21 UNL     1     -32.922   4.183   3.740  1.00 20.00     0.210 HD
ENDBRANCH   5   9
ENDBRANCH   4   5
ENDBRANCH   2   4
TORSDOF 4
ENDMDL
MODEL 7
REMARK VINA RESULT:      -1.8      2.595      3.544
REMARK  4 active torsions:
REMARK  status: ('A' for Active; 'I' for Inactive)
REMARK    1  A    between atoms: C2_2  and  C7_7 
REMARK    2  A    between atoms: C5_5  and  C8_8 
REMARK    3  A    between atoms: C7_7  and  C8_8 
REMARK    4  A    between atoms: C8_8  and  O9_9 
ROOT
HETATM    1  C1  UNL     1     -32.735   7.614   2.397  1.00 20.00    -0.111 C 
HETATM    2  C2  UNL     1     -33.572   7.196   3.151  1.00 20.00    -0.104 C 
HETATM    3  C6  UNL     1     -31.718   8.124   1.480  1.00 20.00     0.112 C 
ENDROOT
BRANCH   2   4
HETATM    4  C7  UNL     1     -34.596   6.684   4.076  1.00 20.00     0.126 C 
BRANCH   4   5
HETATM    5  C8  UNL     1     -34.785   5.174   3.915  1.00 20.00     0.133 C 
BRANCH   5   6
HETATM    6  C5  UNL     1     -33.475   4.430   4.138  1.00 20.00     0.015 A 
HETATM    7  C3  UNL     1     -33.351   3.428   5.253  1.00 20.00     0.007 A 
HETATM    8  C4  UNL     1     -33.375   2.962   3.824  1.00 20.00     0.007 A 
ENDBRANCH   5   6
BRANCH   5   9
HETATM    9  O9  UNL     1     -35.732   4.725   4.884  1.00 20.00    -0.394 OA
HETATM   10  H21 UNL     1     -35.601   3.769   4.974  1.00 20.00     0.210 HD
ENDBRANCH   5   9
ENDBRANCH   4   5
ENDBRANCH   2   4
TORSDOF 4
ENDMDL
MODEL 8
REMARK VINA RESULT:      -1.7      1.564      1.773
REMARK  4 active torsions:
REMARK  status: ('A' for Active; 'I' for Inactive)
REMARK    1  A    between atoms: C2_2  and  C7_7 
REMARK    2  A    between atoms: C5_5  and  C8_8 
REMARK    3  A    between atoms: C7_7  and  C8_8 
REMARK    4  A    between atoms: C8_8  and  O9_9 
ROOT
HETATM    1  C1  UNL     1     -32.372   9.489   0.547  1.00 20.00    -0.111 C 
HETATM    2  C2  UNL     1     -32.319   8.658   1.413  1.00 20.00    -0.104 C 
HETATM    3  C6  UNL     1     -32.438  10.500  -0.507  1.00 20.00     0.112 C 
ENDROOT
BRANCH   2   4
HETATM    4  C7  UNL     1     -32.253   7.642   2.475  1.00 20.00     0.126 C 
BRANCH   4   5
HETATM    5  C8  UNL     1     -33.515   7.659   3.341  1.00 20.00     0.133 C 
BRANCH   5   6
HETATM    6  C5  UNL     1     -34.325   6.383   3.157  1.00 20.00     0.015 A 
HETATM    7  C3  UNL     1     -34.230   5.272   4.166  1.00 20.00     0.007 A 
HETATM    8  C4  UNL     1     -35.489   6.088   4.064  1.00 20.00     0.007 A 
ENDBRANCH   5   6
BRANCH   5   9
HETATM    9  O9  UNL     1     -33.129   7.758   4.711  1.00 20.00    -0.394 OA
HETATM   10  H21 UNL     1     -33.634   8.494   5.086  1.00 20.00     0.210 HD
ENDBRANCH   5   9
ENDBRANCH   4   5
ENDBRANCH   2   4
TORSDOF 4
ENDMDL
MODEL 9
REMARK VINA RESULT:      -0.9      2.265      3.104
REMARK  4 active torsions:
REMARK  status: ('A' for Active; 'I' for Inactive)
REMARK    1  A    between atoms: C2_2  and  C7_7 
REMARK    2  A    between atoms: C5_5  and  C8_8 
REMARK    3  A    between atoms: C7_7  and  C8_8 
REMARK    4  A    between atoms: C8_8  and  O9_9 
ROOT
HETATM    1  C1  UNL     1     -32.117   5.791   1.230  1.00 20.00    -0.111 C 
HETATM    2  C2  UNL     1     -32.287   6.799   1.861  1.00 20.00    -0.104 C 
HETATM    3  C6  UNL     1     -31.911   4.563   0.464  1.00 20.00     0.112 C 
ENDROOT
BRANCH   2   4
HETATM    4  C7  UNL     1     -32.496   8.034   2.634  1.00 20.00     0.126 C 
BRANCH   4   5
HETATM    5  C8  UNL     1     -33.655   7.883   3.622  1.00 20.00     0.133 C 
BRANCH   5   6
HETATM    6  C5  UNL     1     -34.371   6.553   3.429  1.00 20.00     0.015 A 
HETATM    7  C3  UNL     1     -35.151   5.940   4.559  1.00 20.00     0.007 A 
HETATM    8  C4  UNL     1     -35.874   6.504   3.367  1.00 20.00     0.007 A 
ENDBRANCH   5   6
BRANCH   5   9
HETATM    9  O9  UNL     1     -33.134   7.928   4.950  1.00 20.00    -0.394 OA
HETATM   10  H21 UNL     1     -32.715   8.796   5.050  1.00 20.00     0.210 HD
ENDBRANCH   5   9
ENDBRANCH   4   5
ENDBRANCH   2   4
TORSDOF 4
ENDMDL
