MODEL 1
REMARK VINA RESULT:      -0.8      0.000      0.000
REMARK  3 active torsions:
REMARK  status: ('A' for Active; 'I' for Inactive)
REMARK    1  A    between atoms: C2_2  and  C11_11 
REMARK    2  A    between atoms: C7_7  and  C11_11 
REMARK    3  A    between atoms: C8_8  and  C12_12 
ROOT
HETATM    1  C1  UNL     1     -33.902   3.616   4.565  1.00 20.00    -0.111 C 
HETATM    2  C2  UNL     1     -34.488   4.648   4.389  1.00 20.00    -0.106 C 
HETATM    3  C9  UNL     1     -33.188   2.357   4.780  1.00 20.00     0.112 C 
ENDROOT
BRANCH   2   4
HETATM    4  C11 UNL     1     -35.196   5.913   4.171  1.00 20.00     0.106 C 
BRANCH   4   5
HETATM    5  C7  UNL     1     -34.390   6.845   3.274  1.00 20.00     0.067 C 
HETATM    6  C3  UNL     1     -33.536   7.801   4.104  1.00 20.00     0.132 C 
HETATM    7  C4  UNL     1     -32.247   8.292   3.475  1.00 20.00     0.079 C 
HETATM    8  O13 UNL     1     -33.862   8.164   5.234  1.00 20.00    -0.298 OA
HETATM    9  C5  UNL     1     -32.384   8.331   1.960  1.00 20.00     0.012 C 
HETATM   10  C8  UNL     1     -32.710   6.951   1.360  1.00 20.00    -0.014 C 
HETATM   11  C6  UNL     1     -33.474   6.044   2.343  1.00 20.00     0.017 C 
BRANCH  10  12
HETATM   12  C12 UNL     1     -31.447   6.245   0.865  1.00 20.00     0.000 C 
HETATM   13  C10 UNL     1     -31.577   4.759   0.946  1.00 20.00     0.005 C 
ENDBRANCH  10  12
ENDBRANCH   4   5
ENDBRANCH   2   4
TORSDOF 3
ENDMDL
MODEL 2
REMARK VINA RESULT:       0.7      1.874      2.878
REMARK  3 active torsions:
REMARK  status: ('A' for Active; 'I' for Inactive)
REMARK    1  A    between atoms: C2_2  and  C11_11 
REMARK    2  A    between atoms: C7_7  and  C11_11 
REMARK    3  A    between atoms: C8_8  and  C12_12 
ROOT
HETATM    1  C1  UNL     1     -33.759   3.787   4.354  1.00 20.00    -0.111 C 
HETATM    2  C2  UNL     1     -34.071   4.875   3.955  1.00 20.00    -0.106 C 
HETATM    3  C9  UNL     1     -33.379   2.461   4.842  1.00 20.00     0.112 C 
ENDROOT
BRANCH   2   4
HETATM    4  C11 UNL     1     -34.445   6.205   3.466  1.00 20.00     0.106 C 
BRANCH   4   5
HETATM    5  C7  UNL     1     -33.233   6.945   2.911  1.00 20.00     0.067 C 
HETATM    6  C3  UNL     1     -32.646   6.210   1.708  1.00 20.00     0.132 C 
HETATM    7  C4  UNL     1     -31.937   7.053   0.667  1.00 20.00     0.079 C 
HETATM    8  O13 UNL     1     -32.736   4.990   1.573  1.00 20.00    -0.298 OA
HETATM    9  C5  UNL     1     -31.336   8.292   1.315  1.00 20.00     0.012 C 
HETATM   10  C8  UNL     1     -32.395   9.174   2.001  1.00 20.00    -0.014 C 
HETATM   11  C6  UNL     1     -33.615   8.366   2.484  1.00 20.00     0.017 C 
BRANCH  10  12
HETATM   12  C12 UNL     1     -32.847  10.315   1.089  1.00 20.00     0.000 C 
HETATM   13  C10 UNL     1     -32.605   9.999  -0.351  1.00 20.00     0.005 C 
ENDBRANCH  10  12
ENDBRANCH   4   5
ENDBRANCH   2   4
TORSDOF 3
ENDMDL
MODEL 3
REMARK VINA RESULT:       1.3      2.177      5.394
REMARK  3 active torsions:
REMARK  status: ('A' for Active; 'I' for Inactive)
REMARK    1  A    between atoms: C2_2  and  C11_11 
REMARK    2  A    between atoms: C7_7  and  C11_11 
REMARK    3  A    between atoms: C8_8  and  C12_12 
ROOT
HETATM    1  C1  UNL     1     -32.204   9.969   0.316  1.00 20.00    -0.111 C 
HETATM    2  C2  UNL     1     -32.065   8.807   0.580  1.00 20.00    -0.106 C 
HETATM    3  C9  UNL     1     -32.372  11.386  -0.007  1.00 20.00     0.112 C 
ENDROOT
BRANCH   2   4
HETATM    4  C11 UNL     1     -31.903   7.388   0.909  1.00 20.00     0.106 C 
BRANCH   4   5
HETATM    5  C7  UNL     1     -33.065   6.885   1.756  1.00 20.00     0.067 C 
HETATM    6  C3  UNL     1     -32.874   5.417   2.133  1.00 20.00     0.132 C 
HETATM    7  C4  UNL     1     -33.497   4.956   3.436  1.00 20.00     0.079 C 
HETATM    8  O13 UNL     1     -32.244   4.632   1.425  1.00 20.00    -0.298 OA
HETATM    9  C5  UNL     1     -34.733   5.787   3.750  1.00 20.00     0.012 C 
HETATM   10  C8  UNL     1     -34.420   7.289   3.878  1.00 20.00    -0.014 C 
HETATM   11  C6  UNL     1     -33.199   7.712   3.039  1.00 20.00     0.017 C 
BRANCH  10  12
HETATM   12  C12 UNL     1     -34.222   7.694   5.339  1.00 20.00     0.000 C 
HETATM   13  C10 UNL     1     -32.944   8.442   5.536  1.00 20.00     0.005 C 
ENDBRANCH  10  12
ENDBRANCH   4   5
ENDBRANCH   2   4
TORSDOF 3
ENDMDL
MODEL 4
REMARK VINA RESULT:       1.6      1.648      4.481
REMARK  3 active torsions:
REMARK  status: ('A' for Active; 'I' for Inactive)
REMARK    1  A    between atoms: C2_2  and  C11_11 
REMARK    2  A    between atoms: C7_7  and  C11_11 
REMARK    3  A    between atoms: C8_8  and  C12_12 
ROOT
HETATM    1  C1  UNL     1     -32.512   9.762   0.353  1.00 20.00    -0.111 C 
HETATM    2  C2  UNL     1     -32.250   9.363   1.454  1.00 20.00    -0.106 C 
HETATM    3  C9  UNL     1     -32.831  10.247  -0.990  1.00 20.00     0.112 C 
ENDROOT
BRANCH   2   4
HETATM    4  C11 UNL     1     -31.927   8.884   2.801  1.00 20.00     0.106 C 
BRANCH   4   5
HETATM    5  C7  UNL     1     -32.316   7.419   2.970  1.00 20.00     0.067 C 
HETATM    6  C3  UNL     1     -33.658   7.288   3.685  1.00 20.00     0.132 C 
HETATM    7  C4  UNL     1     -34.492   6.064   3.361  1.00 20.00     0.079 C 
HETATM    8  O13 UNL     1     -34.062   8.128   4.489  1.00 20.00    -0.298 OA
HETATM    9  C5  UNL     1     -33.590   4.902   2.971  1.00 20.00     0.012 C 
HETATM   10  C8  UNL     1     -32.713   5.219   1.746  1.00 20.00    -0.014 C 
HETATM   11  C6  UNL     1     -32.410   6.723   1.609  1.00 20.00     0.017 C 
BRANCH  10  12
HETATM   12  C12 UNL     1     -33.342   4.688   0.457  1.00 20.00     0.000 C 
HETATM   13  C10 UNL     1     -34.230   5.705  -0.182  1.00 20.00     0.005 C 
ENDBRANCH  10  12
ENDBRANCH   4   5
ENDBRANCH   2   4
TORSDOF 3
ENDMDL
