MODEL 1
REMARK VINA RESULT:      -1.8      0.000      0.000
REMARK  3 active torsions:
REMARK  status: ('A' for Active; 'I' for Inactive)
REMARK    1  A    between atoms: C1_1  and  C3_3 
REMARK    2  A    between atoms: C2_2  and  C4_4 
REMARK    3  A    between atoms: C4_4  and  S7_7 
ROOT
HETATM    1  C1  UNL     1     -33.256   6.980   2.230  1.00 20.00     0.081 C 
HETATM    2  C2  UNL     1     -32.432   8.036   2.192  1.00 20.00    -0.010 C 
ENDROOT
BRANCH   1   3
HETATM    3  C3  UNL     1     -34.006   6.580   3.509  1.00 20.00     0.198 C 
HETATM    4  O5  UNL     1     -34.214   5.348   3.690  1.00 20.00    -0.645 OA
HETATM    5  O6  UNL     1     -34.332   7.559   4.241  1.00 20.00    -0.645 OA
ENDBRANCH   1   3
BRANCH   2   6
HETATM    6  C4  UNL     1     -31.675   8.446   0.966  1.00 20.00     0.098 C 
BRANCH   6   7
HETATM    7  S7  UNL     1     -32.473   9.875   0.188  1.00 20.00    -0.178 SA
HETATM    8  H12 UNL     1     -33.529   9.917   1.012  1.00 20.00     0.101 HD
ENDBRANCH   6   7
ENDBRANCH   2   6
TORSDOF 3
ENDMDL
MODEL 2
REMARK VINA RESULT:      -1.7      0.203      1.229
REMARK  3 active torsions:
REMARK  status: ('A' for Active; 'I' for Inactive)
REMARK    1  A    between atoms: C1_1  and  C3_3 
REMARK    2  A    between atoms: C2_2  and  C4_4 
REMARK    3  A    between atoms: C4_4  and  S7_7 
ROOT
HETATM    1  C1  UNL     1     -33.220   6.799   2.242  1.00 20.00     0.081 C 
HETATM    2  C2  UNL     1     -32.535   7.949   2.197  1.00 20.00    -0.010 C 
ENDROOT
BRANCH   1   3
HETATM    3  C3  UNL     1     -34.034   6.386   3.477  1.00 20.00     0.198 C 
HETATM    4  O5  UNL     1     -34.561   7.314   4.153  1.00 20.00    -0.645 OA
HETATM    5  O6  UNL     1     -34.078   5.136   3.670  1.00 20.00    -0.645 OA
ENDBRANCH   1   3
BRANCH   2   6
HETATM    6  C4  UNL     1     -31.720   8.376   1.014  1.00 20.00     0.098 C 
BRANCH   6   7
HETATM    7  S7  UNL     1     -32.451   9.849   0.251  1.00 20.00    -0.178 SA
HETATM    8  H12 UNL     1     -32.382  10.626   1.341  1.00 20.00     0.101 HD
ENDBRANCH   6   7
ENDBRANCH   2   6
TORSDOF 3
ENDMDL
MODEL 3
REMARK VINA RESULT:      -1.5      2.092      2.400
REMARK  3 active torsions:
REMARK  status: ('A' for Active; 'I' for Inactive)
REMARK    1  A    between atoms: C1_1  and  C3_3 
REMARK    2  A    between atoms: C2_2  and  C4_4 
REMARK    3  A    between atoms: C4_4  and  S7_7 
ROOT
HETATM    1  C1  UNL     1     -33.820   5.792   3.383  1.00 20.00     0.081 C 
HETATM    2  C2  UNL     1     -33.932   7.073   3.759  1.00 20.00    -0.010 C 
ENDROOT
BRANCH   1   3
HETATM    3  C3  UNL     1     -34.505   4.656   4.155  1.00 20.00     0.198 C 
HETATM    4  O5  UNL     1     -33.888   3.556   4.225  1.00 20.00    -0.645 OA
HETATM    5  O6  UNL     1     -35.633   4.968   4.637  1.00 20.00    -0.645 OA
ENDBRANCH   1   3
BRANCH   2   6
HETATM    6  C4  UNL     1     -33.266   8.205   3.038  1.00 20.00     0.098 C 
BRANCH   6   7
HETATM    7  S7  UNL     1     -32.068   7.563   1.838  1.00 20.00    -0.178 SA
HETATM    8  H12 UNL     1     -32.967   6.970   1.040  1.00 20.00     0.101 HD
ENDBRANCH   6   7
ENDBRANCH   2   6
TORSDOF 3
ENDMDL
MODEL 4
REMARK VINA RESULT:      -1.3      3.338      4.098
REMARK  3 active torsions:
REMARK  status: ('A' for Active; 'I' for Inactive)
REMARK    1  A    between atoms: C1_1  and  C3_3 
REMARK    2  A    between atoms: C2_2  and  C4_4 
REMARK    3  A    between atoms: C4_4  and  S7_7 
ROOT
HETATM    1  C1  UNL     1     -33.201   7.044   2.601  1.00 20.00     0.081 C 
HETATM    2  C2  UNL     1     -34.106   7.243   3.569  1.00 20.00    -0.010 C 
ENDROOT
BRANCH   1   3
HETATM    3  C3  UNL     1     -32.184   8.124   2.204  1.00 20.00     0.198 C 
HETATM    4  O5  UNL     1     -32.204   8.518   1.004  1.00 20.00    -0.645 OA
HETATM    5  O6  UNL     1     -31.433   8.496   3.152  1.00 20.00    -0.645 OA
ENDBRANCH   1   3
BRANCH   2   6
HETATM    6  C4  UNL     1     -35.120   6.216   3.972  1.00 20.00     0.098 C 
BRANCH   6   7
HETATM    7  S7  UNL     1     -34.331   4.593   4.145  1.00 20.00    -0.178 SA
HETATM    8  H12 UNL     1     -33.400   4.979   5.028  1.00 20.00     0.101 HD
ENDBRANCH   6   7
ENDBRANCH   2   6
TORSDOF 3
ENDMDL
MODEL 5
REMARK VINA RESULT:      -1.3      3.360      4.160
REMARK  3 active torsions:
REMARK  status: ('A' for Active; 'I' for Inactive)
REMARK    1  A    between atoms: C1_1  and  C3_3 
REMARK    2  A    between atoms: C2_2  and  C4_4 
REMARK    3  A    between atoms: C4_4  and  S7_7 
ROOT
HETATM    1  C1  UNL     1     -33.239   7.042   2.635  1.00 20.00     0.081 C 
HETATM    2  C2  UNL     1     -34.087   7.211   3.658  1.00 20.00    -0.010 C 
ENDROOT
BRANCH   1   3
HETATM    3  C3  UNL     1     -32.177   8.091   2.278  1.00 20.00     0.198 C 
HETATM    4  O5  UNL     1     -31.484   8.553   3.228  1.00 20.00    -0.645 OA
HETATM    5  O6  UNL     1     -32.124   8.371   1.045  1.00 20.00    -0.645 OA
ENDBRANCH   1   3
BRANCH   2   6
HETATM    6  C4  UNL     1     -35.143   6.214   4.026  1.00 20.00     0.098 C 
BRANCH   6   7
HETATM    7  S7  UNL     1     -34.408   4.569   4.227  1.00 20.00    -0.178 SA
HETATM    8  H12 UNL     1     -33.138   4.990   4.318  1.00 20.00     0.101 HD
ENDBRANCH   6   7
ENDBRANCH   2   6
TORSDOF 3
ENDMDL
MODEL 6
REMARK VINA RESULT:      -1.0      4.009      4.551
REMARK  3 active torsions:
REMARK  status: ('A' for Active; 'I' for Inactive)
REMARK    1  A    between atoms: C1_1  and  C3_3 
REMARK    2  A    between atoms: C2_2  and  C4_4 
REMARK    3  A    between atoms: C4_4  and  S7_7 
ROOT
HETATM    1  C1  UNL     1     -33.825   4.084   4.028  1.00 20.00     0.081 C 
HETATM    2  C2  UNL     1     -34.760   4.877   4.570  1.00 20.00    -0.010 C 
ENDROOT
BRANCH   1   3
HETATM    3  C3  UNL     1     -33.241   2.882   4.784  1.00 20.00     0.198 C 
HETATM    4  O5  UNL     1     -32.466   3.134   5.749  1.00 20.00    -0.645 OA
HETATM    5  O6  UNL     1     -33.617   1.760   4.336  1.00 20.00    -0.645 OA
ENDBRANCH   1   3
BRANCH   2   6
HETATM    6  C4  UNL     1     -35.342   6.064   3.866  1.00 20.00     0.098 C 
BRANCH   6   7
HETATM    7  S7  UNL     1     -34.151   7.430   3.854  1.00 20.00    -0.178 SA
HETATM    8  H12 UNL     1     -34.960   8.331   4.429  1.00 20.00     0.101 HD
ENDBRANCH   6   7
ENDBRANCH   2   6
TORSDOF 3
ENDMDL
MODEL 7
REMARK VINA RESULT:      -1.0      3.545      4.251
REMARK  3 active torsions:
REMARK  status: ('A' for Active; 'I' for Inactive)
REMARK    1  A    between atoms: C1_1  and  C3_3 
REMARK    2  A    between atoms: C2_2  and  C4_4 
REMARK    3  A    between atoms: C4_4  and  S7_7 
ROOT
HETATM    1  C1  UNL     1     -32.362   8.173   1.868  1.00 20.00     0.081 C 
HETATM    2  C2  UNL     1     -32.865   6.955   1.629  1.00 20.00    -0.010 C 
ENDROOT
BRANCH   1   3
HETATM    3  C3  UNL     1     -31.987   9.135   0.731  1.00 20.00     0.198 C 
HETATM    4  O5  UNL     1     -32.665  10.196   0.630  1.00 20.00    -0.645 OA
HETATM    5  O6  UNL     1     -31.021   8.736   0.017  1.00 20.00    -0.645 OA
ENDBRANCH   1   3
BRANCH   2   6
HETATM    6  C4  UNL     1     -33.229   5.987   2.713  1.00 20.00     0.098 C 
BRANCH   6   7
HETATM    7  S7  UNL     1     -34.515   6.695   3.777  1.00 20.00    -0.178 SA
HETATM    8  H12 UNL     1     -34.061   7.955   3.733  1.00 20.00     0.101 HD
ENDBRANCH   6   7
ENDBRANCH   2   6
TORSDOF 3
ENDMDL
MODEL 8
REMARK VINA RESULT:      -1.0      3.515      4.122
REMARK  3 active torsions:
REMARK  status: ('A' for Active; 'I' for Inactive)
REMARK    1  A    between atoms: C1_1  and  C3_3 
REMARK    2  A    between atoms: C2_2  and  C4_4 
REMARK    3  A    between atoms: C4_4  and  S7_7 
ROOT
HETATM    1  C1  UNL     1     -32.339   8.136   1.875  1.00 20.00     0.081 C 
HETATM    2  C2  UNL     1     -32.890   6.937   1.646  1.00 20.00    -0.010 C 
ENDROOT
BRANCH   1   3
HETATM    3  C3  UNL     1     -31.964   9.090   0.731  1.00 20.00     0.198 C 
HETATM    4  O5  UNL     1     -31.004   8.744  -0.013  1.00 20.00    -0.645 OA
HETATM    5  O6  UNL     1     -32.681  10.132   0.675  1.00 20.00    -0.645 OA
ENDBRANCH   1   3
BRANCH   2   6
HETATM    6  C4  UNL     1     -33.256   5.977   2.736  1.00 20.00     0.098 C 
BRANCH   6   7
HETATM    7  S7  UNL     1     -34.541   6.694   3.795  1.00 20.00    -0.178 SA
HETATM    8  H12 UNL     1     -34.034   7.935   3.817  1.00 20.00     0.101 HD
ENDBRANCH   6   7
ENDBRANCH   2   6
TORSDOF 3
ENDMDL
MODEL 9
REMARK VINA RESULT:      -0.9      3.827      4.385
REMARK  3 active torsions:
REMARK  status: ('A' for Active; 'I' for Inactive)
REMARK    1  A    between atoms: C1_1  and  C3_3 
REMARK    2  A    between atoms: C2_2  and  C4_4 
REMARK    3  A    between atoms: C4_4  and  S7_7 
ROOT
HETATM    1  C1  UNL     1     -31.951   8.898   0.509  1.00 20.00     0.081 C 
HETATM    2  C2  UNL     1     -32.359   8.225   1.593  1.00 20.00    -0.010 C 
ENDROOT
BRANCH   1   3
HETATM    3  C3  UNL     1     -32.597  10.226   0.086  1.00 20.00     0.198 C 
HETATM    4  O5  UNL     1     -33.160  10.256  -1.044  1.00 20.00    -0.645 OA
HETATM    5  O6  UNL     1     -32.482  11.149   0.944  1.00 20.00    -0.645 OA
ENDBRANCH   1   3
BRANCH   2   6
HETATM    6  C4  UNL     1     -31.761   6.922   2.026  1.00 20.00     0.098 C 
BRANCH   6   7
HETATM    7  S7  UNL     1     -32.820   5.544   1.507  1.00 20.00    -0.178 SA
HETATM    8  H12 UNL     1     -32.259   5.379   0.301  1.00 20.00     0.101 HD
ENDBRANCH   6   7
ENDBRANCH   2   6
TORSDOF 3
ENDMDL
