MODEL 1
REMARK VINA RESULT:      -2.6      0.000      0.000
REMARK  2 active torsions:
REMARK  status: ('A' for Active; 'I' for Inactive)
REMARK    1  A    between atoms: C1_1  and  C3_3 
REMARK    2  A    between atoms: C2_2  and  C4_4 
ROOT
HETATM    1  C1  UNL     1     -33.346   6.320   2.395  1.00 20.00    -0.015 C 
HETATM    2  C2  UNL     1     -32.404   6.866   1.612  1.00 20.00    -0.015 C 
ENDROOT
BRANCH   1   3
HETATM    3  C3  UNL     1     -33.944   7.010   3.577  1.00 20.00     0.141 C 
HETATM    4 CL5  UNL     1     -35.427   6.171   4.080  1.00 20.00    -0.126 Cl
ENDBRANCH   1   3
BRANCH   2   5
HETATM    5  C4  UNL     1     -31.839   8.230   1.829  1.00 20.00     0.141 C 
HETATM    6 CL6  UNL     1     -32.333   9.307   0.504  1.00 20.00    -0.126 Cl
ENDBRANCH   2   5
TORSDOF 2
ENDMDL
MODEL 2
REMARK VINA RESULT:      -2.6      0.018      3.788
REMARK  2 active torsions:
REMARK  status: ('A' for Active; 'I' for Inactive)
REMARK    1  A    between atoms: C1_1  and  C3_3 
REMARK    2  A    between atoms: C2_2  and  C4_4 
ROOT
HETATM    1  C1  UNL     1     -32.407   6.853   1.611  1.00 20.00    -0.015 C 
HETATM    2  C2  UNL     1     -33.355   6.307   2.388  1.00 20.00    -0.015 C 
ENDROOT
BRANCH   1   3
HETATM    3  C3  UNL     1     -31.836   8.214   1.833  1.00 20.00     0.141 C 
HETATM    4 CL5  UNL     1     -32.314   9.293   0.504  1.00 20.00    -0.126 Cl
ENDBRANCH   1   3
BRANCH   2   5
HETATM    5  C4  UNL     1     -33.953   6.997   3.569  1.00 20.00     0.141 C 
HETATM    6 CL6  UNL     1     -35.432   6.153   4.077  1.00 20.00    -0.126 Cl
ENDBRANCH   2   5
TORSDOF 2
ENDMDL
MODEL 3
REMARK VINA RESULT:      -2.3      2.911      4.418
REMARK  2 active torsions:
REMARK  status: ('A' for Active; 'I' for Inactive)
REMARK    1  A    between atoms: C1_1  and  C3_3 
REMARK    2  A    between atoms: C2_2  and  C4_4 
ROOT
HETATM    1  C1  UNL     1     -35.165   6.231   4.247  1.00 20.00    -0.015 C 
HETATM    2  C2  UNL     1     -34.972   4.905   4.309  1.00 20.00    -0.015 C 
ENDROOT
BRANCH   1   3
HETATM    3  C3  UNL     1     -34.191   7.182   3.633  1.00 20.00     0.141 C 
HETATM    4 CL5  UNL     1     -33.403   8.144   4.901  1.00 20.00    -0.126 Cl
ENDBRANCH   1   3
BRANCH   2   5
HETATM    5  C4  UNL     1     -33.760   4.220   3.771  1.00 20.00     0.141 C 
HETATM    6 CL6  UNL     1     -33.217   2.969   4.909  1.00 20.00    -0.126 Cl
ENDBRANCH   2   5
TORSDOF 2
ENDMDL
MODEL 4
REMARK VINA RESULT:      -2.3      2.913      3.618
REMARK  2 active torsions:
REMARK  status: ('A' for Active; 'I' for Inactive)
REMARK    1  A    between atoms: C1_1  and  C3_3 
REMARK    2  A    between atoms: C2_2  and  C4_4 
ROOT
HETATM    1  C1  UNL     1     -34.992   4.914   4.298  1.00 20.00    -0.015 C 
HETATM    2  C2  UNL     1     -35.164   6.244   4.248  1.00 20.00    -0.015 C 
ENDROOT
BRANCH   1   3
HETATM    3  C3  UNL     1     -33.794   4.212   3.750  1.00 20.00     0.141 C 
HETATM    4 CL5  UNL     1     -33.237   2.979   4.900  1.00 20.00    -0.126 Cl
ENDBRANCH   1   3
BRANCH   2   5
HETATM    5  C4  UNL     1     -34.177   7.182   3.637  1.00 20.00     0.141 C 
HETATM    6 CL6  UNL     1     -33.338   8.092   4.912  1.00 20.00    -0.126 Cl
ENDBRANCH   2   5
TORSDOF 2
ENDMDL
MODEL 5
REMARK VINA RESULT:      -2.3      1.393      1.975
REMARK  2 active torsions:
REMARK  status: ('A' for Active; 'I' for Inactive)
REMARK    1  A    between atoms: C1_1  and  C3_3 
REMARK    2  A    between atoms: C2_2  and  C4_4 
ROOT
HETATM    1  C1  UNL     1     -34.455   7.207   4.269  1.00 20.00    -0.015 C 
HETATM    2  C2  UNL     1     -33.400   7.606   3.543  1.00 20.00    -0.015 C 
ENDROOT
BRANCH   1   3
HETATM    3  C3  UNL     1     -35.333   6.058   3.894  1.00 20.00     0.141 C 
HETATM    4 CL5  UNL     1     -34.544   4.527   4.329  1.00 20.00    -0.126 Cl
ENDBRANCH   1   3
BRANCH   2   5
HETATM    5  C4  UNL     1     -32.976   6.950   2.272  1.00 20.00     0.141 C 
HETATM    6 CL6  UNL     1     -31.778   7.962   1.438  1.00 20.00    -0.126 Cl
ENDBRANCH   2   5
TORSDOF 2
ENDMDL
MODEL 6
REMARK VINA RESULT:      -2.2      1.326      4.155
REMARK  2 active torsions:
REMARK  status: ('A' for Active; 'I' for Inactive)
REMARK    1  A    between atoms: C1_1  and  C3_3 
REMARK    2  A    between atoms: C2_2  and  C4_4 
ROOT
HETATM    1  C1  UNL     1     -33.359   7.660   3.551  1.00 20.00    -0.015 C 
HETATM    2  C2  UNL     1     -34.423   7.260   4.262  1.00 20.00    -0.015 C 
ENDROOT
BRANCH   1   3
HETATM    3  C3  UNL     1     -32.936   7.029   2.266  1.00 20.00     0.141 C 
HETATM    4 CL5  UNL     1     -31.902   8.149   1.353  1.00 20.00    -0.126 Cl
ENDBRANCH   1   3
BRANCH   2   5
HETATM    5  C4  UNL     1     -35.313   6.133   3.854  1.00 20.00     0.141 C 
HETATM    6 CL6  UNL     1     -34.592   4.585   4.342  1.00 20.00    -0.126 Cl
ENDBRANCH   2   5
TORSDOF 2
ENDMDL
MODEL 7
REMARK VINA RESULT:      -2.1      0.939      1.058
REMARK  2 active torsions:
REMARK  status: ('A' for Active; 'I' for Inactive)
REMARK    1  A    between atoms: C1_1  and  C3_3 
REMARK    2  A    between atoms: C2_2  and  C4_4 
ROOT
HETATM    1  C1  UNL     1     -32.611   7.114   2.283  1.00 20.00    -0.015 C 
HETATM    2  C2  UNL     1     -32.061   7.876   1.326  1.00 20.00    -0.015 C 
ENDROOT
BRANCH   1   3
HETATM    3  C3  UNL     1     -33.451   7.655   3.392  1.00 20.00     0.141 C 
HETATM    4 CL5  UNL     1     -34.792   6.542   3.735  1.00 20.00    -0.126 Cl
ENDBRANCH   1   3
BRANCH   2   5
HETATM    5  C4  UNL     1     -32.221   9.358   1.256  1.00 20.00     0.141 C 
HETATM    6 CL6  UNL     1     -32.677   9.840  -0.393  1.00 20.00    -0.126 Cl
ENDBRANCH   2   5
TORSDOF 2
ENDMDL
MODEL 8
REMARK VINA RESULT:      -1.9      2.086      4.032
REMARK  2 active torsions:
REMARK  status: ('A' for Active; 'I' for Inactive)
REMARK    1  A    between atoms: C1_1  and  C3_3 
REMARK    2  A    between atoms: C2_2  and  C4_4 
ROOT
HETATM    1  C1  UNL     1     -34.214   7.435   3.904  1.00 20.00    -0.015 C 
HETATM    2  C2  UNL     1     -34.623   6.176   3.690  1.00 20.00    -0.015 C 
ENDROOT
BRANCH   1   3
HETATM    3  C3  UNL     1     -32.796   7.881   3.758  1.00 20.00     0.141 C 
HETATM    4 CL5  UNL     1     -32.367   7.980   2.037  1.00 20.00    -0.126 Cl
ENDBRANCH   1   3
BRANCH   2   5
HETATM    5  C4  UNL     1     -33.711   5.069   3.280  1.00 20.00     0.141 C 
HETATM    6 CL6  UNL     1     -33.887   3.696   4.394  1.00 20.00    -0.126 Cl
ENDBRANCH   2   5
TORSDOF 2
ENDMDL
MODEL 9
REMARK VINA RESULT:      -1.9      1.900      2.202
REMARK  2 active torsions:
REMARK  status: ('A' for Active; 'I' for Inactive)
REMARK    1  A    between atoms: C1_1  and  C3_3 
REMARK    2  A    between atoms: C2_2  and  C4_4 
ROOT
HETATM    1  C1  UNL     1     -33.969   7.369   4.095  1.00 20.00    -0.015 C 
HETATM    2  C2  UNL     1     -32.989   7.697   3.240  1.00 20.00    -0.015 C 
ENDROOT
BRANCH   1   3
HETATM    3  C3  UNL     1     -35.161   6.553   3.715  1.00 20.00     0.141 C 
HETATM    4 CL5  UNL     1     -35.021   4.922   4.403  1.00 20.00    -0.126 Cl
ENDBRANCH   1   3
BRANCH   2   5
HETATM    5  C4  UNL     1     -32.971   7.286   1.806  1.00 20.00     0.141 C 
HETATM    6 CL6  UNL     1     -32.506   5.576   1.672  1.00 20.00    -0.126 Cl
ENDBRANCH   2   5
TORSDOF 2
ENDMDL
