MODEL 1
REMARK VINA RESULT:      -1.2      0.000      0.000
REMARK  3 active torsions:
REMARK  status: ('A' for Active; 'I' for Inactive)
REMARK    1  A    between atoms: C6_6  and  N10_10 
REMARK    2  A    between atoms: C7_7  and  C8_8 
REMARK    3  A    between atoms: C8_8  and  N10_10 
ROOT
HETATM    1  C1  UNL     1     -35.402   5.494   4.391  1.00 20.00     0.013 C 
HETATM    2  C2  UNL     1     -34.708   6.436   4.121  1.00 20.00    -0.087 C 
HETATM    3  C6  UNL     1     -33.861   7.587   3.798  1.00 20.00     0.364 C 
ENDROOT
BRANCH   3   4
HETATM    4  N10 UNL     1     -33.729   7.739   2.352  1.00 20.00     0.117 N 
HETATM    5  H22 UNL     1     -34.041   6.879   1.899  1.00 20.00     0.319 HD
BRANCH   4   6
HETATM    6  C8  UNL     1     -32.355   8.014   1.979  1.00 20.00     0.241 C 
HETATM    7  C3  UNL     1     -32.335   9.049   0.923  1.00 20.00     0.101 C 
HETATM    8  N9  UNL     1     -32.319   9.862   0.096  1.00 20.00    -0.195 NA
HETATM    9  C5  UNL     1     -31.612   8.548   3.212  1.00 20.00     0.066 C 
BRANCH   6  10
HETATM   10  C7  UNL     1     -31.658   6.723   1.489  1.00 20.00     0.052 C 
HETATM   11  C4  UNL     1     -32.600   5.554   1.210  1.00 20.00     0.009 C 
ENDBRANCH   6  10
ENDBRANCH   4   6
ENDBRANCH   3   4
TORSDOF 3
ENDMDL
MODEL 2
REMARK VINA RESULT:      -0.4      1.642      4.039
REMARK  3 active torsions:
REMARK  status: ('A' for Active; 'I' for Inactive)
REMARK    1  A    between atoms: C6_6  and  N10_10 
REMARK    2  A    between atoms: C7_7  and  C8_8 
REMARK    3  A    between atoms: C8_8  and  N10_10 
ROOT
HETATM    1  C1  UNL     1     -32.352   9.760   0.325  1.00 20.00     0.013 C 
HETATM    2  C2  UNL     1     -32.322   8.800   1.044  1.00 20.00    -0.087 C 
HETATM    3  C6  UNL     1     -32.281   7.629   1.924  1.00 20.00     0.364 C 
ENDROOT
BRANCH   3   4
HETATM    4  N10 UNL     1     -33.581   6.968   1.964  1.00 20.00     0.117 N 
HETATM    5  H22 UNL     1     -34.296   7.623   1.642  1.00 20.00     0.319 HD
BRANCH   4   6
HETATM    6  C8  UNL     1     -33.901   6.523   3.307  1.00 20.00     0.241 C 
HETATM    7  C3  UNL     1     -33.383   7.505   4.282  1.00 20.00     0.101 C 
HETATM    8  N9  UNL     1     -32.977   8.277   5.047  1.00 20.00    -0.195 NA
HETATM    9  C5  UNL     1     -35.428   6.444   3.445  1.00 20.00     0.066 C 
BRANCH   6  10
HETATM   10  C7  UNL     1     -33.297   5.123   3.571  1.00 20.00     0.052 C 
HETATM   11  C4  UNL     1     -34.201   4.173   4.353  1.00 20.00     0.009 C 
ENDBRANCH   6  10
ENDBRANCH   4   6
ENDBRANCH   3   4
TORSDOF 3
ENDMDL
MODEL 3
REMARK VINA RESULT:       0.1      1.511      3.983
REMARK  3 active torsions:
REMARK  status: ('A' for Active; 'I' for Inactive)
REMARK    1  A    between atoms: C6_6  and  N10_10 
REMARK    2  A    between atoms: C7_7  and  C8_8 
REMARK    3  A    between atoms: C8_8  and  N10_10 
ROOT
HETATM    1  C1  UNL     1     -32.518  10.218  -0.023  1.00 20.00     0.013 C 
HETATM    2  C2  UNL     1     -32.200   9.259   0.625  1.00 20.00    -0.087 C 
HETATM    3  C6  UNL     1     -31.806   8.089   1.414  1.00 20.00     0.364 C 
ENDROOT
BRANCH   3   4
HETATM    4  N10 UNL     1     -32.956   7.535   2.122  1.00 20.00     0.117 N 
HETATM    5  H22 UNL     1     -32.862   7.740   3.118  1.00 20.00     0.319 HD
BRANCH   4   6
HETATM    6  C8  UNL     1     -33.049   6.101   1.927  1.00 20.00     0.241 C 
HETATM    7  C3  UNL     1     -33.785   5.826   0.676  1.00 20.00     0.101 C 
HETATM    8  N9  UNL     1     -34.361   5.611  -0.308  1.00 20.00    -0.195 NA
HETATM    9  C5  UNL     1     -31.627   5.533   1.804  1.00 20.00     0.066 C 
BRANCH   6  10
HETATM   10  C7  UNL     1     -33.755   5.436   3.132  1.00 20.00     0.052 C 
HETATM   11  C4  UNL     1     -34.760   6.328   3.857  1.00 20.00     0.009 C 
ENDBRANCH   6  10
ENDBRANCH   4   6
ENDBRANCH   3   4
TORSDOF 3
ENDMDL
MODEL 4
REMARK VINA RESULT:       0.1      1.683      4.117
REMARK  3 active torsions:
REMARK  status: ('A' for Active; 'I' for Inactive)
REMARK    1  A    between atoms: C6_6  and  N10_10 
REMARK    2  A    between atoms: C7_7  and  C8_8 
REMARK    3  A    between atoms: C8_8  and  N10_10 
ROOT
HETATM    1  C1  UNL     1     -32.703  10.527  -0.017  1.00 20.00     0.013 C 
HETATM    2  C2  UNL     1     -32.260   9.513   0.448  1.00 20.00    -0.087 C 
HETATM    3  C6  UNL     1     -31.715   8.275   1.012  1.00 20.00     0.364 C 
ENDROOT
BRANCH   3   4
HETATM    4  N10 UNL     1     -32.516   7.832   2.150  1.00 20.00     0.117 N 
HETATM    5  H22 UNL     1     -31.941   7.866   2.993  1.00 20.00     0.319 HD
BRANCH   4   6
HETATM    6  C8  UNL     1     -33.005   6.481   1.950  1.00 20.00     0.241 C 
HETATM    7  C3  UNL     1     -33.892   6.113   3.072  1.00 20.00     0.101 C 
HETATM    8  N9  UNL     1     -34.591   5.825   3.953  1.00 20.00    -0.195 NA
HETATM    9  C5  UNL     1     -33.811   6.442   0.644  1.00 20.00     0.066 C 
BRANCH   6  10
HETATM   10  C7  UNL     1     -31.823   5.488   1.842  1.00 20.00     0.052 C 
HETATM   11  C4  UNL     1     -31.829   4.620   0.586  1.00 20.00     0.009 C 
ENDBRANCH   6  10
ENDBRANCH   4   6
ENDBRANCH   3   4
TORSDOF 3
ENDMDL
MODEL 5
REMARK VINA RESULT:       0.1      2.175      3.236
REMARK  3 active torsions:
REMARK  status: ('A' for Active; 'I' for Inactive)
REMARK    1  A    between atoms: C6_6  and  N10_10 
REMARK    2  A    between atoms: C7_7  and  C8_8 
REMARK    3  A    between atoms: C8_8  and  N10_10 
ROOT
HETATM    1  C1  UNL     1     -33.026   2.445   5.056  1.00 20.00     0.013 C 
HETATM    2  C2  UNL     1     -33.458   3.370   4.424  1.00 20.00    -0.087 C 
HETATM    3  C6  UNL     1     -33.991   4.498   3.656  1.00 20.00     0.364 C 
ENDROOT
BRANCH   3   4
HETATM    4  N10 UNL     1     -32.931   5.143   2.887  1.00 20.00     0.117 N 
HETATM    5  H22 UNL     1     -32.166   5.386   3.518  1.00 20.00     0.319 HD
BRANCH   4   6
HETATM    6  C8  UNL     1     -33.418   6.342   2.230  1.00 20.00     0.241 C 
HETATM    7  C3  UNL     1     -32.289   7.271   2.013  1.00 20.00     0.101 C 
HETATM    8  N9  UNL     1     -31.403   7.999   1.842  1.00 20.00    -0.195 NA
HETATM    9  C5  UNL     1     -34.005   5.946   0.868  1.00 20.00     0.066 C 
BRANCH   6  10
HETATM   10  C7  UNL     1     -34.522   7.014   3.080  1.00 20.00     0.052 C 
HETATM   11  C4  UNL     1     -34.011   7.813   4.277  1.00 20.00     0.009 C 
ENDBRANCH   6  10
ENDBRANCH   4   6
ENDBRANCH   3   4
TORSDOF 3
ENDMDL
MODEL 6
REMARK VINA RESULT:       0.1      1.397      4.090
REMARK  3 active torsions:
REMARK  status: ('A' for Active; 'I' for Inactive)
REMARK    1  A    between atoms: C6_6  and  N10_10 
REMARK    2  A    between atoms: C7_7  and  C8_8 
REMARK    3  A    between atoms: C8_8  and  N10_10 
ROOT
HETATM    1  C1  UNL     1     -32.430  10.301  -0.415  1.00 20.00     0.013 C 
HETATM    2  C2  UNL     1     -32.367   9.508   0.483  1.00 20.00    -0.087 C 
HETATM    3  C6  UNL     1     -32.283   8.538   1.579  1.00 20.00     0.364 C 
ENDROOT
BRANCH   3   4
HETATM    4  N10 UNL     1     -33.530   8.510   2.337  1.00 20.00     0.117 N 
HETATM    5  H22 UNL     1     -33.584   9.346   2.919  1.00 20.00     0.319 HD
BRANCH   4   6
HETATM    6  C8  UNL     1     -33.605   7.328   3.175  1.00 20.00     0.241 C 
HETATM    7  C3  UNL     1     -33.029   6.178   2.448  1.00 20.00     0.101 C 
HETATM    8  N9  UNL     1     -32.576   5.275   1.878  1.00 20.00    -0.195 NA
HETATM    9  C5  UNL     1     -32.779   7.578   4.445  1.00 20.00     0.066 C 
BRANCH   6  10
HETATM   10  C7  UNL     1     -35.072   7.041   3.576  1.00 20.00     0.052 C 
HETATM   11  C4  UNL     1     -35.303   5.677   4.222  1.00 20.00     0.009 C 
ENDBRANCH   6  10
ENDBRANCH   4   6
ENDBRANCH   3   4
TORSDOF 3
ENDMDL
MODEL 7
REMARK VINA RESULT:       0.2      2.269      3.784
REMARK  3 active torsions:
REMARK  status: ('A' for Active; 'I' for Inactive)
REMARK    1  A    between atoms: C6_6  and  N10_10 
REMARK    2  A    between atoms: C7_7  and  C8_8 
REMARK    3  A    between atoms: C8_8  and  N10_10 
ROOT
HETATM    1  C1  UNL     1     -32.728   2.620   5.275  1.00 20.00     0.013 C 
HETATM    2  C2  UNL     1     -33.397   3.350   4.597  1.00 20.00    -0.087 C 
HETATM    3  C6  UNL     1     -34.213   4.237   3.763  1.00 20.00     0.364 C 
ENDROOT
BRANCH   3   4
HETATM    4  N10 UNL     1     -34.560   5.453   4.493  1.00 20.00     0.117 N 
HETATM    5  H22 UNL     1     -35.484   5.335   4.912  1.00 20.00     0.319 HD
BRANCH   4   6
HETATM    6  C8  UNL     1     -34.570   6.605   3.612  1.00 20.00     0.241 C 
HETATM    7  C3  UNL     1     -33.598   6.393   2.520  1.00 20.00     0.101 C 
HETATM    8  N9  UNL     1     -32.836   6.225   1.662  1.00 20.00    -0.195 NA
HETATM    9  C5  UNL     1     -35.975   6.745   3.008  1.00 20.00     0.066 C 
BRANCH   6  10
HETATM   10  C7  UNL     1     -34.230   7.892   4.402  1.00 20.00     0.052 C 
HETATM   11  C4  UNL     1     -32.737   8.151   4.590  1.00 20.00     0.009 C 
ENDBRANCH   6  10
ENDBRANCH   4   6
ENDBRANCH   3   4
TORSDOF 3
ENDMDL
MODEL 8
REMARK VINA RESULT:       0.2      1.633      4.347
REMARK  3 active torsions:
REMARK  status: ('A' for Active; 'I' for Inactive)
REMARK    1  A    between atoms: C6_6  and  N10_10 
REMARK    2  A    between atoms: C7_7  and  C8_8 
REMARK    3  A    between atoms: C8_8  and  N10_10 
ROOT
HETATM    1  C1  UNL     1     -32.470   9.896   0.018  1.00 20.00     0.013 C 
HETATM    2  C2  UNL     1     -32.252   9.035   0.826  1.00 20.00    -0.087 C 
HETATM    3  C6  UNL     1     -31.980   7.987   1.813  1.00 20.00     0.364 C 
ENDROOT
BRANCH   3   4
HETATM    4  N10 UNL     1     -33.023   6.966   1.780  1.00 20.00     0.117 N 
HETATM    5  H22 UNL     1     -33.783   7.288   1.179  1.00 20.00     0.319 HD
BRANCH   4   6
HETATM    6  C8  UNL     1     -33.535   6.699   3.111  1.00 20.00     0.241 C 
HETATM    7  C3  UNL     1     -33.323   5.274   3.438  1.00 20.00     0.101 C 
HETATM    8  N9  UNL     1     -33.154   4.155   3.695  1.00 20.00    -0.195 NA
HETATM    9  C5  UNL     1     -32.757   7.561   4.115  1.00 20.00     0.066 C 
BRANCH   6  10
HETATM   10  C7  UNL     1     -35.037   7.059   3.194  1.00 20.00     0.052 C 
HETATM   11  C4  UNL     1     -35.862   6.157   4.110  1.00 20.00     0.009 C 
ENDBRANCH   6  10
ENDBRANCH   4   6
ENDBRANCH   3   4
TORSDOF 3
ENDMDL
MODEL 9
REMARK VINA RESULT:       0.6      1.924      4.240
REMARK  3 active torsions:
REMARK  status: ('A' for Active; 'I' for Inactive)
REMARK    1  A    between atoms: C6_6  and  N10_10 
REMARK    2  A    between atoms: C7_7  and  C8_8 
REMARK    3  A    between atoms: C8_8  and  N10_10 
ROOT
HETATM    1  C1  UNL     1     -31.733   8.680   1.269  1.00 20.00     0.013 C 
HETATM    2  C2  UNL     1     -32.402   8.405   2.226  1.00 20.00    -0.087 C 
HETATM    3  C6  UNL     1     -33.223   8.074   3.395  1.00 20.00     0.364 C 
ENDROOT
BRANCH   3   4
HETATM    4  N10 UNL     1     -32.988   6.696   3.815  1.00 20.00     0.117 N 
HETATM    5  H22 UNL     1     -32.068   6.401   3.485  1.00 20.00     0.319 HD
BRANCH   4   6
HETATM    6  C8  UNL     1     -34.003   5.807   3.282  1.00 20.00     0.241 C 
HETATM    7  C3  UNL     1     -33.892   4.490   3.943  1.00 20.00     0.101 C 
HETATM    8  N9  UNL     1     -33.806   3.456   4.463  1.00 20.00    -0.195 NA
HETATM    9  C5  UNL     1     -35.384   6.404   3.590  1.00 20.00     0.066 C 
BRANCH   6  10
HETATM   10  C7  UNL     1     -33.846   5.663   1.750  1.00 20.00     0.052 C 
HETATM   11  C4  UNL     1     -32.492   5.125   1.293  1.00 20.00     0.009 C 
ENDBRANCH   6  10
ENDBRANCH   4   6
ENDBRANCH   3   4
TORSDOF 3
ENDMDL
