MODEL 1
REMARK VINA RESULT:      -1.0      0.000      0.000
REMARK  1 active torsions:
REMARK  status: ('A' for Active; 'I' for Inactive)
REMARK    1  A    between atoms: C3_3  and  C8_8 
ROOT
HETATM    1  C1  UNL     1     -32.165   9.025   0.825  1.00 20.00     0.087 C 
HETATM    2  C2  UNL     1     -32.268   8.078   1.879  1.00 20.00     0.090 C 
HETATM    3  C3  UNL     1     -33.455   7.616   2.293  1.00 20.00    -0.011 C 
HETATM    4  N9  UNL     1     -32.075   9.797  -0.036  1.00 20.00    -0.192 NA
ENDROOT
BRANCH   3   5
HETATM    5  C8  UNL     1     -33.619   6.607   3.414  1.00 20.00     0.013 C 
HETATM    6  C4  UNL     1     -35.078   6.615   3.852  1.00 20.00     0.035 C 
HETATM    7  C6  UNL     1     -35.352   5.454   4.801  1.00 20.00     0.168 C 
HETATM    8  O10 UNL     1     -34.989   4.210   4.199  1.00 20.00    -0.391 OA
HETATM    9  C7  UNL     1     -33.597   4.151   3.886  1.00 20.00     0.168 C 
HETATM   10  C5  UNL     1     -33.222   5.236   2.883  1.00 20.00     0.035 C 
ENDBRANCH   3   5
TORSDOF 1
ENDMDL
MODEL 2
REMARK VINA RESULT:      -0.7      1.099      1.328
REMARK  1 active torsions:
REMARK  status: ('A' for Active; 'I' for Inactive)
REMARK    1  A    between atoms: C3_3  and  C8_8 
ROOT
HETATM    1  C1  UNL     1     -32.333   9.954   0.232  1.00 20.00     0.087 C 
HETATM    2  C2  UNL     1     -32.792   9.185   1.334  1.00 20.00     0.090 C 
HETATM    3  C3  UNL     1     -32.272   7.984   1.618  1.00 20.00    -0.011 C 
HETATM    4  N9  UNL     1     -31.961  10.585  -0.668  1.00 20.00    -0.192 NA
ENDROOT
BRANCH   3   5
HETATM    5  C8  UNL     1     -32.726   7.124   2.781  1.00 20.00     0.013 C 
HETATM    6  C4  UNL     1     -33.874   7.839   3.484  1.00 20.00     0.035 C 
HETATM    7  C6  UNL     1     -34.528   6.915   4.504  1.00 20.00     0.168 C 
HETATM    8  O10 UNL     1     -34.962   5.703   3.886  1.00 20.00    -0.391 OA
HETATM    9  C7  UNL     1     -33.876   4.968   3.320  1.00 20.00     0.168 C 
HETATM   10  C5  UNL     1     -33.184   5.779   2.231  1.00 20.00     0.035 C 
ENDBRANCH   3   5
TORSDOF 1
ENDMDL
MODEL 3
REMARK VINA RESULT:       0.4      3.542      5.381
REMARK  1 active torsions:
REMARK  status: ('A' for Active; 'I' for Inactive)
REMARK    1  A    between atoms: C3_3  and  C8_8 
ROOT
HETATM    1  C1  UNL     1     -34.907   6.019   4.097  1.00 20.00     0.087 C 
HETATM    2  C2  UNL     1     -34.245   7.130   3.508  1.00 20.00     0.090 C 
HETATM    3  C3  UNL     1     -33.092   6.987   2.841  1.00 20.00    -0.011 C 
HETATM    4  N9  UNL     1     -35.452   5.116   4.579  1.00 20.00    -0.192 NA
ENDROOT
BRANCH   3   5
HETATM    5  C8  UNL     1     -32.346   8.138   2.196  1.00 20.00     0.013 C 
HETATM    6  C4  UNL     1     -31.680   7.624   0.926  1.00 20.00     0.035 C 
HETATM    7  C6  UNL     1     -31.123   8.786   0.113  1.00 20.00     0.168 C 
HETATM    8  O10 UNL     1     -32.147   9.739  -0.178  1.00 20.00    -0.391 OA
HETATM    9  C7  UNL     1     -32.701  10.311   1.008  1.00 20.00     0.168 C 
HETATM   10  C5  UNL     1     -33.350   9.237   1.873  1.00 20.00     0.035 C 
ENDBRANCH   3   5
TORSDOF 1
ENDMDL
MODEL 4
REMARK VINA RESULT:       0.7      3.631      4.973
REMARK  1 active torsions:
REMARK  status: ('A' for Active; 'I' for Inactive)
REMARK    1  A    between atoms: C3_3  and  C8_8 
ROOT
HETATM    1  C1  UNL     1     -33.450   2.764   4.479  1.00 20.00     0.087 C 
HETATM    2  C2  UNL     1     -33.478   4.142   4.135  1.00 20.00     0.090 C 
HETATM    3  C3  UNL     1     -33.513   4.547   2.859  1.00 20.00    -0.011 C 
HETATM    4  N9  UNL     1     -33.427   1.640   4.764  1.00 20.00    -0.192 NA
ENDROOT
BRANCH   3   5
HETATM    5  C8  UNL     1     -33.544   6.004   2.440  1.00 20.00     0.013 C 
HETATM    6  C4  UNL     1     -33.747   6.855   3.687  1.00 20.00     0.035 C 
HETATM    7  C6  UNL     1     -33.542   8.330   3.360  1.00 20.00     0.168 C 
HETATM    8  O10 UNL     1     -32.256   8.546   2.778  1.00 20.00    -0.391 OA
HETATM    9  C7  UNL     1     -32.096   7.838   1.548  1.00 20.00     0.168 C 
HETATM   10  C5  UNL     1     -32.217   6.336   1.770  1.00 20.00     0.035 C 
ENDBRANCH   3   5
TORSDOF 1
ENDMDL
MODEL 5
REMARK VINA RESULT:       0.8      0.932      1.819
REMARK  1 active torsions:
REMARK  status: ('A' for Active; 'I' for Inactive)
REMARK    1  A    between atoms: C3_3  and  C8_8 
ROOT
HETATM    1  C1  UNL     1     -31.941   8.481   1.203  1.00 20.00     0.087 C 
HETATM    2  C2  UNL     1     -32.820   7.640   1.937  1.00 20.00     0.090 C 
HETATM    3  C3  UNL     1     -32.865   6.318   1.728  1.00 20.00    -0.011 C 
HETATM    4  N9  UNL     1     -31.224   9.171   0.606  1.00 20.00    -0.192 NA
ENDROOT
BRANCH   3   5
HETATM    5  C8  UNL     1     -33.785   5.379   2.483  1.00 20.00     0.013 C 
HETATM    6  C4  UNL     1     -32.928   4.329   3.180  1.00 20.00     0.035 C 
HETATM    7  C6  UNL     1     -33.776   3.510   4.146  1.00 20.00     0.168 C 
HETATM    8  O10 UNL     1     -34.438   4.359   5.086  1.00 20.00    -0.391 OA
HETATM    9  C7  UNL     1     -35.330   5.274   4.448  1.00 20.00     0.168 C 
HETATM   10  C5  UNL     1     -34.572   6.196   3.500  1.00 20.00     0.035 C 
ENDBRANCH   3   5
TORSDOF 1
ENDMDL
MODEL 6
REMARK VINA RESULT:       1.6      2.971      3.722
REMARK  1 active torsions:
REMARK  status: ('A' for Active; 'I' for Inactive)
REMARK    1  A    between atoms: C3_3  and  C8_8 
ROOT
HETATM    1  C1  UNL     1     -31.314   3.887  -0.131  1.00 20.00     0.087 C 
HETATM    2  C2  UNL     1     -32.355   4.656   0.452  1.00 20.00     0.090 C 
HETATM    3  C3  UNL     1     -32.102   5.607   1.360  1.00 20.00    -0.011 C 
HETATM    4  N9  UNL     1     -30.466   3.256  -0.611  1.00 20.00    -0.192 NA
ENDROOT
BRANCH   3   5
HETATM    5  C8  UNL     1     -33.176   6.455   2.013  1.00 20.00     0.013 C 
HETATM    6  C4  UNL     1     -33.880   5.606   3.065  1.00 20.00     0.035 C 
HETATM    7  C6  UNL     1     -34.799   6.474   3.917  1.00 20.00     0.168 C 
HETATM    8  O10 UNL     1     -34.073   7.552   4.509  1.00 20.00    -0.391 OA
HETATM    9  C7  UNL     1     -33.502   8.419   3.528  1.00 20.00     0.168 C 
HETATM   10  C5  UNL     1     -32.508   7.664   2.654  1.00 20.00     0.035 C 
ENDBRANCH   3   5
TORSDOF 1
ENDMDL
MODEL 7
REMARK VINA RESULT:       1.6      0.989      1.994
REMARK  1 active torsions:
REMARK  status: ('A' for Active; 'I' for Inactive)
REMARK    1  A    between atoms: C3_3  and  C8_8 
ROOT
HETATM    1  C1  UNL     1     -32.278  10.101   0.313  1.00 20.00     0.087 C 
HETATM    2  C2  UNL     1     -33.090   8.996   0.686  1.00 20.00     0.090 C 
HETATM    3  C3  UNL     1     -32.709   8.136   1.639  1.00 20.00    -0.011 C 
HETATM    4  N9  UNL     1     -31.619  11.005   0.005  1.00 20.00    -0.192 NA
ENDROOT
BRANCH   3   5
HETATM    5  C8  UNL     1     -33.537   6.942   2.073  1.00 20.00     0.013 C 
HETATM    6  C4  UNL     1     -32.641   5.710   2.061  1.00 20.00     0.035 C 
HETATM    7  C6  UNL     1     -33.351   4.533   2.719  1.00 20.00     0.168 C 
HETATM    8  O10 UNL     1     -33.768   4.868   4.043  1.00 20.00    -0.391 OA
HETATM    9  C7  UNL     1     -34.697   5.953   4.056  1.00 20.00     0.168 C 
HETATM   10  C5  UNL     1     -34.065   7.212   3.476  1.00 20.00     0.035 C 
ENDBRANCH   3   5
TORSDOF 1
ENDMDL
