MODEL 1
REMARK VINA RESULT:      -0.5      0.000      0.000
REMARK  1 active torsions:
REMARK  status: ('A' for Active; 'I' for Inactive)
REMARK    1  A    between atoms: C1_1  and  C6_6 
ROOT
HETATM    1  C2  UNL     1     -34.201   7.066   3.497  1.00 20.00     0.021 C 
HETATM    2  C3  UNL     1     -33.458   6.270   1.141  1.00 20.00     0.027 A 
HETATM    3  C4  UNL     1     -35.359   6.228   4.004  1.00 20.00     0.075 C 
HETATM    4  C5  UNL     1     -33.207   4.791   3.262  1.00 20.00     0.084 C 
HETATM    5  C6  UNL     1     -32.190   6.704   1.830  1.00 20.00     0.097 A 
HETATM    6  C7  UNL     1     -33.352   6.157   2.644  1.00 20.00    -0.017 A 
HETATM    7  S10 UNL     1     -34.607   4.634   4.415  1.00 20.00    -0.168 SA
ENDROOT
BRANCH   5   8
HETATM    8  C1  UNL     1     -31.903   8.124   1.880  1.00 20.00     0.177 C 
HETATM    9  O8  UNL     1     -32.329   8.795   0.898  1.00 20.00    -0.648 OA
HETATM   10  O9  UNL     1     -31.265   8.500   2.903  1.00 20.00    -0.648 OA
ENDBRANCH   5   8
TORSDOF 1
ENDMDL
MODEL 2
REMARK VINA RESULT:       0.2      1.627      2.668
REMARK  1 active torsions:
REMARK  status: ('A' for Active; 'I' for Inactive)
REMARK    1  A    between atoms: C1_1  and  C6_6 
ROOT
HETATM    1  C2  UNL     1     -32.842   6.549   1.270  1.00 20.00     0.021 C 
HETATM    2  C3  UNL     1     -31.340   8.334   2.409  1.00 20.00     0.027 A 
HETATM    3  C4  UNL     1     -33.041   5.356   2.185  1.00 20.00     0.075 C 
HETATM    4  C5  UNL     1     -33.701   7.715   3.300  1.00 20.00     0.084 C 
HETATM    5  C6  UNL     1     -32.335   9.117   1.592  1.00 20.00     0.097 A 
HETATM    6  C7  UNL     1     -32.715   7.759   2.161  1.00 20.00    -0.017 A 
HETATM    7  S10 UNL     1     -34.163   5.962   3.468  1.00 20.00    -0.168 SA
ENDROOT
BRANCH   5   8
HETATM    8  C1  UNL     1     -32.090   9.239   0.168  1.00 20.00     0.177 C 
HETATM    9  O8  UNL     1     -30.955   8.845  -0.219  1.00 20.00    -0.648 OA
HETATM   10  O9  UNL     1     -33.050   9.724  -0.495  1.00 20.00    -0.648 OA
ENDBRANCH   5   8
TORSDOF 1
ENDMDL
MODEL 3
REMARK VINA RESULT:       0.2      1.608      2.544
REMARK  1 active torsions:
REMARK  status: ('A' for Active; 'I' for Inactive)
REMARK    1  A    between atoms: C1_1  and  C6_6 
ROOT
HETATM    1  C2  UNL     1     -32.837   6.538   1.279  1.00 20.00     0.021 C 
HETATM    2  C3  UNL     1     -31.375   8.347   2.430  1.00 20.00     0.027 A 
HETATM    3  C4  UNL     1     -33.033   5.346   2.197  1.00 20.00     0.075 C 
HETATM    4  C5  UNL     1     -33.739   7.701   3.292  1.00 20.00     0.084 C 
HETATM    5  C6  UNL     1     -32.369   9.114   1.596  1.00 20.00     0.097 A 
HETATM    6  C7  UNL     1     -32.739   7.753   2.166  1.00 20.00    -0.017 A 
HETATM    7  S10 UNL     1     -34.180   5.943   3.462  1.00 20.00    -0.168 SA
ENDROOT
BRANCH   5   8
HETATM    8  C1  UNL     1     -32.106   9.233   0.176  1.00 20.00     0.177 C 
HETATM    9  O8  UNL     1     -33.052   9.716  -0.508  1.00 20.00    -0.648 OA
HETATM   10  O9  UNL     1     -30.963   8.837  -0.187  1.00 20.00    -0.648 OA
ENDBRANCH   5   8
TORSDOF 1
ENDMDL
MODEL 4
REMARK VINA RESULT:       0.9      3.197      4.207
REMARK  1 active torsions:
REMARK  status: ('A' for Active; 'I' for Inactive)
REMARK    1  A    between atoms: C1_1  and  C6_6 
ROOT
HETATM    1  C2  UNL     1     -33.131   5.829   1.977  1.00 20.00     0.021 C 
HETATM    2  C3  UNL     1     -35.093   7.053   3.155  1.00 20.00     0.027 A 
HETATM    3  C4  UNL     1     -32.586   6.667   0.837  1.00 20.00     0.075 C 
HETATM    4  C5  UNL     1     -32.655   7.947   3.203  1.00 20.00     0.084 C 
HETATM    5  C6  UNL     1     -34.376   6.309   4.252  1.00 20.00     0.097 A 
HETATM    6  C7  UNL     1     -33.610   6.795   3.032  1.00 20.00    -0.017 A 
HETATM    7  S10 UNL     1     -31.693   8.009   1.659  1.00 20.00    -0.168 SA
ENDROOT
BRANCH   5   8
HETATM    8  C1  UNL     1     -34.647   4.892   4.393  1.00 20.00     0.177 C 
HETATM    9  O8  UNL     1     -33.684   4.128   4.106  1.00 20.00    -0.648 OA
HETATM   10  O9  UNL     1     -35.814   4.613   4.788  1.00 20.00    -0.648 OA
ENDBRANCH   5   8
TORSDOF 1
ENDMDL
MODEL 5
REMARK VINA RESULT:       1.8      3.067      3.931
REMARK  1 active torsions:
REMARK  status: ('A' for Active; 'I' for Inactive)
REMARK    1  A    between atoms: C1_1  and  C6_6 
ROOT
HETATM    1  C2  UNL     1     -32.378   7.809   2.938  1.00 20.00     0.021 C 
HETATM    2  C3  UNL     1     -32.332   5.497   1.760  1.00 20.00     0.027 A 
HETATM    3  C4  UNL     1     -31.314   8.724   2.363  1.00 20.00     0.075 C 
HETATM    4  C5  UNL     1     -32.982   7.687   0.522  1.00 20.00     0.084 C 
HETATM    5  C6  UNL     1     -33.785   5.757   2.064  1.00 20.00     0.097 A 
HETATM    6  C7  UNL     1     -32.838   6.920   1.811  1.00 20.00    -0.017 A 
HETATM    7  S10 UNL     1     -31.950   9.173   0.730  1.00 20.00    -0.168 SA
ENDROOT
BRANCH   5   8
HETATM    8  C1  UNL     1     -34.245   5.506   3.415  1.00 20.00     0.177 C 
HETATM    9  O8  UNL     1     -35.050   6.362   3.878  1.00 20.00    -0.648 OA
HETATM   10  O9  UNL     1     -33.778   4.461   3.949  1.00 20.00    -0.648 OA
ENDBRANCH   5   8
TORSDOF 1
ENDMDL
MODEL 6
REMARK VINA RESULT:       2.1      3.130      3.934
REMARK  1 active torsions:
REMARK  status: ('A' for Active; 'I' for Inactive)
REMARK    1  A    between atoms: C1_1  and  C6_6 
ROOT
HETATM    1  C2  UNL     1     -33.263   7.664   3.547  1.00 20.00     0.021 C 
HETATM    2  C3  UNL     1     -32.890   5.098   3.443  1.00 20.00     0.027 A 
HETATM    3  C4  UNL     1     -31.982   8.404   3.213  1.00 20.00     0.075 C 
HETATM    4  C5  UNL     1     -32.737   6.621   1.344  1.00 20.00     0.084 C 
HETATM    5  C6  UNL     1     -34.299   5.312   2.955  1.00 20.00     0.097 A 
HETATM    6  C7  UNL     1     -33.246   6.388   2.743  1.00 20.00    -0.017 A 
HETATM    7  S10 UNL     1     -31.786   8.171   1.430  1.00 20.00    -0.168 SA
ENDROOT
BRANCH   5   8
HETATM    8  C1  UNL     1     -35.332   5.525   3.949  1.00 20.00     0.177 C 
HETATM    9  O8  UNL     1     -36.061   6.539   3.761  1.00 20.00    -0.648 OA
HETATM   10  O9  UNL     1     -35.363   4.664   4.873  1.00 20.00    -0.648 OA
ENDBRANCH   5   8
TORSDOF 1
ENDMDL
MODEL 7
REMARK VINA RESULT:       2.2      3.176      4.195
REMARK  1 active torsions:
REMARK  status: ('A' for Active; 'I' for Inactive)
REMARK    1  A    between atoms: C1_1  and  C6_6 
ROOT
HETATM    1  C2  UNL     1     -33.375   9.648   1.767  1.00 20.00     0.021 C 
HETATM    2  C3  UNL     1     -31.517   8.319   2.997  1.00 20.00     0.027 A 
HETATM    3  C4  UNL     1     -32.767  10.655   0.809  1.00 20.00     0.075 C 
HETATM    4  C5  UNL     1     -31.911   8.131   0.437  1.00 20.00     0.084 C 
HETATM    5  C6  UNL     1     -32.641   7.335   2.799  1.00 20.00     0.097 A 
HETATM    6  C7  UNL     1     -32.436   8.470   1.808  1.00 20.00    -0.017 A 
HETATM    7  S10 UNL     1     -32.128   9.646  -0.549  1.00 20.00    -0.168 SA
ENDROOT
BRANCH   5   8
HETATM    8  C1  UNL     1     -33.761   7.399   3.717  1.00 20.00     0.177 C 
HETATM    9  O8  UNL     1     -34.779   6.736   3.372  1.00 20.00    -0.648 OA
HETATM   10  O9  UNL     1     -33.566   8.109   4.743  1.00 20.00    -0.648 OA
ENDBRANCH   5   8
TORSDOF 1
ENDMDL
MODEL 8
REMARK VINA RESULT:       2.2      3.177      4.282
REMARK  1 active torsions:
REMARK  status: ('A' for Active; 'I' for Inactive)
REMARK    1  A    between atoms: C1_1  and  C6_6 
ROOT
HETATM    1  C2  UNL     1     -33.377   9.652   1.772  1.00 20.00     0.021 C 
HETATM    2  C3  UNL     1     -31.517   8.319   2.996  1.00 20.00     0.027 A 
HETATM    3  C4  UNL     1     -32.770  10.662   0.817  1.00 20.00     0.075 C 
HETATM    4  C5  UNL     1     -31.915   8.138   0.435  1.00 20.00     0.084 C 
HETATM    5  C6  UNL     1     -32.642   7.336   2.796  1.00 20.00     0.097 A 
HETATM    6  C7  UNL     1     -32.437   8.474   1.808  1.00 20.00    -0.017 A 
HETATM    7  S10 UNL     1     -32.133   9.657  -0.546  1.00 20.00    -0.168 SA
ENDROOT
BRANCH   5   8
HETATM    8  C1  UNL     1     -33.760   7.397   3.716  1.00 20.00     0.177 C 
HETATM    9  O8  UNL     1     -33.577   8.112   4.740  1.00 20.00    -0.648 OA
HETATM   10  O9  UNL     1     -34.770   6.724   3.367  1.00 20.00    -0.648 OA
ENDBRANCH   5   8
TORSDOF 1
ENDMDL
MODEL 9
REMARK VINA RESULT:       2.4      1.156      2.017
REMARK  1 active torsions:
REMARK  status: ('A' for Active; 'I' for Inactive)
REMARK    1  A    between atoms: C1_1  and  C6_6 
ROOT
HETATM    1  C2  UNL     1     -33.184   5.244   3.543  1.00 20.00     0.021 C 
HETATM    2  C3  UNL     1     -33.050   7.744   4.225  1.00 20.00     0.027 A 
HETATM    3  C4  UNL     1     -33.805   4.419   4.654  1.00 20.00     0.075 C 
HETATM    4  C5  UNL     1     -35.308   6.510   3.869  1.00 20.00     0.084 C 
HETATM    5  C6  UNL     1     -33.324   7.753   2.743  1.00 20.00     0.097 A 
HETATM    6  C7  UNL     1     -33.827   6.606   3.606  1.00 20.00    -0.017 A 
HETATM    7  S10 UNL     1     -35.557   4.868   4.615  1.00 20.00    -0.168 SA
ENDROOT
BRANCH   5   8
HETATM    8  C1  UNL     1     -32.207   7.523   1.850  1.00 20.00     0.177 C 
HETATM    9  O8  UNL     1     -32.466   6.820   0.833  1.00 20.00    -0.648 OA
HETATM   10  O9  UNL     1     -31.122   8.059   2.209  1.00 20.00    -0.648 OA
ENDBRANCH   5   8
TORSDOF 1
ENDMDL
