MODEL 1
REMARK VINA RESULT:      -1.4      0.000      0.000
REMARK  3 active torsions:
REMARK  status: ('A' for Active; 'I' for Inactive)
REMARK    1  A    between atoms: C4_4  and  N10_10 
REMARK    2  A    between atoms: C7_7  and  C8_8 
REMARK    3  A    between atoms: C7_7  and  N10_10 
ROOT
HETATM    1  C1  UNL     1     -32.220   9.013   0.775  1.00 20.00     0.065 C 
HETATM    2  C6  UNL     1     -32.260   6.620   1.384  1.00 20.00     0.027 C 
HETATM    3  C8  UNL     1     -32.080   8.054   1.886  1.00 20.00     0.116 C 
HETATM    4  N9  UNL     1     -32.327   9.769  -0.100  1.00 20.00    -0.197 NA
ENDROOT
BRANCH   3   5
HETATM    5  C7  UNL     1     -33.037   8.386   3.040  1.00 20.00     0.288 C 
BRANCH   5   6
HETATM    6  N10 UNL     1     -33.129   7.299   4.000  1.00 20.00     0.089 N 
HETATM    7  H24 UNL     1     -32.728   6.455   3.599  1.00 20.00     0.316 HD
BRANCH   6   8
HETATM    8  C4  UNL     1     -34.528   7.035   4.348  1.00 20.00     0.224 A 
HETATM    9  C2  UNL     1     -35.512   6.611   3.288  1.00 20.00     0.042 A 
HETATM   10  C3  UNL     1     -35.107   5.642   4.364  1.00 20.00     0.016 A 
HETATM   11  C5  UNL     1     -34.299   4.436   4.022  1.00 20.00     0.012 C 
ENDBRANCH   6   8
ENDBRANCH   5   6
ENDBRANCH   3   5
TORSDOF 3
ENDMDL
MODEL 2
REMARK VINA RESULT:      -1.1      1.088      1.507
REMARK  3 active torsions:
REMARK  status: ('A' for Active; 'I' for Inactive)
REMARK    1  A    between atoms: C4_4  and  N10_10 
REMARK    2  A    between atoms: C7_7  and  C8_8 
REMARK    3  A    between atoms: C7_7  and  N10_10 
ROOT
HETATM    1  C1  UNL     1     -32.346   9.154   0.794  1.00 20.00     0.065 C 
HETATM    2  C6  UNL     1     -31.196   8.645   2.920  1.00 20.00     0.027 C 
HETATM    3  C8  UNL     1     -32.320   8.251   1.960  1.00 20.00     0.116 C 
HETATM    4  N9  UNL     1     -32.369   9.866  -0.122  1.00 20.00    -0.197 NA
ENDROOT
BRANCH   3   5
HETATM    5  C7  UNL     1     -32.224   6.781   1.530  1.00 20.00     0.288 C 
BRANCH   5   6
HETATM    6  N10 UNL     1     -33.396   6.019   1.931  1.00 20.00     0.089 N 
HETATM    7  H24 UNL     1     -34.144   6.166   1.258  1.00 20.00     0.316 HD
BRANCH   6   8
HETATM    8  C4  UNL     1     -33.862   6.448   3.253  1.00 20.00     0.224 A 
HETATM    9  C2  UNL     1     -35.294   6.229   3.667  1.00 20.00     0.042 A 
HETATM   10  C3  UNL     1     -34.192   5.467   4.350  1.00 20.00     0.016 A 
HETATM   11  C5  UNL     1     -34.074   3.992   4.165  1.00 20.00     0.012 C 
ENDBRANCH   6   8
ENDBRANCH   5   6
ENDBRANCH   3   5
TORSDOF 3
ENDMDL
MODEL 3
REMARK VINA RESULT:      -1.0      1.621      5.022
REMARK  3 active torsions:
REMARK  status: ('A' for Active; 'I' for Inactive)
REMARK    1  A    between atoms: C4_4  and  N10_10 
REMARK    2  A    between atoms: C7_7  and  C8_8 
REMARK    3  A    between atoms: C7_7  and  N10_10 
ROOT
HETATM    1  C1  UNL     1     -34.013   4.537   4.103  1.00 20.00     0.065 C 
HETATM    2  C6  UNL     1     -35.660   6.361   3.858  1.00 20.00     0.027 C 
HETATM    3  C8  UNL     1     -34.177   5.986   3.884  1.00 20.00     0.116 C 
HETATM    4  N9  UNL     1     -33.883   3.397   4.278  1.00 20.00    -0.197 NA
ENDROOT
BRANCH   3   5
HETATM    5  C7  UNL     1     -33.441   6.451   2.619  1.00 20.00     0.288 C 
BRANCH   5   6
HETATM    6  N10 UNL     1     -33.043   7.846   2.704  1.00 20.00     0.089 N 
HETATM    7  H24 UNL     1     -33.749   8.429   2.263  1.00 20.00     0.316 HD
BRANCH   6   8
HETATM    8  C4  UNL     1     -31.764   8.060   2.021  1.00 20.00     0.224 A 
HETATM    9  C2  UNL     1     -31.569   7.597   0.600  1.00 20.00     0.042 A 
HETATM   10  C3  UNL     1     -31.599   9.068   0.911  1.00 20.00     0.016 A 
HETATM   11  C5  UNL     1     -32.728   9.914   0.426  1.00 20.00     0.012 C 
ENDBRANCH   6   8
ENDBRANCH   5   6
ENDBRANCH   3   5
TORSDOF 3
ENDMDL
MODEL 4
REMARK VINA RESULT:      -1.0      1.810      4.944
REMARK  3 active torsions:
REMARK  status: ('A' for Active; 'I' for Inactive)
REMARK    1  A    between atoms: C4_4  and  N10_10 
REMARK    2  A    between atoms: C7_7  and  C8_8 
REMARK    3  A    between atoms: C7_7  and  N10_10 
ROOT
HETATM    1  C1  UNL     1     -33.808   4.354   3.994  1.00 20.00     0.065 C 
HETATM    2  C6  UNL     1     -35.136   6.427   3.793  1.00 20.00     0.027 C 
HETATM    3  C8  UNL     1     -33.842   5.708   3.408  1.00 20.00     0.116 C 
HETATM    4  N9  UNL     1     -33.780   3.290   4.457  1.00 20.00    -0.197 NA
ENDROOT
BRANCH   3   5
HETATM    5  C7  UNL     1     -33.632   5.668   1.888  1.00 20.00     0.288 C 
BRANCH   5   6
HETATM    6  N10 UNL     1     -32.489   6.467   1.477  1.00 20.00     0.089 N 
HETATM    7  H24 UNL     1     -31.630   5.965   1.684  1.00 20.00     0.316 HD
BRANCH   6   8
HETATM    8  C4  UNL     1     -32.469   7.746   2.193  1.00 20.00     0.224 A 
HETATM    9  C2  UNL     1     -31.193   8.538   2.308  1.00 20.00     0.042 A 
HETATM   10  C3  UNL     1     -32.331   9.068   1.480  1.00 20.00     0.016 A 
HETATM   11  C5  UNL     1     -32.198   9.167  -0.001  1.00 20.00     0.012 C 
ENDBRANCH   6   8
ENDBRANCH   5   6
ENDBRANCH   3   5
TORSDOF 3
ENDMDL
MODEL 5
REMARK VINA RESULT:      -0.8      1.046      1.896
REMARK  3 active torsions:
REMARK  status: ('A' for Active; 'I' for Inactive)
REMARK    1  A    between atoms: C4_4  and  N10_10 
REMARK    2  A    between atoms: C7_7  and  C8_8 
REMARK    3  A    between atoms: C7_7  and  N10_10 
ROOT
HETATM    1  C1  UNL     1     -32.424   9.176   0.593  1.00 20.00     0.065 C 
HETATM    2  C6  UNL     1     -30.970   8.465   2.458  1.00 20.00     0.027 C 
HETATM    3  C8  UNL     1     -32.323   8.289   1.766  1.00 20.00     0.116 C 
HETATM    4  N9  UNL     1     -32.506   9.876  -0.329  1.00 20.00    -0.197 NA
ENDROOT
BRANCH   3   5
HETATM    5  C7  UNL     1     -32.593   6.825   1.390  1.00 20.00     0.288 C 
BRANCH   5   6
HETATM    6  N10 UNL     1     -33.076   6.053   2.522  1.00 20.00     0.089 N 
HETATM    7  H24 UNL     1     -33.122   5.070   2.270  1.00 20.00     0.316 HD
BRANCH   6   8
HETATM    8  C4  UNL     1     -34.416   6.500   2.916  1.00 20.00     0.224 A 
HETATM    9  C2  UNL     1     -35.074   5.944   4.153  1.00 20.00     0.042 A 
HETATM   10  C3  UNL     1     -34.652   7.387   4.113  1.00 20.00     0.016 A 
HETATM   11  C5  UNL     1     -33.540   7.867   4.984  1.00 20.00     0.012 C 
ENDBRANCH   6   8
ENDBRANCH   5   6
ENDBRANCH   3   5
TORSDOF 3
ENDMDL
MODEL 6
REMARK VINA RESULT:      -0.7      1.666      4.308
REMARK  3 active torsions:
REMARK  status: ('A' for Active; 'I' for Inactive)
REMARK    1  A    between atoms: C4_4  and  N10_10 
REMARK    2  A    between atoms: C7_7  and  C8_8 
REMARK    3  A    between atoms: C7_7  and  N10_10 
ROOT
HETATM    1  C1  UNL     1     -34.602   5.057   4.170  1.00 20.00     0.065 C 
HETATM    2  C6  UNL     1     -36.230   6.535   3.046  1.00 20.00     0.027 C 
HETATM    3  C8  UNL     1     -35.279   6.365   4.232  1.00 20.00     0.116 C 
HETATM    4  N9  UNL     1     -34.070   4.026   4.123  1.00 20.00    -0.197 NA
ENDROOT
BRANCH   3   5
HETATM    5  C7  UNL     1     -34.269   7.517   4.334  1.00 20.00     0.288 C 
BRANCH   5   6
HETATM    6  N10 UNL     1     -32.993   7.176   3.727  1.00 20.00     0.089 N 
HETATM    7  H24 UNL     1     -32.237   7.572   4.278  1.00 20.00     0.316 HD
BRANCH   6   8
HETATM    8  C4  UNL     1     -32.911   7.710   2.364  1.00 20.00     0.224 A 
HETATM    9  C2  UNL     1     -31.574   7.908   1.700  1.00 20.00     0.042 A 
HETATM   10  C3  UNL     1     -32.517   6.856   1.185  1.00 20.00     0.016 A 
HETATM   11  C5  UNL     1     -32.177   5.411   1.323  1.00 20.00     0.012 C 
ENDBRANCH   6   8
ENDBRANCH   5   6
ENDBRANCH   3   5
TORSDOF 3
ENDMDL
MODEL 7
REMARK VINA RESULT:      -0.4      1.499      4.690
REMARK  3 active torsions:
REMARK  status: ('A' for Active; 'I' for Inactive)
REMARK    1  A    between atoms: C4_4  and  N10_10 
REMARK    2  A    between atoms: C7_7  and  C8_8 
REMARK    3  A    between atoms: C7_7  and  N10_10 
ROOT
HETATM    1  C1  UNL     1     -33.888   7.350   3.923  1.00 20.00     0.065 C 
HETATM    2  C6  UNL     1     -33.779   4.955   3.329  1.00 20.00     0.027 C 
HETATM    3  C8  UNL     1     -33.833   6.391   2.804  1.00 20.00     0.116 C 
HETATM    4  N9  UNL     1     -33.933   8.106   4.803  1.00 20.00    -0.197 NA
ENDROOT
BRANCH   3   5
HETATM    5  C7  UNL     1     -32.670   6.703   1.852  1.00 20.00     0.288 C 
BRANCH   5   6
HETATM    6  N10 UNL     1     -32.226   8.082   1.970  1.00 20.00     0.089 N 
HETATM    7  H24 UNL     1     -33.005   8.667   2.261  1.00 20.00     0.316 HD
BRANCH   6   8
HETATM    8  C4  UNL     1     -31.725   8.574   0.683  1.00 20.00     0.224 A 
HETATM    9  C2  UNL     1     -32.659   8.740  -0.488  1.00 20.00     0.042 A 
HETATM   10  C3  UNL     1     -32.051   9.952   0.162  1.00 20.00     0.016 A 
HETATM   11  C5  UNL     1     -32.912  10.908   0.916  1.00 20.00     0.012 C 
ENDBRANCH   6   8
ENDBRANCH   5   6
ENDBRANCH   3   5
TORSDOF 3
ENDMDL
MODEL 8
REMARK VINA RESULT:      -0.4      1.522      1.864
REMARK  3 active torsions:
REMARK  status: ('A' for Active; 'I' for Inactive)
REMARK    1  A    between atoms: C4_4  and  N10_10 
REMARK    2  A    between atoms: C7_7  and  C8_8 
REMARK    3  A    between atoms: C7_7  and  N10_10 
ROOT
HETATM    1  C1  UNL     1     -32.294   6.482   1.461  1.00 20.00     0.065 C 
HETATM    2  C6  UNL     1     -31.489   8.744   0.881  1.00 20.00     0.027 C 
HETATM    3  C8  UNL     1     -32.623   7.920   1.495  1.00 20.00     0.116 C 
HETATM    4  N9  UNL     1     -32.038   5.351   1.432  1.00 20.00    -0.197 NA
ENDROOT
BRANCH   3   5
HETATM    5  C7  UNL     1     -32.971   8.384   2.916  1.00 20.00     0.288 C 
BRANCH   5   6
HETATM    6  N10 UNL     1     -33.095   7.266   3.837  1.00 20.00     0.089 N 
HETATM    7  H24 UNL     1     -32.786   6.413   3.381  1.00 20.00     0.316 HD
BRANCH   6   8
HETATM    8  C4  UNL     1     -34.489   7.097   4.258  1.00 20.00     0.224 A 
HETATM    9  C2  UNL     1     -35.534   6.641   3.274  1.00 20.00     0.042 A 
HETATM   10  C3  UNL     1     -35.128   5.739   4.406  1.00 20.00     0.016 A 
HETATM   11  C5  UNL     1     -34.390   4.474   4.129  1.00 20.00     0.012 C 
ENDBRANCH   6   8
ENDBRANCH   5   6
ENDBRANCH   3   5
TORSDOF 3
ENDMDL
MODEL 9
REMARK VINA RESULT:      -0.2      1.639      4.789
REMARK  3 active torsions:
REMARK  status: ('A' for Active; 'I' for Inactive)
REMARK    1  A    between atoms: C4_4  and  N10_10 
REMARK    2  A    between atoms: C7_7  and  C8_8 
REMARK    3  A    between atoms: C7_7  and  N10_10 
ROOT
HETATM    1  C1  UNL     1     -34.352   6.458   3.329  1.00 20.00     0.065 C 
HETATM    2  C6  UNL     1     -32.817   5.555   1.617  1.00 20.00     0.027 C 
HETATM    3  C8  UNL     1     -33.408   6.815   2.253  1.00 20.00     0.116 C 
HETATM    4  N9  UNL     1     -35.096   6.179   4.174  1.00 20.00    -0.197 NA
ENDROOT
BRANCH   3   5
HETATM    5  C7  UNL     1     -32.320   7.775   2.754  1.00 20.00     0.288 C 
BRANCH   5   6
HETATM    6  N10 UNL     1     -31.749   8.561   1.672  1.00 20.00     0.089 N 
HETATM    7  H24 UNL     1     -31.019   9.166   2.039  1.00 20.00     0.316 HD
BRANCH   6   8
HETATM    8  C4  UNL     1     -32.777   9.393   1.041  1.00 20.00     0.224 A 
HETATM    9  C2  UNL     1     -32.461  10.801   0.608  1.00 20.00     0.042 A 
HETATM   10  C3  UNL     1     -32.742   9.746  -0.426  1.00 20.00     0.016 A 
HETATM   11  C5  UNL     1     -31.656   9.279  -1.334  1.00 20.00     0.012 C 
ENDBRANCH   6   8
ENDBRANCH   5   6
ENDBRANCH   3   5
TORSDOF 3
ENDMDL
