MODEL 1
REMARK VINA RESULT:      -1.8      0.000      0.000
REMARK  2 active torsions:
REMARK  status: ('A' for Active; 'I' for Inactive)
REMARK    1  A    between atoms: C4_4  and  N9_9 
REMARK    2  A    between atoms: C7_7  and  N9_9 
ROOT
HETATM    1  C1  UNL     1     -33.871   4.590   3.938  1.00 20.00     0.094 C 
HETATM    2  C6  UNL     1     -35.300   6.595   3.798  1.00 20.00     0.059 C 
HETATM    3  C7  UNL     1     -33.888   6.036   3.680  1.00 20.00     0.322 C 
HETATM    4  N8  UNL     1     -33.857   3.448   4.144  1.00 20.00    -0.195 NA
ENDROOT
BRANCH   3   5
HETATM    5  N9  UNL     1     -33.334   6.310   2.365  1.00 20.00     0.106 N 
HETATM    6  H21 UNL     1     -34.027   6.099   1.651  1.00 20.00     0.318 HD
BRANCH   5   7
HETATM    7  C4  UNL     1     -32.958   7.723   2.249  1.00 20.00     0.226 A 
HETATM    8  C2  UNL     1     -31.539   8.156   2.516  1.00 20.00     0.042 A 
HETATM    9  C3  UNL     1     -32.081   8.186   1.114  1.00 20.00     0.016 A 
HETATM   10  C5  UNL     1     -32.350   9.489   0.443  1.00 20.00     0.012 C 
ENDBRANCH   5   7
ENDBRANCH   3   5
TORSDOF 2
ENDMDL
MODEL 2
REMARK VINA RESULT:      -1.7      2.267      4.577
REMARK  2 active torsions:
REMARK  status: ('A' for Active; 'I' for Inactive)
REMARK    1  A    between atoms: C4_4  and  N9_9 
REMARK    2  A    between atoms: C7_7  and  N9_9 
ROOT
HETATM    1  C1  UNL     1     -32.178   8.995   0.487  1.00 20.00     0.094 C 
HETATM    2  C6  UNL     1     -32.345   6.682   1.324  1.00 20.00     0.059 C 
HETATM    3  C7  UNL     1     -31.889   8.104   1.619  1.00 20.00     0.322 C 
HETATM    4  N8  UNL     1     -32.404   9.699  -0.408  1.00 20.00    -0.195 NA
ENDROOT
BRANCH   3   5
HETATM    5  N9  UNL     1     -32.526   8.611   2.822  1.00 20.00     0.106 N 
HETATM    6  H21 UNL     1     -33.286   9.237   2.569  1.00 20.00     0.318 HD
BRANCH   5   7
HETATM    7  C4  UNL     1     -33.072   7.508   3.620  1.00 20.00     0.226 A 
HETATM    8  C2  UNL     1     -33.523   7.746   5.038  1.00 20.00     0.042 A 
HETATM    9  C3  UNL     1     -34.539   7.471   3.964  1.00 20.00     0.016 A 
HETATM   10  C5  UNL     1     -35.280   6.179   3.947  1.00 20.00     0.012 C 
ENDBRANCH   5   7
ENDBRANCH   3   5
TORSDOF 2
ENDMDL
MODEL 3
REMARK VINA RESULT:      -1.5      1.606      4.700
REMARK  2 active torsions:
REMARK  status: ('A' for Active; 'I' for Inactive)
REMARK    1  A    between atoms: C4_4  and  N9_9 
REMARK    2  A    between atoms: C7_7  and  N9_9 
ROOT
HETATM    1  C1  UNL     1     -32.198   8.443   1.224  1.00 20.00     0.094 C 
HETATM    2  C6  UNL     1     -32.030   5.987   1.356  1.00 20.00     0.059 C 
HETATM    3  C7  UNL     1     -32.399   7.271   2.086  1.00 20.00     0.322 C 
HETATM    4  N8  UNL     1     -32.036   9.370   0.545  1.00 20.00    -0.195 NA
ENDROOT
BRANCH   3   5
HETATM    5  N9  UNL     1     -33.777   7.225   2.544  1.00 20.00     0.106 N 
HETATM    6  H21 UNL     1     -34.370   6.851   1.807  1.00 20.00     0.318 HD
BRANCH   5   7
HETATM    7  C4  UNL     1     -33.900   6.364   3.725  1.00 20.00     0.226 A 
HETATM    8  C2  UNL     1     -35.259   6.031   4.285  1.00 20.00     0.042 A 
HETATM    9  C3  UNL     1     -34.450   4.967   3.596  1.00 20.00     0.016 A 
HETATM   10  C5  UNL     1     -33.854   3.851   4.382  1.00 20.00     0.012 C 
ENDBRANCH   5   7
ENDBRANCH   3   5
TORSDOF 2
ENDMDL
MODEL 4
REMARK VINA RESULT:      -1.1      1.550      4.592
REMARK  2 active torsions:
REMARK  status: ('A' for Active; 'I' for Inactive)
REMARK    1  A    between atoms: C4_4  and  N9_9 
REMARK    2  A    between atoms: C7_7  and  N9_9 
ROOT
HETATM    1  C1  UNL     1     -32.406   7.788   2.063  1.00 20.00     0.094 C 
HETATM    2  C6  UNL     1     -33.792   7.718   4.100  1.00 20.00     0.059 C 
HETATM    3  C7  UNL     1     -33.655   7.283   2.648  1.00 20.00     0.322 C 
HETATM    4  N8  UNL     1     -31.421   8.190   1.599  1.00 20.00    -0.195 NA
ENDROOT
BRANCH   3   5
HETATM    5  N9  UNL     1     -33.703   5.835   2.537  1.00 20.00     0.106 N 
HETATM    6  H21 UNL     1     -32.901   5.506   2.006  1.00 20.00     0.318 HD
BRANCH   5   7
HETATM    7  C4  UNL     1     -33.672   5.215   3.865  1.00 20.00     0.226 A 
HETATM    8  C2  UNL     1     -34.936   4.671   4.480  1.00 20.00     0.042 A 
HETATM    9  C3  UNL     1     -33.861   3.727   4.016  1.00 20.00     0.016 A 
HETATM   10  C5  UNL     1     -33.053   2.966   5.009  1.00 20.00     0.012 C 
ENDBRANCH   5   7
ENDBRANCH   3   5
TORSDOF 2
ENDMDL
MODEL 5
REMARK VINA RESULT:      -1.1      1.370      1.957
REMARK  2 active torsions:
REMARK  status: ('A' for Active; 'I' for Inactive)
REMARK    1  A    between atoms: C4_4  and  N9_9 
REMARK    2  A    between atoms: C7_7  and  N9_9 
ROOT
HETATM    1  C1  UNL     1     -34.106   7.147   4.015  1.00 20.00     0.094 C 
HETATM    2  C6  UNL     1     -33.913   4.721   3.620  1.00 20.00     0.059 C 
HETATM    3  C7  UNL     1     -34.091   6.096   2.989  1.00 20.00     0.322 C 
HETATM    4  N8  UNL     1     -34.120   7.979   4.824  1.00 20.00    -0.195 NA
ENDROOT
BRANCH   3   5
HETATM    5  N9  UNL     1     -33.037   6.360   2.025  1.00 20.00     0.106 N 
HETATM    6  H21 UNL     1     -33.342   6.071   1.099  1.00 20.00     0.318 HD
BRANCH   5   7
HETATM    7  C4  UNL     1     -32.717   7.791   1.989  1.00 20.00     0.226 A 
HETATM    8  C2  UNL     1     -31.287   8.252   2.089  1.00 20.00     0.042 A 
HETATM    9  C3  UNL     1     -32.029   8.387   0.788  1.00 20.00     0.016 A 
HETATM   10  C5  UNL     1     -32.426   9.733   0.289  1.00 20.00     0.012 C 
ENDBRANCH   5   7
ENDBRANCH   3   5
TORSDOF 2
ENDMDL
MODEL 6
REMARK VINA RESULT:      -1.0      1.390      1.811
REMARK  2 active torsions:
REMARK  status: ('A' for Active; 'I' for Inactive)
REMARK    1  A    between atoms: C4_4  and  N9_9 
REMARK    2  A    between atoms: C7_7  and  N9_9 
ROOT
HETATM    1  C1  UNL     1     -34.420   5.025   4.175  1.00 20.00     0.094 C 
HETATM    2  C6  UNL     1     -35.983   6.680   3.228  1.00 20.00     0.059 C 
HETATM    3  C7  UNL     1     -34.800   6.444   4.157  1.00 20.00     0.322 C 
HETATM    4  N8  UNL     1     -34.121   3.904   4.192  1.00 20.00    -0.195 NA
ENDROOT
BRANCH   3   5
HETATM    5  N9  UNL     1     -33.662   7.255   3.759  1.00 20.00     0.106 N 
HETATM    6  H21 UNL     1     -32.849   7.001   4.314  1.00 20.00     0.318 HD
BRANCH   5   7
HETATM    7  C4  UNL     1     -33.348   7.043   2.342  1.00 20.00     0.226 A 
HETATM    8  C2  UNL     1     -32.176   7.749   1.710  1.00 20.00     0.042 A 
HETATM    9  C3  UNL     1     -32.121   6.264   1.943  1.00 20.00     0.016 A 
HETATM   10  C5  UNL     1     -32.174   5.323   0.790  1.00 20.00     0.012 C 
ENDBRANCH   5   7
ENDBRANCH   3   5
TORSDOF 2
ENDMDL
MODEL 7
REMARK VINA RESULT:      -0.7      1.847      3.839
REMARK  2 active torsions:
REMARK  status: ('A' for Active; 'I' for Inactive)
REMARK    1  A    between atoms: C4_4  and  N9_9 
REMARK    2  A    between atoms: C7_7  and  N9_9 
ROOT
HETATM    1  C1  UNL     1     -32.217   6.487   1.361  1.00 20.00     0.094 C 
HETATM    2  C6  UNL     1     -31.627   8.736   0.540  1.00 20.00     0.059 C 
HETATM    3  C7  UNL     1     -32.517   7.921   1.468  1.00 20.00     0.322 C 
HETATM    4  N8  UNL     1     -31.982   5.354   1.275  1.00 20.00    -0.195 NA
ENDROOT
BRANCH   3   5
HETATM    5  N9  UNL     1     -32.362   8.357   2.845  1.00 20.00     0.106 N 
HETATM    6  H21 UNL     1     -32.761   9.285   2.957  1.00 20.00     0.318 HD
BRANCH   5   7
HETATM    7  C4  UNL     1     -33.049   7.438   3.759  1.00 20.00     0.226 A 
HETATM    8  C2  UNL     1     -33.709   7.961   5.008  1.00 20.00     0.042 A 
HETATM    9  C3  UNL     1     -34.551   7.457   3.870  1.00 20.00     0.016 A 
HETATM   10  C5  UNL     1     -35.308   6.181   4.006  1.00 20.00     0.012 C 
ENDBRANCH   5   7
ENDBRANCH   3   5
TORSDOF 2
ENDMDL
MODEL 8
REMARK VINA RESULT:      -0.6      1.789      4.535
REMARK  2 active torsions:
REMARK  status: ('A' for Active; 'I' for Inactive)
REMARK    1  A    between atoms: C4_4  and  N9_9 
REMARK    2  A    between atoms: C7_7  and  N9_9 
ROOT
HETATM    1  C1  UNL     1     -32.147   8.864   0.976  1.00 20.00     0.094 C 
HETATM    2  C6  UNL     1     -31.952   6.410   1.102  1.00 20.00     0.059 C 
HETATM    3  C7  UNL     1     -31.827   7.730   1.851  1.00 20.00     0.322 C 
HETATM    4  N8  UNL     1     -32.397   9.762   0.284  1.00 20.00    -0.195 NA
ENDROOT
BRANCH   3   5
HETATM    5  N9  UNL     1     -32.693   7.744   3.017  1.00 20.00     0.106 N 
HETATM    6  H21 UNL     1     -33.106   8.667   3.125  1.00 20.00     0.318 HD
BRANCH   5   7
HETATM    7  C4  UNL     1     -33.772   6.762   2.871  1.00 20.00     0.226 A 
HETATM    8  C2  UNL     1     -33.929   5.649   3.875  1.00 20.00     0.042 A 
HETATM    9  C3  UNL     1     -34.938   6.763   3.826  1.00 20.00     0.016 A 
HETATM   10  C5  UNL     1     -36.317   6.503   3.326  1.00 20.00     0.012 C 
ENDBRANCH   5   7
ENDBRANCH   3   5
TORSDOF 2
ENDMDL
MODEL 9
REMARK VINA RESULT:      -0.4      1.748      2.584
REMARK  2 active torsions:
REMARK  status: ('A' for Active; 'I' for Inactive)
REMARK    1  A    between atoms: C4_4  and  N9_9 
REMARK    2  A    between atoms: C7_7  and  N9_9 
ROOT
HETATM    1  C1  UNL     1     -33.863   6.676   2.941  1.00 20.00     0.094 C 
HETATM    2  C6  UNL     1     -32.300   5.541   1.409  1.00 20.00     0.059 C 
HETATM    3  C7  UNL     1     -32.949   6.860   1.807  1.00 20.00     0.322 C 
HETATM    4  N8  UNL     1     -34.589   6.531   3.835  1.00 20.00    -0.195 NA
ENDROOT
BRANCH   3   5
HETATM    5  N9  UNL     1     -31.940   7.851   2.140  1.00 20.00     0.106 N 
HETATM    6  H21 UNL     1     -31.057   7.387   2.336  1.00 20.00     0.318 HD
BRANCH   5   7
HETATM    7  C4  UNL     1     -31.743   8.783   1.025  1.00 20.00     0.226 A 
HETATM    8  C2  UNL     1     -32.622   8.703  -0.196  1.00 20.00     0.042 A 
HETATM    9  C3  UNL     1     -32.756   9.864   0.749  1.00 20.00     0.016 A 
HETATM   10  C5  UNL     1     -32.306  11.223   0.335  1.00 20.00     0.012 C 
ENDBRANCH   5   7
ENDBRANCH   3   5
TORSDOF 2
ENDMDL
