MODEL 1
REMARK VINA RESULT:      -2.6      0.000      0.000
REMARK  3 active torsions:
REMARK  status: ('A' for Active; 'I' for Inactive)
REMARK    1  A    between atoms: C2_2  and  C8_8 
REMARK    2  A    between atoms: C5_5  and  N9_9 
REMARK    3  A    between atoms: C8_8  and  N9_9 
ROOT
HETATM    1  C1  UNL     1     -33.909   3.973   4.377  1.00 20.00    -0.109 C 
HETATM    2  C2  UNL     1     -34.424   5.025   4.114  1.00 20.00    -0.077 C 
HETATM    3  C6  UNL     1     -33.279   2.693   4.699  1.00 20.00     0.112 C 
ENDROOT
BRANCH   2   4
HETATM    4  C8  UNL     1     -35.050   6.311   3.790  1.00 20.00     0.363 C 
BRANCH   4   5
HETATM    5  N9  UNL     1     -34.048   7.305   3.445  1.00 20.00     0.099 N 
HETATM    6  H22 UNL     1     -33.741   7.786   4.286  1.00 20.00     0.317 HD
BRANCH   5   7
HETATM    7  C5  UNL     1     -32.887   6.669   2.815  1.00 20.00     0.225 A 
HETATM    8  C3  UNL     1     -32.941   6.238   1.372  1.00 20.00     0.042 A 
HETATM    9  C4  UNL     1     -32.043   7.373   1.781  1.00 20.00     0.016 A 
HETATM   10  C7  UNL     1     -32.335   8.761   1.322  1.00 20.00     0.012 C 
ENDBRANCH   5   7
ENDBRANCH   4   5
ENDBRANCH   2   4
TORSDOF 3
ENDMDL
MODEL 2
REMARK VINA RESULT:      -2.5      1.146      5.063
REMARK  3 active torsions:
REMARK  status: ('A' for Active; 'I' for Inactive)
REMARK    1  A    between atoms: C2_2  and  C8_8 
REMARK    2  A    between atoms: C5_5  and  N9_9 
REMARK    3  A    between atoms: C8_8  and  N9_9 
ROOT
HETATM    1  C1  UNL     1     -32.359   9.365   0.695  1.00 20.00    -0.109 C 
HETATM    2  C2  UNL     1     -32.188   8.307   1.235  1.00 20.00    -0.077 C 
HETATM    3  C6  UNL     1     -32.568  10.656   0.039  1.00 20.00     0.112 C 
ENDROOT
BRANCH   2   4
HETATM    4  C8  UNL     1     -31.983   7.016   1.898  1.00 20.00     0.363 C 
BRANCH   4   5
HETATM    5  N9  UNL     1     -33.243   6.311   2.068  1.00 20.00     0.099 N 
HETATM    6  H22 UNL     1     -33.082   5.309   2.022  1.00 20.00     0.317 HD
BRANCH   5   7
HETATM    7  C5  UNL     1     -33.842   6.634   3.366  1.00 20.00     0.225 A 
HETATM    8  C3  UNL     1     -35.307   6.385   3.615  1.00 20.00     0.042 A 
HETATM    9  C4  UNL     1     -34.275   5.569   4.343  1.00 20.00     0.016 A 
HETATM   10  C7  UNL     1     -34.130   4.113   4.053  1.00 20.00     0.012 C 
ENDBRANCH   5   7
ENDBRANCH   4   5
ENDBRANCH   2   4
TORSDOF 3
ENDMDL
MODEL 3
REMARK VINA RESULT:      -2.1      1.845      4.972
REMARK  3 active torsions:
REMARK  status: ('A' for Active; 'I' for Inactive)
REMARK    1  A    between atoms: C2_2  and  C8_8 
REMARK    2  A    between atoms: C5_5  and  N9_9 
REMARK    3  A    between atoms: C8_8  and  N9_9 
ROOT
HETATM    1  C1  UNL     1     -32.336   9.367   0.623  1.00 20.00    -0.109 C 
HETATM    2  C2  UNL     1     -32.179   8.294   1.137  1.00 20.00    -0.077 C 
HETATM    3  C6  UNL     1     -32.529  10.676  -0.002  1.00 20.00     0.112 C 
ENDROOT
BRANCH   2   4
HETATM    4  C8  UNL     1     -31.992   6.982   1.764  1.00 20.00     0.363 C 
BRANCH   4   5
HETATM    5  N9  UNL     1     -33.271   6.345   2.029  1.00 20.00     0.099 N 
HETATM    6  H22 UNL     1     -33.247   5.383   1.704  1.00 20.00     0.317 HD
BRANCH   5   7
HETATM    7  C5  UNL     1     -33.562   6.351   3.466  1.00 20.00     0.225 A 
HETATM    8  C3  UNL     1     -33.994   7.621   4.153  1.00 20.00     0.042 A 
HETATM    9  C4  UNL     1     -34.966   6.482   4.005  1.00 20.00     0.016 A 
HETATM   10  C7  UNL     1     -36.153   6.623   3.115  1.00 20.00     0.012 C 
ENDBRANCH   5   7
ENDBRANCH   4   5
ENDBRANCH   2   4
TORSDOF 3
ENDMDL
MODEL 4
REMARK VINA RESULT:      -2.0      0.748      1.425
REMARK  3 active torsions:
REMARK  status: ('A' for Active; 'I' for Inactive)
REMARK    1  A    between atoms: C2_2  and  C8_8 
REMARK    2  A    between atoms: C5_5  and  N9_9 
REMARK    3  A    between atoms: C8_8  and  N9_9 
ROOT
HETATM    1  C1  UNL     1     -33.811   3.849   4.314  1.00 20.00    -0.109 C 
HETATM    2  C2  UNL     1     -34.185   4.958   4.048  1.00 20.00    -0.077 C 
HETATM    3  C6  UNL     1     -33.356   2.497   4.640  1.00 20.00     0.112 C 
ENDROOT
BRANCH   2   4
HETATM    4  C8  UNL     1     -34.638   6.315   3.726  1.00 20.00     0.363 C 
BRANCH   4   5
HETATM    5  N9  UNL     1     -33.517   7.239   3.679  1.00 20.00     0.099 N 
HETATM    6  H22 UNL     1     -32.679   6.776   4.016  1.00 20.00     0.317 HD
BRANCH   5   7
HETATM    7  C5  UNL     1     -33.284   7.697   2.306  1.00 20.00     0.225 A 
HETATM    8  C3  UNL     1     -31.916   8.156   1.875  1.00 20.00     0.042 A 
HETATM    9  C4  UNL     1     -32.492   6.887   1.309  1.00 20.00     0.016 A 
HETATM   10  C7  UNL     1     -31.884   5.570   1.653  1.00 20.00     0.012 C 
ENDBRANCH   5   7
ENDBRANCH   4   5
ENDBRANCH   2   4
TORSDOF 3
ENDMDL
MODEL 5
REMARK VINA RESULT:      -2.0      1.854      4.518
REMARK  3 active torsions:
REMARK  status: ('A' for Active; 'I' for Inactive)
REMARK    1  A    between atoms: C2_2  and  C8_8 
REMARK    2  A    between atoms: C5_5  and  N9_9 
REMARK    3  A    between atoms: C8_8  and  N9_9 
ROOT
HETATM    1  C1  UNL     1     -32.353   8.658   0.942  1.00 20.00    -0.109 C 
HETATM    2  C2  UNL     1     -32.358   7.486   1.203  1.00 20.00    -0.077 C 
HETATM    3  C6  UNL     1     -32.348  10.085   0.622  1.00 20.00     0.112 C 
ENDROOT
BRANCH   2   4
HETATM    4  C8  UNL     1     -32.362   6.054   1.516  1.00 20.00     0.363 C 
BRANCH   4   5
HETATM    5  N9  UNL     1     -32.932   5.810   2.831  1.00 20.00     0.099 N 
HETATM    6  H22 UNL     1     -32.312   6.181   3.545  1.00 20.00     0.317 HD
BRANCH   5   7
HETATM    7  C5  UNL     1     -34.239   6.463   2.954  1.00 20.00     0.225 A 
HETATM    8  C3  UNL     1     -35.131   6.173   4.133  1.00 20.00     0.042 A 
HETATM    9  C4  UNL     1     -34.512   7.535   3.981  1.00 20.00     0.016 A 
HETATM   10  C7  UNL     1     -33.475   7.999   4.947  1.00 20.00     0.012 C 
ENDBRANCH   5   7
ENDBRANCH   4   5
ENDBRANCH   2   4
TORSDOF 3
ENDMDL
MODEL 6
REMARK VINA RESULT:      -1.5      1.988      3.152
REMARK  3 active torsions:
REMARK  status: ('A' for Active; 'I' for Inactive)
REMARK    1  A    between atoms: C2_2  and  C8_8 
REMARK    2  A    between atoms: C5_5  and  N9_9 
REMARK    3  A    between atoms: C8_8  and  N9_9 
ROOT
HETATM    1  C1  UNL     1     -34.257   6.325   3.321  1.00 20.00    -0.109 C 
HETATM    2  C2  UNL     1     -33.357   6.576   2.567  1.00 20.00    -0.077 C 
HETATM    3  C6  UNL     1     -35.354   6.019   4.238  1.00 20.00     0.112 C 
ENDROOT
BRANCH   2   4
HETATM    4  C8  UNL     1     -32.261   6.887   1.644  1.00 20.00     0.363 C 
BRANCH   4   5
HETATM    5  N9  UNL     1     -31.846   8.273   1.778  1.00 20.00     0.099 N 
HETATM    6  H22 UNL     1     -31.000   8.324   2.337  1.00 20.00     0.317 HD
BRANCH   5   7
HETATM    7  C5  UNL     1     -31.577   8.859   0.461  1.00 20.00     0.225 A 
HETATM    8  C3  UNL     1     -32.663   8.930  -0.581  1.00 20.00     0.042 A 
HETATM    9  C4  UNL     1     -32.140  10.195   0.042  1.00 20.00     0.016 A 
HETATM   10  C7  UNL     1     -33.015  11.008   0.934  1.00 20.00     0.012 C 
ENDBRANCH   5   7
ENDBRANCH   4   5
ENDBRANCH   2   4
TORSDOF 3
ENDMDL
MODEL 7
REMARK VINA RESULT:      -1.1      1.323      5.098
REMARK  3 active torsions:
REMARK  status: ('A' for Active; 'I' for Inactive)
REMARK    1  A    between atoms: C2_2  and  C8_8 
REMARK    2  A    between atoms: C5_5  and  N9_9 
REMARK    3  A    between atoms: C8_8  and  N9_9 
ROOT
HETATM    1  C1  UNL     1     -32.465   9.652   0.262  1.00 20.00    -0.109 C 
HETATM    2  C2  UNL     1     -32.122   8.783   1.016  1.00 20.00    -0.077 C 
HETATM    3  C6  UNL     1     -32.882  10.709  -0.659  1.00 20.00     0.112 C 
ENDROOT
BRANCH   2   4
HETATM    4  C8  UNL     1     -31.699   7.721   1.934  1.00 20.00     0.363 C 
BRANCH   4   5
HETATM    5  N9  UNL     1     -32.747   7.414   2.893  1.00 20.00     0.099 N 
HETATM    6  H22 UNL     1     -33.430   8.166   2.904  1.00 20.00     0.317 HD
BRANCH   5   7
HETATM    7  C5  UNL     1     -33.426   6.166   2.534  1.00 20.00     0.225 A 
HETATM    8  C3  UNL     1     -33.376   4.975   3.456  1.00 20.00     0.042 A 
HETATM    9  C4  UNL     1     -34.678   5.696   3.234  1.00 20.00     0.016 A 
HETATM   10  C7  UNL     1     -35.307   6.465   4.345  1.00 20.00     0.012 C 
ENDBRANCH   5   7
ENDBRANCH   4   5
ENDBRANCH   2   4
TORSDOF 3
ENDMDL
MODEL 8
REMARK VINA RESULT:      -0.9      1.202      3.725
REMARK  3 active torsions:
REMARK  status: ('A' for Active; 'I' for Inactive)
REMARK    1  A    between atoms: C2_2  and  C8_8 
REMARK    2  A    between atoms: C5_5  and  N9_9 
REMARK    3  A    between atoms: C8_8  and  N9_9 
ROOT
HETATM    1  C1  UNL     1     -32.117   5.557   1.118  1.00 20.00    -0.109 C 
HETATM    2  C2  UNL     1     -32.530   6.512   1.716  1.00 20.00    -0.077 C 
HETATM    3  C6  UNL     1     -31.613   4.391   0.392  1.00 20.00     0.112 C 
ENDROOT
BRANCH   2   4
HETATM    4  C8  UNL     1     -33.029   7.681   2.447  1.00 20.00     0.363 C 
BRANCH   4   5
HETATM    5  N9  UNL     1     -33.145   7.396   3.867  1.00 20.00     0.099 N 
HETATM    6  H22 UNL     1     -32.769   8.173   4.403  1.00 20.00     0.317 HD
BRANCH   5   7
HETATM    7  C5  UNL     1     -34.549   7.201   4.240  1.00 20.00     0.225 A 
HETATM    8  C3  UNL     1     -35.549   6.714   3.224  1.00 20.00     0.042 A 
HETATM    9  C4  UNL     1     -35.165   5.829   4.378  1.00 20.00     0.016 A 
HETATM   10  C7  UNL     1     -34.390   4.579   4.136  1.00 20.00     0.012 C 
ENDBRANCH   5   7
ENDBRANCH   4   5
ENDBRANCH   2   4
TORSDOF 3
ENDMDL
MODEL 9
REMARK VINA RESULT:      -0.9      1.932      2.735
REMARK  3 active torsions:
REMARK  status: ('A' for Active; 'I' for Inactive)
REMARK    1  A    between atoms: C2_2  and  C8_8 
REMARK    2  A    between atoms: C5_5  and  N9_9 
REMARK    3  A    between atoms: C8_8  and  N9_9 
ROOT
HETATM    1  C1  UNL     1     -34.363   5.883   3.347  1.00 20.00    -0.109 C 
HETATM    2  C2  UNL     1     -33.515   5.665   2.526  1.00 20.00    -0.077 C 
HETATM    3  C6  UNL     1     -35.396   6.147   4.348  1.00 20.00     0.112 C 
ENDROOT
BRANCH   2   4
HETATM    4  C8  UNL     1     -32.482   5.396   1.521  1.00 20.00     0.363 C 
BRANCH   4   5
HETATM    5  N9  UNL     1     -31.890   6.632   1.038  1.00 20.00     0.099 N 
HETATM    6  H22 UNL     1     -32.216   6.820   0.095  1.00 20.00     0.317 HD
BRANCH   5   7
HETATM    7  C5  UNL     1     -32.268   7.755   1.901  1.00 20.00     0.225 A 
HETATM    8  C3  UNL     1     -31.263   8.821   2.252  1.00 20.00     0.042 A 
HETATM    9  C4  UNL     1     -32.435   9.159   1.372  1.00 20.00     0.016 A 
HETATM   10  C7  UNL     1     -32.220   9.503  -0.062  1.00 20.00     0.012 C 
ENDBRANCH   5   7
ENDBRANCH   4   5
ENDBRANCH   2   4
TORSDOF 3
ENDMDL
