MODEL 1
REMARK VINA RESULT:      -1.7      0.000      0.000
REMARK  1 active torsions:
REMARK  status: ('A' for Active; 'I' for Inactive)
REMARK    1  A    between atoms: C4_4  and  N6_6 
ROOT
HETATM    1  C1  UNL     1     -32.242   8.690   1.148  1.00 20.00     0.158 C 
HETATM    2  N6  UNL     1     -32.101   7.777   1.880  1.00 20.00    -0.270 NA
HETATM    3  S7  UNL     1     -32.414   9.931   0.167  1.00 20.00    -0.055 SA
ENDROOT
BRANCH   2   4
HETATM    4  C4  UNL     1     -33.136   6.754   1.803  1.00 20.00     0.114 A 
HETATM    5  C2  UNL     1     -33.016   5.569   2.722  1.00 20.00     0.034 A 
HETATM    6  C3  UNL     1     -34.096   6.589   2.953  1.00 20.00     0.008 A 
HETATM    7  C5  UNL     1     -34.049   7.473   4.151  1.00 20.00     0.012 C 
ENDBRANCH   2   4
TORSDOF 1
ENDMDL
MODEL 2
REMARK VINA RESULT:      -1.5      2.632      3.556
REMARK  1 active torsions:
REMARK  status: ('A' for Active; 'I' for Inactive)
REMARK    1  A    between atoms: C4_4  and  N6_6 
ROOT
HETATM    1  C1  UNL     1     -34.176   7.197   3.633  1.00 20.00     0.158 C 
HETATM    2  N6  UNL     1     -33.441   8.052   3.293  1.00 20.00    -0.270 NA
HETATM    3  S7  UNL     1     -35.183   6.055   4.101  1.00 20.00    -0.055 SA
ENDROOT
BRANCH   2   4
HETATM    4  C4  UNL     1     -32.207   7.597   2.664  1.00 20.00     0.114 A 
HETATM    5  C2  UNL     1     -32.323   6.834   1.372  1.00 20.00     0.034 A 
HETATM    6  C3  UNL     1     -31.762   8.230   1.370  1.00 20.00     0.008 A 
HETATM    7  C5  UNL     1     -32.523   9.342   0.736  1.00 20.00     0.012 C 
ENDBRANCH   2   4
TORSDOF 1
ENDMDL
MODEL 3
REMARK VINA RESULT:      -1.2      1.579      2.176
REMARK  1 active torsions:
REMARK  status: ('A' for Active; 'I' for Inactive)
REMARK    1  A    between atoms: C4_4  and  N6_6 
ROOT
HETATM    1  C1  UNL     1     -32.643   7.405   1.864  1.00 20.00     0.158 C 
HETATM    2  N6  UNL     1     -33.201   6.485   2.342  1.00 20.00    -0.270 NA
HETATM    3  S7  UNL     1     -31.881   8.636   1.202  1.00 20.00    -0.055 SA
ENDROOT
BRANCH   2   4
HETATM    4  C4  UNL     1     -33.974   6.783   3.541  1.00 20.00     0.114 A 
HETATM    5  C2  UNL     1     -35.440   6.442   3.530  1.00 20.00     0.034 A 
HETATM    6  C3  UNL     1     -34.492   5.646   4.385  1.00 20.00     0.008 A 
HETATM    7  C5  UNL     1     -34.200   4.224   4.055  1.00 20.00     0.012 C 
ENDBRANCH   2   4
TORSDOF 1
ENDMDL
MODEL 4
REMARK VINA RESULT:      -0.7      1.036      1.629
REMARK  1 active torsions:
REMARK  status: ('A' for Active; 'I' for Inactive)
REMARK    1  A    between atoms: C4_4  and  N6_6 
ROOT
HETATM    1  C1  UNL     1     -32.365   8.394   1.439  1.00 20.00     0.158 C 
HETATM    2  N6  UNL     1     -32.410   7.460   2.156  1.00 20.00    -0.270 NA
HETATM    3  S7  UNL     1     -32.295   9.645   0.457  1.00 20.00    -0.055 SA
ENDROOT
BRANCH   2   4
HETATM    4  C4  UNL     1     -33.134   7.669   3.403  1.00 20.00     0.114 A 
HETATM    5  C2  UNL     1     -34.637   7.720   3.338  1.00 20.00     0.034 A 
HETATM    6  C3  UNL     1     -33.954   6.542   3.977  1.00 20.00     0.008 A 
HETATM    7  C5  UNL     1     -34.011   5.201   3.330  1.00 20.00     0.012 C 
ENDBRANCH   2   4
TORSDOF 1
ENDMDL
MODEL 5
REMARK VINA RESULT:      -0.7      1.132      1.925
REMARK  1 active torsions:
REMARK  status: ('A' for Active; 'I' for Inactive)
REMARK    1  A    between atoms: C4_4  and  N6_6 
ROOT
HETATM    1  C1  UNL     1     -32.228   9.295   0.603  1.00 20.00     0.158 C 
HETATM    2  N6  UNL     1     -31.742   8.258   0.880  1.00 20.00    -0.270 NA
HETATM    3  S7  UNL     1     -32.876  10.695   0.209  1.00 20.00    -0.055 SA
ENDROOT
BRANCH   2   4
HETATM    4  C4  UNL     1     -32.060   7.760   2.212  1.00 20.00     0.114 A 
HETATM    5  C2  UNL     1     -33.513   7.624   2.579  1.00 20.00     0.034 A 
HETATM    6  C3  UNL     1     -32.677   6.392   2.360  1.00 20.00     0.008 A 
HETATM    7  C5  UNL     1     -32.932   5.513   1.186  1.00 20.00     0.012 C 
ENDBRANCH   2   4
TORSDOF 1
ENDMDL
MODEL 6
REMARK VINA RESULT:      -0.6      2.650      3.544
REMARK  1 active torsions:
REMARK  status: ('A' for Active; 'I' for Inactive)
REMARK    1  A    between atoms: C4_4  and  N6_6 
ROOT
HETATM    1  C1  UNL     1     -34.095   6.944   3.768  1.00 20.00     0.158 C 
HETATM    2  N6  UNL     1     -33.091   7.525   3.561  1.00 20.00    -0.270 NA
HETATM    3  S7  UNL     1     -35.446   6.157   4.068  1.00 20.00    -0.055 SA
ENDROOT
BRANCH   2   4
HETATM    4  C4  UNL     1     -32.883   7.930   2.177  1.00 20.00     0.114 A 
HETATM    5  C2  UNL     1     -31.464   8.053   1.692  1.00 20.00     0.034 A 
HETATM    6  C3  UNL     1     -32.332   6.932   1.191  1.00 20.00     0.008 A 
HETATM    7  C5  UNL     1     -32.035   5.525   1.579  1.00 20.00     0.012 C 
ENDBRANCH   2   4
TORSDOF 1
ENDMDL
MODEL 7
REMARK VINA RESULT:      -0.4      3.792      4.159
REMARK  1 active torsions:
REMARK  status: ('A' for Active; 'I' for Inactive)
REMARK    1  A    between atoms: C4_4  and  N6_6 
ROOT
HETATM    1  C1  UNL     1     -33.285   4.270   3.785  1.00 20.00     0.158 C 
HETATM    2  N6  UNL     1     -33.215   5.281   3.184  1.00 20.00    -0.270 NA
HETATM    3  S7  UNL     1     -33.358   2.901   4.594  1.00 20.00    -0.055 SA
ENDROOT
BRANCH   2   4
HETATM    4  C4  UNL     1     -34.460   6.034   3.089  1.00 20.00     0.114 A 
HETATM    5  C2  UNL     1     -35.325   6.111   4.318  1.00 20.00     0.034 A 
HETATM    6  C3  UNL     1     -34.593   7.334   3.839  1.00 20.00     0.008 A 
HETATM    7  C5  UNL     1     -33.473   7.900   4.641  1.00 20.00     0.012 C 
ENDBRANCH   2   4
TORSDOF 1
ENDMDL
MODEL 8
REMARK VINA RESULT:      -0.3      2.310      2.518
REMARK  1 active torsions:
REMARK  status: ('A' for Active; 'I' for Inactive)
REMARK    1  A    between atoms: C4_4  and  N6_6 
ROOT
HETATM    1  C1  UNL     1     -32.478   6.124   1.625  1.00 20.00     0.158 C 
HETATM    2  N6  UNL     1     -32.766   7.076   2.257  1.00 20.00    -0.270 NA
HETATM    3  S7  UNL     1     -32.070   4.846   0.768  1.00 20.00    -0.055 SA
ENDROOT
BRANCH   2   4
HETATM    4  C4  UNL     1     -34.128   7.087   2.777  1.00 20.00     0.114 A 
HETATM    5  C2  UNL     1     -34.467   6.108   3.868  1.00 20.00     0.034 A 
HETATM    6  C3  UNL     1     -34.376   7.577   4.181  1.00 20.00     0.008 A 
HETATM    7  C5  UNL     1     -33.276   8.093   5.041  1.00 20.00     0.012 C 
ENDBRANCH   2   4
TORSDOF 1
ENDMDL
MODEL 9
REMARK VINA RESULT:      -0.3      2.410      3.864
REMARK  1 active torsions:
REMARK  status: ('A' for Active; 'I' for Inactive)
REMARK    1  A    between atoms: C4_4  and  N6_6 
ROOT
HETATM    1  C1  UNL     1     -32.344   7.202   1.700  1.00 20.00     0.158 C 
HETATM    2  N6  UNL     1     -32.003   8.328   1.757  1.00 20.00    -0.270 NA
HETATM    3  S7  UNL     1     -32.810   5.680   1.644  1.00 20.00    -0.055 SA
ENDROOT
BRANCH   2   4
HETATM    4  C4  UNL     1     -31.587   8.915   0.490  1.00 20.00     0.114 A 
HETATM    5  C2  UNL     1     -32.614   9.012  -0.606  1.00 20.00     0.034 A 
HETATM    6  C3  UNL     1     -32.135  10.260   0.085  1.00 20.00     0.008 A 
HETATM    7  C5  UNL     1     -33.058  11.030   0.963  1.00 20.00     0.012 C 
ENDBRANCH   2   4
TORSDOF 1
ENDMDL
