MODEL 1
REMARK VINA RESULT:      -3.2      0.000      0.000
REMARK  2 active torsions:
REMARK  status: ('A' for Active; 'I' for Inactive)
REMARK    1  A    between atoms: C5_5  and  N8_8 
REMARK    2  A    between atoms: C7_7  and  N8_8 
ROOT
HETATM    1  C1  UNL     1     -32.490   9.901   0.081  1.00 20.00     0.013 C 
HETATM    2  C2  UNL     1     -32.235   9.039   0.877  1.00 20.00    -0.087 C 
HETATM    3  C7  UNL     1     -31.920   7.990   1.849  1.00 20.00     0.362 C 
ENDROOT
BRANCH   3   4
HETATM    4  N8  UNL     1     -32.937   6.952   1.832  1.00 20.00     0.099 N 
HETATM    5  H19 UNL     1     -33.744   7.273   1.304  1.00 20.00     0.317 HD
BRANCH   4   6
HETATM    6  C5  UNL     1     -33.366   6.627   3.196  1.00 20.00     0.225 A 
HETATM    7  C3  UNL     1     -33.993   7.683   4.068  1.00 20.00     0.042 A 
HETATM    8  C4  UNL     1     -34.832   6.554   3.536  1.00 20.00     0.016 A 
HETATM    9  C6  UNL     1     -35.335   5.497   4.458  1.00 20.00     0.012 C 
ENDBRANCH   4   6
ENDBRANCH   3   4
TORSDOF 2
ENDMDL
MODEL 2
REMARK VINA RESULT:      -2.4      0.935      1.261
REMARK  2 active torsions:
REMARK  status: ('A' for Active; 'I' for Inactive)
REMARK    1  A    between atoms: C5_5  and  N8_8 
REMARK    2  A    between atoms: C7_7  and  N8_8 
ROOT
HETATM    1  C1  UNL     1     -32.666  10.284  -0.026  1.00 20.00     0.013 C 
HETATM    2  C2  UNL     1     -32.201   9.357   0.579  1.00 20.00    -0.087 C 
HETATM    3  C7  UNL     1     -31.630   8.224   1.313  1.00 20.00     0.362 C 
ENDROOT
BRANCH   3   4
HETATM    4  N8  UNL     1     -32.275   8.074   2.606  1.00 20.00     0.099 N 
HETATM    5  H19 UNL     1     -31.643   7.606   3.250  1.00 20.00     0.317 HD
BRANCH   4   6
HETATM    6  C5  UNL     1     -33.498   7.275   2.484  1.00 20.00     0.225 A 
HETATM    7  C3  UNL     1     -33.417   5.780   2.321  1.00 20.00     0.042 A 
HETATM    8  C4  UNL     1     -33.930   6.367   3.607  1.00 20.00     0.016 A 
HETATM    9  C6  UNL     1     -35.373   6.248   3.961  1.00 20.00     0.012 C 
ENDBRANCH   4   6
ENDBRANCH   3   4
TORSDOF 2
ENDMDL
MODEL 3
REMARK VINA RESULT:      -2.1      1.383      2.118
REMARK  2 active torsions:
REMARK  status: ('A' for Active; 'I' for Inactive)
REMARK    1  A    between atoms: C5_5  and  N8_8 
REMARK    2  A    between atoms: C7_7  and  N8_8 
ROOT
HETATM    1  C1  UNL     1     -32.399   5.136   1.058  1.00 20.00     0.013 C 
HETATM    2  C2  UNL     1     -32.111   6.268   1.337  1.00 20.00    -0.087 C 
HETATM    3  C7  UNL     1     -31.754   7.648   1.675  1.00 20.00     0.362 C 
ENDROOT
BRANCH   3   4
HETATM    4  N8  UNL     1     -32.798   8.266   2.474  1.00 20.00     0.099 N 
HETATM    5  H19 UNL     1     -32.447   9.124   2.891  1.00 20.00     0.317 HD
BRANCH   4   6
HETATM    6  C5  UNL     1     -33.229   7.365   3.548  1.00 20.00     0.225 A 
HETATM    7  C3  UNL     1     -33.837   7.920   4.809  1.00 20.00     0.042 A 
HETATM    8  C4  UNL     1     -34.696   7.166   3.831  1.00 20.00     0.016 A 
HETATM    9  C6  UNL     1     -35.214   5.812   4.180  1.00 20.00     0.012 C 
ENDBRANCH   4   6
ENDBRANCH   3   4
TORSDOF 2
ENDMDL
MODEL 4
REMARK VINA RESULT:      -2.1      0.792      4.545
REMARK  2 active torsions:
REMARK  status: ('A' for Active; 'I' for Inactive)
REMARK    1  A    between atoms: C5_5  and  N8_8 
REMARK    2  A    between atoms: C7_7  and  N8_8 
ROOT
HETATM    1  C1  UNL     1     -35.365   6.111   4.049  1.00 20.00     0.013 C 
HETATM    2  C2  UNL     1     -34.413   6.803   3.815  1.00 20.00    -0.087 C 
HETATM    3  C7  UNL     1     -33.251   7.650   3.534  1.00 20.00     0.362 C 
ENDROOT
BRANCH   3   4
HETATM    4  N8  UNL     1     -32.726   7.377   2.207  1.00 20.00     0.099 N 
HETATM    5  H19 UNL     1     -32.056   6.615   2.254  1.00 20.00     0.317 HD
BRANCH   4   6
HETATM    6  C5  UNL     1     -32.054   8.562   1.664  1.00 20.00     0.225 A 
HETATM    7  C3  UNL     1     -31.278   8.472   0.376  1.00 20.00     0.042 A 
HETATM    8  C4  UNL     1     -32.577   9.229   0.417  1.00 20.00     0.016 A 
HETATM    9  C6  UNL     1     -32.581  10.716   0.309  1.00 20.00     0.012 C 
ENDBRANCH   4   6
ENDBRANCH   3   4
TORSDOF 2
ENDMDL
MODEL 5
REMARK VINA RESULT:      -2.1      0.971      4.188
REMARK  2 active torsions:
REMARK  status: ('A' for Active; 'I' for Inactive)
REMARK    1  A    between atoms: C5_5  and  N8_8 
REMARK    2  A    between atoms: C7_7  and  N8_8 
ROOT
HETATM    1  C1  UNL     1     -35.263   6.480   4.026  1.00 20.00     0.013 C 
HETATM    2  C2  UNL     1     -34.294   6.037   3.472  1.00 20.00    -0.087 C 
HETATM    3  C7  UNL     1     -33.111   5.494   2.801  1.00 20.00     0.362 C 
ENDROOT
BRANCH   3   4
HETATM    4  N8  UNL     1     -32.869   6.188   1.547  1.00 20.00     0.099 N 
HETATM    5  H19 UNL     1     -31.999   5.860   1.138  1.00 20.00     0.317 HD
BRANCH   4   6
HETATM    6  C5  UNL     1     -32.768   7.634   1.769  1.00 20.00     0.225 A 
HETATM    7  C3  UNL     1     -31.472   8.243   2.237  1.00 20.00     0.042 A 
HETATM    8  C4  UNL     1     -31.955   8.493   0.835  1.00 20.00     0.016 A 
HETATM    9  C6  UNL     1     -32.446   9.844   0.442  1.00 20.00     0.012 C 
ENDBRANCH   4   6
ENDBRANCH   3   4
TORSDOF 2
ENDMDL
MODEL 6
REMARK VINA RESULT:      -1.9      1.678      4.383
REMARK  2 active torsions:
REMARK  status: ('A' for Active; 'I' for Inactive)
REMARK    1  A    between atoms: C5_5  and  N8_8 
REMARK    2  A    between atoms: C7_7  and  N8_8 
ROOT
HETATM    1  C1  UNL     1     -33.953   3.803   4.321  1.00 20.00     0.013 C 
HETATM    2  C2  UNL     1     -34.406   4.907   4.188  1.00 20.00    -0.087 C 
HETATM    3  C7  UNL     1     -34.964   6.252   4.028  1.00 20.00     0.362 C 
ENDROOT
BRANCH   3   4
HETATM    4  N8  UNL     1     -33.917   7.207   3.710  1.00 20.00     0.099 N 
HETATM    5  H19 UNL     1     -34.271   8.153   3.824  1.00 20.00     0.317 HD
BRANCH   4   6
HETATM    6  C5  UNL     1     -33.465   7.037   2.325  1.00 20.00     0.225 A 
HETATM    7  C3  UNL     1     -32.287   7.820   1.808  1.00 20.00     0.042 A 
HETATM    8  C4  UNL     1     -32.164   6.337   2.029  1.00 20.00     0.016 A 
HETATM    9  C6  UNL     1     -32.060   5.414   0.864  1.00 20.00     0.012 C 
ENDBRANCH   4   6
ENDBRANCH   3   4
TORSDOF 2
ENDMDL
MODEL 7
REMARK VINA RESULT:      -1.8      1.710      4.718
REMARK  2 active torsions:
REMARK  status: ('A' for Active; 'I' for Inactive)
REMARK    1  A    between atoms: C5_5  and  N8_8 
REMARK    2  A    between atoms: C7_7  and  N8_8 
ROOT
HETATM    1  C1  UNL     1     -33.483   3.174   4.411  1.00 20.00     0.013 C 
HETATM    2  C2  UNL     1     -34.139   4.179   4.399  1.00 20.00    -0.087 C 
HETATM    3  C7  UNL     1     -34.941   5.405   4.390  1.00 20.00     0.362 C 
ENDROOT
BRANCH   3   4
HETATM    4  N8  UNL     1     -34.755   6.130   3.145  1.00 20.00     0.099 N 
HETATM    5  H19 UNL     1     -35.177   5.610   2.380  1.00 20.00     0.317 HD
BRANCH   4   6
HETATM    6  C5  UNL     1     -33.328   6.310   2.860  1.00 20.00     0.225 A 
HETATM    7  C3  UNL     1     -32.731   5.764   1.589  1.00 20.00     0.042 A 
HETATM    8  C4  UNL     1     -32.882   7.250   1.769  1.00 20.00     0.016 A 
HETATM    9  C6  UNL     1     -31.678   8.106   1.965  1.00 20.00     0.012 C 
ENDBRANCH   4   6
ENDBRANCH   3   4
TORSDOF 2
ENDMDL
MODEL 8
REMARK VINA RESULT:      -1.8      1.285      4.640
REMARK  2 active torsions:
REMARK  status: ('A' for Active; 'I' for Inactive)
REMARK    1  A    between atoms: C5_5  and  N8_8 
REMARK    2  A    between atoms: C7_7  and  N8_8 
ROOT
HETATM    1  C1  UNL     1     -33.798   3.572   4.340  1.00 20.00     0.013 C 
HETATM    2  C2  UNL     1     -33.964   4.670   3.883  1.00 20.00    -0.087 C 
HETATM    3  C7  UNL     1     -34.170   6.010   3.330  1.00 20.00     0.362 C 
ENDROOT
BRANCH   3   4
HETATM    4  N8  UNL     1     -33.225   6.274   2.259  1.00 20.00     0.099 N 
HETATM    5  H19 UNL     1     -32.367   5.755   2.425  1.00 20.00     0.317 HD
BRANCH   4   6
HETATM    6  C5  UNL     1     -32.904   7.704   2.194  1.00 20.00     0.225 A 
HETATM    7  C3  UNL     1     -31.504   8.182   2.475  1.00 20.00     0.042 A 
HETATM    8  C4  UNL     1     -32.050   8.242   1.075  1.00 20.00     0.016 A 
HETATM    9  C6  UNL     1     -32.373   9.557   0.453  1.00 20.00     0.012 C 
ENDBRANCH   4   6
ENDBRANCH   3   4
TORSDOF 2
ENDMDL
MODEL 9
REMARK VINA RESULT:      -1.6      1.822      2.316
REMARK  2 active torsions:
REMARK  status: ('A' for Active; 'I' for Inactive)
REMARK    1  A    between atoms: C5_5  and  N8_8 
REMARK    2  A    between atoms: C7_7  and  N8_8 
ROOT
HETATM    1  C1  UNL     1     -31.982   8.641   1.497  1.00 20.00     0.013 C 
HETATM    2  C2  UNL     1     -32.068   7.445   1.552  1.00 20.00    -0.087 C 
HETATM    3  C7  UNL     1     -32.168   5.985   1.618  1.00 20.00     0.362 C 
ENDROOT
BRANCH   3   4
HETATM    4  N8  UNL     1     -33.486   5.581   2.075  1.00 20.00     0.099 N 
HETATM    5  H19 UNL     1     -34.134   6.359   1.980  1.00 20.00     0.317 HD
BRANCH   4   6
HETATM    6  C5  UNL     1     -33.443   5.175   3.483  1.00 20.00     0.225 A 
HETATM    7  C3  UNL     1     -34.719   4.994   4.262  1.00 20.00     0.042 A 
HETATM    8  C4  UNL     1     -33.890   3.795   3.891  1.00 20.00     0.016 A 
HETATM    9  C6  UNL     1     -33.145   3.046   4.942  1.00 20.00     0.012 C 
ENDBRANCH   4   6
ENDBRANCH   3   4
TORSDOF 2
ENDMDL
