MODEL 1
REMARK VINA RESULT:      -1.1      0.000      0.000
REMARK  1 active torsions:
REMARK  status: ('A' for Active; 'I' for Inactive)
REMARK    1  A    between atoms: C8_8  and  N10_10 
ROOT
HETATM    1  C1  UNL     1     -34.192   5.033   3.664  1.00 20.00     0.130 C 
HETATM    2  C2  UNL     1     -34.787   6.379   3.997  1.00 20.00     0.108 C 
HETATM    3  C3  UNL     1     -33.533   4.917   2.310  1.00 20.00     0.108 C 
HETATM    4  C5  UNL     1     -33.810   7.498   3.647  1.00 20.00     0.280 C 
HETATM    5  C6  UNL     1     -32.625   6.116   2.055  1.00 20.00     0.280 C 
HETATM    6  N10 UNL     1     -33.341   7.385   2.257  1.00 20.00     0.094 N 
HETATM    7  O11 UNL     1     -34.334   4.060   4.402  1.00 20.00    -0.298 OA
ENDROOT
BRANCH   6   8
HETATM    8  C8  UNL     1     -32.477   8.516   1.920  1.00 20.00     0.227 A 
HETATM    9  C4  UNL     1     -31.318   8.332   0.973  1.00 20.00     0.042 A 
HETATM   10  C7  UNL     1     -32.521   9.125   0.541  1.00 20.00     0.017 A 
HETATM   11  C9  UNL     1     -32.423  10.601   0.371  1.00 20.00     0.012 C 
ENDBRANCH   6   8
TORSDOF 1
ENDMDL
MODEL 2
REMARK VINA RESULT:      -0.1      0.921      1.773
REMARK  1 active torsions:
REMARK  status: ('A' for Active; 'I' for Inactive)
REMARK    1  A    between atoms: C8_8  and  N10_10 
ROOT
HETATM    1  C1  UNL     1     -34.560   6.145   3.838  1.00 20.00     0.130 C 
HETATM    2  C2  UNL     1     -33.606   5.494   2.867  1.00 20.00     0.108 C 
HETATM    3  C3  UNL     1     -34.084   7.429   4.474  1.00 20.00     0.108 C 
HETATM    4  C5  UNL     1     -33.036   6.529   1.902  1.00 20.00     0.280 C 
HETATM    5  C6  UNL     1     -33.488   8.357   3.419  1.00 20.00     0.280 C 
HETATM    6  N10 UNL     1     -32.457   7.673   2.623  1.00 20.00     0.094 N 
HETATM    7  O11 UNL     1     -35.611   5.604   4.177  1.00 20.00    -0.298 OA
ENDROOT
BRANCH   6   8
HETATM    8  C8  UNL     1     -31.840   8.607   1.681  1.00 20.00     0.227 A 
HETATM    9  C4  UNL     1     -31.610   8.201   0.248  1.00 20.00     0.042 A 
HETATM   10  C7  UNL     1     -32.658   9.229   0.578  1.00 20.00     0.017 A 
HETATM   11  C9  UNL     1     -32.451  10.656   0.205  1.00 20.00     0.012 C 
ENDBRANCH   6   8
TORSDOF 1
ENDMDL
MODEL 3
REMARK VINA RESULT:       1.2      2.387      5.075
REMARK  1 active torsions:
REMARK  status: ('A' for Active; 'I' for Inactive)
REMARK    1  A    between atoms: C8_8  and  N10_10 
ROOT
HETATM    1  C1  UNL     1     -32.130   8.046   1.223  1.00 20.00     0.130 C 
HETATM    2  C2  UNL     1     -32.371   6.607   0.833  1.00 20.00     0.108 C 
HETATM    3  C3  UNL     1     -33.033   8.600   2.299  1.00 20.00     0.108 C 
HETATM    4  C5  UNL     1     -32.521   5.735   2.077  1.00 20.00     0.280 C 
HETATM    5  C6  UNL     1     -33.144   7.617   3.460  1.00 20.00     0.280 C 
HETATM    6  N10 UNL     1     -33.534   6.277   2.994  1.00 20.00     0.094 N 
HETATM    7  O11 UNL     1     -31.324   8.755   0.623  1.00 20.00    -0.298 OA
ENDROOT
BRANCH   6   8
HETATM    8  C8  UNL     1     -33.722   5.378   4.132  1.00 20.00     0.227 A 
HETATM    9  C4  UNL     1     -35.076   4.779   4.413  1.00 20.00     0.042 A 
HETATM   10  C7  UNL     1     -33.960   3.906   3.910  1.00 20.00     0.017 A 
HETATM   11  C9  UNL     1     -33.330   2.900   4.810  1.00 20.00     0.012 C 
ENDBRANCH   6   8
TORSDOF 1
ENDMDL
MODEL 4
REMARK VINA RESULT:       1.6      2.799      4.757
REMARK  1 active torsions:
REMARK  status: ('A' for Active; 'I' for Inactive)
REMARK    1  A    between atoms: C8_8  and  N10_10 
ROOT
HETATM    1  C1  UNL     1     -32.386   9.576   0.023  1.00 20.00     0.130 C 
HETATM    2  C2  UNL     1     -32.923  10.306   1.231  1.00 20.00     0.108 C 
HETATM    3  C3  UNL     1     -31.513   8.378   0.309  1.00 20.00     0.108 C 
HETATM    4  C5  UNL     1     -33.484   9.315   2.248  1.00 20.00     0.280 C 
HETATM    5  C6  UNL     1     -32.153   7.495   1.376  1.00 20.00     0.280 C 
HETATM    6  N10 UNL     1     -32.502   8.271   2.576  1.00 20.00     0.094 N 
HETATM    7  O11 UNL     1     -32.555   9.999  -1.119  1.00 20.00    -0.298 OA
ENDROOT
BRANCH   6   8
HETATM    8  C8  UNL     1     -33.029   7.388   3.617  1.00 20.00     0.227 A 
HETATM    9  C4  UNL     1     -33.685   7.966   4.845  1.00 20.00     0.042 A 
HETATM   10  C7  UNL     1     -34.517   7.249   3.817  1.00 20.00     0.017 A 
HETATM   11  C9  UNL     1     -35.111   5.920   4.129  1.00 20.00     0.012 C 
ENDBRANCH   6   8
TORSDOF 1
ENDMDL
MODEL 5
REMARK VINA RESULT:       1.7      0.868      1.907
REMARK  1 active torsions:
REMARK  status: ('A' for Active; 'I' for Inactive)
REMARK    1  A    between atoms: C8_8  and  N10_10 
ROOT
HETATM    1  C1  UNL     1     -34.504   5.438   4.069  1.00 20.00     0.130 C 
HETATM    2  C2  UNL     1     -33.402   4.911   3.182  1.00 20.00     0.108 C 
HETATM    3  C3  UNL     1     -34.469   6.920   4.357  1.00 20.00     0.108 C 
HETATM    4  C5  UNL     1     -33.221   5.811   1.963  1.00 20.00     0.280 C 
HETATM    5  C6  UNL     1     -34.230   7.707   3.072  1.00 20.00     0.280 C 
HETATM    6  N10 UNL     1     -33.042   7.217   2.356  1.00 20.00     0.094 N 
HETATM    7  O11 UNL     1     -35.312   4.690   4.615  1.00 20.00    -0.298 OA
ENDROOT
BRANCH   6   8
HETATM    8  C8  UNL     1     -32.783   8.044   1.177  1.00 20.00     0.227 A 
HETATM    9  C4  UNL     1     -32.705   9.544   1.303  1.00 20.00     0.042 A 
HETATM   10  C7  UNL     1     -31.460   8.749   1.017  1.00 20.00     0.017 A 
HETATM   11  C9  UNL     1     -30.811   8.829  -0.321  1.00 20.00     0.012 C 
ENDBRANCH   6   8
TORSDOF 1
ENDMDL
