MODEL 1
REMARK VINA RESULT:      -1.1      0.000      0.000
REMARK  2 active torsions:
REMARK  status: ('A' for Active; 'I' for Inactive)
REMARK    1  A    between atoms: C4_4  and  N9_9 
REMARK    2  A    between atoms: C7_7  and  N9_9 
ROOT
HETATM    1  C1  UNL     1     -32.224   8.670   1.081  1.00 20.00     0.094 C 
HETATM    2  C6  UNL     1     -32.446   6.215   1.022  1.00 20.00     0.059 C 
HETATM    3  C7  UNL     1     -31.881   7.417   1.766  1.00 20.00     0.322 C 
HETATM    4  N8  UNL     1     -32.493   9.660   0.538  1.00 20.00    -0.195 NA
ENDROOT
BRANCH   3   5
HETATM    5  N9  UNL     1     -32.370   7.451   3.134  1.00 20.00     0.106 N 
HETATM    6  H21 UNL     1     -31.987   8.261   3.614  1.00 20.00     0.318 HD
BRANCH   5   7
HETATM    7  C4  UNL     1     -33.833   7.539   3.157  1.00 20.00     0.226 A 
HETATM    8  C2  UNL     1     -34.565   7.566   4.474  1.00 20.00     0.042 A 
HETATM    9  C3  UNL     1     -34.689   6.367   3.573  1.00 20.00     0.016 A 
HETATM   10  C5  UNL     1     -34.100   5.061   3.983  1.00 20.00     0.012 C 
ENDBRANCH   5   7
ENDBRANCH   3   5
TORSDOF 2
ENDMDL
MODEL 2
REMARK VINA RESULT:      -1.1      1.728      4.354
REMARK  2 active torsions:
REMARK  status: ('A' for Active; 'I' for Inactive)
REMARK    1  A    between atoms: C4_4  and  N9_9 
REMARK    2  A    between atoms: C7_7  and  N9_9 
ROOT
HETATM    1  C1  UNL     1     -34.280   4.741   4.221  1.00 20.00     0.094 C 
HETATM    2  C6  UNL     1     -35.904   6.419   3.430  1.00 20.00     0.059 C 
HETATM    3  C7  UNL     1     -34.591   6.175   4.161  1.00 20.00     0.322 C 
HETATM    4  N8  UNL     1     -34.036   3.607   4.270  1.00 20.00    -0.195 NA
ENDROOT
BRANCH   3   5
HETATM    5  N9  UNL     1     -33.503   6.891   3.517  1.00 20.00     0.106 N 
HETATM    6  H21 UNL     1     -32.634   6.709   4.012  1.00 20.00     0.318 HD
BRANCH   5   7
HETATM    7  C4  UNL     1     -33.351   6.455   2.125  1.00 20.00     0.226 A 
HETATM    8  C2  UNL     1     -32.063   5.819   1.672  1.00 20.00     0.042 A 
HETATM    9  C3  UNL     1     -32.444   7.183   1.163  1.00 20.00     0.016 A 
HETATM   10  C5  UNL     1     -31.654   8.380   1.570  1.00 20.00     0.012 C 
ENDBRANCH   5   7
ENDBRANCH   3   5
TORSDOF 2
ENDMDL
MODEL 3
REMARK VINA RESULT:      -1.1      1.663      4.267
REMARK  2 active torsions:
REMARK  status: ('A' for Active; 'I' for Inactive)
REMARK    1  A    between atoms: C4_4  and  N9_9 
REMARK    2  A    between atoms: C7_7  and  N9_9 
ROOT
HETATM    1  C1  UNL     1     -33.879   4.853   3.738  1.00 20.00     0.094 C 
HETATM    2  C6  UNL     1     -35.157   6.962   3.740  1.00 20.00     0.059 C 
HETATM    3  C7  UNL     1     -33.825   6.290   3.436  1.00 20.00     0.322 C 
HETATM    4  N8  UNL     1     -33.922   3.718   3.979  1.00 20.00    -0.195 NA
ENDROOT
BRANCH   3   5
HETATM    5  N9  UNL     1     -33.453   6.489   2.046  1.00 20.00     0.106 N 
HETATM    6  H21 UNL     1     -34.078   7.167   1.619  1.00 20.00     0.318 HD
BRANCH   5   7
HETATM    7  C4  UNL     1     -32.079   6.988   1.945  1.00 20.00     0.226 A 
HETATM    8  C2  UNL     1     -31.655   8.194   2.743  1.00 20.00     0.042 A 
HETATM    9  C3  UNL     1     -31.758   8.286   1.244  1.00 20.00     0.016 A 
HETATM   10  C5  UNL     1     -32.815   9.131   0.619  1.00 20.00     0.012 C 
ENDBRANCH   5   7
ENDBRANCH   3   5
TORSDOF 2
ENDMDL
MODEL 4
REMARK VINA RESULT:      -0.9      1.633      4.347
REMARK  2 active torsions:
REMARK  status: ('A' for Active; 'I' for Inactive)
REMARK    1  A    between atoms: C4_4  and  N9_9 
REMARK    2  A    between atoms: C7_7  and  N9_9 
ROOT
HETATM    1  C1  UNL     1     -34.714   6.401   3.990  1.00 20.00     0.094 C 
HETATM    2  C6  UNL     1     -33.387   8.271   4.895  1.00 20.00     0.059 C 
HETATM    3  C7  UNL     1     -33.523   7.236   3.786  1.00 20.00     0.322 C 
HETATM    4  N8  UNL     1     -35.653   5.738   4.153  1.00 20.00    -0.195 NA
ENDROOT
BRANCH   3   5
HETATM    5  N9  UNL     1     -33.589   7.882   2.486  1.00 20.00     0.106 N 
HETATM    6  H21 UNL     1     -33.705   8.884   2.608  1.00 20.00     0.318 HD
BRANCH   5   7
HETATM    7  C4  UNL     1     -32.359   7.639   1.727  1.00 20.00     0.226 A 
HETATM    8  C2  UNL     1     -31.122   8.450   2.018  1.00 20.00     0.042 A 
HETATM    9  C3  UNL     1     -31.847   8.633   0.712  1.00 20.00     0.016 A 
HETATM   10  C5  UNL     1     -32.559   9.911   0.426  1.00 20.00     0.012 C 
ENDBRANCH   5   7
ENDBRANCH   3   5
TORSDOF 2
ENDMDL
MODEL 5
REMARK VINA RESULT:      -0.8      1.569      4.155
REMARK  2 active torsions:
REMARK  status: ('A' for Active; 'I' for Inactive)
REMARK    1  A    between atoms: C4_4  and  N9_9 
REMARK    2  A    between atoms: C7_7  and  N9_9 
ROOT
HETATM    1  C1  UNL     1     -32.864   6.139   1.984  1.00 20.00     0.094 C 
HETATM    2  C6  UNL     1     -34.173   7.374   3.669  1.00 20.00     0.059 C 
HETATM    3  C7  UNL     1     -32.809   7.178   3.021  1.00 20.00     0.322 C 
HETATM    4  N8  UNL     1     -32.907   5.316   1.166  1.00 20.00    -0.195 NA
ENDROOT
BRANCH   3   5
HETATM    5  N9  UNL     1     -32.328   8.424   2.448  1.00 20.00     0.106 N 
HETATM    6  H21 UNL     1     -31.397   8.626   2.803  1.00 20.00     0.318 HD
BRANCH   5   7
HETATM    7  C4  UNL     1     -32.264   8.329   0.987  1.00 20.00     0.226 A 
HETATM    8  C2  UNL     1     -31.110   8.949   0.242  1.00 20.00     0.042 A 
HETATM    9  C3  UNL     1     -32.489   9.534   0.106  1.00 20.00     0.016 A 
HETATM   10  C5  UNL     1     -32.788  10.882   0.667  1.00 20.00     0.012 C 
ENDBRANCH   5   7
ENDBRANCH   3   5
TORSDOF 2
ENDMDL
MODEL 6
REMARK VINA RESULT:      -0.7      1.935      3.871
REMARK  2 active torsions:
REMARK  status: ('A' for Active; 'I' for Inactive)
REMARK    1  A    between atoms: C4_4  and  N9_9 
REMARK    2  A    between atoms: C7_7  and  N9_9 
ROOT
HETATM    1  C1  UNL     1     -34.093   7.498   4.376  1.00 20.00     0.094 C 
HETATM    2  C6  UNL     1     -35.465   5.449   4.386  1.00 20.00     0.059 C 
HETATM    3  C7  UNL     1     -34.525   6.338   3.584  1.00 20.00     0.322 C 
HETATM    4  N8  UNL     1     -33.755   8.416   5.001  1.00 20.00    -0.195 NA
ENDROOT
BRANCH   3   5
HETATM    5  N9  UNL     1     -33.364   5.587   3.135  1.00 20.00     0.106 N 
HETATM    6  H21 UNL     1     -33.489   4.603   3.355  1.00 20.00     0.318 HD
BRANCH   5   7
HETATM    7  C4  UNL     1     -33.187   5.728   1.687  1.00 20.00     0.226 A 
HETATM    8  C2  UNL     1     -31.852   5.422   1.059  1.00 20.00     0.042 A 
HETATM    9  C3  UNL     1     -32.354   6.840   1.097  1.00 20.00     0.016 A 
HETATM   10  C5  UNL     1     -31.668   7.853   1.947  1.00 20.00     0.012 C 
ENDBRANCH   5   7
ENDBRANCH   3   5
TORSDOF 2
ENDMDL
MODEL 7
REMARK VINA RESULT:      -0.7      1.675      2.292
REMARK  2 active torsions:
REMARK  status: ('A' for Active; 'I' for Inactive)
REMARK    1  A    between atoms: C4_4  and  N9_9 
REMARK    2  A    between atoms: C7_7  and  N9_9 
ROOT
HETATM    1  C1  UNL     1     -32.397   5.883   1.412  1.00 20.00     0.094 C 
HETATM    2  C6  UNL     1     -31.788   8.208   1.959  1.00 20.00     0.059 C 
HETATM    3  C7  UNL     1     -32.873   7.141   2.002  1.00 20.00     0.322 C 
HETATM    4  N8  UNL     1     -32.022   4.889   0.943  1.00 20.00    -0.195 NA
ENDROOT
BRANCH   3   5
HETATM    5  N9  UNL     1     -33.315   6.911   3.367  1.00 20.00     0.106 N 
HETATM    6  H21 UNL     1     -33.340   7.794   3.871  1.00 20.00     0.318 HD
BRANCH   5   7
HETATM    7  C4  UNL     1     -34.656   6.321   3.383  1.00 20.00     0.226 A 
HETATM    8  C2  UNL     1     -35.361   6.090   4.695  1.00 20.00     0.042 A 
HETATM    9  C3  UNL     1     -34.896   4.915   3.877  1.00 20.00     0.016 A 
HETATM   10  C5  UNL     1     -33.789   4.050   4.375  1.00 20.00     0.012 C 
ENDBRANCH   5   7
ENDBRANCH   3   5
TORSDOF 2
ENDMDL
MODEL 8
REMARK VINA RESULT:      -0.6      1.576      4.253
REMARK  2 active torsions:
REMARK  status: ('A' for Active; 'I' for Inactive)
REMARK    1  A    between atoms: C4_4  and  N9_9 
REMARK    2  A    between atoms: C7_7  and  N9_9 
ROOT
HETATM    1  C1  UNL     1     -33.805   7.208   3.384  1.00 20.00     0.094 C 
HETATM    2  C6  UNL     1     -32.640   5.646   1.874  1.00 20.00     0.059 C 
HETATM    3  C7  UNL     1     -33.220   7.043   2.047  1.00 20.00     0.322 C 
HETATM    4  N8  UNL     1     -34.271   7.337   4.439  1.00 20.00    -0.195 NA
ENDROOT
BRANCH   3   5
HETATM    5  N9  UNL     1     -32.200   8.054   1.826  1.00 20.00     0.106 N 
HETATM    6  H21 UNL     1     -31.300   7.708   2.149  1.00 20.00     0.318 HD
BRANCH   5   7
HETATM    7  C4  UNL     1     -32.094   8.378   0.400  1.00 20.00     0.226 A 
HETATM    8  C2  UNL     1     -30.984   9.271  -0.089  1.00 20.00     0.042 A 
HETATM    9  C3  UNL     1     -32.407   9.760  -0.122  1.00 20.00     0.016 A 
HETATM   10  C5  UNL     1     -32.837  10.868   0.777  1.00 20.00     0.012 C 
ENDBRANCH   5   7
ENDBRANCH   3   5
TORSDOF 2
ENDMDL
MODEL 9
REMARK VINA RESULT:      -0.6      1.475      2.579
REMARK  2 active torsions:
REMARK  status: ('A' for Active; 'I' for Inactive)
REMARK    1  A    between atoms: C4_4  and  N9_9 
REMARK    2  A    between atoms: C7_7  and  N9_9 
ROOT
HETATM    1  C1  UNL     1     -32.513   7.689   2.043  1.00 20.00     0.094 C 
HETATM    2  C6  UNL     1     -33.946   7.732   4.050  1.00 20.00     0.059 C 
HETATM    3  C7  UNL     1     -33.515   6.946   2.819  1.00 20.00     0.322 C 
HETATM    4  N8  UNL     1     -31.723   8.277   1.429  1.00 20.00    -0.195 NA
ENDROOT
BRANCH   3   5
HETATM    5  N9  UNL     1     -32.983   5.648   3.198  1.00 20.00     0.106 N 
HETATM    6  H21 UNL     1     -32.487   5.727   4.082  1.00 20.00     0.318 HD
BRANCH   5   7
HETATM    7  C4  UNL     1     -34.066   4.671   3.353  1.00 20.00     0.226 A 
HETATM    8  C2  UNL     1     -34.836   4.600   4.647  1.00 20.00     0.042 A 
HETATM    9  C3  UNL     1     -33.923   3.470   4.256  1.00 20.00     0.016 A 
HETATM   10  C5  UNL     1     -32.681   3.208   5.037  1.00 20.00     0.012 C 
ENDBRANCH   5   7
ENDBRANCH   3   5
TORSDOF 2
ENDMDL
