MODEL 1
REMARK VINA RESULT:      -2.7      0.000      0.000
REMARK  4 active torsions:
REMARK  status: ('A' for Active; 'I' for Inactive)
REMARK    1  A    between atoms: C1_1  and  C3_3 
REMARK    2  A    between atoms: C2_2  and  C6_6 
REMARK    3  A    between atoms: C6_6  and  C7_7 
REMARK    4  A    between atoms: C7_7  and  O8_8 
ROOT
HETATM    1  C1  UNL     1     -32.819   7.237   2.184  1.00 20.00    -0.079 C 
HETATM    2  C2  UNL     1     -32.232   8.069   1.545  1.00 20.00    -0.100 C 
ENDROOT
BRANCH   2   3
HETATM    3  C6  UNL     1     -31.514   9.087   0.766  1.00 20.00     0.120 C 
BRANCH   3   4
HETATM    4  C7  UNL     1     -32.442  10.210   0.327  1.00 20.00     0.176 C 
BRANCH   4   5
HETATM    5  O8  UNL     1     -33.046   9.874  -0.917  1.00 20.00    -0.400 OA
HETATM    6  H18 UNL     1     -32.995  10.667  -1.475  1.00 20.00     0.209 HD
ENDBRANCH   4   5
ENDBRANCH   3   4
ENDBRANCH   2   3
BRANCH   1   7
HETATM    7  C3  UNL     1     -33.518   6.256   2.936  1.00 20.00     0.060 C 
HETATM    8  C4  UNL     1     -34.612   6.562   3.646  1.00 20.00    -0.022 C 
HETATM    9  C5  UNL     1     -35.380   5.566   4.451  1.00 20.00     0.036 C 
ENDBRANCH   1   7
TORSDOF 4
ENDMDL
MODEL 2
REMARK VINA RESULT:      -2.4      2.840      5.219
REMARK  4 active torsions:
REMARK  status: ('A' for Active; 'I' for Inactive)
REMARK    1  A    between atoms: C1_1  and  C3_3 
REMARK    2  A    between atoms: C2_2  and  C6_6 
REMARK    3  A    between atoms: C6_6  and  C7_7 
REMARK    4  A    between atoms: C7_7  and  O8_8 
ROOT
HETATM    1  C1  UNL     1     -32.606   7.582   1.897  1.00 20.00    -0.079 C 
HETATM    2  C2  UNL     1     -33.146   6.715   2.531  1.00 20.00    -0.100 C 
ENDROOT
BRANCH   2   3
HETATM    3  C6  UNL     1     -33.806   5.654   3.303  1.00 20.00     0.120 C 
BRANCH   3   4
HETATM    4  C7  UNL     1     -35.079   6.158   3.970  1.00 20.00     0.176 C 
BRANCH   4   5
HETATM    5  O8  UNL     1     -35.732   5.082   4.631  1.00 20.00    -0.400 OA
HETATM    6  H18 UNL     1     -36.111   5.444   5.448  1.00 20.00     0.209 HD
ENDBRANCH   4   5
ENDBRANCH   3   4
ENDBRANCH   2   3
BRANCH   1   7
HETATM    7  C3  UNL     1     -31.973   8.609   1.148  1.00 20.00     0.060 C 
HETATM    8  C4  UNL     1     -32.680   9.560   0.521  1.00 20.00    -0.022 C 
HETATM    9  C5  UNL     1     -32.060  10.659  -0.277  1.00 20.00     0.036 C 
ENDBRANCH   1   7
TORSDOF 4
ENDMDL
MODEL 3
REMARK VINA RESULT:      -1.7      3.731      5.873
REMARK  4 active torsions:
REMARK  status: ('A' for Active; 'I' for Inactive)
REMARK    1  A    between atoms: C1_1  and  C3_3 
REMARK    2  A    between atoms: C2_2  and  C6_6 
REMARK    3  A    between atoms: C6_6  and  C7_7 
REMARK    4  A    between atoms: C7_7  and  O8_8 
ROOT
HETATM    1  C1  UNL     1     -33.210   5.815   2.516  1.00 20.00    -0.079 C 
HETATM    2  C2  UNL     1     -33.652   5.064   3.344  1.00 20.00    -0.100 C 
ENDROOT
BRANCH   2   3
HETATM    3  C6  UNL     1     -34.189   4.143   4.355  1.00 20.00     0.120 C 
BRANCH   3   4
HETATM    4  C7  UNL     1     -33.155   3.106   4.771  1.00 20.00     0.176 C 
BRANCH   4   5
HETATM    5  O8  UNL     1     -33.608   1.807   4.410  1.00 20.00    -0.400 OA
HETATM    6  H18 UNL     1     -34.212   1.921   3.658  1.00 20.00     0.209 HD
ENDBRANCH   4   5
ENDBRANCH   3   4
ENDBRANCH   2   3
BRANCH   1   7
HETATM    7  C3  UNL     1     -32.694   6.703   1.535  1.00 20.00     0.060 C 
HETATM    8  C4  UNL     1     -32.338   7.958   1.840  1.00 20.00    -0.022 C 
HETATM    9  C5  UNL     1     -31.791   8.927   0.845  1.00 20.00     0.036 C 
ENDBRANCH   1   7
TORSDOF 4
ENDMDL
MODEL 4
REMARK VINA RESULT:      -1.2      2.199      2.965
REMARK  4 active torsions:
REMARK  status: ('A' for Active; 'I' for Inactive)
REMARK    1  A    between atoms: C1_1  and  C3_3 
REMARK    2  A    between atoms: C2_2  and  C6_6 
REMARK    3  A    between atoms: C6_6  and  C7_7 
REMARK    4  A    between atoms: C7_7  and  O8_8 
ROOT
HETATM    1  C1  UNL     1     -33.844   5.481   3.596  1.00 20.00    -0.079 C 
HETATM    2  C2  UNL     1     -33.613   6.596   3.213  1.00 20.00    -0.100 C 
ENDROOT
BRANCH   2   3
HETATM    3  C6  UNL     1     -33.327   7.959   2.743  1.00 20.00     0.120 C 
BRANCH   3   4
HETATM    4  C7  UNL     1     -32.093   7.995   1.852  1.00 20.00     0.176 C 
BRANCH   4   5
HETATM    5  O8  UNL     1     -32.234   9.025   0.881  1.00 20.00    -0.400 OA
HETATM    6  H18 UNL     1     -31.490   9.635   1.012  1.00 20.00     0.209 HD
ENDBRANCH   4   5
ENDBRANCH   3   4
ENDBRANCH   2   3
BRANCH   1   7
HETATM    7  C3  UNL     1     -34.117   4.165   4.055  1.00 20.00     0.060 C 
HETATM    8  C4  UNL     1     -33.132   3.296   4.323  1.00 20.00    -0.022 C 
HETATM    9  C5  UNL     1     -33.368   1.903   4.807  1.00 20.00     0.036 C 
ENDBRANCH   1   7
TORSDOF 4
ENDMDL
MODEL 5
REMARK VINA RESULT:      -0.6      3.511      5.014
REMARK  4 active torsions:
REMARK  status: ('A' for Active; 'I' for Inactive)
REMARK    1  A    between atoms: C1_1  and  C3_3 
REMARK    2  A    between atoms: C2_2  and  C6_6 
REMARK    3  A    between atoms: C6_6  and  C7_7 
REMARK    4  A    between atoms: C7_7  and  O8_8 
ROOT
HETATM    1  C1  UNL     1     -32.810   6.169   1.998  1.00 20.00    -0.079 C 
HETATM    2  C2  UNL     1     -33.523   6.587   2.871  1.00 20.00    -0.100 C 
ENDROOT
BRANCH   2   3
HETATM    3  C6  UNL     1     -34.396   7.100   3.936  1.00 20.00     0.120 C 
BRANCH   3   4
HETATM    4  C7  UNL     1     -35.659   6.261   4.075  1.00 20.00     0.176 C 
BRANCH   4   5
HETATM    5  O8  UNL     1     -35.315   4.944   4.488  1.00 20.00    -0.400 OA
HETATM    6  H18 UNL     1     -35.670   4.339   3.816  1.00 20.00     0.209 HD
ENDBRANCH   4   5
ENDBRANCH   3   4
ENDBRANCH   2   3
BRANCH   1   7
HETATM    7  C3  UNL     1     -31.963   5.677   0.970  1.00 20.00     0.060 C 
HETATM    8  C4  UNL     1     -31.789   4.363   0.771  1.00 20.00    -0.022 C 
HETATM    9  C5  UNL     1     -30.909   3.799  -0.295  1.00 20.00     0.036 C 
ENDBRANCH   1   7
TORSDOF 4
ENDMDL
MODEL 6
REMARK VINA RESULT:      -0.2      3.469      4.243
REMARK  4 active torsions:
REMARK  status: ('A' for Active; 'I' for Inactive)
REMARK    1  A    between atoms: C1_1  and  C3_3 
REMARK    2  A    between atoms: C2_2  and  C6_6 
REMARK    3  A    between atoms: C6_6  and  C7_7 
REMARK    4  A    between atoms: C7_7  and  O8_8 
ROOT
HETATM    1  C1  UNL     1     -34.151   5.207   3.747  1.00 20.00    -0.079 C 
HETATM    2  C2  UNL     1     -34.281   6.401   3.785  1.00 20.00    -0.100 C 
ENDROOT
BRANCH   2   3
HETATM    3  C6  UNL     1     -34.436   7.861   3.832  1.00 20.00     0.120 C 
BRANCH   3   4
HETATM    4  C7  UNL     1     -33.721   8.460   5.035  1.00 20.00     0.176 C 
BRANCH   4   5
HETATM    5  O8  UNL     1     -32.314   8.391   4.839  1.00 20.00    -0.400 OA
HETATM    6  H18 UNL     1     -31.926   9.129   5.336  1.00 20.00     0.209 HD
ENDBRANCH   4   5
ENDBRANCH   3   4
ENDBRANCH   2   3
BRANCH   1   7
HETATM    7  C3  UNL     1     -34.001   3.795   3.708  1.00 20.00     0.060 C 
HETATM    8  C4  UNL     1     -33.379   3.126   4.689  1.00 20.00    -0.022 C 
HETATM    9  C5  UNL     1     -33.197   1.644   4.692  1.00 20.00     0.036 C 
ENDBRANCH   1   7
TORSDOF 4
ENDMDL
MODEL 7
REMARK VINA RESULT:      -0.1      2.378      4.988
REMARK  4 active torsions:
REMARK  status: ('A' for Active; 'I' for Inactive)
REMARK    1  A    between atoms: C1_1  and  C3_3 
REMARK    2  A    between atoms: C2_2  and  C6_6 
REMARK    3  A    between atoms: C6_6  and  C7_7 
REMARK    4  A    between atoms: C7_7  and  O8_8 
ROOT
HETATM    1  C1  UNL     1     -32.722   7.952   1.849  1.00 20.00    -0.079 C 
HETATM    2  C2  UNL     1     -33.228   7.231   2.666  1.00 20.00    -0.100 C 
ENDROOT
BRANCH   2   3
HETATM    3  C6  UNL     1     -33.846   6.347   3.664  1.00 20.00     0.120 C 
BRANCH   3   4
HETATM    4  C7  UNL     1     -34.206   7.105   4.934  1.00 20.00     0.176 C 
BRANCH   4   5
HETATM    5  O8  UNL     1     -33.329   8.213   5.095  1.00 20.00    -0.400 OA
HETATM    6  H18 UNL     1     -32.425   7.868   5.010  1.00 20.00     0.209 HD
ENDBRANCH   4   5
ENDBRANCH   3   4
ENDBRANCH   2   3
BRANCH   1   7
HETATM    7  C3  UNL     1     -32.129   8.807   0.882  1.00 20.00     0.060 C 
HETATM    8  C4  UNL     1     -32.698   9.967   0.525  1.00 20.00    -0.022 C 
HETATM    9  C5  UNL     1     -32.114  10.898  -0.485  1.00 20.00     0.036 C 
ENDBRANCH   1   7
TORSDOF 4
ENDMDL
MODEL 8
REMARK VINA RESULT:       0.2      3.162      4.918
REMARK  4 active torsions:
REMARK  status: ('A' for Active; 'I' for Inactive)
REMARK    1  A    between atoms: C1_1  and  C3_3 
REMARK    2  A    between atoms: C2_2  and  C6_6 
REMARK    3  A    between atoms: C6_6  and  C7_7 
REMARK    4  A    between atoms: C7_7  and  O8_8 
ROOT
HETATM    1  C1  UNL     1     -32.128   7.571   1.489  1.00 20.00    -0.079 C 
HETATM    2  C2  UNL     1     -32.064   6.371   1.521  1.00 20.00    -0.100 C 
ENDROOT
BRANCH   2   3
HETATM    3  C6  UNL     1     -31.982   4.905   1.560  1.00 20.00     0.120 C 
BRANCH   3   4
HETATM    4  C7  UNL     1     -32.253   4.295   0.191  1.00 20.00     0.176 C 
BRANCH   4   5
HETATM    5  O8  UNL     1     -31.052   3.736  -0.330  1.00 20.00    -0.400 OA
HETATM    6  H18 UNL     1     -31.148   2.772  -0.278  1.00 20.00     0.209 HD
ENDBRANCH   4   5
ENDBRANCH   3   4
ENDBRANCH   2   3
BRANCH   1   7
HETATM    7  C3  UNL     1     -32.208   8.988   1.447  1.00 20.00     0.060 C 
HETATM    8  C4  UNL     1     -32.424   9.646   0.299  1.00 20.00    -0.022 C 
HETATM    9  C5  UNL     1     -32.516  11.134   0.205  1.00 20.00     0.036 C 
ENDBRANCH   1   7
TORSDOF 4
ENDMDL
