MODEL 1
REMARK VINA RESULT:      -1.8      0.000      0.000
REMARK  1 active torsions:
REMARK  status: ('A' for Active; 'I' for Inactive)
REMARK    1  A    between atoms: C5_5  and  C6_6 
ROOT
HETATM    1  C1  UNL     1     -33.386   5.660   0.930  1.00 20.00     0.014 A 
HETATM    2  C2  UNL     1     -32.024   7.754   1.738  1.00 20.00     0.275 C 
HETATM    3  C3  UNL     1     -32.094   6.315   1.339  1.00 20.00     0.021 A 
HETATM    4  C4  UNL     1     -32.902   5.604   2.358  1.00 20.00     0.034 A 
HETATM    5  C5  UNL     1     -33.298   6.615   3.395  1.00 20.00     0.331 C 
HETATM    6  N7  UNL     1     -33.091   7.917   2.737  1.00 20.00     0.097 N 
HETATM    7  H18 UNL     1     -32.851   8.637   3.416  1.00 20.00     0.316 HD
ENDROOT
BRANCH   5   8
HETATM    8  C6  UNL     1     -34.738   6.458   3.852  1.00 20.00     0.418 C 
HETATM    9  F8  UNL     1     -35.584   6.827   2.875  1.00 20.00    -0.169 F 
HETATM   10  F9  UNL     1     -34.990   5.177   4.174  1.00 20.00    -0.169 F 
HETATM   11  F10 UNL     1     -34.972   7.223   4.933  1.00 20.00    -0.169 F 
ENDBRANCH   5   8
TORSDOF 1
ENDMDL
MODEL 2
REMARK VINA RESULT:      -1.7      1.207      2.062
REMARK  1 active torsions:
REMARK  status: ('A' for Active; 'I' for Inactive)
REMARK    1  A    between atoms: C5_5  and  C6_6 
ROOT
HETATM    1  C1  UNL     1     -31.769   8.137   2.917  1.00 20.00     0.014 A 
HETATM    2  C2  UNL     1     -31.892   6.139   1.217  1.00 20.00     0.275 C 
HETATM    3  C3  UNL     1     -31.855   7.605   1.511  1.00 20.00     0.021 A 
HETATM    4  C4  UNL     1     -33.101   7.951   2.234  1.00 20.00     0.034 A 
HETATM    5  C5  UNL     1     -33.910   6.692   2.352  1.00 20.00     0.331 C 
HETATM    6  N7  UNL     1     -32.944   5.609   2.097  1.00 20.00     0.097 N 
HETATM    7  H18 UNL     1     -33.401   4.801   1.677  1.00 20.00     0.316 HD
ENDROOT
BRANCH   5   8
HETATM    8  C6  UNL     1     -34.561   6.534   3.715  1.00 20.00     0.418 C 
HETATM    9  F8  UNL     1     -34.238   7.568   4.512  1.00 20.00    -0.169 F 
HETATM   10  F9  UNL     1     -35.899   6.489   3.594  1.00 20.00    -0.169 F 
HETATM   11  F10 UNL     1     -34.147   5.396   4.303  1.00 20.00    -0.169 F 
ENDBRANCH   5   8
TORSDOF 1
ENDMDL
MODEL 3
REMARK VINA RESULT:      -1.6      2.414      3.624
REMARK  1 active torsions:
REMARK  status: ('A' for Active; 'I' for Inactive)
REMARK    1  A    between atoms: C5_5  and  C6_6 
ROOT
HETATM    1  C1  UNL     1     -35.663   6.811   3.165  1.00 20.00     0.014 A 
HETATM    2  C2  UNL     1     -34.746   4.662   4.363  1.00 20.00     0.275 C 
HETATM    3  C3  UNL     1     -35.202   6.085   4.401  1.00 20.00     0.021 A 
HETATM    4  C4  UNL     1     -34.228   6.890   3.627  1.00 20.00     0.034 A 
HETATM    5  C5  UNL     1     -33.162   5.952   3.142  1.00 20.00     0.331 C 
HETATM    6  N7  UNL     1     -33.764   4.613   3.269  1.00 20.00     0.097 N 
HETATM    7  H18 UNL     1     -33.053   3.906   3.446  1.00 20.00     0.316 HD
ENDROOT
BRANCH   5   8
HETATM    8  C6  UNL     1     -32.741   6.226   1.709  1.00 20.00     0.418 C 
HETATM    9  F8  UNL     1     -32.493   7.536   1.535  1.00 20.00    -0.169 F 
HETATM   10  F9  UNL     1     -31.626   5.537   1.407  1.00 20.00    -0.169 F 
HETATM   11  F10 UNL     1     -33.714   5.858   0.856  1.00 20.00    -0.169 F 
ENDBRANCH   5   8
TORSDOF 1
ENDMDL
MODEL 4
REMARK VINA RESULT:      -1.6      2.421      3.668
REMARK  1 active torsions:
REMARK  status: ('A' for Active; 'I' for Inactive)
REMARK    1  A    between atoms: C5_5  and  C6_6 
ROOT
HETATM    1  C1  UNL     1     -35.634   6.851   3.150  1.00 20.00     0.014 A 
HETATM    2  C2  UNL     1     -34.776   4.698   4.384  1.00 20.00     0.275 C 
HETATM    3  C3  UNL     1     -35.190   6.134   4.398  1.00 20.00     0.021 A 
HETATM    4  C4  UNL     1     -34.197   6.897   3.606  1.00 20.00     0.034 A 
HETATM    5  C5  UNL     1     -33.159   5.919   3.135  1.00 20.00     0.331 C 
HETATM    6  N7  UNL     1     -33.799   4.601   3.289  1.00 20.00     0.097 N 
HETATM    7  H18 UNL     1     -33.108   3.877   3.477  1.00 20.00     0.316 HD
ENDROOT
BRANCH   5   8
HETATM    8  C6  UNL     1     -32.735   6.156   1.696  1.00 20.00     0.418 C 
HETATM    9  F8  UNL     1     -33.717   5.795   0.852  1.00 20.00    -0.169 F 
HETATM   10  F9  UNL     1     -32.457   7.456   1.497  1.00 20.00    -0.169 F 
HETATM   11  F10 UNL     1     -31.636   5.436   1.407  1.00 20.00    -0.169 F 
ENDBRANCH   5   8
TORSDOF 1
ENDMDL
MODEL 5
REMARK VINA RESULT:      -1.5      2.652      3.471
REMARK  1 active torsions:
REMARK  status: ('A' for Active; 'I' for Inactive)
REMARK    1  A    between atoms: C5_5  and  C6_6 
ROOT
HETATM    1  C1  UNL     1     -33.327   5.127   3.293  1.00 20.00     0.014 A 
HETATM    2  C2  UNL     1     -34.551   7.163   4.413  1.00 20.00     0.275 C 
HETATM    3  C3  UNL     1     -34.576   5.911   3.595  1.00 20.00     0.021 A 
HETATM    4  C4  UNL     1     -33.837   6.178   2.339  1.00 20.00     0.034 A 
HETATM    5  C5  UNL     1     -33.388   7.610   2.385  1.00 20.00     0.331 C 
HETATM    6  N7  UNL     1     -33.492   7.983   3.807  1.00 20.00     0.097 N 
HETATM    7  H18 UNL     1     -33.691   8.976   3.911  1.00 20.00     0.316 HD
ENDROOT
BRANCH   5   8
HETATM    8  C6  UNL     1     -31.971   7.800   1.873  1.00 20.00     0.418 C 
HETATM    9  F8  UNL     1     -31.460   6.628   1.458  1.00 20.00    -0.169 F 
HETATM   10  F9  UNL     1     -31.956   8.661   0.841  1.00 20.00    -0.169 F 
HETATM   11  F10 UNL     1     -31.182   8.289   2.847  1.00 20.00    -0.169 F 
ENDBRANCH   5   8
TORSDOF 1
ENDMDL
MODEL 6
REMARK VINA RESULT:      -1.5      2.650      3.468
REMARK  1 active torsions:
REMARK  status: ('A' for Active; 'I' for Inactive)
REMARK    1  A    between atoms: C5_5  and  C6_6 
ROOT
HETATM    1  C1  UNL     1     -33.323   5.119   3.292  1.00 20.00     0.014 A 
HETATM    2  C2  UNL     1     -34.564   7.146   4.408  1.00 20.00     0.275 C 
HETATM    3  C3  UNL     1     -34.579   5.895   3.588  1.00 20.00     0.021 A 
HETATM    4  C4  UNL     1     -33.834   6.169   2.337  1.00 20.00     0.034 A 
HETATM    5  C5  UNL     1     -33.392   7.603   2.387  1.00 20.00     0.331 C 
HETATM    6  N7  UNL     1     -33.506   7.973   3.809  1.00 20.00     0.097 N 
HETATM    7  H18 UNL     1     -33.712   8.965   3.914  1.00 20.00     0.316 HD
ENDROOT
BRANCH   5   8
HETATM    8  C6  UNL     1     -31.973   7.801   1.884  1.00 20.00     0.418 C 
HETATM    9  F8  UNL     1     -31.193   8.296   2.860  1.00 20.00    -0.169 F 
HETATM   10  F9  UNL     1     -31.454   6.631   1.474  1.00 20.00    -0.169 F 
HETATM   11  F10 UNL     1     -31.959   8.660   0.848  1.00 20.00    -0.169 F 
ENDBRANCH   5   8
TORSDOF 1
ENDMDL
MODEL 7
REMARK VINA RESULT:      -1.0      2.213      3.319
REMARK  1 active torsions:
REMARK  status: ('A' for Active; 'I' for Inactive)
REMARK    1  A    between atoms: C5_5  and  C6_6 
ROOT
HETATM    1  C1  UNL     1     -34.745   5.530   4.233  1.00 20.00     0.014 A 
HETATM    2  C2  UNL     1     -33.747   7.951   4.422  1.00 20.00     0.275 C 
HETATM    3  C3  UNL     1     -34.913   7.025   4.285  1.00 20.00     0.021 A 
HETATM    4  C4  UNL     1     -34.801   6.353   2.969  1.00 20.00     0.034 A 
HETATM    5  C5  UNL     1     -33.575   6.897   2.295  1.00 20.00     0.331 C 
HETATM    6  N7  UNL     1     -32.800   7.516   3.385  1.00 20.00     0.097 N 
HETATM    7  H18 UNL     1     -32.246   8.299   3.042  1.00 20.00     0.316 HD
ENDROOT
BRANCH   5   8
HETATM    8  C6  UNL     1     -32.764   5.825   1.589  1.00 20.00     0.418 C 
HETATM    9  F8  UNL     1     -31.516   6.262   1.347  1.00 20.00    -0.169 F 
HETATM   10  F9  UNL     1     -32.689   4.718   2.349  1.00 20.00    -0.169 F 
HETATM   11  F10 UNL     1     -33.338   5.499   0.416  1.00 20.00    -0.169 F 
ENDBRANCH   5   8
TORSDOF 1
ENDMDL
MODEL 8
REMARK VINA RESULT:      -1.0      2.208      3.288
REMARK  1 active torsions:
REMARK  status: ('A' for Active; 'I' for Inactive)
REMARK    1  A    between atoms: C5_5  and  C6_6 
ROOT
HETATM    1  C1  UNL     1     -34.762   5.556   4.229  1.00 20.00     0.014 A 
HETATM    2  C2  UNL     1     -33.727   7.962   4.429  1.00 20.00     0.275 C 
HETATM    3  C3  UNL     1     -34.907   7.054   4.287  1.00 20.00     0.021 A 
HETATM    4  C4  UNL     1     -34.804   6.385   2.969  1.00 20.00     0.034 A 
HETATM    5  C5  UNL     1     -33.569   6.914   2.297  1.00 20.00     0.331 C 
HETATM    6  N7  UNL     1     -32.786   7.516   3.390  1.00 20.00     0.097 N 
HETATM    7  H18 UNL     1     -32.220   8.291   3.051  1.00 20.00     0.316 HD
ENDROOT
BRANCH   5   8
HETATM    8  C6  UNL     1     -32.774   5.832   1.588  1.00 20.00     0.418 C 
HETATM    9  F8  UNL     1     -33.353   5.515   0.416  1.00 20.00    -0.169 F 
HETATM   10  F9  UNL     1     -31.521   6.254   1.345  1.00 20.00    -0.169 F 
HETATM   11  F10 UNL     1     -32.711   4.722   2.347  1.00 20.00    -0.169 F 
ENDBRANCH   5   8
TORSDOF 1
ENDMDL
MODEL 9
REMARK VINA RESULT:      -0.7      2.735      3.504
REMARK  1 active torsions:
REMARK  status: ('A' for Active; 'I' for Inactive)
REMARK    1  A    between atoms: C5_5  and  C6_6 
ROOT
HETATM    1  C1  UNL     1     -32.058   5.170   1.866  1.00 20.00     0.014 A 
HETATM    2  C2  UNL     1     -33.997   6.013   3.423  1.00 20.00     0.275 C 
HETATM    3  C3  UNL     1     -33.516   5.245   2.233  1.00 20.00     0.021 A 
HETATM    4  C4  UNL     1     -32.960   6.219   1.264  1.00 20.00     0.034 A 
HETATM    5  C5  UNL     1     -33.133   7.586   1.860  1.00 20.00     0.331 C 
HETATM    6  N7  UNL     1     -33.369   7.336   3.293  1.00 20.00     0.097 N 
HETATM    7  H18 UNL     1     -33.956   8.062   3.699  1.00 20.00     0.316 HD
ENDROOT
BRANCH   5   8
HETATM    8  C6  UNL     1     -31.920   8.477   1.654  1.00 20.00     0.418 C 
HETATM    9  F8  UNL     1     -31.246   8.626   2.807  1.00 20.00    -0.169 F 
HETATM   10  F9  UNL     1     -31.093   7.939   0.742  1.00 20.00    -0.169 F 
HETATM   11  F10 UNL     1     -32.300   9.693   1.220  1.00 20.00    -0.169 F 
ENDBRANCH   5   8
TORSDOF 1
ENDMDL
