MODEL 1
REMARK VINA RESULT:      -1.0      0.000      0.000
REMARK  3 active torsions:
REMARK  status: ('A' for Active; 'I' for Inactive)
REMARK    1  A    between atoms: C4_4  and  C6_6 
REMARK    2  A    between atoms: C6_6  and  C7_7 
REMARK    3  A    between atoms: C7_7  and  C8_8 
ROOT
HETATM    1  C1  UNL     1     -35.299   5.946   4.414  1.00 20.00     0.029 C 
HETATM    2  C2  UNL     1     -34.821   6.902   3.350  1.00 20.00     0.034 C 
HETATM    3  C3  UNL     1     -34.585   4.668   4.028  1.00 20.00     0.168 C 
HETATM    4  C4  UNL     1     -33.374   6.471   3.184  1.00 20.00     0.121 C 
HETATM    5  O9  UNL     1     -33.353   5.049   3.400  1.00 20.00    -0.386 OA
ENDROOT
BRANCH   4   6
HETATM    6  C6  UNL     1     -32.800   6.793   1.818  1.00 20.00     0.033 C 
BRANCH   6   7
HETATM    7  C7  UNL     1     -32.126   8.169   1.806  1.00 20.00     0.022 C 
BRANCH   7   8
HETATM    8  C8  UNL     1     -32.309   8.925   0.483  1.00 20.00     0.078 C 
HETATM    9  C5  UNL     1     -32.671  10.384   0.729  1.00 20.00     0.026 C 
HETATM   10 CL10 UNL     1     -30.821   8.856  -0.509  1.00 20.00    -0.125 Cl
ENDBRANCH   7   8
ENDBRANCH   6   7
ENDBRANCH   4   6
TORSDOF 3
ENDMDL
MODEL 2
REMARK VINA RESULT:      -1.0      1.103      1.387
REMARK  3 active torsions:
REMARK  status: ('A' for Active; 'I' for Inactive)
REMARK    1  A    between atoms: C4_4  and  C6_6 
REMARK    2  A    between atoms: C6_6  and  C7_7 
REMARK    3  A    between atoms: C7_7  and  C8_8 
ROOT
HETATM    1  C1  UNL     1     -34.970   5.843   4.098  1.00 20.00     0.029 C 
HETATM    2  C2  UNL     1     -33.880   5.407   3.152  1.00 20.00     0.034 C 
HETATM    3  C3  UNL     1     -34.534   7.250   4.448  1.00 20.00     0.168 C 
HETATM    4  C4  UNL     1     -33.615   6.688   2.382  1.00 20.00     0.121 C 
HETATM    5  O9  UNL     1     -33.825   7.765   3.312  1.00 20.00    -0.386 OA
ENDROOT
BRANCH   4   6
HETATM    6  C6  UNL     1     -32.215   6.770   1.806  1.00 20.00     0.033 C 
BRANCH   6   7
HETATM    7  C7  UNL     1     -31.743   8.224   1.693  1.00 20.00     0.022 C 
BRANCH   7   8
HETATM    8  C8  UNL     1     -32.150   8.894   0.374  1.00 20.00     0.078 C 
HETATM    9  C5  UNL     1     -32.616  10.326   0.606  1.00 20.00     0.026 C 
HETATM   10 CL10 UNL     1     -30.788   8.910  -0.787  1.00 20.00    -0.125 Cl
ENDBRANCH   7   8
ENDBRANCH   6   7
ENDBRANCH   4   6
TORSDOF 3
ENDMDL
MODEL 3
REMARK VINA RESULT:      -0.9      1.119      1.334
REMARK  3 active torsions:
REMARK  status: ('A' for Active; 'I' for Inactive)
REMARK    1  A    between atoms: C4_4  and  C6_6 
REMARK    2  A    between atoms: C6_6  and  C7_7 
REMARK    3  A    between atoms: C7_7  and  C8_8 
ROOT
HETATM    1  C1  UNL     1     -35.307   6.118   4.499  1.00 20.00     0.029 C 
HETATM    2  C2  UNL     1     -34.790   6.674   3.196  1.00 20.00     0.034 C 
HETATM    3  C3  UNL     1     -34.886   4.667   4.407  1.00 20.00     0.168 C 
HETATM    4  C4  UNL     1     -33.475   5.930   3.049  1.00 20.00     0.121 C 
HETATM    5  O9  UNL     1     -33.687   4.627   3.620  1.00 20.00    -0.386 OA
ENDROOT
BRANCH   4   6
HETATM    6  C6  UNL     1     -33.014   5.792   1.611  1.00 20.00     0.033 C 
BRANCH   6   7
HETATM    7  C7  UNL     1     -31.918   6.809   1.277  1.00 20.00     0.022 C 
BRANCH   7   8
HETATM    8  C8  UNL     1     -32.268   8.242   1.702  1.00 20.00     0.078 C 
HETATM    9  C5  UNL     1     -31.336   8.730   2.805  1.00 20.00     0.026 C 
HETATM   10 CL10 UNL     1     -32.165   9.369   0.316  1.00 20.00    -0.125 Cl
ENDBRANCH   7   8
ENDBRANCH   6   7
ENDBRANCH   4   6
TORSDOF 3
ENDMDL
MODEL 4
REMARK VINA RESULT:      -0.6      2.682      5.053
REMARK  3 active torsions:
REMARK  status: ('A' for Active; 'I' for Inactive)
REMARK    1  A    between atoms: C4_4  and  C6_6 
REMARK    2  A    between atoms: C6_6  and  C7_7 
REMARK    3  A    between atoms: C7_7  and  C8_8 
ROOT
HETATM    1  C1  UNL     1     -32.746  10.730   0.038  1.00 20.00     0.029 C 
HETATM    2  C2  UNL     1     -32.906  10.049   1.374  1.00 20.00     0.034 C 
HETATM    3  C3  UNL     1     -31.551  10.003  -0.541  1.00 20.00     0.168 C 
HETATM    4  C4  UNL     1     -32.572   8.610   1.022  1.00 20.00     0.121 C 
HETATM    5  O9  UNL     1     -31.571   8.671  -0.008  1.00 20.00    -0.386 OA
ENDROOT
BRANCH   4   6
HETATM    6  C6  UNL     1     -32.053   7.804   2.197  1.00 20.00     0.033 C 
BRANCH   6   7
HETATM    7  C7  UNL     1     -33.073   6.752   2.646  1.00 20.00     0.022 C 
BRANCH   7   8
HETATM    8  C8  UNL     1     -34.164   7.317   3.566  1.00 20.00     0.078 C 
HETATM    9  C5  UNL     1     -35.116   6.219   4.027  1.00 20.00     0.026 C 
HETATM   10 CL10 UNL     1     -33.450   8.105   5.004  1.00 20.00    -0.125 Cl
ENDBRANCH   7   8
ENDBRANCH   6   7
ENDBRANCH   4   6
TORSDOF 3
ENDMDL
MODEL 5
REMARK VINA RESULT:      -0.6      1.452      1.635
REMARK  3 active torsions:
REMARK  status: ('A' for Active; 'I' for Inactive)
REMARK    1  A    between atoms: C4_4  and  C6_6 
REMARK    2  A    between atoms: C6_6  and  C7_7 
REMARK    3  A    between atoms: C7_7  and  C8_8 
ROOT
HETATM    1  C1  UNL     1     -34.464   7.292   4.585  1.00 20.00     0.029 C 
HETATM    2  C2  UNL     1     -33.550   8.040   3.648  1.00 20.00     0.034 C 
HETATM    3  C3  UNL     1     -34.975   6.176   3.698  1.00 20.00     0.168 C 
HETATM    4  C4  UNL     1     -32.924   6.902   2.862  1.00 20.00     0.121 C 
HETATM    5  O9  UNL     1     -33.939   5.889   2.747  1.00 20.00    -0.386 OA
ENDROOT
BRANCH   4   6
HETATM    6  C6  UNL     1     -32.447   7.311   1.481  1.00 20.00     0.033 C 
BRANCH   6   7
HETATM    7  C7  UNL     1     -31.576   8.570   1.542  1.00 20.00     0.022 C 
BRANCH   7   8
HETATM    8  C8  UNL     1     -31.869   9.567   0.413  1.00 20.00     0.078 C 
HETATM    9  C5  UNL     1     -32.637   8.900  -0.722  1.00 20.00     0.026 C 
HETATM   10 CL10 UNL     1     -32.818  10.960   1.014  1.00 20.00    -0.125 Cl
ENDBRANCH   7   8
ENDBRANCH   6   7
ENDBRANCH   4   6
TORSDOF 3
ENDMDL
MODEL 6
REMARK VINA RESULT:      -0.6      2.916      4.931
REMARK  3 active torsions:
REMARK  status: ('A' for Active; 'I' for Inactive)
REMARK    1  A    between atoms: C4_4  and  C6_6 
REMARK    2  A    between atoms: C6_6  and  C7_7 
REMARK    3  A    between atoms: C7_7  and  C8_8 
ROOT
HETATM    1  C1  UNL     1     -32.452  10.079  -0.451  1.00 20.00     0.029 C 
HETATM    2  C2  UNL     1     -32.318   8.588  -0.274  1.00 20.00     0.034 C 
HETATM    3  C3  UNL     1     -32.913  10.516   0.924  1.00 20.00     0.168 C 
HETATM    4  C4  UNL     1     -31.767   8.498   1.137  1.00 20.00     0.121 C 
HETATM    5  O9  UNL     1     -32.354   9.589   1.867  1.00 20.00    -0.386 OA
ENDROOT
BRANCH   4   6
HETATM    6  C6  UNL     1     -32.084   7.186   1.829  1.00 20.00     0.033 C 
BRANCH   6   7
HETATM    7  C7  UNL     1     -33.571   7.088   2.184  1.00 20.00     0.022 C 
BRANCH   7   8
HETATM    8  C8  UNL     1     -33.824   6.786   3.667  1.00 20.00     0.078 C 
HETATM    9  C5  UNL     1     -33.648   8.036   4.521  1.00 20.00     0.026 C 
HETATM   10 CL10 UNL     1     -35.473   6.139   3.921  1.00 20.00    -0.125 Cl
ENDBRANCH   7   8
ENDBRANCH   6   7
ENDBRANCH   4   6
TORSDOF 3
ENDMDL
MODEL 7
REMARK VINA RESULT:      -0.6      2.878      5.162
REMARK  3 active torsions:
REMARK  status: ('A' for Active; 'I' for Inactive)
REMARK    1  A    between atoms: C4_4  and  C6_6 
REMARK    2  A    between atoms: C6_6  and  C7_7 
REMARK    3  A    between atoms: C7_7  and  C8_8 
ROOT
HETATM    1  C1  UNL     1     -31.342   8.731   0.002  1.00 20.00     0.029 C 
HETATM    2  C2  UNL     1     -31.680   7.600   0.941  1.00 20.00     0.034 C 
HETATM    3  C3  UNL     1     -32.467   9.708   0.273  1.00 20.00     0.168 C 
HETATM    4  C4  UNL     1     -32.197   8.356   2.152  1.00 20.00     0.121 C 
HETATM    5  O9  UNL     1     -32.860   9.526   1.641  1.00 20.00    -0.386 OA
ENDROOT
BRANCH   4   6
HETATM    6  C6  UNL     1     -33.159   7.551   3.004  1.00 20.00     0.033 C 
BRANCH   6   7
HETATM    7  C7  UNL     1     -33.146   6.070   2.612  1.00 20.00     0.022 C 
BRANCH   7   8
HETATM    8  C8  UNL     1     -34.307   5.271   3.218  1.00 20.00     0.078 C 
HETATM    9  C5  UNL     1     -33.794   4.126   4.083  1.00 20.00     0.026 C 
HETATM   10 CL10 UNL     1     -35.361   6.320   4.213  1.00 20.00    -0.125 Cl
ENDBRANCH   7   8
ENDBRANCH   6   7
ENDBRANCH   4   6
TORSDOF 3
ENDMDL
MODEL 8
REMARK VINA RESULT:      -0.5      2.683      4.871
REMARK  3 active torsions:
REMARK  status: ('A' for Active; 'I' for Inactive)
REMARK    1  A    between atoms: C4_4  and  C6_6 
REMARK    2  A    between atoms: C6_6  and  C7_7 
REMARK    3  A    between atoms: C7_7  and  C8_8 
ROOT
HETATM    1  C1  UNL     1     -32.040   9.929  -0.026  1.00 20.00     0.029 C 
HETATM    2  C2  UNL     1     -31.716   8.457  -0.042  1.00 20.00     0.034 C 
HETATM    3  C3  UNL     1     -33.007  10.023   1.135  1.00 20.00     0.168 C 
HETATM    4  C4  UNL     1     -31.667   8.140   1.442  1.00 20.00     0.121 C 
HETATM    5  O9  UNL     1     -32.647   8.990   2.064  1.00 20.00    -0.386 OA
ENDROOT
BRANCH   4   6
HETATM    6  C6  UNL     1     -31.967   6.689   1.762  1.00 20.00     0.033 C 
BRANCH   6   7
HETATM    7  C7  UNL     1     -33.461   6.471   2.020  1.00 20.00     0.022 C 
BRANCH   7   8
HETATM    8  C8  UNL     1     -33.779   6.108   3.477  1.00 20.00     0.078 C 
HETATM    9  C5  UNL     1     -35.111   6.705   3.914  1.00 20.00     0.026 C 
HETATM   10 CL10 UNL     1     -33.840   4.333   3.700  1.00 20.00    -0.125 Cl
ENDBRANCH   7   8
ENDBRANCH   6   7
ENDBRANCH   4   6
TORSDOF 3
ENDMDL
MODEL 9
REMARK VINA RESULT:      -0.5      1.581      1.959
REMARK  3 active torsions:
REMARK  status: ('A' for Active; 'I' for Inactive)
REMARK    1  A    between atoms: C4_4  and  C6_6 
REMARK    2  A    between atoms: C6_6  and  C7_7 
REMARK    3  A    between atoms: C7_7  and  C8_8 
ROOT
HETATM    1  C1  UNL     1     -35.124   4.934   4.486  1.00 20.00     0.029 C 
HETATM    2  C2  UNL     1     -33.830   4.552   3.812  1.00 20.00     0.034 C 
HETATM    3  C3  UNL     1     -35.153   6.434   4.279  1.00 20.00     0.168 C 
HETATM    4  C4  UNL     1     -33.825   5.485   2.615  1.00 20.00     0.121 C 
HETATM    5  O9  UNL     1     -34.459   6.701   3.051  1.00 20.00    -0.386 OA
ENDROOT
BRANCH   4   6
HETATM    6  C6  UNL     1     -32.435   5.789   2.090  1.00 20.00     0.033 C 
BRANCH   6   7
HETATM    7  C7  UNL     1     -32.471   6.877   1.012  1.00 20.00     0.022 C 
BRANCH   7   8
HETATM    8  C8  UNL     1     -31.737   8.162   1.419  1.00 20.00     0.078 C 
HETATM    9  C5  UNL     1     -32.266   9.365   0.648  1.00 20.00     0.026 C 
HETATM   10 CL10 UNL     1     -31.912   8.475   3.172  1.00 20.00    -0.125 Cl
ENDBRANCH   7   8
ENDBRANCH   6   7
ENDBRANCH   4   6
TORSDOF 3
ENDMDL
