MODEL 1
REMARK VINA RESULT:      -1.0      0.000      0.000
REMARK  3 active torsions:
REMARK  status: ('A' for Active; 'I' for Inactive)
REMARK    1  A    between atoms: C4_4  and  C6_6 
REMARK    2  A    between atoms: C6_6  and  C7_7 
REMARK    3  A    between atoms: C7_7  and  C8_8 
ROOT
HETATM    1  C1  UNL     1     -35.296   6.105   4.500  1.00 20.00     0.029 C 
HETATM    2  C2  UNL     1     -34.773   6.672   3.204  1.00 20.00     0.034 C 
HETATM    3  C3  UNL     1     -34.874   4.655   4.401  1.00 20.00     0.168 C 
HETATM    4  C4  UNL     1     -33.455   5.929   3.060  1.00 20.00     0.121 C 
HETATM    5  O9  UNL     1     -33.669   4.623   3.622  1.00 20.00    -0.386 OA
ENDROOT
BRANCH   4   6
HETATM    6  C6  UNL     1     -32.987   5.801   1.623  1.00 20.00     0.033 C 
BRANCH   6   7
HETATM    7  C7  UNL     1     -31.906   6.835   1.296  1.00 20.00     0.022 C 
BRANCH   7   8
HETATM    8  C8  UNL     1     -32.285   8.264   1.708  1.00 20.00     0.078 C 
HETATM    9  C5  UNL     1     -32.036   9.248   0.572  1.00 20.00     0.026 C 
HETATM   10 CL10 UNL     1     -31.350   8.789   3.141  1.00 20.00    -0.125 Cl
ENDBRANCH   7   8
ENDBRANCH   6   7
ENDBRANCH   4   6
TORSDOF 3
ENDMDL
MODEL 2
REMARK VINA RESULT:      -1.0      1.774      2.130
REMARK  3 active torsions:
REMARK  status: ('A' for Active; 'I' for Inactive)
REMARK    1  A    between atoms: C4_4  and  C6_6 
REMARK    2  A    between atoms: C6_6  and  C7_7 
REMARK    3  A    between atoms: C7_7  and  C8_8 
ROOT
HETATM    1  C1  UNL     1     -34.870   6.186   3.946  1.00 20.00     0.029 C 
HETATM    2  C2  UNL     1     -33.873   5.790   2.885  1.00 20.00     0.034 C 
HETATM    3  C3  UNL     1     -34.226   7.421   4.536  1.00 20.00     0.168 C 
HETATM    4  C4  UNL     1     -33.436   7.147   2.360  1.00 20.00     0.121 C 
HETATM    5  O9  UNL     1     -33.469   8.041   3.485  1.00 20.00    -0.386 OA
ENDROOT
BRANCH   4   6
HETATM    6  C6  UNL     1     -32.048   7.140   1.748  1.00 20.00     0.033 C 
BRANCH   6   7
HETATM    7  C7  UNL     1     -31.577   8.560   1.421  1.00 20.00     0.022 C 
BRANCH   7   8
HETATM    8  C8  UNL     1     -32.599   9.370   0.611  1.00 20.00     0.078 C 
HETATM    9  C5  UNL     1     -32.286   9.314  -0.880  1.00 20.00     0.026 C 
HETATM   10 CL10 UNL     1     -32.623  11.081   1.133  1.00 20.00    -0.125 Cl
ENDBRANCH   7   8
ENDBRANCH   6   7
ENDBRANCH   4   6
TORSDOF 3
ENDMDL
MODEL 3
REMARK VINA RESULT:      -1.0      2.591      4.811
REMARK  3 active torsions:
REMARK  status: ('A' for Active; 'I' for Inactive)
REMARK    1  A    between atoms: C4_4  and  C6_6 
REMARK    2  A    between atoms: C6_6  and  C7_7 
REMARK    3  A    between atoms: C7_7  and  C8_8 
ROOT
HETATM    1  C1  UNL     1     -31.313   8.720   0.059  1.00 20.00     0.029 C 
HETATM    2  C2  UNL     1     -31.683   7.616   1.018  1.00 20.00     0.034 C 
HETATM    3  C3  UNL     1     -32.419   9.724   0.296  1.00 20.00     0.168 C 
HETATM    4  C4  UNL     1     -32.199   8.409   2.207  1.00 20.00     0.121 C 
HETATM    5  O9  UNL     1     -32.831   9.579   1.663  1.00 20.00    -0.386 OA
ENDROOT
BRANCH   4   6
HETATM    6  C6  UNL     1     -33.187   7.640   3.063  1.00 20.00     0.033 C 
BRANCH   6   7
HETATM    7  C7  UNL     1     -33.202   6.153   2.697  1.00 20.00     0.022 C 
BRANCH   7   8
HETATM    8  C8  UNL     1     -34.405   5.396   3.275  1.00 20.00     0.078 C 
HETATM    9  C5  UNL     1     -35.227   6.291   4.195  1.00 20.00     0.026 C 
HETATM   10 CL10 UNL     1     -33.876   3.954   4.194  1.00 20.00    -0.125 Cl
ENDBRANCH   7   8
ENDBRANCH   6   7
ENDBRANCH   4   6
TORSDOF 3
ENDMDL
MODEL 4
REMARK VINA RESULT:      -0.8      1.254      1.416
REMARK  3 active torsions:
REMARK  status: ('A' for Active; 'I' for Inactive)
REMARK    1  A    between atoms: C4_4  and  C6_6 
REMARK    2  A    between atoms: C6_6  and  C7_7 
REMARK    3  A    between atoms: C7_7  and  C8_8 
ROOT
HETATM    1  C1  UNL     1     -35.202   6.378   4.452  1.00 20.00     0.029 C 
HETATM    2  C2  UNL     1     -34.519   7.275   3.450  1.00 20.00     0.034 C 
HETATM    3  C3  UNL     1     -34.813   5.002   3.956  1.00 20.00     0.168 C 
HETATM    4  C4  UNL     1     -33.216   6.530   3.215  1.00 20.00     0.121 C 
HETATM    5  O9  UNL     1     -33.530   5.131   3.325  1.00 20.00    -0.386 OA
ENDROOT
BRANCH   4   6
HETATM    6  C6  UNL     1     -32.594   6.813   1.861  1.00 20.00     0.033 C 
BRANCH   6   7
HETATM    7  C7  UNL     1     -31.996   8.222   1.807  1.00 20.00     0.022 C 
BRANCH   7   8
HETATM    8  C8  UNL     1     -32.295   8.960   0.495  1.00 20.00     0.078 C 
HETATM    9  C5  UNL     1     -31.076   8.968  -0.420  1.00 20.00     0.026 C 
HETATM   10 CL10 UNL     1     -32.793  10.650   0.808  1.00 20.00    -0.125 Cl
ENDBRANCH   7   8
ENDBRANCH   6   7
ENDBRANCH   4   6
TORSDOF 3
ENDMDL
MODEL 5
REMARK VINA RESULT:      -0.7      2.119      4.665
REMARK  3 active torsions:
REMARK  status: ('A' for Active; 'I' for Inactive)
REMARK    1  A    between atoms: C4_4  and  C6_6 
REMARK    2  A    between atoms: C6_6  and  C7_7 
REMARK    3  A    between atoms: C7_7  and  C8_8 
ROOT
HETATM    1  C1  UNL     1     -31.957  10.057  -0.333  1.00 20.00     0.029 C 
HETATM    2  C2  UNL     1     -31.707   8.582  -0.137  1.00 20.00     0.034 C 
HETATM    3  C3  UNL     1     -32.973  10.349   0.749  1.00 20.00     0.168 C 
HETATM    4  C4  UNL     1     -31.748   8.468   1.378  1.00 20.00     0.121 C 
HETATM    5  O9  UNL     1     -32.713   9.436   1.826  1.00 20.00    -0.386 OA
ENDROOT
BRANCH   4   6
HETATM    6  C6  UNL     1     -32.138   7.088   1.870  1.00 20.00     0.033 C 
BRANCH   6   7
HETATM    7  C7  UNL     1     -33.627   7.022   2.223  1.00 20.00     0.022 C 
BRANCH   7   8
HETATM    8  C8  UNL     1     -33.890   6.657   3.690  1.00 20.00     0.078 C 
HETATM    9  C5  UNL     1     -35.339   6.238   3.901  1.00 20.00     0.026 C 
HETATM   10 CL10 UNL     1     -33.525   8.037   4.771  1.00 20.00    -0.125 Cl
ENDBRANCH   7   8
ENDBRANCH   6   7
ENDBRANCH   4   6
TORSDOF 3
ENDMDL
MODEL 6
REMARK VINA RESULT:      -0.7      2.453      4.828
REMARK  3 active torsions:
REMARK  status: ('A' for Active; 'I' for Inactive)
REMARK    1  A    between atoms: C4_4  and  C6_6 
REMARK    2  A    between atoms: C6_6  and  C7_7 
REMARK    3  A    between atoms: C7_7  and  C8_8 
ROOT
HETATM    1  C1  UNL     1     -32.002  10.113  -0.280  1.00 20.00     0.029 C 
HETATM    2  C2  UNL     1     -31.841   8.616  -0.186  1.00 20.00     0.034 C 
HETATM    3  C3  UNL     1     -32.956  10.398   0.860  1.00 20.00     0.168 C 
HETATM    4  C4  UNL     1     -31.833   8.408   1.319  1.00 20.00     0.121 C 
HETATM    5  O9  UNL     1     -32.715   9.403   1.866  1.00 20.00    -0.386 OA
ENDROOT
BRANCH   4   6
HETATM    6  C6  UNL     1     -32.294   7.025   1.740  1.00 20.00     0.033 C 
BRANCH   6   7
HETATM    7  C7  UNL     1     -33.079   7.076   3.054  1.00 20.00     0.022 C 
BRANCH   7   8
HETATM    8  C8  UNL     1     -34.209   6.041   3.129  1.00 20.00     0.078 C 
HETATM    9  C5  UNL     1     -35.331   6.517   4.043  1.00 20.00     0.026 C 
HETATM   10 CL10 UNL     1     -33.602   4.468   3.731  1.00 20.00    -0.125 Cl
ENDBRANCH   7   8
ENDBRANCH   6   7
ENDBRANCH   4   6
TORSDOF 3
ENDMDL
MODEL 7
REMARK VINA RESULT:      -0.6      2.780      4.885
REMARK  3 active torsions:
REMARK  status: ('A' for Active; 'I' for Inactive)
REMARK    1  A    between atoms: C4_4  and  C6_6 
REMARK    2  A    between atoms: C6_6  and  C7_7 
REMARK    3  A    between atoms: C7_7  and  C8_8 
ROOT
HETATM    1  C1  UNL     1     -32.789  10.717   0.019  1.00 20.00     0.029 C 
HETATM    2  C2  UNL     1     -32.940  10.066   1.371  1.00 20.00     0.034 C 
HETATM    3  C3  UNL     1     -31.586   9.993  -0.545  1.00 20.00     0.168 C 
HETATM    4  C4  UNL     1     -32.588   8.623   1.052  1.00 20.00     0.121 C 
HETATM    5  O9  UNL     1     -31.589   8.673   0.019  1.00 20.00    -0.386 OA
ENDROOT
BRANCH   4   6
HETATM    6  C6  UNL     1     -32.057   7.853   2.245  1.00 20.00     0.033 C 
BRANCH   6   7
HETATM    7  C7  UNL     1     -33.055   6.788   2.710  1.00 20.00     0.022 C 
BRANCH   7   8
HETATM    8  C8  UNL     1     -34.167   7.346   3.609  1.00 20.00     0.078 C 
HETATM    9  C5  UNL     1     -33.588   7.992   4.861  1.00 20.00     0.026 C 
HETATM   10 CL10 UNL     1     -35.306   6.056   4.098  1.00 20.00    -0.125 Cl
ENDBRANCH   7   8
ENDBRANCH   6   7
ENDBRANCH   4   6
TORSDOF 3
ENDMDL
MODEL 8
REMARK VINA RESULT:      -0.5      1.173      1.303
REMARK  3 active torsions:
REMARK  status: ('A' for Active; 'I' for Inactive)
REMARK    1  A    between atoms: C4_4  and  C6_6 
REMARK    2  A    between atoms: C6_6  and  C7_7 
REMARK    3  A    between atoms: C7_7  and  C8_8 
ROOT
HETATM    1  C1  UNL     1     -35.328   6.097   4.474  1.00 20.00     0.029 C 
HETATM    2  C2  UNL     1     -34.660   6.715   3.271  1.00 20.00     0.034 C 
HETATM    3  C3  UNL     1     -34.936   4.642   4.337  1.00 20.00     0.168 C 
HETATM    4  C4  UNL     1     -33.355   5.939   3.217  1.00 20.00     0.121 C 
HETATM    5  O9  UNL     1     -33.659   4.613   3.680  1.00 20.00    -0.386 OA
ENDROOT
BRANCH   4   6
HETATM    6  C6  UNL     1     -32.748   5.874   1.829  1.00 20.00     0.033 C 
BRANCH   6   7
HETATM    7  C7  UNL     1     -33.026   7.155   1.038  1.00 20.00     0.022 C 
BRANCH   7   8
HETATM    8  C8  UNL     1     -31.876   8.170   1.097  1.00 20.00     0.078 C 
HETATM    9  C5  UNL     1     -31.519   8.511   2.539  1.00 20.00     0.026 C 
HETATM   10 CL10 UNL     1     -32.305   9.678   0.235  1.00 20.00    -0.125 Cl
ENDBRANCH   7   8
ENDBRANCH   6   7
ENDBRANCH   4   6
TORSDOF 3
ENDMDL
MODEL 9
REMARK VINA RESULT:      -0.5      1.553      1.714
REMARK  3 active torsions:
REMARK  status: ('A' for Active; 'I' for Inactive)
REMARK    1  A    between atoms: C4_4  and  C6_6 
REMARK    2  A    between atoms: C6_6  and  C7_7 
REMARK    3  A    between atoms: C7_7  and  C8_8 
ROOT
HETATM    1  C1  UNL     1     -35.409   4.909   4.601  1.00 20.00     0.029 C 
HETATM    2  C2  UNL     1     -35.534   6.307   4.049  1.00 20.00     0.034 C 
HETATM    3  C3  UNL     1     -34.172   4.401   3.894  1.00 20.00     0.168 C 
HETATM    4  C4  UNL     1     -34.076   6.729   3.965  1.00 20.00     0.121 C 
HETATM    5  O9  UNL     1     -33.333   5.540   3.648  1.00 20.00    -0.386 OA
ENDROOT
BRANCH   4   6
HETATM    6  C6  UNL     1     -33.815   7.794   2.917  1.00 20.00     0.033 C 
BRANCH   6   7
HETATM    7  C7  UNL     1     -32.345   8.223   2.914  1.00 20.00     0.022 C 
BRANCH   7   8
HETATM    8  C8  UNL     1     -31.633   7.950   1.582  1.00 20.00     0.078 C 
HETATM    9  C5  UNL     1     -32.082   8.932   0.508  1.00 20.00     0.026 C 
HETATM   10 CL10 UNL     1     -31.954   6.284   1.012  1.00 20.00    -0.125 Cl
ENDBRANCH   7   8
ENDBRANCH   6   7
ENDBRANCH   4   6
TORSDOF 3
ENDMDL
