MODEL 1
REMARK VINA RESULT:      -1.7      0.000      0.000
REMARK  5 active torsions:
REMARK  status: ('A' for Active; 'I' for Inactive)
REMARK    1  A    between atoms: C1_1  and  C6_6 
REMARK    2  A    between atoms: C1_1  and  C9_9 
REMARK    3  A    between atoms: C6_6  and  C10_10 
REMARK    4  A    between atoms: C7_7  and  C8_8 
REMARK    5  A    between atoms: C8_8  and  C10_10 
ROOT
HETATM    1  C6  UNL     1     -33.551   7.609   3.977  1.00 20.00     0.082 C 
ENDROOT
BRANCH   1   2
HETATM    2  C1  UNL     1     -32.441   8.164   3.090  1.00 20.00     0.130 C 
HETATM    3  O11 UNL     1     -31.458   8.736   3.563  1.00 20.00    -0.298 OA
BRANCH   2   4
HETATM    4  C9  UNL     1     -32.586   7.925   1.587  1.00 20.00     0.047 C 
HETATM    5  C3  UNL     1     -32.270   9.190   0.794  1.00 20.00     0.017 C 
HETATM    6  C4  UNL     1     -31.685   6.775   1.151  1.00 20.00     0.017 C 
ENDBRANCH   2   4
ENDBRANCH   1   2
BRANCH   1   7
HETATM    7  C10 UNL     1     -34.261   6.383   3.378  1.00 20.00    -0.012 C 
HETATM    8  C5  UNL     1     -35.663   6.211   3.970  1.00 20.00     0.010 C 
BRANCH   7   9
HETATM    9  C8  UNL     1     -33.411   5.104   3.539  1.00 20.00     0.004 C 
BRANCH   9  10
HETATM   10  C7  UNL     1     -34.101   3.947   4.267  1.00 20.00    -0.004 C 
HETATM   11  C2  UNL     1     -33.087   2.937   4.781  1.00 20.00     0.005 C 
ENDBRANCH   9  10
ENDBRANCH   7   9
ENDBRANCH   1   7
TORSDOF 5
ENDMDL
MODEL 2
REMARK VINA RESULT:      -1.7      1.478      1.691
REMARK  5 active torsions:
REMARK  status: ('A' for Active; 'I' for Inactive)
REMARK    1  A    between atoms: C1_1  and  C6_6 
REMARK    2  A    between atoms: C1_1  and  C9_9 
REMARK    3  A    between atoms: C6_6  and  C10_10 
REMARK    4  A    between atoms: C7_7  and  C8_8 
REMARK    5  A    between atoms: C8_8  and  C10_10 
ROOT
HETATM    1  C6  UNL     1     -33.395   6.784   3.365  1.00 20.00     0.082 C 
ENDROOT
BRANCH   1   2
HETATM    2  C1  UNL     1     -32.676   6.780   2.020  1.00 20.00     0.130 C 
HETATM    3  O11 UNL     1     -32.853   5.885   1.192  1.00 20.00    -0.298 OA
BRANCH   2   4
HETATM    4  C9  UNL     1     -31.765   7.973   1.732  1.00 20.00     0.047 C 
HETATM    5  C3  UNL     1     -32.399   8.917   0.712  1.00 20.00     0.017 C 
HETATM    6  C4  UNL     1     -31.446   8.712   3.027  1.00 20.00     0.017 C 
ENDBRANCH   2   4
ENDBRANCH   1   2
BRANCH   1   7
HETATM    7  C10 UNL     1     -34.630   5.869   3.406  1.00 20.00    -0.012 C 
HETATM    8  C5  UNL     1     -35.908   6.675   3.661  1.00 20.00     0.010 C 
BRANCH   7   9
HETATM    9  C8  UNL     1     -34.456   4.732   4.435  1.00 20.00     0.004 C 
BRANCH   9  10
HETATM   10  C7  UNL     1     -33.631   3.535   3.954  1.00 20.00    -0.004 C 
HETATM   11  C2  UNL     1     -32.940   2.839   5.117  1.00 20.00     0.005 C 
ENDBRANCH   9  10
ENDBRANCH   7   9
ENDBRANCH   1   7
TORSDOF 5
ENDMDL
MODEL 3
REMARK VINA RESULT:      -1.5      1.315      4.881
REMARK  5 active torsions:
REMARK  status: ('A' for Active; 'I' for Inactive)
REMARK    1  A    between atoms: C1_1  and  C6_6 
REMARK    2  A    between atoms: C1_1  and  C9_9 
REMARK    3  A    between atoms: C6_6  and  C10_10 
REMARK    4  A    between atoms: C7_7  and  C8_8 
REMARK    5  A    between atoms: C8_8  and  C10_10 
ROOT
HETATM    1  C6  UNL     1     -32.401   7.759   3.219  1.00 20.00     0.082 C 
ENDROOT
BRANCH   1   2
HETATM    2  C1  UNL     1     -33.680   7.398   3.966  1.00 20.00     0.130 C 
HETATM    3  O11 UNL     1     -34.070   8.047   4.937  1.00 20.00    -0.298 OA
BRANCH   2   4
HETATM    4  C9  UNL     1     -34.483   6.221   3.411  1.00 20.00     0.047 C 
HETATM    5  C3  UNL     1     -34.166   4.933   4.166  1.00 20.00     0.017 C 
HETATM    6  C4  UNL     1     -35.975   6.530   3.473  1.00 20.00     0.017 C 
ENDBRANCH   2   4
ENDBRANCH   1   2
BRANCH   1   7
HETATM    7  C10 UNL     1     -32.488   7.528   1.701  1.00 20.00    -0.012 C 
HETATM    8  C5  UNL     1     -32.074   6.099   1.333  1.00 20.00     0.010 C 
BRANCH   7   9
HETATM    9  C8  UNL     1     -31.668   8.579   0.922  1.00 20.00     0.004 C 
BRANCH   9  10
HETATM   10  C7  UNL     1     -32.463   9.415  -0.084  1.00 20.00    -0.004 C 
HETATM   11  C2  UNL     1     -32.752  10.806   0.460  1.00 20.00     0.005 C 
ENDBRANCH   9  10
ENDBRANCH   7   9
ENDBRANCH   1   7
TORSDOF 5
ENDMDL
MODEL 4
REMARK VINA RESULT:      -1.4      0.948      1.481
REMARK  5 active torsions:
REMARK  status: ('A' for Active; 'I' for Inactive)
REMARK    1  A    between atoms: C1_1  and  C6_6 
REMARK    2  A    between atoms: C1_1  and  C9_9 
REMARK    3  A    between atoms: C6_6  and  C10_10 
REMARK    4  A    between atoms: C7_7  and  C8_8 
REMARK    5  A    between atoms: C8_8  and  C10_10 
ROOT
HETATM    1  C6  UNL     1     -33.006   6.796   2.362  1.00 20.00     0.082 C 
ENDROOT
BRANCH   1   2
HETATM    2  C1  UNL     1     -32.195   8.064   2.116  1.00 20.00     0.130 C 
HETATM    3  O11 UNL     1     -31.342   8.455   2.913  1.00 20.00    -0.298 OA
BRANCH   2   4
HETATM    4  C9  UNL     1     -32.459   8.795   0.799  1.00 20.00     0.047 C 
HETATM    5  C3  UNL     1     -32.826  10.256   1.043  1.00 20.00     0.017 C 
HETATM    6  C4  UNL     1     -31.240   8.689  -0.111  1.00 20.00     0.017 C 
ENDBRANCH   2   4
ENDBRANCH   1   2
BRANCH   1   7
HETATM    7  C10 UNL     1     -34.165   6.989   3.354  1.00 20.00    -0.012 C 
HETATM    8  C5  UNL     1     -33.795   7.995   4.449  1.00 20.00     0.010 C 
BRANCH   7   9
HETATM    9  C8  UNL     1     -34.630   5.642   3.948  1.00 20.00     0.004 C 
BRANCH   9  10
HETATM   10  C7  UNL     1     -33.841   4.415   3.483  1.00 20.00    -0.004 C 
HETATM   11  C2  UNL     1     -33.616   3.438   4.627  1.00 20.00     0.005 C 
ENDBRANCH   9  10
ENDBRANCH   7   9
ENDBRANCH   1   7
TORSDOF 5
ENDMDL
MODEL 5
REMARK VINA RESULT:      -1.4      1.749      5.059
REMARK  5 active torsions:
REMARK  status: ('A' for Active; 'I' for Inactive)
REMARK    1  A    between atoms: C1_1  and  C6_6 
REMARK    2  A    between atoms: C1_1  and  C9_9 
REMARK    3  A    between atoms: C6_6  and  C10_10 
REMARK    4  A    between atoms: C7_7  and  C8_8 
REMARK    5  A    between atoms: C8_8  and  C10_10 
ROOT
HETATM    1  C6  UNL     1     -33.111   7.306   1.678  1.00 20.00     0.082 C 
ENDROOT
BRANCH   1   2
HETATM    2  C1  UNL     1     -33.205   5.880   2.213  1.00 20.00     0.130 C 
HETATM    3  O11 UNL     1     -32.785   4.917   1.571  1.00 20.00    -0.298 OA
BRANCH   2   4
HETATM    4  C9  UNL     1     -33.799   5.717   3.612  1.00 20.00     0.047 C 
HETATM    5  C3  UNL     1     -35.083   6.528   3.765  1.00 20.00     0.017 C 
HETATM    6  C4  UNL     1     -34.054   4.242   3.903  1.00 20.00     0.017 C 
ENDBRANCH   2   4
ENDBRANCH   1   2
BRANCH   1   7
HETATM    7  C10 UNL     1     -31.710   7.925   1.820  1.00 20.00    -0.012 C 
HETATM    8  C5  UNL     1     -31.575   8.693   3.139  1.00 20.00     0.010 C 
BRANCH   7   9
HETATM    9  C8  UNL     1     -31.359   8.809   0.605  1.00 20.00     0.004 C 
BRANCH   9  10
HETATM   10  C7  UNL     1     -32.553   9.470  -0.091  1.00 20.00    -0.004 C 
HETATM   11  C2  UNL     1     -32.795  10.873   0.445  1.00 20.00     0.005 C 
ENDBRANCH   9  10
ENDBRANCH   7   9
ENDBRANCH   1   7
TORSDOF 5
ENDMDL
MODEL 6
REMARK VINA RESULT:      -1.4      1.692      5.150
REMARK  5 active torsions:
REMARK  status: ('A' for Active; 'I' for Inactive)
REMARK    1  A    between atoms: C1_1  and  C6_6 
REMARK    2  A    between atoms: C1_1  and  C9_9 
REMARK    3  A    between atoms: C6_6  and  C10_10 
REMARK    4  A    between atoms: C7_7  and  C8_8 
REMARK    5  A    between atoms: C8_8  and  C10_10 
ROOT
HETATM    1  C6  UNL     1     -33.132   7.400   1.691  1.00 20.00     0.082 C 
ENDROOT
BRANCH   1   2
HETATM    2  C1  UNL     1     -33.261   5.937   2.103  1.00 20.00     0.130 C 
HETATM    3  O11 UNL     1     -32.528   5.064   1.636  1.00 20.00    -0.298 OA
BRANCH   2   4
HETATM    4  C9  UNL     1     -34.312   5.619   3.167  1.00 20.00     0.047 C 
HETATM    5  C3  UNL     1     -33.906   4.405   3.998  1.00 20.00     0.017 C 
HETATM    6  C4  UNL     1     -34.535   6.835   4.060  1.00 20.00     0.017 C 
ENDBRANCH   2   4
ENDBRANCH   1   2
BRANCH   1   7
HETATM    7  C10 UNL     1     -31.693   7.936   1.767  1.00 20.00    -0.012 C 
HETATM    8  C5  UNL     1     -31.448   8.681   3.083  1.00 20.00     0.010 C 
BRANCH   7   9
HETATM    9  C8  UNL     1     -31.352   8.812   0.542  1.00 20.00     0.004 C 
BRANCH   9  10
HETATM   10  C7  UNL     1     -32.546   9.509  -0.116  1.00 20.00    -0.004 C 
HETATM   11  C2  UNL     1     -32.748  10.906   0.451  1.00 20.00     0.005 C 
ENDBRANCH   9  10
ENDBRANCH   7   9
ENDBRANCH   1   7
TORSDOF 5
ENDMDL
MODEL 7
REMARK VINA RESULT:      -1.2      1.182      1.657
REMARK  5 active torsions:
REMARK  status: ('A' for Active; 'I' for Inactive)
REMARK    1  A    between atoms: C1_1  and  C6_6 
REMARK    2  A    between atoms: C1_1  and  C9_9 
REMARK    3  A    between atoms: C6_6  and  C10_10 
REMARK    4  A    between atoms: C7_7  and  C8_8 
REMARK    5  A    between atoms: C8_8  and  C10_10 
ROOT
HETATM    1  C6  UNL     1     -32.989   7.611   3.008  1.00 20.00     0.082 C 
ENDROOT
BRANCH   1   2
HETATM    2  C1  UNL     1     -32.158   7.683   1.732  1.00 20.00     0.130 C 
HETATM    3  O11 UNL     1     -31.657   6.679   1.225  1.00 20.00    -0.298 OA
BRANCH   2   4
HETATM    4  C9  UNL     1     -32.025   9.062   1.084  1.00 20.00     0.047 C 
HETATM    5  C3  UNL     1     -32.188   8.978  -0.431  1.00 20.00     0.017 C 
HETATM    6  C4  UNL     1     -33.047  10.022   1.685  1.00 20.00     0.017 C 
ENDBRANCH   2   4
ENDBRANCH   1   2
BRANCH   1   7
HETATM    7  C10 UNL     1     -34.028   6.476   3.003  1.00 20.00    -0.012 C 
HETATM    8  C5  UNL     1     -35.151   6.748   4.007  1.00 20.00     0.010 C 
BRANCH   7   9
HETATM    9  C8  UNL     1     -33.364   5.103   3.244  1.00 20.00     0.004 C 
BRANCH   9  10
HETATM   10  C7  UNL     1     -34.119   4.170   4.196  1.00 20.00    -0.004 C 
HETATM   11  C2  UNL     1     -33.231   3.030   4.669  1.00 20.00     0.005 C 
ENDBRANCH   9  10
ENDBRANCH   7   9
ENDBRANCH   1   7
TORSDOF 5
ENDMDL
MODEL 8
REMARK VINA RESULT:      -1.2      1.520      4.662
REMARK  5 active torsions:
REMARK  status: ('A' for Active; 'I' for Inactive)
REMARK    1  A    between atoms: C1_1  and  C6_6 
REMARK    2  A    between atoms: C1_1  and  C9_9 
REMARK    3  A    between atoms: C6_6  and  C10_10 
REMARK    4  A    between atoms: C7_7  and  C8_8 
REMARK    5  A    between atoms: C8_8  and  C10_10 
ROOT
HETATM    1  C6  UNL     1     -32.807   6.837   3.406  1.00 20.00     0.082 C 
ENDROOT
BRANCH   1   2
HETATM    2  C1  UNL     1     -34.063   7.297   4.140  1.00 20.00     0.130 C 
HETATM    3  O11 UNL     1     -34.160   8.429   4.614  1.00 20.00    -0.298 OA
BRANCH   2   4
HETATM    4  C9  UNL     1     -35.216   6.295   4.209  1.00 20.00     0.047 C 
HETATM    5  C3  UNL     1     -36.232   6.546   3.097  1.00 20.00     0.017 C 
HETATM    6  C4  UNL     1     -34.676   4.871   4.135  1.00 20.00     0.017 C 
ENDBRANCH   2   4
ENDBRANCH   1   2
BRANCH   1   7
HETATM    7  C10 UNL     1     -32.827   7.149   1.900  1.00 20.00    -0.012 C 
HETATM    8  C5  UNL     1     -32.627   5.878   1.068  1.00 20.00     0.010 C 
BRANCH   7   9
HETATM    9  C8  UNL     1     -31.794   8.238   1.537  1.00 20.00     0.004 C 
BRANCH   9  10
HETATM   10  C7  UNL     1     -32.028   8.939   0.195  1.00 20.00    -0.004 C 
HETATM   11  C2  UNL     1     -32.644  10.316   0.394  1.00 20.00     0.005 C 
ENDBRANCH   9  10
ENDBRANCH   7   9
ENDBRANCH   1   7
TORSDOF 5
ENDMDL
MODEL 9
REMARK VINA RESULT:      -1.1      2.066      4.647
REMARK  5 active torsions:
REMARK  status: ('A' for Active; 'I' for Inactive)
REMARK    1  A    between atoms: C1_1  and  C6_6 
REMARK    2  A    between atoms: C1_1  and  C9_9 
REMARK    3  A    between atoms: C6_6  and  C10_10 
REMARK    4  A    between atoms: C7_7  and  C8_8 
REMARK    5  A    between atoms: C8_8  and  C10_10 
ROOT
HETATM    1  C6  UNL     1     -32.795   5.536   2.986  1.00 20.00     0.082 C 
ENDROOT
BRANCH   1   2
HETATM    2  C1  UNL     1     -34.085   5.221   3.736  1.00 20.00     0.130 C 
HETATM    3  O11 UNL     1     -34.411   4.065   4.009  1.00 20.00    -0.298 OA
BRANCH   2   4
HETATM    4  C9  UNL     1     -34.924   6.419   4.180  1.00 20.00     0.047 C 
HETATM    5  C3  UNL     1     -34.054   7.657   4.384  1.00 20.00     0.017 C 
HETATM    6  C4  UNL     1     -36.024   6.694   3.160  1.00 20.00     0.017 C 
ENDBRANCH   2   4
ENDBRANCH   1   2
BRANCH   1   7
HETATM    7  C10 UNL     1     -33.024   6.250   1.642  1.00 20.00    -0.012 C 
HETATM    8  C5  UNL     1     -33.205   5.242   0.503  1.00 20.00     0.010 C 
BRANCH   7   9
HETATM    9  C8  UNL     1     -31.894   7.258   1.340  1.00 20.00     0.004 C 
BRANCH   9  10
HETATM   10  C7  UNL     1     -32.268   8.732   1.520  1.00 20.00    -0.004 C 
HETATM   11  C2  UNL     1     -32.303   9.458   0.184  1.00 20.00     0.005 C 
ENDBRANCH   9  10
ENDBRANCH   7   9
ENDBRANCH   1   7
TORSDOF 5
ENDMDL
