MODEL 1
REMARK VINA RESULT:      -0.3      0.000      0.000
REMARK  5 active torsions:
REMARK  status: ('A' for Active; 'I' for Inactive)
REMARK    1  A    between atoms: C1_1  and  C7_7 
REMARK    2  A    between atoms: C1_1  and  C11_11 
REMARK    3  A    between atoms: C7_7  and  C10_10 
REMARK    4  A    between atoms: C8_8  and  C9_9 
REMARK    5  A    between atoms: C9_9  and  C10_10 
ROOT
HETATM    1  C1  UNL     1     -33.531   6.314   2.416  1.00 20.00     0.134 C 
HETATM    2  O12 UNL     1     -33.055   5.261   1.987  1.00 20.00    -0.297 OA
ENDROOT
BRANCH   1   3
HETATM    3  C7  UNL     1     -33.192   7.651   1.758  1.00 20.00     0.083 C 
BRANCH   3   4
HETATM    4  C10 UNL     1     -31.678   7.918   1.652  1.00 20.00    -0.012 C 
HETATM    5  C3  UNL     1     -31.170   8.627   2.913  1.00 20.00     0.010 C 
BRANCH   4   6
HETATM    6  C9  UNL     1     -31.399   8.746   0.379  1.00 20.00     0.004 C 
BRANCH   6   7
HETATM    7  C8  UNL     1     -32.616   9.524  -0.127  1.00 20.00    -0.004 C 
HETATM    8  C2  UNL     1     -32.626  10.948   0.410  1.00 20.00     0.005 C 
ENDBRANCH   6   7
ENDBRANCH   4   6
ENDBRANCH   3   4
ENDBRANCH   1   3
BRANCH   1   9
HETATM    9  C11 UNL     1     -34.474   6.328   3.638  1.00 20.00     0.009 C 
HETATM   10  C4  UNL     1     -34.477   4.962   4.336  1.00 20.00     0.022 C 
HETATM   11  C5  UNL     1     -34.017   7.424   4.609  1.00 20.00     0.022 C 
HETATM   12  C6  UNL     1     -35.909   6.641   3.175  1.00 20.00     0.022 C 
ENDBRANCH   1   9
TORSDOF 5
ENDMDL
MODEL 2
REMARK VINA RESULT:      -0.3      0.033      1.254
REMARK  5 active torsions:
REMARK  status: ('A' for Active; 'I' for Inactive)
REMARK    1  A    between atoms: C1_1  and  C7_7 
REMARK    2  A    between atoms: C1_1  and  C11_11 
REMARK    3  A    between atoms: C7_7  and  C10_10 
REMARK    4  A    between atoms: C8_8  and  C9_9 
REMARK    5  A    between atoms: C9_9  and  C10_10 
ROOT
HETATM    1  C1  UNL     1     -33.529   6.326   2.410  1.00 20.00     0.134 C 
HETATM    2  O12 UNL     1     -33.045   5.268   2.004  1.00 20.00    -0.297 OA
ENDROOT
BRANCH   1   3
HETATM    3  C7  UNL     1     -33.191   7.653   1.733  1.00 20.00     0.083 C 
BRANCH   3   4
HETATM    4  C10 UNL     1     -31.677   7.921   1.626  1.00 20.00    -0.012 C 
HETATM    5  C3  UNL     1     -31.164   8.611   2.896  1.00 20.00     0.010 C 
BRANCH   4   6
HETATM    6  C9  UNL     1     -31.401   8.767   0.365  1.00 20.00     0.004 C 
BRANCH   6   7
HETATM    7  C8  UNL     1     -32.629   9.525  -0.147  1.00 20.00    -0.004 C 
HETATM    8  C2  UNL     1     -32.687  10.935   0.422  1.00 20.00     0.005 C 
ENDBRANCH   6   7
ENDBRANCH   4   6
ENDBRANCH   3   4
ENDBRANCH   1   3
BRANCH   1   9
HETATM    9  C11 UNL     1     -34.485   6.355   3.623  1.00 20.00     0.009 C 
HETATM   10  C4  UNL     1     -35.915   6.688   3.177  1.00 20.00     0.022 C 
HETATM   11  C5  UNL     1     -34.446   4.990   4.321  1.00 20.00     0.022 C 
HETATM   12  C6  UNL     1     -34.021   7.436   4.616  1.00 20.00     0.022 C 
ENDBRANCH   1   9
TORSDOF 5
ENDMDL
MODEL 3
REMARK VINA RESULT:      -0.3      0.062      1.248
REMARK  5 active torsions:
REMARK  status: ('A' for Active; 'I' for Inactive)
REMARK    1  A    between atoms: C1_1  and  C7_7 
REMARK    2  A    between atoms: C1_1  and  C11_11 
REMARK    3  A    between atoms: C7_7  and  C10_10 
REMARK    4  A    between atoms: C8_8  and  C9_9 
REMARK    5  A    between atoms: C9_9  and  C10_10 
ROOT
HETATM    1  C1  UNL     1     -33.527   6.352   2.430  1.00 20.00     0.134 C 
HETATM    2  O12 UNL     1     -33.045   5.285   2.044  1.00 20.00    -0.297 OA
ENDROOT
BRANCH   1   3
HETATM    3  C7  UNL     1     -33.187   7.664   1.725  1.00 20.00     0.083 C 
BRANCH   3   4
HETATM    4  C10 UNL     1     -31.673   7.935   1.624  1.00 20.00    -0.012 C 
HETATM    5  C3  UNL     1     -31.165   8.614   2.902  1.00 20.00     0.010 C 
BRANCH   4   6
HETATM    6  C9  UNL     1     -31.395   8.793   0.372  1.00 20.00     0.004 C 
BRANCH   6   7
HETATM    7  C8  UNL     1     -32.625   9.542  -0.145  1.00 20.00    -0.004 C 
HETATM    8  C2  UNL     1     -32.716  10.939   0.451  1.00 20.00     0.005 C 
ENDBRANCH   6   7
ENDBRANCH   4   6
ENDBRANCH   3   4
ENDBRANCH   1   3
BRANCH   1   9
HETATM    9  C11 UNL     1     -34.480   6.409   3.644  1.00 20.00     0.009 C 
HETATM   10  C4  UNL     1     -34.010   7.466   4.652  1.00 20.00     0.022 C 
HETATM   11  C5  UNL     1     -35.896   6.732   3.150  1.00 20.00     0.022 C 
HETATM   12  C6  UNL     1     -34.498   5.039   4.346  1.00 20.00     0.022 C 
ENDBRANCH   1   9
TORSDOF 5
ENDMDL
MODEL 4
REMARK VINA RESULT:       0.2      1.178      5.014
REMARK  5 active torsions:
REMARK  status: ('A' for Active; 'I' for Inactive)
REMARK    1  A    between atoms: C1_1  and  C7_7 
REMARK    2  A    between atoms: C1_1  and  C11_11 
REMARK    3  A    between atoms: C7_7  and  C10_10 
REMARK    4  A    between atoms: C8_8  and  C9_9 
REMARK    5  A    between atoms: C9_9  and  C10_10 
ROOT
HETATM    1  C1  UNL     1     -32.786   6.764   1.533  1.00 20.00     0.134 C 
HETATM    2  O12 UNL     1     -33.246   6.240   0.515  1.00 20.00    -0.297 OA
ENDROOT
BRANCH   1   3
HETATM    3  C7  UNL     1     -32.934   6.089   2.895  1.00 20.00     0.083 C 
BRANCH   3   4
HETATM    4  C10 UNL     1     -34.357   6.183   3.478  1.00 20.00    -0.012 C 
HETATM    5  C3  UNL     1     -34.500   7.441   4.343  1.00 20.00     0.010 C 
BRANCH   4   6
HETATM    6  C9  UNL     1     -34.661   4.899   4.280  1.00 20.00     0.004 C 
BRANCH   6   7
HETATM    7  C8  UNL     1     -33.797   3.703   3.875  1.00 20.00    -0.004 C 
HETATM    8  C2  UNL     1     -33.113   3.079   5.082  1.00 20.00     0.005 C 
ENDBRANCH   6   7
ENDBRANCH   4   6
ENDBRANCH   3   4
ENDBRANCH   1   3
BRANCH   1   9
HETATM    9  C11 UNL     1     -32.056   8.123   1.474  1.00 20.00     0.009 C 
HETATM   10  C4  UNL     1     -33.062   9.273   1.341  1.00 20.00     0.022 C 
HETATM   11  C5  UNL     1     -31.214   8.292   2.744  1.00 20.00     0.022 C 
HETATM   12  C6  UNL     1     -31.121   8.150   0.251  1.00 20.00     0.022 C 
ENDBRANCH   1   9
TORSDOF 5
ENDMDL
MODEL 5
REMARK VINA RESULT:       0.2      1.182      4.976
REMARK  5 active torsions:
REMARK  status: ('A' for Active; 'I' for Inactive)
REMARK    1  A    between atoms: C1_1  and  C7_7 
REMARK    2  A    between atoms: C1_1  and  C11_11 
REMARK    3  A    between atoms: C7_7  and  C10_10 
REMARK    4  A    between atoms: C8_8  and  C9_9 
REMARK    5  A    between atoms: C9_9  and  C10_10 
ROOT
HETATM    1  C1  UNL     1     -32.850   6.815   1.494  1.00 20.00     0.134 C 
HETATM    2  O12 UNL     1     -33.380   6.362   0.476  1.00 20.00    -0.297 OA
ENDROOT
BRANCH   1   3
HETATM    3  C7  UNL     1     -32.963   6.079   2.828  1.00 20.00     0.083 C 
BRANCH   3   4
HETATM    4  C10 UNL     1     -34.355   6.193   3.478  1.00 20.00    -0.012 C 
HETATM    5  C3  UNL     1     -34.438   7.452   4.349  1.00 20.00     0.010 C 
BRANCH   4   6
HETATM    6  C9  UNL     1     -34.639   4.914   4.294  1.00 20.00     0.004 C 
BRANCH   6   7
HETATM    7  C8  UNL     1     -33.778   3.718   3.880  1.00 20.00    -0.004 C 
HETATM    8  C2  UNL     1     -33.139   3.049   5.088  1.00 20.00     0.005 C 
ENDBRANCH   6   7
ENDBRANCH   4   6
ENDBRANCH   3   4
ENDBRANCH   1   3
BRANCH   1   9
HETATM    9  C11 UNL     1     -32.065   8.144   1.464  1.00 20.00     0.009 C 
HETATM   10  C4  UNL     1     -31.270   8.332   2.763  1.00 20.00     0.022 C 
HETATM   11  C5  UNL     1     -31.121   8.138   0.255  1.00 20.00     0.022 C 
HETATM   12  C6  UNL     1     -33.050   9.318   1.321  1.00 20.00     0.022 C 
ENDBRANCH   1   9
TORSDOF 5
ENDMDL
MODEL 6
REMARK VINA RESULT:       0.5      1.204      1.640
REMARK  5 active torsions:
REMARK  status: ('A' for Active; 'I' for Inactive)
REMARK    1  A    between atoms: C1_1  and  C7_7 
REMARK    2  A    between atoms: C1_1  and  C11_11 
REMARK    3  A    between atoms: C7_7  and  C10_10 
REMARK    4  A    between atoms: C8_8  and  C9_9 
REMARK    5  A    between atoms: C9_9  and  C10_10 
ROOT
HETATM    1  C1  UNL     1     -33.846   5.648   2.868  1.00 20.00     0.134 C 
HETATM    2  O12 UNL     1     -33.187   4.678   3.249  1.00 20.00    -0.297 OA
ENDROOT
BRANCH   1   3
HETATM    3  C7  UNL     1     -33.696   6.187   1.447  1.00 20.00     0.083 C 
BRANCH   3   4
HETATM    4  C10 UNL     1     -32.233   6.442   1.036  1.00 20.00    -0.012 C 
HETATM    5  C3  UNL     1     -31.372   5.208   1.331  1.00 20.00     0.010 C 
BRANCH   4   6
HETATM    6  C9  UNL     1     -31.711   7.693   1.774  1.00 20.00     0.004 C 
BRANCH   6   7
HETATM    7  C8  UNL     1     -32.545   8.950   1.517  1.00 20.00    -0.004 C 
HETATM    8  C2  UNL     1     -32.221   9.564   0.164  1.00 20.00     0.005 C 
ENDBRANCH   6   7
ENDBRANCH   4   6
ENDBRANCH   3   4
ENDBRANCH   1   3
BRANCH   1   9
HETATM    9  C11 UNL     1     -34.838   6.363   3.812  1.00 20.00     0.009 C 
HETATM   10  C4  UNL     1     -35.428   5.375   4.827  1.00 20.00     0.022 C 
HETATM   11  C5  UNL     1     -34.106   7.500   4.535  1.00 20.00     0.022 C 
HETATM   12  C6  UNL     1     -35.992   6.960   2.986  1.00 20.00     0.022 C 
ENDBRANCH   1   9
TORSDOF 5
ENDMDL
MODEL 7
REMARK VINA RESULT:       0.5      1.218      2.088
REMARK  5 active torsions:
REMARK  status: ('A' for Active; 'I' for Inactive)
REMARK    1  A    between atoms: C1_1  and  C7_7 
REMARK    2  A    between atoms: C1_1  and  C11_11 
REMARK    3  A    between atoms: C7_7  and  C10_10 
REMARK    4  A    between atoms: C8_8  and  C9_9 
REMARK    5  A    between atoms: C9_9  and  C10_10 
ROOT
HETATM    1  C1  UNL     1     -33.852   5.625   2.874  1.00 20.00     0.134 C 
HETATM    2  O12 UNL     1     -33.197   4.663   3.281  1.00 20.00    -0.297 OA
ENDROOT
BRANCH   1   3
HETATM    3  C7  UNL     1     -33.695   6.129   1.441  1.00 20.00     0.083 C 
BRANCH   3   4
HETATM    4  C10 UNL     1     -32.231   6.391   1.037  1.00 20.00    -0.012 C 
HETATM    5  C3  UNL     1     -31.367   5.157   1.324  1.00 20.00     0.010 C 
BRANCH   4   6
HETATM    6  C9  UNL     1     -31.714   7.637   1.788  1.00 20.00     0.004 C 
BRANCH   6   7
HETATM    7  C8  UNL     1     -32.544   8.897   1.531  1.00 20.00    -0.004 C 
HETATM    8  C2  UNL     1     -32.203   9.521   0.186  1.00 20.00     0.005 C 
ENDBRANCH   6   7
ENDBRANCH   4   6
ENDBRANCH   3   4
ENDBRANCH   1   3
BRANCH   1   9
HETATM    9  C11 UNL     1     -34.845   6.365   3.796  1.00 20.00     0.009 C 
HETATM   10  C4  UNL     1     -35.981   6.992   2.977  1.00 20.00     0.022 C 
HETATM   11  C5  UNL     1     -35.409   5.372   4.820  1.00 20.00     0.022 C 
HETATM   12  C6  UNL     1     -34.108   7.489   4.547  1.00 20.00     0.022 C 
ENDBRANCH   1   9
TORSDOF 5
ENDMDL
MODEL 8
REMARK VINA RESULT:       0.7      1.719      5.207
REMARK  5 active torsions:
REMARK  status: ('A' for Active; 'I' for Inactive)
REMARK    1  A    between atoms: C1_1  and  C7_7 
REMARK    2  A    between atoms: C1_1  and  C11_11 
REMARK    3  A    between atoms: C7_7  and  C10_10 
REMARK    4  A    between atoms: C8_8  and  C9_9 
REMARK    5  A    between atoms: C9_9  and  C10_10 
ROOT
HETATM    1  C1  UNL     1     -33.375   8.251   2.746  1.00 20.00     0.134 C 
HETATM    2  O12 UNL     1     -34.227   9.131   2.605  1.00 20.00    -0.297 OA
ENDROOT
BRANCH   1   3
HETATM    3  C7  UNL     1     -33.511   7.198   3.845  1.00 20.00     0.083 C 
BRANCH   3   4
HETATM    4  C10 UNL     1     -34.402   6.005   3.448  1.00 20.00    -0.012 C 
HETATM    5  C3  UNL     1     -35.597   5.889   4.402  1.00 20.00     0.010 C 
BRANCH   4   6
HETATM    6  C9  UNL     1     -33.550   4.718   3.439  1.00 20.00     0.004 C 
BRANCH   6   7
HETATM    7  C8  UNL     1     -34.007   3.673   4.459  1.00 20.00    -0.004 C 
HETATM    8  C2  UNL     1     -32.838   2.836   4.958  1.00 20.00     0.005 C 
ENDBRANCH   6   7
ENDBRANCH   4   6
ENDBRANCH   3   4
ENDBRANCH   1   3
BRANCH   1   9
HETATM    9  C11 UNL     1     -32.135   8.183   1.829  1.00 20.00     0.009 C 
HETATM   10  C4  UNL     1     -30.855   8.468   2.626  1.00 20.00     0.022 C 
HETATM   11  C5  UNL     1     -32.066   6.792   1.186  1.00 20.00     0.022 C 
HETATM   12  C6  UNL     1     -32.261   9.240   0.716  1.00 20.00     0.022 C 
ENDBRANCH   1   9
TORSDOF 5
ENDMDL
MODEL 9
REMARK VINA RESULT:       0.7      1.493      4.961
REMARK  5 active torsions:
REMARK  status: ('A' for Active; 'I' for Inactive)
REMARK    1  A    between atoms: C1_1  and  C7_7 
REMARK    2  A    between atoms: C1_1  and  C11_11 
REMARK    3  A    between atoms: C7_7  and  C10_10 
REMARK    4  A    between atoms: C8_8  and  C9_9 
REMARK    5  A    between atoms: C9_9  and  C10_10 
ROOT
HETATM    1  C1  UNL     1     -32.054   8.235   2.142  1.00 20.00     0.134 C 
HETATM    2  O12 UNL     1     -31.242   8.656   2.970  1.00 20.00    -0.297 OA
ENDROOT
BRANCH   1   3
HETATM    3  C7  UNL     1     -32.917   7.012   2.445  1.00 20.00     0.083 C 
BRANCH   3   4
HETATM    4  C10 UNL     1     -34.061   7.296   3.438  1.00 20.00    -0.012 C 
HETATM    5  C3  UNL     1     -33.528   8.036   4.671  1.00 20.00     0.010 C 
BRANCH   4   6
HETATM    6  C9  UNL     1     -34.742   5.965   3.820  1.00 20.00     0.004 C 
BRANCH   6   7
HETATM    7  C8  UNL     1     -33.947   4.726   3.402  1.00 20.00    -0.004 C 
HETATM    8  C2  UNL     1     -33.849   3.719   4.538  1.00 20.00     0.005 C 
ENDBRANCH   6   7
ENDBRANCH   4   6
ENDBRANCH   3   4
ENDBRANCH   1   3
BRANCH   1   9
HETATM    9  C11 UNL     1     -32.221   8.916   0.767  1.00 20.00     0.009 C 
HETATM   10  C4  UNL     1     -33.138   8.085  -0.141  1.00 20.00     0.022 C 
HETATM   11  C5  UNL     1     -32.803  10.320   0.974  1.00 20.00     0.022 C 
HETATM   12  C6  UNL     1     -30.846   9.043   0.086  1.00 20.00     0.022 C 
ENDBRANCH   1   9
TORSDOF 5
ENDMDL
