MODEL 1
REMARK VINA RESULT:      -2.2      0.000      0.000
REMARK  6 active torsions:
REMARK  status: ('A' for Active; 'I' for Inactive)
REMARK    1  A    between atoms: C1_1  and  C6_6 
REMARK    2  A    between atoms: C1_1  and  C7_7 
REMARK    3  A    between atoms: C6_6  and  C10_10 
REMARK    4  A    between atoms: C7_7  and  C11_11 
REMARK    5  A    between atoms: C8_8  and  C9_9 
REMARK    6  A    between atoms: C9_9  and  C11_11 
ROOT
HETATM    1  C1  UNL     1     -32.264   7.398   1.932  1.00 20.00     0.127 C 
HETATM    2  O12 UNL     1     -31.958   6.384   1.304  1.00 20.00    -0.298 OA
ENDROOT
BRANCH   1   3
HETATM    3  C6  UNL     1     -31.737   8.758   1.510  1.00 20.00     0.082 C 
BRANCH   3   4
HETATM    4  C10 UNL     1     -32.696   9.504   0.573  1.00 20.00    -0.016 C 
HETATM    5  C3  UNL     1     -32.315   9.306  -0.895  1.00 20.00     0.010 C 
HETATM    6  C4  UNL     1     -32.701  10.997   0.914  1.00 20.00     0.010 C 
ENDBRANCH   3   4
ENDBRANCH   1   3
BRANCH   1   7
HETATM    7  C7  UNL     1     -33.208   7.362   3.125  1.00 20.00     0.082 C 
BRANCH   7   8
HETATM    8  C11 UNL     1     -34.202   6.188   3.080  1.00 20.00    -0.012 C 
HETATM    9  C5  UNL     1     -35.283   6.358   4.156  1.00 20.00     0.010 C 
BRANCH   8  10
HETATM   10  C9  UNL     1     -33.498   4.830   3.287  1.00 20.00     0.004 C 
BRANCH  10  11
HETATM   11  C8  UNL     1     -34.090   4.000   4.432  1.00 20.00    -0.004 C 
HETATM   12  C2  UNL     1     -33.175   2.846   4.809  1.00 20.00     0.005 C 
ENDBRANCH  10  11
ENDBRANCH   8  10
ENDBRANCH   7   8
ENDBRANCH   1   7
TORSDOF 6
ENDMDL
MODEL 2
REMARK VINA RESULT:      -1.8      1.013      1.437
REMARK  6 active torsions:
REMARK  status: ('A' for Active; 'I' for Inactive)
REMARK    1  A    between atoms: C1_1  and  C6_6 
REMARK    2  A    between atoms: C1_1  and  C7_7 
REMARK    3  A    between atoms: C6_6  and  C10_10 
REMARK    4  A    between atoms: C7_7  and  C11_11 
REMARK    5  A    between atoms: C8_8  and  C9_9 
REMARK    6  A    between atoms: C9_9  and  C11_11 
ROOT
HETATM    1  C1  UNL     1     -32.284   8.145   2.793  1.00 20.00     0.127 C 
HETATM    2  O12 UNL     1     -31.156   8.450   3.179  1.00 20.00    -0.298 OA
ENDROOT
BRANCH   1   3
HETATM    3  C6  UNL     1     -32.627   8.162   1.314  1.00 20.00     0.082 C 
BRANCH   3   4
HETATM    4  C10 UNL     1     -32.148   9.435   0.606  1.00 20.00    -0.016 C 
HETATM    5  C3  UNL     1     -32.899  10.672   1.104  1.00 20.00     0.010 C 
HETATM    6  C4  UNL     1     -32.329   9.290  -0.907  1.00 20.00     0.010 C 
ENDBRANCH   3   4
ENDBRANCH   1   3
BRANCH   1   7
HETATM    7  C7  UNL     1     -33.379   7.696   3.751  1.00 20.00     0.082 C 
BRANCH   7   8
HETATM    8  C11 UNL     1     -34.162   6.470   3.249  1.00 20.00    -0.012 C 
HETATM    9  C5  UNL     1     -35.471   6.311   4.035  1.00 20.00     0.010 C 
BRANCH   8  10
HETATM   10  C9  UNL     1     -33.340   5.169   3.376  1.00 20.00     0.004 C 
BRANCH  10  11
HETATM   11  C8  UNL     1     -34.087   4.039   4.092  1.00 20.00    -0.004 C 
HETATM   12  C2  UNL     1     -33.119   3.042   4.710  1.00 20.00     0.005 C 
ENDBRANCH  10  11
ENDBRANCH   8  10
ENDBRANCH   7   8
ENDBRANCH   1   7
TORSDOF 6
ENDMDL
MODEL 3
REMARK VINA RESULT:      -1.4      1.400      5.311
REMARK  6 active torsions:
REMARK  status: ('A' for Active; 'I' for Inactive)
REMARK    1  A    between atoms: C1_1  and  C6_6 
REMARK    2  A    between atoms: C1_1  and  C7_7 
REMARK    3  A    between atoms: C6_6  and  C10_10 
REMARK    4  A    between atoms: C7_7  and  C11_11 
REMARK    5  A    between atoms: C8_8  and  C9_9 
REMARK    6  A    between atoms: C9_9  and  C11_11 
ROOT
HETATM    1  C1  UNL     1     -32.911   5.818   1.755  1.00 20.00     0.127 C 
HETATM    2  O12 UNL     1     -32.505   4.942   0.991  1.00 20.00    -0.298 OA
ENDROOT
BRANCH   1   3
HETATM    3  C6  UNL     1     -33.400   5.464   3.148  1.00 20.00     0.082 C 
BRANCH   3   4
HETATM    4  C10 UNL     1     -34.594   6.316   3.595  1.00 20.00    -0.016 C 
HETATM    5  C3  UNL     1     -34.144   7.540   4.396  1.00 20.00     0.010 C 
HETATM    6  C4  UNL     1     -35.554   5.469   4.434  1.00 20.00     0.010 C 
ENDBRANCH   3   4
ENDBRANCH   1   3
BRANCH   1   7
HETATM    7  C7  UNL     1     -32.909   7.292   1.377  1.00 20.00     0.082 C 
BRANCH   7   8
HETATM    8  C11 UNL     1     -31.515   7.941   1.461  1.00 20.00    -0.012 C 
HETATM    9  C5  UNL     1     -31.333   8.646   2.811  1.00 20.00     0.010 C 
BRANCH   8  10
HETATM   10  C9  UNL     1     -31.286   8.963   0.326  1.00 20.00     0.004 C 
BRANCH  10  11
HETATM   11  C8  UNL     1     -32.579   9.590  -0.204  1.00 20.00    -0.004 C 
HETATM   12  C2  UNL     1     -32.875  10.913   0.485  1.00 20.00     0.005 C 
ENDBRANCH  10  11
ENDBRANCH   8  10
ENDBRANCH   7   8
ENDBRANCH   1   7
TORSDOF 6
ENDMDL
MODEL 4
REMARK VINA RESULT:      -1.4      1.146      2.758
REMARK  6 active torsions:
REMARK  status: ('A' for Active; 'I' for Inactive)
REMARK    1  A    between atoms: C1_1  and  C6_6 
REMARK    2  A    between atoms: C1_1  and  C7_7 
REMARK    3  A    between atoms: C6_6  and  C10_10 
REMARK    4  A    between atoms: C7_7  and  C11_11 
REMARK    5  A    between atoms: C8_8  and  C9_9 
REMARK    6  A    between atoms: C9_9  and  C11_11 
ROOT
HETATM    1  C1  UNL     1     -32.578   5.627   1.670  1.00 20.00     0.127 C 
HETATM    2  O12 UNL     1     -31.435   5.270   1.386  1.00 20.00    -0.298 OA
ENDROOT
BRANCH   1   3
HETATM    3  C6  UNL     1     -33.028   7.056   1.422  1.00 20.00     0.082 C 
BRANCH   3   4
HETATM    4  C10 UNL     1     -31.861   8.051   1.392  1.00 20.00    -0.016 C 
HETATM    5  C3  UNL     1     -31.456   8.485   2.802  1.00 20.00     0.010 C 
HETATM    6  C4  UNL     1     -32.242   9.277   0.559  1.00 20.00     0.010 C 
ENDBRANCH   3   4
ENDBRANCH   1   3
BRANCH   1   7
HETATM    7  C7  UNL     1     -33.612   4.666   2.240  1.00 20.00     0.082 C 
BRANCH   7   8
HETATM    8  C11 UNL     1     -33.665   4.671   3.778  1.00 20.00    -0.012 C 
HETATM    9  C5  UNL     1     -33.402   3.262   4.328  1.00 20.00     0.010 C 
BRANCH   8  10
HETATM   10  C9  UNL     1     -35.028   5.168   4.306  1.00 20.00     0.004 C 
BRANCH  10  11
HETATM   11  C8  UNL     1     -35.324   6.630   3.958  1.00 20.00    -0.004 C 
HETATM   12  C2  UNL     1     -34.255   7.558   4.516  1.00 20.00     0.005 C 
ENDBRANCH  10  11
ENDBRANCH   8  10
ENDBRANCH   7   8
ENDBRANCH   1   7
TORSDOF 6
ENDMDL
MODEL 5
REMARK VINA RESULT:      -1.2      1.565      5.627
REMARK  6 active torsions:
REMARK  status: ('A' for Active; 'I' for Inactive)
REMARK    1  A    between atoms: C1_1  and  C6_6 
REMARK    2  A    between atoms: C1_1  and  C7_7 
REMARK    3  A    between atoms: C6_6  and  C10_10 
REMARK    4  A    between atoms: C7_7  and  C11_11 
REMARK    5  A    between atoms: C8_8  and  C9_9 
REMARK    6  A    between atoms: C9_9  and  C11_11 
ROOT
HETATM    1  C1  UNL     1     -33.526   7.561   3.809  1.00 20.00     0.127 C 
HETATM    2  O12 UNL     1     -33.925   8.138   4.820  1.00 20.00    -0.298 OA
ENDROOT
BRANCH   1   3
HETATM    3  C6  UNL     1     -34.231   6.317   3.298  1.00 20.00     0.082 C 
BRANCH   3   4
HETATM    4  C10 UNL     1     -34.314   5.205   4.351  1.00 20.00    -0.016 C 
HETATM    5  C3  UNL     1     -33.751   3.885   3.820  1.00 20.00     0.010 C 
HETATM    6  C4  UNL     1     -35.767   5.012   4.791  1.00 20.00     0.010 C 
ENDBRANCH   3   4
ENDBRANCH   1   3
BRANCH   1   7
HETATM    7  C7  UNL     1     -32.348   8.073   2.992  1.00 20.00     0.082 C 
BRANCH   7   8
HETATM    8  C11 UNL     1     -32.407   7.658   1.511  1.00 20.00    -0.012 C 
HETATM    9  C5  UNL     1     -31.881   6.228   1.334  1.00 20.00     0.010 C 
BRANCH   8  10
HETATM   10  C9  UNL     1     -31.586   8.610   0.614  1.00 20.00     0.004 C 
BRANCH  10  11
HETATM   11  C8  UNL     1     -32.448   9.568  -0.214  1.00 20.00    -0.004 C 
HETATM   12  C2  UNL     1     -32.791  10.823   0.573  1.00 20.00     0.005 C 
ENDBRANCH  10  11
ENDBRANCH   8  10
ENDBRANCH   7   8
ENDBRANCH   1   7
TORSDOF 6
ENDMDL
MODEL 6
REMARK VINA RESULT:      -1.1      2.336      5.657
REMARK  6 active torsions:
REMARK  status: ('A' for Active; 'I' for Inactive)
REMARK    1  A    between atoms: C1_1  and  C6_6 
REMARK    2  A    between atoms: C1_1  and  C7_7 
REMARK    3  A    between atoms: C6_6  and  C10_10 
REMARK    4  A    between atoms: C7_7  and  C11_11 
REMARK    5  A    between atoms: C8_8  and  C9_9 
REMARK    6  A    between atoms: C9_9  and  C11_11 
ROOT
HETATM    1  C1  UNL     1     -34.886   5.200   4.233  1.00 20.00     0.127 C 
HETATM    2  O12 UNL     1     -35.864   4.785   4.854  1.00 20.00    -0.298 OA
ENDROOT
BRANCH   1   3
HETATM    3  C6  UNL     1     -33.697   4.295   3.964  1.00 20.00     0.082 C 
BRANCH   3   4
HETATM    4  C10 UNL     1     -33.528   3.202   5.027  1.00 20.00    -0.016 C 
HETATM    5  C3  UNL     1     -32.388   3.529   5.993  1.00 20.00     0.010 C 
HETATM    6  C4  UNL     1     -33.269   1.853   4.352  1.00 20.00     0.010 C 
ENDBRANCH   3   4
ENDBRANCH   1   3
BRANCH   1   7
HETATM    7  C7  UNL     1     -34.823   6.611   3.664  1.00 20.00     0.082 C 
BRANCH   7   8
HETATM    8  C11 UNL     1     -33.414   7.228   3.720  1.00 20.00    -0.012 C 
HETATM    9  C5  UNL     1     -33.328   8.270   4.843  1.00 20.00     0.010 C 
BRANCH   8  10
HETATM   10  C9  UNL     1     -33.026   7.898   2.384  1.00 20.00     0.004 C 
BRANCH  10  11
HETATM   11  C8  UNL     1     -31.830   7.236   1.691  1.00 20.00    -0.004 C 
HETATM   12  C2  UNL     1     -32.178   5.837   1.205  1.00 20.00     0.005 C 
ENDBRANCH  10  11
ENDBRANCH   8  10
ENDBRANCH   7   8
ENDBRANCH   1   7
TORSDOF 6
ENDMDL
MODEL 7
REMARK VINA RESULT:      -1.0      1.241      2.655
REMARK  6 active torsions:
REMARK  status: ('A' for Active; 'I' for Inactive)
REMARK    1  A    between atoms: C1_1  and  C6_6 
REMARK    2  A    between atoms: C1_1  and  C7_7 
REMARK    3  A    between atoms: C6_6  and  C10_10 
REMARK    4  A    between atoms: C7_7  and  C11_11 
REMARK    5  A    between atoms: C8_8  and  C9_9 
REMARK    6  A    between atoms: C9_9  and  C11_11 
ROOT
HETATM    1  C1  UNL     1     -32.280   5.812   1.455  1.00 20.00     0.127 C 
HETATM    2  O12 UNL     1     -31.291   5.112   1.671  1.00 20.00    -0.298 OA
ENDROOT
BRANCH   1   3
HETATM    3  C6  UNL     1     -32.169   7.073   0.617  1.00 20.00     0.082 C 
BRANCH   3   4
HETATM    4  C10 UNL     1     -32.342   8.355   1.441  1.00 20.00    -0.016 C 
HETATM    5  C3  UNL     1     -32.350   9.599   0.551  1.00 20.00     0.010 C 
HETATM    6  C4  UNL     1     -31.222   8.463   2.478  1.00 20.00     0.010 C 
ENDBRANCH   3   4
ENDBRANCH   1   3
BRANCH   1   7
HETATM    7  C7  UNL     1     -33.665   5.444   1.970  1.00 20.00     0.082 C 
BRANCH   7   8
HETATM    8  C11 UNL     1     -33.758   5.422   3.506  1.00 20.00    -0.012 C 
HETATM    9  C5  UNL     1     -33.958   3.987   4.011  1.00 20.00     0.010 C 
BRANCH   8  10
HETATM   10  C9  UNL     1     -34.916   6.302   4.025  1.00 20.00     0.004 C 
BRANCH  10  11
HETATM   11  C8  UNL     1     -34.573   7.794   4.086  1.00 20.00    -0.004 C 
HETATM   12  C2  UNL     1     -33.434   8.059   5.058  1.00 20.00     0.005 C 
ENDBRANCH  10  11
ENDBRANCH   8  10
ENDBRANCH   7   8
ENDBRANCH   1   7
TORSDOF 6
ENDMDL
MODEL 8
REMARK VINA RESULT:      -0.9      1.628      5.816
REMARK  6 active torsions:
REMARK  status: ('A' for Active; 'I' for Inactive)
REMARK    1  A    between atoms: C1_1  and  C6_6 
REMARK    2  A    between atoms: C1_1  and  C7_7 
REMARK    3  A    between atoms: C6_6  and  C10_10 
REMARK    4  A    between atoms: C7_7  and  C11_11 
REMARK    5  A    between atoms: C8_8  and  C9_9 
REMARK    6  A    between atoms: C9_9  and  C11_11 
ROOT
HETATM    1  C1  UNL     1     -34.751   5.946   3.924  1.00 20.00     0.127 C 
HETATM    2  O12 UNL     1     -35.809   6.470   3.574  1.00 20.00    -0.298 OA
ENDROOT
BRANCH   1   3
HETATM    3  C6  UNL     1     -34.745   4.581   4.588  1.00 20.00     0.082 C 
BRANCH   3   4
HETATM    4  C10 UNL     1     -33.382   3.882   4.502  1.00 20.00    -0.016 C 
HETATM    5  C3  UNL     1     -33.447   2.630   3.625  1.00 20.00     0.010 C 
HETATM    6  C4  UNL     1     -32.897   3.510   5.905  1.00 20.00     0.010 C 
ENDBRANCH   3   4
ENDBRANCH   1   3
BRANCH   1   7
HETATM    7  C7  UNL     1     -33.399   6.601   3.679  1.00 20.00     0.082 C 
BRANCH   7   8
HETATM    8  C11 UNL     1     -33.164   6.980   2.206  1.00 20.00    -0.012 C 
HETATM    9  C5  UNL     1     -32.687   5.760   1.407  1.00 20.00     0.010 C 
BRANCH   8  10
HETATM   10  C9  UNL     1     -32.124   8.112   2.061  1.00 20.00     0.004 C 
BRANCH  10  11
HETATM   11  C8  UNL     1     -31.927   8.584   0.617  1.00 20.00    -0.004 C 
HETATM   12  C2  UNL     1     -32.544   9.957   0.396  1.00 20.00     0.005 C 
ENDBRANCH  10  11
ENDBRANCH   8  10
ENDBRANCH   7   8
ENDBRANCH   1   7
TORSDOF 6
ENDMDL
MODEL 9
REMARK VINA RESULT:      -0.9      1.644      2.119
REMARK  6 active torsions:
REMARK  status: ('A' for Active; 'I' for Inactive)
REMARK    1  A    between atoms: C1_1  and  C6_6 
REMARK    2  A    between atoms: C1_1  and  C7_7 
REMARK    3  A    between atoms: C6_6  and  C10_10 
REMARK    4  A    between atoms: C7_7  and  C11_11 
REMARK    5  A    between atoms: C8_8  and  C9_9 
REMARK    6  A    between atoms: C9_9  and  C11_11 
ROOT
HETATM    1  C1  UNL     1     -33.352   7.782   4.034  1.00 20.00     0.127 C 
HETATM    2  O12 UNL     1     -33.250   7.901   5.255  1.00 20.00    -0.298 OA
ENDROOT
BRANCH   1   3
HETATM    3  C6  UNL     1     -32.183   8.109   3.123  1.00 20.00     0.082 C 
BRANCH   3   4
HETATM    4  C10 UNL     1     -32.492   7.853   1.643  1.00 20.00    -0.016 C 
HETATM    5  C3  UNL     1     -31.806   6.582   1.137  1.00 20.00     0.010 C 
HETATM    6  C4  UNL     1     -32.049   9.053   0.803  1.00 20.00     0.010 C 
ENDBRANCH   3   4
ENDBRANCH   1   3
BRANCH   1   7
HETATM    7  C7  UNL     1     -34.622   7.265   3.372  1.00 20.00     0.082 C 
BRANCH   7   8
HETATM    8  C11 UNL     1     -34.834   5.752   3.560  1.00 20.00    -0.012 C 
HETATM    9  C5  UNL     1     -35.703   5.482   4.796  1.00 20.00     0.010 C 
BRANCH   8  10
HETATM   10  C9  UNL     1     -33.496   4.998   3.713  1.00 20.00     0.004 C 
BRANCH  10  11
HETATM   11  C8  UNL     1     -33.664   3.500   3.988  1.00 20.00    -0.004 C 
HETATM   12  C2  UNL     1     -32.779   3.046   5.139  1.00 20.00     0.005 C 
ENDBRANCH  10  11
ENDBRANCH   8  10
ENDBRANCH   7   8
ENDBRANCH   1   7
TORSDOF 6
ENDMDL
