MODEL 1
REMARK VINA RESULT:      -0.8      0.000      0.000
REMARK  2 active torsions:
REMARK  status: ('A' for Active; 'I' for Inactive)
REMARK    1  A    between atoms: C1_1  and  C2_2 
REMARK    2  A    between atoms: C9_9  and  N10_10 
ROOT
HETATM    1  C1  UNL     1     -34.157   6.834   3.727  1.00 20.00     0.150 C 
HETATM    2  C3  UNL     1     -35.512   6.227   3.942  1.00 20.00     0.068 C 
HETATM    3  C4  UNL     1     -35.381   4.899   4.690  1.00 20.00     0.008 C 
HETATM    4  C5  UNL     1     -34.089   4.146   4.356  1.00 20.00     0.029 C 
HETATM    5  C6  UNL     1     -33.499   4.583   3.021  1.00 20.00     0.242 C 
HETATM    6  N10 UNL     1     -33.140   6.059   3.052  1.00 20.00    -0.038 N 
HETATM    7  H28 UNL     1     -32.251   6.118   3.541  1.00 20.00     0.286 HD
ENDROOT
BRANCH   6   8
HETATM    8  C9  UNL     1     -32.891   6.593   1.666  1.00 20.00     0.186 C 
HETATM    9  C7  UNL     1     -32.434   5.444   0.782  1.00 20.00     0.040 C 
HETATM   10  C8  UNL     1     -31.853   7.699   1.756  1.00 20.00     0.040 C 
ENDBRANCH   6   8
BRANCH   1  11
HETATM   11  C2  UNL     1     -33.813   8.035   4.219  1.00 20.00     0.291 C 
HETATM   12  O11 UNL     1     -33.005   8.376   5.124  1.00 20.00    -0.300 OA
ENDBRANCH   1  11
TORSDOF 2
ENDMDL
MODEL 2
REMARK VINA RESULT:      -0.4      2.090      3.148
REMARK  2 active torsions:
REMARK  status: ('A' for Active; 'I' for Inactive)
REMARK    1  A    between atoms: C1_1  and  C2_2 
REMARK    2  A    between atoms: C9_9  and  N10_10 
ROOT
HETATM    1  C1  UNL     1     -33.120   5.720   2.213  1.00 20.00     0.150 C 
HETATM    2  C3  UNL     1     -33.234   4.823   3.410  1.00 20.00     0.068 C 
HETATM    3  C4  UNL     1     -34.607   4.990   4.063  1.00 20.00     0.008 C 
HETATM    4  C5  UNL     1     -35.165   6.411   3.934  1.00 20.00     0.029 C 
HETATM    5  C6  UNL     1     -34.069   7.437   3.679  1.00 20.00     0.242 C 
HETATM    6  N10 UNL     1     -33.349   7.138   2.375  1.00 20.00    -0.038 N 
HETATM    7  H28 UNL     1     -33.950   7.497   1.637  1.00 20.00     0.286 HD
ENDROOT
BRANCH   6   8
HETATM    8  C9  UNL     1     -32.058   7.906   2.272  1.00 20.00     0.186 C 
HETATM    9  C7  UNL     1     -31.837   8.657   3.574  1.00 20.00     0.040 C 
HETATM   10  C8  UNL     1     -32.147   8.839   1.076  1.00 20.00     0.040 C 
ENDBRANCH   6   8
BRANCH   1  11
HETATM   11  C2  UNL     1     -32.906   5.252   0.973  1.00 20.00     0.291 C 
HETATM   12  O11 UNL     1     -31.913   4.683   0.445  1.00 20.00    -0.300 OA
ENDBRANCH   1  11
TORSDOF 2
ENDMDL
MODEL 3
REMARK VINA RESULT:       0.3      2.090      4.288
REMARK  2 active torsions:
REMARK  status: ('A' for Active; 'I' for Inactive)
REMARK    1  A    between atoms: C1_1  and  C2_2 
REMARK    2  A    between atoms: C9_9  and  N10_10 
ROOT
HETATM    1  C1  UNL     1     -32.764   6.011   1.715  1.00 20.00     0.150 C 
HETATM    2  C3  UNL     1     -32.913   7.226   0.848  1.00 20.00     0.068 C 
HETATM    3  C4  UNL     1     -32.133   8.398   1.445  1.00 20.00     0.008 C 
HETATM    4  C5  UNL     1     -32.091   8.373   2.976  1.00 20.00     0.029 C 
HETATM    5  C6  UNL     1     -33.224   7.545   3.568  1.00 20.00     0.242 C 
HETATM    6  N10 UNL     1     -33.124   6.099   3.113  1.00 20.00    -0.038 N 
HETATM    7  H28 UNL     1     -32.414   5.671   3.700  1.00 20.00     0.286 HD
ENDROOT
BRANCH   6   8
HETATM    8  C9  UNL     1     -34.400   5.348   3.386  1.00 20.00     0.186 C 
HETATM    9  C7  UNL     1     -35.382   6.294   4.057  1.00 20.00     0.040 C 
HETATM   10  C8  UNL     1     -34.074   4.144   4.255  1.00 20.00     0.040 C 
ENDBRANCH   6   8
BRANCH   1  11
HETATM   11  C2  UNL     1     -32.220   4.866   1.274  1.00 20.00     0.291 C 
HETATM   12  O11 UNL     1     -31.505   4.602   0.271  1.00 20.00    -0.300 OA
ENDBRANCH   1  11
TORSDOF 2
ENDMDL
MODEL 4
REMARK VINA RESULT:       0.8      0.457      1.146
REMARK  2 active torsions:
REMARK  status: ('A' for Active; 'I' for Inactive)
REMARK    1  A    between atoms: C1_1  and  C2_2 
REMARK    2  A    between atoms: C9_9  and  N10_10 
ROOT
HETATM    1  C1  UNL     1     -33.939   6.793   3.615  1.00 20.00     0.150 C 
HETATM    2  C3  UNL     1     -35.368   6.347   3.710  1.00 20.00     0.068 C 
HETATM    3  C4  UNL     1     -35.470   5.087   4.571  1.00 20.00     0.008 C 
HETATM    4  C5  UNL     1     -34.239   4.181   4.457  1.00 20.00     0.029 C 
HETATM    5  C6  UNL     1     -33.459   4.432   3.174  1.00 20.00     0.242 C 
HETATM    6  N10 UNL     1     -32.945   5.861   3.131  1.00 20.00    -0.038 N 
HETATM    7  H28 UNL     1     -32.115   5.876   3.719  1.00 20.00     0.286 HD
ENDROOT
BRANCH   6   8
HETATM    8  C9  UNL     1     -32.483   6.238   1.749  1.00 20.00     0.186 C 
HETATM    9  C7  UNL     1     -32.254   7.739   1.709  1.00 20.00     0.040 C 
HETATM   10  C8  UNL     1     -33.538   5.789   0.750  1.00 20.00     0.040 C 
ENDBRANCH   6   8
BRANCH   1  11
HETATM   11  C2  UNL     1     -33.522   7.993   4.048  1.00 20.00     0.291 C 
HETATM   12  O11 UNL     1     -32.963   8.357   5.117  1.00 20.00    -0.300 OA
ENDBRANCH   1  11
TORSDOF 2
ENDMDL
MODEL 5
REMARK VINA RESULT:       1.0      1.976      3.810
REMARK  2 active torsions:
REMARK  status: ('A' for Active; 'I' for Inactive)
REMARK    1  A    between atoms: C1_1  and  C2_2 
REMARK    2  A    between atoms: C9_9  and  N10_10 
ROOT
HETATM    1  C1  UNL     1     -32.549   7.837   1.842  1.00 20.00     0.150 C 
HETATM    2  C3  UNL     1     -31.213   7.153   1.851  1.00 20.00     0.068 C 
HETATM    3  C4  UNL     1     -31.283   5.852   1.050  1.00 20.00     0.008 C 
HETATM    4  C5  UNL     1     -32.654   5.172   1.127  1.00 20.00     0.029 C 
HETATM    5  C6  UNL     1     -33.446   5.614   2.350  1.00 20.00     0.242 C 
HETATM    6  N10 UNL     1     -33.711   7.110   2.303  1.00 20.00    -0.038 N 
HETATM    7  H28 UNL     1     -34.494   7.234   1.666  1.00 20.00     0.286 HD
ENDROOT
BRANCH   6   8
HETATM    8  C9  UNL     1     -34.173   7.628   3.639  1.00 20.00     0.186 C 
HETATM    9  C7  UNL     1     -32.951   7.888   4.504  1.00 20.00     0.040 C 
HETATM   10  C8  UNL     1     -35.109   6.602   4.257  1.00 20.00     0.040 C 
ENDBRANCH   6   8
BRANCH   1  11
HETATM   11  C2  UNL     1     -32.733   9.066   1.336  1.00 20.00     0.291 C 
HETATM   12  O11 UNL     1     -32.340   9.606   0.267  1.00 20.00    -0.300 OA
ENDBRANCH   1  11
TORSDOF 2
ENDMDL
MODEL 6
REMARK VINA RESULT:       1.2      1.795      3.945
REMARK  2 active torsions:
REMARK  status: ('A' for Active; 'I' for Inactive)
REMARK    1  A    between atoms: C1_1  and  C2_2 
REMARK    2  A    between atoms: C9_9  and  N10_10 
ROOT
HETATM    1  C1  UNL     1     -33.341   5.565   2.935  1.00 20.00     0.150 C 
HETATM    2  C3  UNL     1     -33.406   5.217   1.477  1.00 20.00     0.068 C 
HETATM    3  C4  UNL     1     -32.120   5.652   0.773  1.00 20.00     0.008 C 
HETATM    4  C5  UNL     1     -31.502   6.916   1.380  1.00 20.00     0.029 C 
HETATM    5  C6  UNL     1     -32.522   7.739   2.156  1.00 20.00     0.242 C 
HETATM    6  N10 UNL     1     -33.084   6.936   3.317  1.00 20.00    -0.038 N 
HETATM    7  H28 UNL     1     -32.384   6.984   4.053  1.00 20.00     0.286 HD
ENDROOT
BRANCH   6   8
HETATM    8  C9  UNL     1     -34.325   7.578   3.879  1.00 20.00     0.186 C 
HETATM    9  C7  UNL     1     -33.982   8.197   5.223  1.00 20.00     0.040 C 
HETATM   10  C8  UNL     1     -35.407   6.516   3.992  1.00 20.00     0.040 C 
ENDBRANCH   6   8
BRANCH   1  11
HETATM   11  C2  UNL     1     -33.415   4.642   3.906  1.00 20.00     0.291 C 
HETATM   12  O11 UNL     1     -33.942   3.498   3.945  1.00 20.00    -0.300 OA
ENDBRANCH   1  11
TORSDOF 2
ENDMDL
MODEL 7
REMARK VINA RESULT:       1.4      0.915      3.320
REMARK  2 active torsions:
REMARK  status: ('A' for Active; 'I' for Inactive)
REMARK    1  A    between atoms: C1_1  and  C2_2 
REMARK    2  A    between atoms: C9_9  and  N10_10 
ROOT
HETATM    1  C1  UNL     1     -33.359   7.299   3.433  1.00 20.00     0.150 C 
HETATM    2  C3  UNL     1     -31.976   7.670   2.983  1.00 20.00     0.068 C 
HETATM    3  C4  UNL     1     -31.891   7.633   1.457  1.00 20.00     0.008 C 
HETATM    4  C5  UNL     1     -32.797   6.567   0.831  1.00 20.00     0.029 C 
HETATM    5  C6  UNL     1     -33.157   5.466   1.820  1.00 20.00     0.242 C 
HETATM    6  N10 UNL     1     -33.921   6.039   3.002  1.00 20.00    -0.038 N 
HETATM    7  H28 UNL     1     -34.879   6.158   2.682  1.00 20.00     0.286 HD
ENDROOT
BRANCH   6   8
HETATM    8  C9  UNL     1     -33.982   5.060   4.144  1.00 20.00     0.186 C 
HETATM    9  C7  UNL     1     -33.500   3.707   3.646  1.00 20.00     0.040 C 
HETATM   10  C8  UNL     1     -35.410   5.009   4.660  1.00 20.00     0.040 C 
ENDBRANCH   6   8
BRANCH   1  11
HETATM   11  C2  UNL     1     -34.138   8.129   4.143  1.00 20.00     0.291 C 
HETATM   12  O11 UNL     1     -34.106   8.493   5.349  1.00 20.00    -0.300 OA
ENDBRANCH   1  11
TORSDOF 2
ENDMDL
MODEL 8
REMARK VINA RESULT:       1.9      1.815      3.261
REMARK  2 active torsions:
REMARK  status: ('A' for Active; 'I' for Inactive)
REMARK    1  A    between atoms: C1_1  and  C2_2 
REMARK    2  A    between atoms: C9_9  and  N10_10 
ROOT
HETATM    1  C1  UNL     1     -33.670   6.957   3.272  1.00 20.00     0.150 C 
HETATM    2  C3  UNL     1     -32.699   7.513   4.272  1.00 20.00     0.068 C 
HETATM    3  C4  UNL     1     -32.165   8.863   3.792  1.00 20.00     0.008 C 
HETATM    4  C5  UNL     1     -32.055   8.958   2.267  1.00 20.00     0.029 C 
HETATM    5  C6  UNL     1     -31.984   7.586   1.610  1.00 20.00     0.242 C 
HETATM    6  N10 UNL     1     -33.244   6.788   1.900  1.00 20.00    -0.038 N 
HETATM    7  H28 UNL     1     -33.948   7.136   1.255  1.00 20.00     0.286 HD
ENDROOT
BRANCH   6   8
HETATM    8  C9  UNL     1     -33.060   5.331   1.571  1.00 20.00     0.186 C 
HETATM    9  C7  UNL     1     -31.571   5.038   1.494  1.00 20.00     0.040 C 
HETATM   10  C8  UNL     1     -33.774   5.038   0.262  1.00 20.00     0.040 C 
ENDBRANCH   6   8
BRANCH   1  11
HETATM   11  C2  UNL     1     -34.952   6.696   3.572  1.00 20.00     0.291 C 
HETATM   12  O11 UNL     1     -35.490   5.788   4.260  1.00 20.00    -0.300 OA
ENDBRANCH   1  11
TORSDOF 2
ENDMDL
