MODEL 1
REMARK VINA RESULT:      -2.7      0.000      0.000
REMARK  4 active torsions:
REMARK  status: ('A' for Active; 'I' for Inactive)
REMARK    1  A    between atoms: C3_3  and  C8_8 
REMARK    2  A    between atoms: C3_3  and  O9_9 
REMARK    3  A    between atoms: C6_6  and  C7_7 
REMARK    4  A    between atoms: C7_7  and  C8_8 
ROOT
HETATM    1  C1  UNL     1     -35.371   6.536   3.633  1.00 20.00     0.041 A 
HETATM    2  C2  UNL     1     -34.331   5.512   3.998  1.00 20.00     0.041 A 
HETATM    3  C3  UNL     1     -33.908   6.869   3.505  1.00 20.00     0.061 A 
ENDROOT
BRANCH   3   4
HETATM    4  C8  UNL     1     -33.276   7.023   2.120  1.00 20.00     0.016 C 
HETATM    5  C5  UNL     1     -32.676   5.688   1.676  1.00 20.00     0.013 C 
BRANCH   4   6
HETATM    6  C7  UNL     1     -32.234   8.158   2.144  1.00 20.00     0.007 C 
BRANCH   6   7
HETATM    7  C6  UNL     1     -31.823   8.637   0.750  1.00 20.00    -0.004 C 
HETATM    8  C4  UNL     1     -32.522   9.937   0.381  1.00 20.00     0.005 C 
ENDBRANCH   6   7
ENDBRANCH   4   6
ENDBRANCH   3   4
BRANCH   3   9
HETATM    9  O9  UNL     1     -33.379   7.767   4.494  1.00 20.00    -0.389 OA
HETATM   10  H25 UNL     1     -33.896   8.581   4.416  1.00 20.00     0.210 HD
ENDBRANCH   3   9
TORSDOF 4
ENDMDL
MODEL 2
REMARK VINA RESULT:      -1.7      1.710      4.367
REMARK  4 active torsions:
REMARK  status: ('A' for Active; 'I' for Inactive)
REMARK    1  A    between atoms: C3_3  and  C8_8 
REMARK    2  A    between atoms: C3_3  and  O9_9 
REMARK    3  A    between atoms: C6_6  and  C7_7 
REMARK    4  A    between atoms: C7_7  and  C8_8 
ROOT
HETATM    1  C1  UNL     1     -32.382   8.429   1.215  1.00 20.00     0.041 A 
HETATM    2  C2  UNL     1     -31.665   8.296   2.530  1.00 20.00     0.041 A 
HETATM    3  C3  UNL     1     -32.455   7.137   1.986  1.00 20.00     0.061 A 
ENDROOT
BRANCH   3   4
HETATM    4  C8  UNL     1     -33.766   6.716   2.654  1.00 20.00     0.016 C 
HETATM    5  C5  UNL     1     -33.900   7.412   4.009  1.00 20.00     0.013 C 
BRANCH   4   6
HETATM    6  C7  UNL     1     -33.824   5.182   2.772  1.00 20.00     0.007 C 
BRANCH   6   7
HETATM    7  C6  UNL     1     -34.314   4.693   4.137  1.00 20.00    -0.004 C 
HETATM    8  C4  UNL     1     -33.610   3.411   4.553  1.00 20.00     0.005 C 
ENDBRANCH   6   7
ENDBRANCH   4   6
ENDBRANCH   3   4
BRANCH   3   9
HETATM    9  O9  UNL     1     -31.691   6.043   1.452  1.00 20.00    -0.389 OA
HETATM   10  H25 UNL     1     -31.943   5.267   1.973  1.00 20.00     0.210 HD
ENDBRANCH   3   9
TORSDOF 4
ENDMDL
MODEL 3
REMARK VINA RESULT:      -1.4      1.793      2.836
REMARK  4 active torsions:
REMARK  status: ('A' for Active; 'I' for Inactive)
REMARK    1  A    between atoms: C3_3  and  C8_8 
REMARK    2  A    between atoms: C3_3  and  O9_9 
REMARK    3  A    between atoms: C6_6  and  C7_7 
REMARK    4  A    between atoms: C7_7  and  C8_8 
ROOT
HETATM    1  C1  UNL     1     -33.738   3.361   3.648  1.00 20.00     0.041 A 
HETATM    2  C2  UNL     1     -33.346   3.786   5.037  1.00 20.00     0.041 A 
HETATM    3  C3  UNL     1     -34.233   4.670   4.203  1.00 20.00     0.061 A 
ENDROOT
BRANCH   3   4
HETATM    4  C8  UNL     1     -33.697   5.990   3.644  1.00 20.00     0.016 C 
HETATM    5  C5  UNL     1     -34.623   7.136   4.053  1.00 20.00     0.013 C 
BRANCH   4   6
HETATM    6  C7  UNL     1     -33.533   5.883   2.116  1.00 20.00     0.007 C 
BRANCH   6   7
HETATM    7  C6  UNL     1     -32.147   6.302   1.622  1.00 20.00    -0.004 C 
HETATM    8  C4  UNL     1     -31.965   7.811   1.691  1.00 20.00     0.005 C 
ENDBRANCH   6   7
ENDBRANCH   4   6
ENDBRANCH   3   4
BRANCH   3   9
HETATM    9  O9  UNL     1     -35.620   4.711   4.576  1.00 20.00    -0.389 OA
HETATM   10  H25 UNL     1     -35.636   4.982   5.505  1.00 20.00     0.210 HD
ENDBRANCH   3   9
TORSDOF 4
ENDMDL
MODEL 4
REMARK VINA RESULT:      -1.4      1.285      4.239
REMARK  4 active torsions:
REMARK  status: ('A' for Active; 'I' for Inactive)
REMARK    1  A    between atoms: C3_3  and  C8_8 
REMARK    2  A    between atoms: C3_3  and  O9_9 
REMARK    3  A    between atoms: C6_6  and  C7_7 
REMARK    4  A    between atoms: C7_7  and  C8_8 
ROOT
HETATM    1  C1  UNL     1     -31.586   7.293   1.624  1.00 20.00     0.041 A 
HETATM    2  C2  UNL     1     -32.426   8.525   1.424  1.00 20.00     0.041 A 
HETATM    3  C3  UNL     1     -32.564   7.719   2.687  1.00 20.00     0.061 A 
ENDROOT
BRANCH   3   4
HETATM    4  C8  UNL     1     -33.827   6.894   2.940  1.00 20.00     0.016 C 
HETATM    5  C5  UNL     1     -34.512   7.380   4.218  1.00 20.00     0.013 C 
BRANCH   4   6
HETATM    6  C7  UNL     1     -33.471   5.396   2.996  1.00 20.00     0.007 C 
BRANCH   6   7
HETATM    7  C6  UNL     1     -34.268   4.619   4.047  1.00 20.00    -0.004 C 
HETATM    8  C4  UNL     1     -33.549   3.343   4.457  1.00 20.00     0.005 C 
ENDBRANCH   6   7
ENDBRANCH   4   6
ENDBRANCH   3   4
BRANCH   3   9
HETATM    9  O9  UNL     1     -31.992   8.295   3.873  1.00 20.00    -0.389 OA
HETATM   10  H25 UNL     1     -31.048   8.088   3.838  1.00 20.00     0.210 HD
ENDBRANCH   3   9
TORSDOF 4
ENDMDL
MODEL 5
REMARK VINA RESULT:      -1.4      2.162      4.315
REMARK  4 active torsions:
REMARK  status: ('A' for Active; 'I' for Inactive)
REMARK    1  A    between atoms: C3_3  and  C8_8 
REMARK    2  A    between atoms: C3_3  and  O9_9 
REMARK    3  A    between atoms: C6_6  and  C7_7 
REMARK    4  A    between atoms: C7_7  and  C8_8 
ROOT
HETATM    1  C1  UNL     1     -33.827   7.734   4.749  1.00 20.00     0.041 A 
HETATM    2  C2  UNL     1     -33.907   8.071   3.285  1.00 20.00     0.041 A 
HETATM    3  C3  UNL     1     -34.331   6.710   3.766  1.00 20.00     0.061 A 
ENDROOT
BRANCH   3   4
HETATM    4  C8  UNL     1     -33.482   5.479   3.441  1.00 20.00     0.016 C 
HETATM    5  C5  UNL     1     -33.142   5.467   1.950  1.00 20.00     0.013 C 
BRANCH   4   6
HETATM    6  C7  UNL     1     -34.220   4.202   3.886  1.00 20.00     0.007 C 
BRANCH   6   7
HETATM    7  C6  UNL     1     -33.284   3.025   4.171  1.00 20.00    -0.004 C 
HETATM    8  C4  UNL     1     -32.779   3.052   5.605  1.00 20.00     0.005 C 
ENDBRANCH   6   7
ENDBRANCH   4   6
ENDBRANCH   3   4
BRANCH   3   9
HETATM    9  O9  UNL     1     -35.745   6.457   3.791  1.00 20.00    -0.389 OA
HETATM   10  H25 UNL     1     -36.001   6.477   4.723  1.00 20.00     0.210 HD
ENDBRANCH   3   9
TORSDOF 4
ENDMDL
MODEL 6
REMARK VINA RESULT:      -1.0      1.555      3.591
REMARK  4 active torsions:
REMARK  status: ('A' for Active; 'I' for Inactive)
REMARK    1  A    between atoms: C3_3  and  C8_8 
REMARK    2  A    between atoms: C3_3  and  O9_9 
REMARK    3  A    between atoms: C6_6  and  C7_7 
REMARK    4  A    between atoms: C7_7  and  C8_8 
ROOT
HETATM    1  C1  UNL     1     -33.258   5.215   0.478  1.00 20.00     0.041 A 
HETATM    2  C2  UNL     1     -31.795   5.308   0.814  1.00 20.00     0.041 A 
HETATM    3  C3  UNL     1     -32.826   5.730   1.825  1.00 20.00     0.061 A 
ENDROOT
BRANCH   3   4
HETATM    4  C8  UNL     1     -33.004   7.209   2.174  1.00 20.00     0.016 C 
HETATM    5  C5  UNL     1     -31.795   8.004   1.679  1.00 20.00     0.013 C 
BRANCH   4   6
HETATM    6  C7  UNL     1     -33.232   7.366   3.689  1.00 20.00     0.007 C 
BRANCH   6   7
HETATM    7  C6  UNL     1     -34.702   7.557   4.067  1.00 20.00    -0.004 C 
HETATM    8  C4  UNL     1     -35.444   6.229   4.101  1.00 20.00     0.005 C 
ENDBRANCH   6   7
ENDBRANCH   4   6
ENDBRANCH   3   4
BRANCH   3   9
HETATM    9  O9  UNL     1     -33.030   4.838   2.934  1.00 20.00    -0.389 OA
HETATM   10  H25 UNL     1     -32.502   5.195   3.661  1.00 20.00     0.210 HD
ENDBRANCH   3   9
TORSDOF 4
ENDMDL
MODEL 7
REMARK VINA RESULT:      -0.9      2.071      4.464
REMARK  4 active torsions:
REMARK  status: ('A' for Active; 'I' for Inactive)
REMARK    1  A    between atoms: C3_3  and  C8_8 
REMARK    2  A    between atoms: C3_3  and  O9_9 
REMARK    3  A    between atoms: C6_6  and  C7_7 
REMARK    4  A    between atoms: C7_7  and  C8_8 
ROOT
HETATM    1  C1  UNL     1     -32.039   5.333   1.490  1.00 20.00     0.041 A 
HETATM    2  C2  UNL     1     -33.189   5.789   0.635  1.00 20.00     0.041 A 
HETATM    3  C3  UNL     1     -32.959   6.420   1.981  1.00 20.00     0.061 A 
ENDROOT
BRANCH   3   4
HETATM    4  C8  UNL     1     -33.923   6.143   3.137  1.00 20.00     0.016 C 
HETATM    5  C5  UNL     1     -34.293   7.457   3.824  1.00 20.00     0.013 C 
BRANCH   4   6
HETATM    6  C7  UNL     1     -33.295   5.126   4.109  1.00 20.00     0.007 C 
BRANCH   6   7
HETATM    7  C6  UNL     1     -34.013   3.774   4.124  1.00 20.00    -0.004 C 
HETATM    8  C4  UNL     1     -33.164   2.703   4.792  1.00 20.00     0.005 C 
ENDBRANCH   6   7
ENDBRANCH   4   6
ENDBRANCH   3   4
BRANCH   3   9
HETATM    9  O9  UNL     1     -32.419   7.751   1.974  1.00 20.00    -0.389 OA
HETATM   10  H25 UNL     1     -31.664   7.727   1.370  1.00 20.00     0.210 HD
ENDBRANCH   3   9
TORSDOF 4
ENDMDL
MODEL 8
REMARK VINA RESULT:      -0.9      1.087      3.937
REMARK  4 active torsions:
REMARK  status: ('A' for Active; 'I' for Inactive)
REMARK    1  A    between atoms: C3_3  and  C8_8 
REMARK    2  A    between atoms: C3_3  and  O9_9 
REMARK    3  A    between atoms: C6_6  and  C7_7 
REMARK    4  A    between atoms: C7_7  and  C8_8 
ROOT
HETATM    1  C1  UNL     1     -31.239   7.899   1.269  1.00 20.00     0.041 A 
HETATM    2  C2  UNL     1     -32.454   8.784   1.262  1.00 20.00     0.041 A 
HETATM    3  C3  UNL     1     -32.115   7.985   2.491  1.00 20.00     0.061 A 
ENDROOT
BRANCH   3   4
HETATM    4  C8  UNL     1     -32.982   6.792   2.897  1.00 20.00     0.016 C 
HETATM    5  C5  UNL     1     -33.437   6.036   1.648  1.00 20.00     0.013 C 
BRANCH   4   6
HETATM    6  C7  UNL     1     -34.164   7.274   3.758  1.00 20.00     0.007 C 
BRANCH   6   7
HETATM    7  C6  UNL     1     -35.337   6.291   3.789  1.00 20.00    -0.004 C 
HETATM    8  C4  UNL     1     -34.955   4.993   4.483  1.00 20.00     0.005 C 
ENDBRANCH   6   7
ENDBRANCH   4   6
ENDBRANCH   3   4
BRANCH   3   9
HETATM    9  O9  UNL     1     -31.577   8.724   3.599  1.00 20.00    -0.389 OA
HETATM   10  H25 UNL     1     -32.340   9.017   4.117  1.00 20.00     0.210 HD
ENDBRANCH   3   9
TORSDOF 4
ENDMDL
MODEL 9
REMARK VINA RESULT:      -0.8      1.739      2.641
REMARK  4 active torsions:
REMARK  status: ('A' for Active; 'I' for Inactive)
REMARK    1  A    between atoms: C3_3  and  C8_8 
REMARK    2  A    between atoms: C3_3  and  O9_9 
REMARK    3  A    between atoms: C6_6  and  C7_7 
REMARK    4  A    between atoms: C7_7  and  C8_8 
ROOT
HETATM    1  C1  UNL     1     -34.516   7.056   4.370  1.00 20.00     0.041 A 
HETATM    2  C2  UNL     1     -35.554   6.808   3.310  1.00 20.00     0.041 A 
HETATM    3  C3  UNL     1     -34.910   5.646   4.016  1.00 20.00     0.061 A 
ENDROOT
BRANCH   3   4
HETATM    4  C8  UNL     1     -33.927   4.741   3.270  1.00 20.00     0.016 C 
HETATM    5  C5  UNL     1     -33.617   3.507   4.120  1.00 20.00     0.013 C 
BRANCH   4   6
HETATM    6  C7  UNL     1     -32.660   5.535   2.902  1.00 20.00     0.007 C 
BRANCH   6   7
HETATM    7  C6  UNL     1     -32.687   6.098   1.479  1.00 20.00    -0.004 C 
HETATM    8  C4  UNL     1     -32.080   7.491   1.421  1.00 20.00     0.005 C 
ENDBRANCH   6   7
ENDBRANCH   4   6
ENDBRANCH   3   4
BRANCH   3   9
HETATM    9  O9  UNL     1     -35.723   4.960   4.981  1.00 20.00    -0.389 OA
HETATM   10  H25 UNL     1     -36.612   5.330   4.889  1.00 20.00     0.210 HD
ENDBRANCH   3   9
TORSDOF 4
ENDMDL
