MODEL 1
REMARK VINA RESULT:      -0.5      0.000      0.000
REMARK  2 active torsions:
REMARK  status: ('A' for Active; 'I' for Inactive)
REMARK    1  A    between atoms: C2_2  and  C7_7 
REMARK       I    between atoms: C2_2  and  N8_8 
REMARK    2  A    between atoms: C6_6  and  C7_7 
ROOT
HETATM    1  C1  UNL     1     -32.118   9.129   0.686  1.00 20.00     0.166 C 
HETATM    2  C2  UNL     1     -32.375   7.596   2.239  1.00 20.00     0.252 C 
HETATM    3  N8  UNL     1     -31.716   8.125   1.141  1.00 20.00    -0.199 NA
HETATM    4  O9  UNL     1     -32.506   8.153   3.330  1.00 20.00    -0.270 OA
HETATM    5  S10 UNL     1     -32.634  10.491   0.041  1.00 20.00    -0.055 SA
ENDROOT
BRANCH   2   6
HETATM    6  C7  UNL     1     -32.950   6.184   1.986  1.00 20.00     0.035 C 
HETATM    7  C4  UNL     1     -31.831   5.234   1.525  1.00 20.00     0.025 C 
HETATM    8  C5  UNL     1     -33.988   6.284   0.851  1.00 20.00     0.025 C 
BRANCH   6   9
HETATM    9  C6  UNL     1     -33.646   5.637   3.258  1.00 20.00     0.014 C 
HETATM   10  C3  UNL     1     -34.909   6.385   3.672  1.00 20.00     0.006 C 
ENDBRANCH   6   9
ENDBRANCH   2   6
TORSDOF 2
ENDMDL
MODEL 2
REMARK VINA RESULT:      -0.3      0.992      1.601
REMARK  2 active torsions:
REMARK  status: ('A' for Active; 'I' for Inactive)
REMARK    1  A    between atoms: C2_2  and  C7_7 
REMARK       I    between atoms: C2_2  and  N8_8 
REMARK    2  A    between atoms: C6_6  and  C7_7 
ROOT
HETATM    1  C1  UNL     1     -32.213   8.656   1.228  1.00 20.00     0.166 C 
HETATM    2  C2  UNL     1     -32.768   7.413   2.952  1.00 20.00     0.252 C 
HETATM    3  N8  UNL     1     -32.031   7.649   1.803  1.00 20.00    -0.199 NA
HETATM    4  O9  UNL     1     -32.753   8.110   3.967  1.00 20.00    -0.270 OA
HETATM    5  S10 UNL     1     -32.430  10.012   0.419  1.00 20.00    -0.055 SA
ENDROOT
BRANCH   2   6
HETATM    6  C7  UNL     1     -33.643   6.142   2.866  1.00 20.00     0.035 C 
HETATM    7  C4  UNL     1     -33.932   5.800   1.393  1.00 20.00     0.025 C 
HETATM    8  C5  UNL     1     -34.987   6.435   3.560  1.00 20.00     0.025 C 
BRANCH   6   9
HETATM    9  C6  UNL     1     -32.956   4.951   3.581  1.00 20.00     0.014 C 
HETATM   10  C3  UNL     1     -33.911   3.915   4.166  1.00 20.00     0.006 C 
ENDBRANCH   6   9
ENDBRANCH   2   6
TORSDOF 2
ENDMDL
MODEL 3
REMARK VINA RESULT:      -0.1      3.720      4.712
REMARK  2 active torsions:
REMARK  status: ('A' for Active; 'I' for Inactive)
REMARK    1  A    between atoms: C2_2  and  C7_7 
REMARK       I    between atoms: C2_2  and  N8_8 
REMARK    2  A    between atoms: C6_6  and  C7_7 
ROOT
HETATM    1  C1  UNL     1     -33.587   3.944   4.045  1.00 20.00     0.166 C 
HETATM    2  C2  UNL     1     -34.571   5.898   3.838  1.00 20.00     0.252 C 
HETATM    3  N8  UNL     1     -33.960   4.775   3.304  1.00 20.00    -0.199 NA
HETATM    4  O9  UNL     1     -35.601   5.898   4.515  1.00 20.00    -0.270 OA
HETATM    5  S10 UNL     1     -33.067   2.795   5.017  1.00 20.00    -0.055 SA
ENDROOT
BRANCH   2   6
HETATM    6  C7  UNL     1     -33.837   7.214   3.497  1.00 20.00     0.035 C 
HETATM    7  C4  UNL     1     -33.008   7.683   4.707  1.00 20.00     0.025 C 
HETATM    8  C5  UNL     1     -34.895   8.293   3.197  1.00 20.00     0.025 C 
BRANCH   6   9
HETATM    9  C6  UNL     1     -32.934   7.034   2.251  1.00 20.00     0.014 C 
HETATM   10  C3  UNL     1     -31.962   8.180   1.990  1.00 20.00     0.006 C 
ENDBRANCH   6   9
ENDBRANCH   2   6
TORSDOF 2
ENDMDL
MODEL 4
REMARK VINA RESULT:      -0.1      0.760      2.170
REMARK  2 active torsions:
REMARK  status: ('A' for Active; 'I' for Inactive)
REMARK    1  A    between atoms: C2_2  and  C7_7 
REMARK       I    between atoms: C2_2  and  N8_8 
REMARK    2  A    between atoms: C6_6  and  C7_7 
ROOT
HETATM    1  C1  UNL     1     -32.131   8.988   0.933  1.00 20.00     0.166 C 
HETATM    2  C2  UNL     1     -32.705   7.353   2.284  1.00 20.00     0.252 C 
HETATM    3  N8  UNL     1     -31.775   8.032   1.514  1.00 20.00    -0.199 NA
HETATM    4  O9  UNL     1     -33.323   7.824   3.239  1.00 20.00    -0.270 OA
HETATM    5  S10 UNL     1     -32.576  10.290   0.130  1.00 20.00    -0.055 SA
ENDROOT
BRANCH   2   6
HETATM    6  C7  UNL     1     -32.910   5.886   1.842  1.00 20.00     0.035 C 
HETATM    7  C4  UNL     1     -33.825   5.832   0.605  1.00 20.00     0.025 C 
HETATM    8  C5  UNL     1     -33.613   5.131   2.987  1.00 20.00     0.025 C 
BRANCH   6   9
HETATM    9  C6  UNL     1     -31.550   5.203   1.548  1.00 20.00     0.014 C 
HETATM   10  C3  UNL     1     -31.531   4.316   0.308  1.00 20.00     0.006 C 
ENDBRANCH   6   9
ENDBRANCH   2   6
TORSDOF 2
ENDMDL
MODEL 5
REMARK VINA RESULT:       0.0      2.997      4.168
REMARK  2 active torsions:
REMARK  status: ('A' for Active; 'I' for Inactive)
REMARK    1  A    between atoms: C2_2  and  C7_7 
REMARK       I    between atoms: C2_2  and  N8_8 
REMARK    2  A    between atoms: C6_6  and  C7_7 
ROOT
HETATM    1  C1  UNL     1     -33.966   5.217   3.531  1.00 20.00     0.166 C 
HETATM    2  C2  UNL     1     -33.404   7.323   3.251  1.00 20.00     0.252 C 
HETATM    3  N8  UNL     1     -34.086   6.179   2.870  1.00 20.00    -0.199 NA
HETATM    4  O9  UNL     1     -33.548   7.919   4.320  1.00 20.00    -0.270 OA
HETATM    5  S10 UNL     1     -33.828   3.891   4.404  1.00 20.00    -0.055 SA
ENDROOT
BRANCH   2   6
HETATM    6  C7  UNL     1     -32.408   7.826   2.182  1.00 20.00     0.035 C 
HETATM    7  C4  UNL     1     -31.956   6.655   1.291  1.00 20.00     0.025 C 
HETATM    8  C5  UNL     1     -31.166   8.383   2.904  1.00 20.00     0.025 C 
BRANCH   6   9
HETATM    9  C6  UNL     1     -33.041   8.953   1.327  1.00 20.00     0.014 C 
HETATM   10  C3  UNL     1     -32.117   9.558   0.275  1.00 20.00     0.006 C 
ENDBRANCH   6   9
ENDBRANCH   2   6
TORSDOF 2
ENDMDL
MODEL 6
REMARK VINA RESULT:       0.3      1.543      2.366
REMARK  2 active torsions:
REMARK  status: ('A' for Active; 'I' for Inactive)
REMARK    1  A    between atoms: C2_2  and  C7_7 
REMARK       I    between atoms: C2_2  and  N8_8 
REMARK    2  A    between atoms: C6_6  and  C7_7 
ROOT
HETATM    1  C1  UNL     1     -32.390   8.828   0.820  1.00 20.00     0.166 C 
HETATM    2  C2  UNL     1     -32.358   8.141   2.907  1.00 20.00     0.252 C 
HETATM    3  N8  UNL     1     -32.467   7.908   1.546  1.00 20.00    -0.199 NA
HETATM    4  O9  UNL     1     -31.380   8.632   3.473  1.00 20.00    -0.270 OA
HETATM    5  S10 UNL     1     -32.291  10.050  -0.197  1.00 20.00    -0.055 SA
ENDROOT
BRANCH   2   6
HETATM    6  C7  UNL     1     -33.610   7.709   3.704  1.00 20.00     0.035 C 
HETATM    7  C4  UNL     1     -34.808   8.599   3.325  1.00 20.00     0.025 C 
HETATM    8  C5  UNL     1     -33.321   7.912   5.203  1.00 20.00     0.025 C 
BRANCH   6   9
HETATM    9  C6  UNL     1     -33.935   6.215   3.450  1.00 20.00     0.014 C 
HETATM   10  C3  UNL     1     -35.184   5.700   4.159  1.00 20.00     0.006 C 
ENDBRANCH   6   9
ENDBRANCH   2   6
TORSDOF 2
ENDMDL
MODEL 7
REMARK VINA RESULT:       0.8      2.724      3.687
REMARK  2 active torsions:
REMARK  status: ('A' for Active; 'I' for Inactive)
REMARK    1  A    between atoms: C2_2  and  C7_7 
REMARK       I    between atoms: C2_2  and  N8_8 
REMARK    2  A    between atoms: C6_6  and  C7_7 
ROOT
HETATM    1  C1  UNL     1     -34.728   6.498   3.783  1.00 20.00     0.166 C 
HETATM    2  C2  UNL     1     -33.064   7.848   3.299  1.00 20.00     0.252 C 
HETATM    3  N8  UNL     1     -34.388   7.456   3.195  1.00 20.00    -0.199 NA
HETATM    4  O9  UNL     1     -32.491   8.164   4.343  1.00 20.00    -0.270 OA
HETATM    5  S10 UNL     1     -35.228   5.204   4.565  1.00 20.00    -0.055 SA
ENDROOT
BRANCH   2   6
HETATM    6  C7  UNL     1     -32.325   7.873   1.941  1.00 20.00     0.035 C 
HETATM    7  C4  UNL     1     -30.805   7.943   2.171  1.00 20.00     0.025 C 
HETATM    8  C5  UNL     1     -32.752   9.144   1.183  1.00 20.00     0.025 C 
BRANCH   6   9
HETATM    9  C6  UNL     1     -32.695   6.631   1.091  1.00 20.00     0.014 C 
HETATM   10  C3  UNL     1     -31.973   5.346   1.483  1.00 20.00     0.006 C 
ENDBRANCH   6   9
ENDBRANCH   2   6
TORSDOF 2
ENDMDL
MODEL 8
REMARK VINA RESULT:       0.8      3.349      4.347
REMARK  2 active torsions:
REMARK  status: ('A' for Active; 'I' for Inactive)
REMARK    1  A    between atoms: C2_2  and  C7_7 
REMARK       I    between atoms: C2_2  and  N8_8 
REMARK    2  A    between atoms: C6_6  and  C7_7 
ROOT
HETATM    1  C1  UNL     1     -33.674   4.031   3.983  1.00 20.00     0.166 C 
HETATM    2  C2  UNL     1     -33.641   6.024   3.059  1.00 20.00     0.252 C 
HETATM    3  N8  UNL     1     -34.048   4.700   3.094  1.00 20.00    -0.199 NA
HETATM    4  O9  UNL     1     -33.876   6.868   3.924  1.00 20.00    -0.270 OA
HETATM    5  S10 UNL     1     -33.189   3.090   5.173  1.00 20.00    -0.055 SA
ENDROOT
BRANCH   2   6
HETATM    6  C7  UNL     1     -32.839   6.383   1.787  1.00 20.00     0.035 C 
HETATM    7  C4  UNL     1     -32.363   7.845   1.860  1.00 20.00     0.025 C 
HETATM    8  C5  UNL     1     -33.777   6.248   0.572  1.00 20.00     0.025 C 
BRANCH   6   9
HETATM    9  C6  UNL     1     -31.637   5.422   1.604  1.00 20.00     0.014 C 
HETATM   10  C3  UNL     1     -31.734   4.493   0.398  1.00 20.00     0.006 C 
ENDBRANCH   6   9
ENDBRANCH   2   6
TORSDOF 2
ENDMDL
MODEL 9
REMARK VINA RESULT:       0.9      2.654      4.034
REMARK  2 active torsions:
REMARK  status: ('A' for Active; 'I' for Inactive)
REMARK    1  A    between atoms: C2_2  and  C7_7 
REMARK       I    between atoms: C2_2  and  N8_8 
REMARK    2  A    between atoms: C6_6  and  C7_7 
ROOT
HETATM    1  C1  UNL     1     -34.035   6.510   3.483  1.00 20.00     0.166 C 
HETATM    2  C2  UNL     1     -32.699   6.875   1.778  1.00 20.00     0.252 C 
HETATM    3  N8  UNL     1     -32.926   6.644   3.125  1.00 20.00    -0.199 NA
HETATM    4  O9  UNL     1     -33.007   6.113   0.860  1.00 20.00    -0.270 OA
HETATM    5  S10 UNL     1     -35.527   6.322   4.009  1.00 20.00    -0.055 SA
ENDROOT
BRANCH   2   6
HETATM    6  C7  UNL     1     -31.986   8.218   1.499  1.00 20.00     0.035 C 
HETATM    7  C4  UNL     1     -31.012   8.061   0.317  1.00 20.00     0.025 C 
HETATM    8  C5  UNL     1     -31.164   8.595   2.746  1.00 20.00     0.025 C 
BRANCH   6   9
HETATM    9  C6  UNL     1     -33.017   9.340   1.216  1.00 20.00     0.014 C 
HETATM   10  C3  UNL     1     -32.626  10.305   0.101  1.00 20.00     0.006 C 
ENDBRANCH   6   9
ENDBRANCH   2   6
TORSDOF 2
ENDMDL
