MODEL 1
REMARK VINA RESULT:       0.1      0.000      0.000
REMARK  2 active torsions:
REMARK  status: ('A' for Active; 'I' for Inactive)
REMARK    1  A    between atoms: C7_7  and  C11_11 
REMARK    2  A    between atoms: C8_8  and  C12_12 
ROOT
HETATM    1  C1  UNL     1     -33.109   2.751   4.992  1.00 20.00     0.012 C 
HETATM    2  C2  UNL     1     -33.432   3.467   4.084  1.00 20.00    -0.117 C 
HETATM    3  C11 UNL     1     -33.832   4.331   2.969  1.00 20.00     0.105 C 
ENDROOT
BRANCH   3   4
HETATM    4  C7  UNL     1     -33.390   5.772   3.208  1.00 20.00     0.067 C 
HETATM    5  C3  UNL     1     -34.467   6.583   3.920  1.00 20.00     0.132 C 
HETATM    6  C4  UNL     1     -34.180   8.057   4.093  1.00 20.00     0.079 C 
HETATM    7  O13 UNL     1     -35.473   6.071   4.411  1.00 20.00    -0.298 OA
HETATM    8  C5  UNL     1     -33.794   8.687   2.763  1.00 20.00     0.012 C 
HETATM    9  C8  UNL     1     -32.644   7.928   2.086  1.00 20.00    -0.010 C 
HETATM   10  C6  UNL     1     -33.026   6.454   1.885  1.00 20.00     0.018 C 
BRANCH   9  11
HETATM   11  C12 UNL     1     -32.285   8.577   0.751  1.00 20.00    -0.019 C 
HETATM   12  C9  UNL     1     -32.684  10.051   0.746  1.00 20.00     0.010 C 
HETATM   13  C10 UNL     1     -30.793   8.424   0.464  1.00 20.00     0.010 C 
ENDBRANCH   9  11
ENDBRANCH   3   4
TORSDOF 2
ENDMDL
MODEL 2
REMARK VINA RESULT:       0.2      0.449      1.061
REMARK  2 active torsions:
REMARK  status: ('A' for Active; 'I' for Inactive)
REMARK    1  A    between atoms: C7_7  and  C11_11 
REMARK    2  A    between atoms: C8_8  and  C12_12 
ROOT
HETATM    1  C1  UNL     1     -33.141   2.590   4.940  1.00 20.00     0.012 C 
HETATM    2  C2  UNL     1     -33.433   3.376   4.081  1.00 20.00    -0.117 C 
HETATM    3  C11 UNL     1     -33.793   4.327   3.025  1.00 20.00     0.105 C 
ENDROOT
BRANCH   3   4
HETATM    4  C7  UNL     1     -33.383   5.747   3.404  1.00 20.00     0.067 C 
HETATM    5  C3  UNL     1     -34.567   6.559   3.915  1.00 20.00     0.132 C 
HETATM    6  C4  UNL     1     -34.295   8.019   4.200  1.00 20.00     0.079 C 
HETATM    7  O13 UNL     1     -35.660   6.056   4.174  1.00 20.00    -0.298 OA
HETATM    8  C5  UNL     1     -33.638   8.685   3.000  1.00 20.00     0.012 C 
HETATM    9  C8  UNL     1     -32.388   7.922   2.540  1.00 20.00    -0.010 C 
HETATM   10  C6  UNL     1     -32.747   6.465   2.208  1.00 20.00     0.018 C 
BRANCH   9  11
HETATM   11  C12 UNL     1     -31.755   8.607   1.330  1.00 20.00    -0.019 C 
HETATM   12  C9  UNL     1     -31.389   7.579   0.263  1.00 20.00     0.010 C 
HETATM   13  C10 UNL     1     -32.697   9.664   0.758  1.00 20.00     0.010 C 
ENDBRANCH   9  11
ENDBRANCH   3   4
TORSDOF 2
ENDMDL
MODEL 3
REMARK VINA RESULT:       1.5      1.635      3.070
REMARK  2 active torsions:
REMARK  status: ('A' for Active; 'I' for Inactive)
REMARK    1  A    between atoms: C7_7  and  C11_11 
REMARK    2  A    between atoms: C8_8  and  C12_12 
ROOT
HETATM    1  C1  UNL     1     -33.095   8.493   5.755  1.00 20.00     0.012 C 
HETATM    2  C2  UNL     1     -33.814   7.814   5.075  1.00 20.00    -0.117 C 
HETATM    3  C11 UNL     1     -34.700   6.982   4.255  1.00 20.00     0.105 C 
ENDROOT
BRANCH   3   4
HETATM    4  C7  UNL     1     -34.148   6.824   2.841  1.00 20.00     0.067 C 
HETATM    5  C3  UNL     1     -33.354   5.533   2.685  1.00 20.00     0.132 C 
HETATM    6  C4  UNL     1     -32.659   5.339   1.356  1.00 20.00     0.079 C 
HETATM    7  O13 UNL     1     -33.342   4.649   3.541  1.00 20.00    -0.298 OA
HETATM    8  C5  UNL     1     -31.816   6.559   1.010  1.00 20.00     0.012 C 
HETATM    9  C8  UNL     1     -32.638   7.854   1.074  1.00 20.00    -0.010 C 
HETATM   10  C6  UNL     1     -33.264   8.019   2.467  1.00 20.00     0.018 C 
BRANCH   9  11
HETATM   11  C12 UNL     1     -31.766   9.060   0.731  1.00 20.00    -0.019 C 
HETATM   12  C9  UNL     1     -30.812   8.724  -0.413  1.00 20.00     0.010 C 
HETATM   13  C10 UNL     1     -32.633  10.265   0.372  1.00 20.00     0.010 C 
ENDBRANCH   9  11
ENDBRANCH   3   4
TORSDOF 2
ENDMDL
MODEL 4
REMARK VINA RESULT:       1.6      1.873      5.177
REMARK  2 active torsions:
REMARK  status: ('A' for Active; 'I' for Inactive)
REMARK    1  A    between atoms: C7_7  and  C11_11 
REMARK    2  A    between atoms: C8_8  and  C12_12 
ROOT
HETATM    1  C1  UNL     1     -32.283  10.176  -0.445  1.00 20.00     0.012 C 
HETATM    2  C2  UNL     1     -32.086   9.235   0.273  1.00 20.00    -0.117 C 
HETATM    3  C11 UNL     1     -31.836   8.083   1.145  1.00 20.00     0.105 C 
ENDROOT
BRANCH   3   4
HETATM    4  C7  UNL     1     -32.869   8.008   2.264  1.00 20.00     0.067 C 
HETATM    5  C3  UNL     1     -32.313   8.535   3.582  1.00 20.00     0.132 C 
HETATM    6  C4  UNL     1     -33.216   8.390   4.787  1.00 20.00     0.079 C 
HETATM    7  O13 UNL     1     -31.238   9.128   3.664  1.00 20.00    -0.298 OA
HETATM    8  C5  UNL     1     -33.703   6.954   4.920  1.00 20.00     0.012 C 
HETATM    9  C8  UNL     1     -34.350   6.451   3.623  1.00 20.00    -0.010 C 
HETATM   10  C6  UNL     1     -33.360   6.569   2.454  1.00 20.00     0.018 C 
BRANCH   9  11
HETATM   11  C12 UNL     1     -34.821   5.006   3.783  1.00 20.00    -0.019 C 
HETATM   12  C9  UNL     1     -33.627   4.058   3.858  1.00 20.00     0.010 C 
HETATM   13  C10 UNL     1     -35.700   4.863   5.023  1.00 20.00     0.010 C 
ENDBRANCH   9  11
ENDBRANCH   3   4
TORSDOF 2
ENDMDL
MODEL 5
REMARK VINA RESULT:       1.7      1.134      1.250
REMARK  2 active torsions:
REMARK  status: ('A' for Active; 'I' for Inactive)
REMARK    1  A    between atoms: C7_7  and  C11_11 
REMARK    2  A    between atoms: C8_8  and  C12_12 
ROOT
HETATM    1  C1  UNL     1     -33.583   3.223   4.482  1.00 20.00     0.012 C 
HETATM    2  C2  UNL     1     -33.936   4.234   3.940  1.00 20.00    -0.117 C 
HETATM    3  C11 UNL     1     -34.378   5.465   3.277  1.00 20.00     0.105 C 
ENDROOT
BRANCH   3   4
HETATM    4  C7  UNL     1     -33.223   6.449   3.122  1.00 20.00     0.067 C 
HETATM    5  C3  UNL     1     -33.335   7.610   4.103  1.00 20.00     0.132 C 
HETATM    6  C4  UNL     1     -32.307   8.708   3.949  1.00 20.00     0.079 C 
HETATM    7  O13 UNL     1     -34.146   7.626   5.029  1.00 20.00    -0.298 OA
HETATM    8  C5  UNL     1     -32.259   9.198   2.509  1.00 20.00     0.012 C 
HETATM    9  C8  UNL     1     -32.052   8.041   1.522  1.00 20.00    -0.010 C 
HETATM   10  C6  UNL     1     -33.163   6.993   1.690  1.00 20.00     0.018 C 
BRANCH   9  11
HETATM   11  C12 UNL     1     -32.016   8.560   0.085  1.00 20.00    -0.019 C 
HETATM   12  C9  UNL     1     -32.644   9.949   0.002  1.00 20.00     0.010 C 
HETATM   13  C10 UNL     1     -30.583   8.585  -0.441  1.00 20.00     0.010 C 
ENDBRANCH   9  11
ENDBRANCH   3   4
TORSDOF 2
ENDMDL
MODEL 6
REMARK VINA RESULT:       1.7      1.809      4.610
REMARK  2 active torsions:
REMARK  status: ('A' for Active; 'I' for Inactive)
REMARK    1  A    between atoms: C7_7  and  C11_11 
REMARK    2  A    between atoms: C8_8  and  C12_12 
ROOT
HETATM    1  C1  UNL     1     -32.346  10.312  -0.234  1.00 20.00     0.012 C 
HETATM    2  C2  UNL     1     -32.300   9.768   0.835  1.00 20.00    -0.117 C 
HETATM    3  C11 UNL     1     -32.234   9.111   2.144  1.00 20.00     0.105 C 
ENDROOT
BRANCH   3   4
HETATM    4  C7  UNL     1     -33.173   7.910   2.201  1.00 20.00     0.067 C 
HETATM    5  C3  UNL     1     -33.478   7.499   3.637  1.00 20.00     0.132 C 
HETATM    6  C4  UNL     1     -34.300   6.241   3.806  1.00 20.00     0.079 C 
HETATM    7  O13 UNL     1     -33.163   8.184   4.609  1.00 20.00    -0.298 OA
HETATM    8  C5  UNL     1     -33.690   5.093   3.013  1.00 20.00     0.012 C 
HETATM    9  C8  UNL     1     -33.469   5.472   1.543  1.00 20.00    -0.010 C 
HETATM   10  C6  UNL     1     -32.577   6.719   1.443  1.00 20.00     0.018 C 
BRANCH   9  11
HETATM   11  C12 UNL     1     -32.849   4.305   0.775  1.00 20.00    -0.019 C 
HETATM   12  C9  UNL     1     -33.644   4.018  -0.496  1.00 20.00     0.010 C 
HETATM   13  C10 UNL     1     -31.388   4.599   0.441  1.00 20.00     0.010 C 
ENDBRANCH   9  11
ENDBRANCH   3   4
TORSDOF 2
ENDMDL
MODEL 7
REMARK VINA RESULT:       1.8      1.204      5.027
REMARK  2 active torsions:
REMARK  status: ('A' for Active; 'I' for Inactive)
REMARK    1  A    between atoms: C7_7  and  C11_11 
REMARK    2  A    between atoms: C8_8  and  C12_12 
ROOT
HETATM    1  C1  UNL     1     -32.602   9.440   0.340  1.00 20.00     0.012 C 
HETATM    2  C2  UNL     1     -32.345   8.628   1.186  1.00 20.00    -0.117 C 
HETATM    3  C11 UNL     1     -32.020   7.640   2.219  1.00 20.00     0.105 C 
ENDROOT
BRANCH   3   4
HETATM    4  C7  UNL     1     -33.216   6.739   2.512  1.00 20.00     0.067 C 
HETATM    5  C3  UNL     1     -34.204   7.404   3.464  1.00 20.00     0.132 C 
HETATM    6  C4  UNL     1     -35.364   6.547   3.918  1.00 20.00     0.079 C 
HETATM    7  O13 UNL     1     -34.130   8.591   3.781  1.00 20.00    -0.298 OA
HETATM    8  C5  UNL     1     -34.865   5.219   4.469  1.00 20.00     0.012 C 
HETATM    9  C8  UNL     1     -33.943   4.501   3.474  1.00 20.00    -0.010 C 
HETATM   10  C6  UNL     1     -32.755   5.402   3.103  1.00 20.00     0.018 C 
BRANCH   9  11
HETATM   11  C12 UNL     1     -33.451   3.177   4.056  1.00 20.00    -0.019 C 
HETATM   12  C9  UNL     1     -32.036   2.871   3.570  1.00 20.00     0.010 C 
HETATM   13  C10 UNL     1     -33.500   3.210   5.582  1.00 20.00     0.010 C 
ENDBRANCH   9  11
ENDBRANCH   3   4
TORSDOF 2
ENDMDL
MODEL 8
REMARK VINA RESULT:       1.9      2.158      5.472
REMARK  2 active torsions:
REMARK  status: ('A' for Active; 'I' for Inactive)
REMARK    1  A    between atoms: C7_7  and  C11_11 
REMARK    2  A    between atoms: C8_8  and  C12_12 
ROOT
HETATM    1  C1  UNL     1     -33.034  10.227  -0.423  1.00 20.00     0.012 C 
HETATM    2  C2  UNL     1     -32.642   9.996   0.687  1.00 20.00    -0.117 C 
HETATM    3  C11 UNL     1     -32.162   9.724   2.046  1.00 20.00     0.105 C 
ENDROOT
BRANCH   3   4
HETATM    4  C7  UNL     1     -32.014   8.225   2.286  1.00 20.00     0.067 C 
HETATM    5  C3  UNL     1     -31.540   7.496   1.034  1.00 20.00     0.132 C 
HETATM    6  C4  UNL     1     -31.481   5.988   1.128  1.00 20.00     0.079 C 
HETATM    7  O13 UNL     1     -31.137   8.085   0.031  1.00 20.00    -0.298 OA
HETATM    8  C5  UNL     1     -32.805   5.431   1.630  1.00 20.00     0.012 C 
HETATM    9  C8  UNL     1     -33.240   6.097   2.943  1.00 20.00    -0.010 C 
HETATM   10  C6  UNL     1     -33.340   7.619   2.760  1.00 20.00     0.018 C 
BRANCH   9  11
HETATM   11  C12 UNL     1     -34.575   5.525   3.418  1.00 20.00    -0.019 C 
HETATM   12  C9  UNL     1     -34.348   4.313   4.319  1.00 20.00     0.010 C 
HETATM   13  C10 UNL     1     -35.387   6.593   4.148  1.00 20.00     0.010 C 
ENDBRANCH   9  11
ENDBRANCH   3   4
TORSDOF 2
ENDMDL
MODEL 9
REMARK VINA RESULT:       2.0      2.149      5.093
REMARK  2 active torsions:
REMARK  status: ('A' for Active; 'I' for Inactive)
REMARK    1  A    between atoms: C7_7  and  C11_11 
REMARK    2  A    between atoms: C8_8  and  C12_12 
ROOT
HETATM    1  C1  UNL     1     -32.658  10.311   0.273  1.00 20.00     0.012 C 
HETATM    2  C2  UNL     1     -32.032   9.287   0.291  1.00 20.00    -0.117 C 
HETATM    3  C11 UNL     1     -31.263   8.039   0.304  1.00 20.00     0.105 C 
ENDROOT
BRANCH   3   4
HETATM    4  C7  UNL     1     -31.623   7.185   1.516  1.00 20.00     0.067 C 
HETATM    5  C3  UNL     1     -31.845   5.727   1.134  1.00 20.00     0.132 C 
HETATM    6  C4  UNL     1     -32.328   4.818   2.241  1.00 20.00     0.079 C 
HETATM    7  O13 UNL     1     -31.565   5.277   0.023  1.00 20.00    -0.298 OA
HETATM    8  C5  UNL     1     -33.555   5.410   2.921  1.00 20.00     0.012 C 
HETATM    9  C8  UNL     1     -33.305   6.849   3.393  1.00 20.00    -0.010 C 
HETATM   10  C6  UNL     1     -32.877   7.730   2.209  1.00 20.00     0.018 C 
BRANCH   9  11
HETATM   11  C12 UNL     1     -34.554   7.419   4.063  1.00 20.00    -0.019 C 
HETATM   12  C9  UNL     1     -35.557   6.308   4.361  1.00 20.00     0.010 C 
HETATM   13  C10 UNL     1     -34.183   8.166   5.342  1.00 20.00     0.010 C 
ENDBRANCH   9  11
ENDBRANCH   3   4
TORSDOF 2
ENDMDL
