MODEL 1
REMARK VINA RESULT:      -1.8      0.000      0.000
REMARK  1 active torsions:
REMARK  status: ('A' for Active; 'I' for Inactive)
REMARK    1  A    between atoms: C1_1  and  C6_6 
ROOT
HETATM    1  C2  UNL     1     -32.256   6.417   1.176  1.00 20.00     0.027 C 
HETATM    2  C3  UNL     1     -32.984   5.448   2.102  1.00 20.00     0.017 C 
HETATM    3  C4  UNL     1     -31.754   7.629   1.951  1.00 20.00     0.167 C 
HETATM    4  C5  UNL     1     -33.440   7.412   3.600  1.00 20.00     0.181 C 
HETATM    5  C6  UNL     1     -34.042   6.183   2.924  1.00 20.00     0.096 C 
HETATM    6  O8  UNL     1     -32.828   8.270   2.637  1.00 20.00    -0.390 OA
ENDROOT
BRANCH   5   7
HETATM    7  C1  UNL     1     -34.622   5.260   3.946  1.00 20.00     0.225 C 
HETATM    8  O7  UNL     1     -35.639   5.545   4.572  1.00 20.00    -0.279 OA
HETATM    9 CL9  UNL     1     -33.693   3.799   4.112  1.00 20.00    -0.043 Cl
ENDBRANCH   5   7
TORSDOF 1
ENDMDL
MODEL 2
REMARK VINA RESULT:      -1.6      1.048      1.758
REMARK  1 active torsions:
REMARK  status: ('A' for Active; 'I' for Inactive)
REMARK    1  A    between atoms: C1_1  and  C6_6 
ROOT
HETATM    1  C2  UNL     1     -32.309   8.525   2.847  1.00 20.00     0.027 C 
HETATM    2  C3  UNL     1     -33.457   7.776   3.516  1.00 20.00     0.017 C 
HETATM    3  C4  UNL     1     -32.120   8.051   1.412  1.00 20.00     0.167 C 
HETATM    4  C5  UNL     1     -33.039   5.918   1.878  1.00 20.00     0.181 C 
HETATM    5  C6  UNL     1     -33.287   6.268   3.343  1.00 20.00     0.096 C 
HETATM    6  O8  UNL     1     -31.916   6.639   1.369  1.00 20.00    -0.390 OA
ENDROOT
BRANCH   5   7
HETATM    7  C1  UNL     1     -34.502   5.559   3.848  1.00 20.00     0.225 C 
HETATM    8  O7  UNL     1     -35.586   6.127   3.948  1.00 20.00    -0.279 OA
HETATM    9 CL9  UNL     1     -34.174   3.901   4.250  1.00 20.00    -0.043 Cl
ENDBRANCH   5   7
TORSDOF 1
ENDMDL
MODEL 3
REMARK VINA RESULT:      -1.3      2.653      4.144
REMARK  1 active torsions:
REMARK  status: ('A' for Active; 'I' for Inactive)
REMARK    1  A    between atoms: C1_1  and  C6_6 
ROOT
HETATM    1  C2  UNL     1     -34.706   6.465   3.890  1.00 20.00     0.027 C 
HETATM    2  C3  UNL     1     -33.724   7.572   3.521  1.00 20.00     0.017 C 
HETATM    3  C4  UNL     1     -34.082   5.094   3.662  1.00 20.00     0.167 C 
HETATM    4  C5  UNL     1     -32.617   5.915   1.992  1.00 20.00     0.181 C 
HETATM    5  C6  UNL     1     -33.152   7.339   2.124  1.00 20.00     0.096 C 
HETATM    6  O8  UNL     1     -33.630   4.962   2.315  1.00 20.00    -0.390 OA
ENDROOT
BRANCH   5   7
HETATM    7  C1  UNL     1     -32.067   8.329   1.848  1.00 20.00     0.225 C 
HETATM    8  O7  UNL     1     -31.027   8.347   2.500  1.00 20.00    -0.279 OA
HETATM    9 CL9  UNL     1     -32.473   9.397   0.538  1.00 20.00    -0.043 Cl
ENDBRANCH   5   7
TORSDOF 1
ENDMDL
MODEL 4
REMARK VINA RESULT:      -1.1      1.714      1.758
REMARK  1 active torsions:
REMARK  status: ('A' for Active; 'I' for Inactive)
REMARK    1  A    between atoms: C1_1  and  C6_6 
ROOT
HETATM    1  C2  UNL     1     -32.594   5.700   1.117  1.00 20.00     0.027 C 
HETATM    2  C3  UNL     1     -33.384   5.713   2.421  1.00 20.00     0.017 C 
HETATM    3  C4  UNL     1     -31.429   6.679   1.183  1.00 20.00     0.167 C 
HETATM    4  C5  UNL     1     -32.522   8.045   2.781  1.00 20.00     0.181 C 
HETATM    5  C6  UNL     1     -33.752   7.143   2.812  1.00 20.00     0.096 C 
HETATM    6  O8  UNL     1     -31.889   7.992   1.502  1.00 20.00    -0.390 OA
ENDROOT
BRANCH   5   7
HETATM    7  C1  UNL     1     -34.369   7.153   4.174  1.00 20.00     0.225 C 
HETATM    8  O7  UNL     1     -34.064   7.993   5.016  1.00 20.00    -0.279 OA
HETATM    9 CL9  UNL     1     -35.521   5.868   4.381  1.00 20.00    -0.043 Cl
ENDBRANCH   5   7
TORSDOF 1
ENDMDL
MODEL 5
REMARK VINA RESULT:      -1.1      2.270      3.975
REMARK  1 active torsions:
REMARK  status: ('A' for Active; 'I' for Inactive)
REMARK    1  A    between atoms: C1_1  and  C6_6 
ROOT
HETATM    1  C2  UNL     1     -35.424   6.362   4.016  1.00 20.00     0.027 C 
HETATM    2  C3  UNL     1     -34.227   6.865   3.216  1.00 20.00     0.017 C 
HETATM    3  C4  UNL     1     -35.050   5.127   4.826  1.00 20.00     0.167 C 
HETATM    4  C5  UNL     1     -33.328   4.521   3.317  1.00 20.00     0.181 C 
HETATM    5  C6  UNL     1     -33.598   5.725   2.418  1.00 20.00     0.096 C 
HETATM    6  O8  UNL     1     -34.524   4.107   3.978  1.00 20.00    -0.390 OA
ENDROOT
BRANCH   5   7
HETATM    7  C1  UNL     1     -32.328   6.192   1.781  1.00 20.00     0.225 C 
HETATM    8  O7  UNL     1     -31.565   5.415   1.215  1.00 20.00    -0.279 OA
HETATM    9 CL9  UNL     1     -32.102   7.907   1.952  1.00 20.00    -0.043 Cl
ENDBRANCH   5   7
TORSDOF 1
ENDMDL
MODEL 6
REMARK VINA RESULT:      -0.8      1.758      3.472
REMARK  1 active torsions:
REMARK  status: ('A' for Active; 'I' for Inactive)
REMARK    1  A    between atoms: C1_1  and  C6_6 
ROOT
HETATM    1  C2  UNL     1     -34.515   4.866   4.067  1.00 20.00     0.027 C 
HETATM    2  C3  UNL     1     -33.599   5.152   2.881  1.00 20.00     0.017 C 
HETATM    3  C4  UNL     1     -35.494   6.013   4.280  1.00 20.00     0.167 C 
HETATM    4  C5  UNL     1     -34.034   7.592   3.288  1.00 20.00     0.181 C 
HETATM    5  C6  UNL     1     -32.967   6.536   3.012  1.00 20.00     0.096 C 
HETATM    6  O8  UNL     1     -34.799   7.248   4.443  1.00 20.00    -0.390 OA
ENDROOT
BRANCH   5   7
HETATM    7  C1  UNL     1     -32.215   6.870   1.764  1.00 20.00     0.225 C 
HETATM    8  O7  UNL     1     -31.945   8.029   1.463  1.00 20.00    -0.279 OA
HETATM    9 CL9  UNL     1     -31.802   5.451   0.848  1.00 20.00    -0.043 Cl
ENDBRANCH   5   7
TORSDOF 1
ENDMDL
MODEL 7
REMARK VINA RESULT:      -0.8      2.217      3.964
REMARK  1 active torsions:
REMARK  status: ('A' for Active; 'I' for Inactive)
REMARK    1  A    between atoms: C1_1  and  C6_6 
ROOT
HETATM    1  C2  UNL     1     -35.111   6.238   4.097  1.00 20.00     0.027 C 
HETATM    2  C3  UNL     1     -34.142   7.363   3.748  1.00 20.00     0.017 C 
HETATM    3  C4  UNL     1     -34.410   4.887   4.047  1.00 20.00     0.167 C 
HETATM    4  C5  UNL     1     -32.804   5.654   2.483  1.00 20.00     0.181 C 
HETATM    5  C6  UNL     1     -33.410   7.054   2.444  1.00 20.00     0.096 C 
HETATM    6  O8  UNL     1     -33.807   4.678   2.771  1.00 20.00    -0.390 OA
ENDROOT
BRANCH   5   7
HETATM    7  C1  UNL     1     -32.343   8.075   2.208  1.00 20.00     0.225 C 
HETATM    8  O7  UNL     1     -31.995   8.397   1.075  1.00 20.00    -0.279 OA
HETATM    9 CL9  UNL     1     -31.699   8.705   3.695  1.00 20.00    -0.043 Cl
ENDBRANCH   5   7
TORSDOF 1
ENDMDL
MODEL 8
REMARK VINA RESULT:      -0.7      1.789      3.824
REMARK  1 active torsions:
REMARK  status: ('A' for Active; 'I' for Inactive)
REMARK    1  A    between atoms: C1_1  and  C6_6 
ROOT
HETATM    1  C2  UNL     1     -35.464   6.278   4.109  1.00 20.00     0.027 C 
HETATM    2  C3  UNL     1     -34.315   6.899   3.322  1.00 20.00     0.017 C 
HETATM    3  C4  UNL     1     -35.008   5.009   4.817  1.00 20.00     0.167 C 
HETATM    4  C5  UNL     1     -33.297   4.604   3.230  1.00 20.00     0.181 C 
HETATM    5  C6  UNL     1     -33.650   5.855   2.428  1.00 20.00     0.096 C 
HETATM    6  O8  UNL     1     -34.453   4.082   3.885  1.00 20.00    -0.390 OA
ENDROOT
BRANCH   5   7
HETATM    7  C1  UNL     1     -32.422   6.432   1.800  1.00 20.00     0.225 C 
HETATM    8  O7  UNL     1     -32.147   7.625   1.897  1.00 20.00    -0.279 OA
HETATM    9 CL9  UNL     1     -31.491   5.231   0.956  1.00 20.00    -0.043 Cl
ENDBRANCH   5   7
TORSDOF 1
ENDMDL
MODEL 9
REMARK VINA RESULT:      -0.7      2.340      3.646
REMARK  1 active torsions:
REMARK  status: ('A' for Active; 'I' for Inactive)
REMARK    1  A    between atoms: C1_1  and  C6_6 
ROOT
HETATM    1  C2  UNL     1     -34.566   4.782   4.193  1.00 20.00     0.027 C 
HETATM    2  C3  UNL     1     -33.660   4.944   2.978  1.00 20.00     0.017 C 
HETATM    3  C4  UNL     1     -35.501   5.977   4.331  1.00 20.00     0.167 C 
HETATM    4  C5  UNL     1     -34.001   7.423   3.204  1.00 20.00     0.181 C 
HETATM    5  C6  UNL     1     -32.977   6.311   2.996  1.00 20.00     0.096 C 
HETATM    6  O8  UNL     1     -34.760   7.194   4.392  1.00 20.00    -0.390 OA
ENDROOT
BRANCH   5   7
HETATM    7  C1  UNL     1     -32.233   6.523   1.716  1.00 20.00     0.225 C 
HETATM    8  O7  UNL     1     -31.849   5.581   1.028  1.00 20.00    -0.279 OA
HETATM    9 CL9  UNL     1     -32.005   8.209   1.363  1.00 20.00    -0.043 Cl
ENDBRANCH   5   7
TORSDOF 1
ENDMDL
