MODEL 1
REMARK VINA RESULT:       0.5      0.000      0.000
REMARK  0 active torsions:
REMARK  status: ('A' for Active; 'I' for Inactive)
ROOT
HETATM    1  C1  UNL     1     -31.718   8.036   1.656  1.00 20.00    -0.006 C 
HETATM    2  C2  UNL     1     -31.454   6.847   1.106  1.00 20.00     0.112 C 
HETATM    3  C3  UNL     1     -33.079   5.710   2.234  1.00 20.00     0.023 C 
HETATM    4  C4  UNL     1     -34.432   6.870   4.064  1.00 20.00     0.136 C 
HETATM    5  C5  UNL     1     -32.745   8.167   2.727  1.00 20.00     0.046 C 
HETATM    6  C6  UNL     1     -33.758   4.404   2.588  1.00 20.00     0.056 C 
HETATM    7  C7  UNL     1     -35.073   5.539   4.388  1.00 20.00     0.079 C 
HETATM    8  C8  UNL     1     -34.125   4.397   4.063  1.00 20.00     0.013 C 
HETATM    9  C9  UNL     1     -33.740   7.001   2.709  1.00 20.00     0.106 C 
HETATM   10  N10 UNL     1     -32.037   5.662   1.461  1.00 20.00    -0.269 NA
HETATM   11  O11 UNL     1     -34.577   7.833   4.819  1.00 20.00    -0.297 OA
ENDROOT
TORSDOF 0
ENDMDL
MODEL 2
REMARK VINA RESULT:       0.5      2.131      4.208
REMARK  0 active torsions:
REMARK  status: ('A' for Active; 'I' for Inactive)
ROOT
HETATM    1  C1  UNL     1     -34.705   4.614   4.141  1.00 20.00    -0.006 C 
HETATM    2  C2  UNL     1     -35.149   5.797   4.577  1.00 20.00     0.112 C 
HETATM    3  C3  UNL     1     -33.892   7.052   3.143  1.00 20.00     0.023 C 
HETATM    4  C4  UNL     1     -32.152   5.939   1.640  1.00 20.00     0.136 C 
HETATM    5  C5  UNL     1     -33.631   4.537   3.110  1.00 20.00     0.046 C 
HETATM    6  C6  UNL     1     -33.409   8.405   2.669  1.00 20.00     0.056 C 
HETATM    7  C7  UNL     1     -31.696   7.315   1.207  1.00 20.00     0.079 C 
HETATM    8  C8  UNL     1     -31.933   8.329   2.312  1.00 20.00     0.013 C 
HETATM    9  C9  UNL     1     -33.525   5.834   2.300  1.00 20.00     0.106 C 
HETATM   10  N10 UNL     1     -34.676   7.017   4.178  1.00 20.00    -0.269 NA
HETATM   11  O11 UNL     1     -31.486   4.943   1.357  1.00 20.00    -0.297 OA
ENDROOT
TORSDOF 0
ENDMDL
MODEL 3
REMARK VINA RESULT:       0.8      1.789      2.571
REMARK  0 active torsions:
REMARK  status: ('A' for Active; 'I' for Inactive)
ROOT
HETATM    1  C1  UNL     1     -31.633   6.592   1.136  1.00 20.00    -0.006 C 
HETATM    2  C2  UNL     1     -32.019   7.822   1.489  1.00 20.00     0.112 C 
HETATM    3  C3  UNL     1     -33.444   7.146   3.138  1.00 20.00     0.023 C 
HETATM    4  C4  UNL     1     -33.931   4.663   3.486  1.00 20.00     0.136 C 
HETATM    5  C5  UNL     1     -32.251   5.391   1.765  1.00 20.00     0.046 C 
HETATM    6  C6  UNL     1     -34.492   7.477   4.180  1.00 20.00     0.056 C 
HETATM    7  C7  UNL     1     -34.977   5.045   4.510  1.00 20.00     0.079 C 
HETATM    8  C8  UNL     1     -35.570   6.406   4.185  1.00 20.00     0.013 C 
HETATM    9  C9  UNL     1     -32.896   5.722   3.116  1.00 20.00     0.106 C 
HETATM   10  N10 UNL     1     -32.999   8.115   2.398  1.00 20.00    -0.269 NA
HETATM   11  O11 UNL     1     -33.859   3.505   3.071  1.00 20.00    -0.297 OA
ENDROOT
TORSDOF 0
ENDMDL
MODEL 4
REMARK VINA RESULT:       1.2      1.621      3.431
REMARK  0 active torsions:
REMARK  status: ('A' for Active; 'I' for Inactive)
ROOT
HETATM    1  C1  UNL     1     -35.229   6.615   4.420  1.00 20.00    -0.006 C 
HETATM    2  C2  UNL     1     -35.049   5.302   4.243  1.00 20.00     0.112 C 
HETATM    3  C3  UNL     1     -33.239   5.506   2.868  1.00 20.00     0.023 C 
HETATM    4  C4  UNL     1     -32.487   7.809   2.057  1.00 20.00     0.136 C 
HETATM    5  C5  UNL     1     -34.390   7.603   3.686  1.00 20.00     0.046 C 
HETATM    6  C6  UNL     1     -32.205   4.872   1.963  1.00 20.00     0.056 C 
HETATM    7  C7  UNL     1     -31.479   7.127   1.160  1.00 20.00     0.079 C 
HETATM    8  C8  UNL     1     -31.976   5.752   0.746  1.00 20.00     0.013 C 
HETATM    9  C9  UNL     1     -33.073   6.986   3.202  1.00 20.00     0.106 C 
HETATM   10  N10 UNL     1     -34.144   4.734   3.389  1.00 20.00    -0.269 NA
HETATM   11  O11 UNL     1     -32.723   9.011   1.930  1.00 20.00    -0.297 OA
ENDROOT
TORSDOF 0
ENDMDL
MODEL 5
REMARK VINA RESULT:       1.5      2.289      3.098
REMARK  0 active torsions:
REMARK  status: ('A' for Active; 'I' for Inactive)
ROOT
HETATM    1  C1  UNL     1     -31.920   9.185   0.211  1.00 20.00    -0.006 C 
HETATM    2  C2  UNL     1     -32.495   9.974   1.124  1.00 20.00     0.112 C 
HETATM    3  C3  UNL     1     -33.071   8.287   2.549  1.00 20.00     0.023 C 
HETATM    4  C4  UNL     1     -32.716   5.850   1.874  1.00 20.00     0.136 C 
HETATM    5  C5  UNL     1     -31.947   7.703   0.362  1.00 20.00     0.046 C 
HETATM    6  C6  UNL     1     -33.778   7.817   3.802  1.00 20.00     0.056 C 
HETATM    7  C7  UNL     1     -33.440   5.430   3.134  1.00 20.00     0.079 C 
HETATM    8  C8  UNL     1     -34.457   6.483   3.541  1.00 20.00     0.013 C 
HETATM    9  C9  UNL     1     -32.189   7.281   1.815  1.00 20.00     0.106 C 
HETATM   10  N10 UNL     1     -33.173   9.542   2.231  1.00 20.00    -0.269 NA
HETATM   11  O11 UNL     1     -32.464   5.024   0.994  1.00 20.00    -0.297 OA
ENDROOT
TORSDOF 0
ENDMDL
MODEL 6
REMARK VINA RESULT:       2.9      1.223      3.359
REMARK  0 active torsions:
REMARK  status: ('A' for Active; 'I' for Inactive)
ROOT
HETATM    1  C1  UNL     1     -35.028   4.749   4.575  1.00 20.00    -0.006 C 
HETATM    2  C2  UNL     1     -34.229   3.888   3.937  1.00 20.00     0.112 C 
HETATM    3  C3  UNL     1     -33.016   5.477   2.837  1.00 20.00     0.023 C 
HETATM    4  C4  UNL     1     -33.687   7.938   2.977  1.00 20.00     0.136 C 
HETATM    5  C5  UNL     1     -34.939   6.212   4.305  1.00 20.00     0.046 C 
HETATM    6  C6  UNL     1     -31.956   5.844   1.821  1.00 20.00     0.056 C 
HETATM    7  C7  UNL     1     -32.622   8.252   1.949  1.00 20.00     0.079 C 
HETATM    8  C8  UNL     1     -32.400   7.063   1.030  1.00 20.00     0.013 C 
HETATM    9  C9  UNL     1     -33.584   6.599   3.703  1.00 20.00     0.106 C 
HETATM   10  N10 UNL     1     -33.304   4.220   2.985  1.00 20.00    -0.269 NA
HETATM   11  O11 UNL     1     -34.523   8.788   3.289  1.00 20.00    -0.297 OA
ENDROOT
TORSDOF 0
ENDMDL
MODEL 7
REMARK VINA RESULT:       2.9      1.603      2.302
REMARK  0 active torsions:
REMARK  status: ('A' for Active; 'I' for Inactive)
ROOT
HETATM    1  C1  UNL     1     -31.594   6.085   0.830  1.00 20.00    -0.006 C 
HETATM    2  C2  UNL     1     -32.631   5.245   0.913  1.00 20.00     0.112 C 
HETATM    3  C3  UNL     1     -33.700   6.372   2.584  1.00 20.00     0.023 C 
HETATM    4  C4  UNL     1     -32.580   8.369   3.717  1.00 20.00     0.136 C 
HETATM    5  C5  UNL     1     -31.460   7.223   1.781  1.00 20.00     0.046 C 
HETATM    6  C6  UNL     1     -34.830   6.462   3.588  1.00 20.00     0.056 C 
HETATM    7  C7  UNL     1     -33.725   8.409   4.704  1.00 20.00     0.079 C 
HETATM    8  C8  UNL     1     -34.309   7.021   4.902  1.00 20.00     0.013 C 
HETATM    9  C9  UNL     1     -32.803   7.596   2.420  1.00 20.00     0.106 C 
HETATM   10  N10 UNL     1     -33.625   5.303   1.851  1.00 20.00    -0.269 NA
HETATM   11  O11 UNL     1     -31.563   9.037   3.913  1.00 20.00    -0.297 OA
ENDROOT
TORSDOF 0
ENDMDL
MODEL 8
REMARK VINA RESULT:       3.1      1.866      3.038
REMARK  0 active torsions:
REMARK  status: ('A' for Active; 'I' for Inactive)
ROOT
HETATM    1  C1  UNL     1     -32.893   8.619   5.202  1.00 20.00    -0.006 C 
HETATM    2  C2  UNL     1     -31.952   9.129   4.402  1.00 20.00     0.112 C 
HETATM    3  C3  UNL     1     -32.333   7.700   2.664  1.00 20.00     0.023 C 
HETATM    4  C4  UNL     1     -33.973   5.759   2.925  1.00 20.00     0.136 C 
HETATM    5  C5  UNL     1     -33.667   7.413   4.792  1.00 20.00     0.046 C 
HETATM    6  C6  UNL     1     -31.951   7.168   1.299  1.00 20.00     0.056 C 
HETATM    7  C7  UNL     1     -33.549   5.261   1.562  1.00 20.00     0.079 C 
HETATM    8  C8  UNL     1     -32.112   5.657   1.272  1.00 20.00     0.013 C 
HETATM    9  C9  UNL     1     -33.643   7.209   3.273  1.00 20.00     0.106 C 
HETATM   10  N10 UNL     1     -31.579   8.618   3.189  1.00 20.00    -0.269 NA
HETATM   11  O11 UNL     1     -34.661   5.051   3.663  1.00 20.00    -0.297 OA
ENDROOT
TORSDOF 0
ENDMDL
MODEL 9
REMARK VINA RESULT:       3.4      1.413      2.644
REMARK  0 active torsions:
REMARK  status: ('A' for Active; 'I' for Inactive)
ROOT
HETATM    1  C1  UNL     1     -32.468   5.014   0.881  1.00 20.00    -0.006 C 
HETATM    2  C2  UNL     1     -31.797   6.161   0.732  1.00 20.00     0.112 C 
HETATM    3  C3  UNL     1     -32.638   7.158   2.604  1.00 20.00     0.023 C 
HETATM    4  C4  UNL     1     -34.481   6.018   3.957  1.00 20.00     0.136 C 
HETATM    5  C5  UNL     1     -33.459   4.850   1.981  1.00 20.00     0.046 C 
HETATM    6  C6  UNL     1     -32.770   8.378   3.490  1.00 20.00     0.056 C 
HETATM    7  C7  UNL     1     -34.584   7.266   4.806  1.00 20.00     0.079 C 
HETATM    8  C8  UNL     1     -34.197   8.494   3.999  1.00 20.00     0.013 C 
HETATM    9  C9  UNL     1     -33.215   5.843   3.122  1.00 20.00     0.106 C 
HETATM   10  N10 UNL     1     -31.953   7.277   1.507  1.00 20.00    -0.269 NA
HETATM   11  O11 UNL     1     -35.336   5.135   4.040  1.00 20.00    -0.297 OA
ENDROOT
TORSDOF 0
ENDMDL
