MODEL 1
REMARK VINA RESULT:      -2.3      0.000      0.000
REMARK  1 active torsions:
REMARK  status: ('A' for Active; 'I' for Inactive)
REMARK    1  A    between atoms: C4_4  and  C5_5 
ROOT
HETATM    1  C1  UNL     1     -34.277   7.537   4.259  1.00 20.00     0.007 A 
HETATM    2  C2  UNL     1     -35.146   6.404   3.791  1.00 20.00     0.007 A 
HETATM    3  C4  UNL     1     -33.696   6.447   3.399  1.00 20.00     0.017 A 
ENDROOT
BRANCH   3   4
HETATM    4  C5  UNL     1     -33.239   6.687   1.970  1.00 20.00     0.149 A 
HETATM    5  C3  UNL     1     -31.973   7.409   1.615  1.00 20.00     0.200 A 
HETATM    6  O6  UNL     1     -32.062   5.976   1.583  1.00 20.00    -0.381 OA
ENDBRANCH   3   4
TORSDOF 1
ENDMDL
MODEL 2
REMARK VINA RESULT:      -2.0      1.415      3.072
REMARK  1 active torsions:
REMARK  status: ('A' for Active; 'I' for Inactive)
REMARK    1  A    between atoms: C4_4  and  C5_5 
ROOT
HETATM    1  C1  UNL     1     -32.040   7.599   1.840  1.00 20.00     0.007 A 
HETATM    2  C2  UNL     1     -32.294   6.156   1.505  1.00 20.00     0.007 A 
HETATM    3  C4  UNL     1     -33.376   6.979   2.145  1.00 20.00     0.017 A 
ENDROOT
BRANCH   3   4
HETATM    4  C5  UNL     1     -33.861   6.735   3.565  1.00 20.00     0.149 A 
HETATM    5  C3  UNL     1     -35.277   6.377   3.907  1.00 20.00     0.200 A 
HETATM    6  O6  UNL     1     -34.237   5.387   3.854  1.00 20.00    -0.381 OA
ENDBRANCH   3   4
TORSDOF 1
ENDMDL
MODEL 3
REMARK VINA RESULT:      -1.9      0.962      1.316
REMARK  1 active torsions:
REMARK  status: ('A' for Active; 'I' for Inactive)
REMARK    1  A    between atoms: C4_4  and  C5_5 
ROOT
HETATM    1  C1  UNL     1     -35.108   6.290   4.044  1.00 20.00     0.007 A 
HETATM    2  C2  UNL     1     -34.295   7.517   4.350  1.00 20.00     0.007 A 
HETATM    3  C4  UNL     1     -34.195   6.869   2.998  1.00 20.00     0.017 A 
ENDROOT
BRANCH   3   4
HETATM    4  C5  UNL     1     -32.940   6.157   2.521  1.00 20.00     0.149 A 
HETATM    5  C3  UNL     1     -32.725   5.719   1.103  1.00 20.00     0.200 A 
HETATM    6  O6  UNL     1     -32.119   6.910   1.627  1.00 20.00    -0.381 OA
ENDBRANCH   3   4
TORSDOF 1
ENDMDL
MODEL 4
REMARK VINA RESULT:      -1.8      1.807      3.312
REMARK  1 active torsions:
REMARK  status: ('A' for Active; 'I' for Inactive)
REMARK    1  A    between atoms: C4_4  and  C5_5 
ROOT
HETATM    1  C1  UNL     1     -32.434   6.312   1.367  1.00 20.00     0.007 A 
HETATM    2  C2  UNL     1     -31.993   7.727   1.616  1.00 20.00     0.007 A 
HETATM    3  C4  UNL     1     -32.720   6.968   2.690  1.00 20.00     0.017 A 
ENDROOT
BRANCH   3   4
HETATM    4  C5  UNL     1     -34.127   7.327   3.140  1.00 20.00     0.149 A 
HETATM    5  C3  UNL     1     -34.968   6.444   4.013  1.00 20.00     0.200 A 
HETATM    6  O6  UNL     1     -34.269   7.584   4.538  1.00 20.00    -0.381 OA
ENDBRANCH   3   4
TORSDOF 1
ENDMDL
MODEL 5
REMARK VINA RESULT:      -1.8      1.275      1.533
REMARK  1 active torsions:
REMARK  status: ('A' for Active; 'I' for Inactive)
REMARK    1  A    between atoms: C4_4  and  C5_5 
ROOT
HETATM    1  C1  UNL     1     -34.605   6.383   3.799  1.00 20.00     0.007 A 
HETATM    2  C2  UNL     1     -34.049   7.592   4.499  1.00 20.00     0.007 A 
HETATM    3  C4  UNL     1     -33.949   7.479   3.004  1.00 20.00     0.017 A 
ENDROOT
BRANCH   3   4
HETATM    4  C5  UNL     1     -32.625   7.288   2.282  1.00 20.00     0.149 A 
HETATM    5  C3  UNL     1     -32.086   8.256   1.272  1.00 20.00     0.200 A 
HETATM    6  O6  UNL     1     -31.607   8.230   2.626  1.00 20.00    -0.381 OA
ENDBRANCH   3   4
TORSDOF 1
ENDMDL
MODEL 6
REMARK VINA RESULT:      -1.5      2.231      3.807
REMARK  1 active torsions:
REMARK  status: ('A' for Active; 'I' for Inactive)
REMARK    1  A    between atoms: C4_4  and  C5_5 
ROOT
HETATM    1  C1  UNL     1     -32.720  10.616   0.686  1.00 20.00     0.007 A 
HETATM    2  C2  UNL     1     -32.019   9.890  -0.428  1.00 20.00     0.007 A 
HETATM    3  C4  UNL     1     -32.736   9.113   0.640  1.00 20.00     0.017 A 
ENDROOT
BRANCH   3   4
HETATM    4  C5  UNL     1     -32.006   8.253   1.660  1.00 20.00     0.149 A 
HETATM    5  C3  UNL     1     -32.687   7.580   2.814  1.00 20.00     0.200 A 
HETATM    6  O6  UNL     1     -32.330   6.862   1.622  1.00 20.00    -0.381 OA
ENDBRANCH   3   4
TORSDOF 1
ENDMDL
MODEL 7
REMARK VINA RESULT:      -1.4      2.735      3.546
REMARK  1 active torsions:
REMARK  status: ('A' for Active; 'I' for Inactive)
REMARK    1  A    between atoms: C4_4  and  C5_5 
ROOT
HETATM    1  C1  UNL     1     -32.148   7.929   2.679  1.00 20.00     0.007 A 
HETATM    2  C2  UNL     1     -32.279   7.050   1.467  1.00 20.00     0.007 A 
HETATM    3  C4  UNL     1     -31.877   8.489   1.310  1.00 20.00     0.017 A 
ENDROOT
BRANCH   3   4
HETATM    4  C5  UNL     1     -32.777   9.526   0.657  1.00 20.00     0.149 A 
HETATM    5  C3  UNL     1     -32.261  10.680  -0.150  1.00 20.00     0.200 A 
HETATM    6  O6  UNL     1     -32.794   9.500  -0.771  1.00 20.00    -0.381 OA
ENDBRANCH   3   4
TORSDOF 1
ENDMDL
MODEL 8
REMARK VINA RESULT:      -1.2      1.771      3.264
REMARK  1 active torsions:
REMARK  status: ('A' for Active; 'I' for Inactive)
REMARK    1  A    between atoms: C4_4  and  C5_5 
ROOT
HETATM    1  C1  UNL     1     -32.174   8.372   1.207  1.00 20.00     0.007 A 
HETATM    2  C2  UNL     1     -31.480   8.232   2.533  1.00 20.00     0.007 A 
HETATM    3  C4  UNL     1     -32.636   7.334   2.192  1.00 20.00     0.017 A 
ENDROOT
BRANCH   3   4
HETATM    4  C5  UNL     1     -33.978   7.418   2.902  1.00 20.00     0.149 A 
HETATM    5  C3  UNL     1     -34.491   6.358   3.830  1.00 20.00     0.200 A 
HETATM    6  O6  UNL     1     -33.904   7.574   4.320  1.00 20.00    -0.381 OA
ENDBRANCH   3   4
TORSDOF 1
ENDMDL
MODEL 9
REMARK VINA RESULT:      -1.1      2.321      3.037
REMARK  1 active torsions:
REMARK  status: ('A' for Active; 'I' for Inactive)
REMARK    1  A    between atoms: C4_4  and  C5_5 
ROOT
HETATM    1  C1  UNL     1     -33.507   7.433   2.837  1.00 20.00     0.007 A 
HETATM    2  C2  UNL     1     -34.435   7.551   4.014  1.00 20.00     0.007 A 
HETATM    3  C4  UNL     1     -33.573   6.330   3.858  1.00 20.00     0.017 A 
ENDROOT
BRANCH   3   4
HETATM    4  C5  UNL     1     -34.145   4.957   3.545  1.00 20.00     0.149 A 
HETATM    5  C3  UNL     1     -33.820   3.725   4.336  1.00 20.00     0.200 A 
HETATM    6  O6  UNL     1     -35.051   4.441   4.521  1.00 20.00    -0.381 OA
ENDBRANCH   3   4
TORSDOF 1
ENDMDL
