MODEL 1
REMARK VINA RESULT:      -2.1      0.000      0.000
REMARK  3 active torsions:
REMARK  status: ('A' for Active; 'I' for Inactive)
REMARK    1  A    between atoms: C2_2  and  C7_7 
REMARK    2  A    between atoms: C5_5  and  C7_7 
REMARK    3  A    between atoms: C6_6  and  C7_7 
ROOT
HETATM    1  C7  UNL     1     -33.425   5.951   3.249  1.00 20.00     0.016 C 
ENDROOT
BRANCH   1   2
HETATM    2  C2  UNL     1     -34.081   4.572   3.373  1.00 20.00     0.149 A 
HETATM    3  C1  UNL     1     -33.662   3.603   4.442  1.00 20.00     0.200 A 
HETATM    4  O8  UNL     1     -34.859   4.387   4.560  1.00 20.00    -0.381 OA
ENDBRANCH   1   2
BRANCH   1   5
HETATM    5  C5  UNL     1     -34.383   7.077   3.690  1.00 20.00     0.002 C 
HETATM    6  C3  UNL     1     -33.812   7.983   4.772  1.00 20.00     0.005 C 
ENDBRANCH   1   5
BRANCH   1   7
HETATM    7  C6  UNL     1     -32.953   6.227   1.806  1.00 20.00     0.002 C 
HETATM    8  C4  UNL     1     -32.042   7.440   1.677  1.00 20.00     0.005 C 
ENDBRANCH   1   7
TORSDOF 3
ENDMDL
MODEL 2
REMARK VINA RESULT:      -1.9      2.257      3.441
REMARK  3 active torsions:
REMARK  status: ('A' for Active; 'I' for Inactive)
REMARK    1  A    between atoms: C2_2  and  C7_7 
REMARK    2  A    between atoms: C5_5  and  C7_7 
REMARK    3  A    between atoms: C6_6  and  C7_7 
ROOT
HETATM    1  C7  UNL     1     -33.310   7.185   2.274  1.00 20.00     0.016 C 
ENDROOT
BRANCH   1   2
HETATM    2  C2  UNL     1     -32.955   5.716   2.025  1.00 20.00     0.149 A 
HETATM    3  C1  UNL     1     -32.958   5.138   0.638  1.00 20.00     0.200 A 
HETATM    4  O8  UNL     1     -31.739   5.513   1.297  1.00 20.00    -0.381 OA
ENDBRANCH   1   2
BRANCH   1   5
HETATM    5  C5  UNL     1     -32.076   8.101   2.129  1.00 20.00     0.002 C 
HETATM    6  C3  UNL     1     -32.129   9.019   0.916  1.00 20.00     0.005 C 
ENDBRANCH   1   5
BRANCH   1   7
HETATM    7  C6  UNL     1     -33.927   7.390   3.673  1.00 20.00     0.002 C 
HETATM    8  C4  UNL     1     -35.057   6.423   3.997  1.00 20.00     0.005 C 
ENDBRANCH   1   7
TORSDOF 3
ENDMDL
MODEL 3
REMARK VINA RESULT:      -1.8      1.605      3.411
REMARK  3 active torsions:
REMARK  status: ('A' for Active; 'I' for Inactive)
REMARK    1  A    between atoms: C2_2  and  C7_7 
REMARK    2  A    between atoms: C5_5  and  C7_7 
REMARK    3  A    between atoms: C6_6  and  C7_7 
ROOT
HETATM    1  C7  UNL     1     -33.604   5.569   3.403  1.00 20.00     0.016 C 
ENDROOT
BRANCH   1   2
HETATM    2  C2  UNL     1     -33.260   5.766   1.923  1.00 20.00     0.149 A 
HETATM    3  C1  UNL     1     -32.221   6.761   1.491  1.00 20.00     0.200 A 
HETATM    4  O8  UNL     1     -31.938   5.355   1.559  1.00 20.00    -0.381 OA
ENDBRANCH   1   2
BRANCH   1   5
HETATM    5  C5  UNL     1     -34.136   4.147   3.679  1.00 20.00     0.002 C 
HETATM    6  C3  UNL     1     -33.263   3.336   4.626  1.00 20.00     0.005 C 
ENDBRANCH   1   5
BRANCH   1   7
HETATM    7  C6  UNL     1     -34.647   6.599   3.885  1.00 20.00     0.002 C 
HETATM    8  C4  UNL     1     -34.041   7.904   4.385  1.00 20.00     0.005 C 
ENDBRANCH   1   7
TORSDOF 3
ENDMDL
MODEL 4
REMARK VINA RESULT:      -1.7      1.815      3.028
REMARK  3 active torsions:
REMARK  status: ('A' for Active; 'I' for Inactive)
REMARK    1  A    between atoms: C2_2  and  C7_7 
REMARK    2  A    between atoms: C5_5  and  C7_7 
REMARK    3  A    between atoms: C6_6  and  C7_7 
ROOT
HETATM    1  C7  UNL     1     -34.427   6.184   3.311  1.00 20.00     0.016 C 
ENDROOT
BRANCH   1   2
HETATM    2  C2  UNL     1     -33.020   5.998   2.736  1.00 20.00     0.149 A 
HETATM    3  C1  UNL     1     -32.808   5.687   1.281  1.00 20.00     0.200 A 
HETATM    4  O8  UNL     1     -32.618   7.010   1.806  1.00 20.00    -0.381 OA
ENDBRANCH   1   2
BRANCH   1   5
HETATM    5  C5  UNL     1     -34.574   7.543   4.026  1.00 20.00     0.002 C 
HETATM    6  C3  UNL     1     -33.374   7.921   4.883  1.00 20.00     0.005 C 
ENDBRANCH   1   5
BRANCH   1   7
HETATM    7  C6  UNL     1     -34.790   5.054   4.298  1.00 20.00     0.002 C 
HETATM    8  C4  UNL     1     -33.846   3.861   4.244  1.00 20.00     0.005 C 
ENDBRANCH   1   7
TORSDOF 3
ENDMDL
MODEL 5
REMARK VINA RESULT:      -1.7      3.177      4.486
REMARK  3 active torsions:
REMARK  status: ('A' for Active; 'I' for Inactive)
REMARK    1  A    between atoms: C2_2  and  C7_7 
REMARK    2  A    between atoms: C5_5  and  C7_7 
REMARK    3  A    between atoms: C6_6  and  C7_7 
ROOT
HETATM    1  C7  UNL     1     -32.638   7.904   1.699  1.00 20.00     0.016 C 
ENDROOT
BRANCH   1   2
HETATM    2  C2  UNL     1     -31.977   9.080   0.974  1.00 20.00     0.149 A 
HETATM    3  C1  UNL     1     -32.574   9.659  -0.277  1.00 20.00     0.200 A 
HETATM    4  O8  UNL     1     -32.731  10.296   1.001  1.00 20.00    -0.381 OA
ENDBRANCH   1   2
BRANCH   1   5
HETATM    5  C5  UNL     1     -32.807   8.188   3.207  1.00 20.00     0.002 C 
HETATM    6  C3  UNL     1     -34.014   7.503   3.831  1.00 20.00     0.005 C 
ENDBRANCH   1   5
BRANCH   1   7
HETATM    7  C6  UNL     1     -31.832   6.600   1.520  1.00 20.00     0.002 C 
HETATM    8  C4  UNL     1     -32.686   5.390   1.171  1.00 20.00     0.005 C 
ENDBRANCH   1   7
TORSDOF 3
ENDMDL
MODEL 6
REMARK VINA RESULT:      -1.7      1.786      2.950
REMARK  3 active torsions:
REMARK  status: ('A' for Active; 'I' for Inactive)
REMARK    1  A    between atoms: C2_2  and  C7_7 
REMARK    2  A    between atoms: C5_5  and  C7_7 
REMARK    3  A    between atoms: C6_6  and  C7_7 
ROOT
HETATM    1  C7  UNL     1     -33.058   6.998   2.048  1.00 20.00     0.016 C 
ENDROOT
BRANCH   1   2
HETATM    2  C2  UNL     1     -33.592   6.888   3.479  1.00 20.00     0.149 A 
HETATM    3  C1  UNL     1     -35.064   6.760   3.753  1.00 20.00     0.200 A 
HETATM    4  O8  UNL     1     -34.185   5.625   3.798  1.00 20.00    -0.381 OA
ENDBRANCH   1   2
BRANCH   1   5
HETATM    5  C5  UNL     1     -32.431   5.670   1.572  1.00 20.00     0.002 C 
HETATM    6  C3  UNL     1     -33.202   4.994   0.448  1.00 20.00     0.005 C 
ENDBRANCH   1   5
BRANCH   1   7
HETATM    7  C6  UNL     1     -32.010   8.124   1.918  1.00 20.00     0.002 C 
HETATM    8  C4  UNL     1     -32.270   9.078   0.761  1.00 20.00     0.005 C 
ENDBRANCH   1   7
TORSDOF 3
ENDMDL
MODEL 7
REMARK VINA RESULT:      -1.6      2.657      3.747
REMARK  3 active torsions:
REMARK  status: ('A' for Active; 'I' for Inactive)
REMARK    1  A    between atoms: C2_2  and  C7_7 
REMARK    2  A    between atoms: C5_5  and  C7_7 
REMARK    3  A    between atoms: C6_6  and  C7_7 
ROOT
HETATM    1  C7  UNL     1     -33.303   7.022   2.117  1.00 20.00     0.016 C 
ENDROOT
BRANCH   1   2
HETATM    2  C2  UNL     1     -32.067   7.861   1.779  1.00 20.00     0.149 A 
HETATM    3  C1  UNL     1     -32.088   8.861   0.657  1.00 20.00     0.200 A 
HETATM    4  O8  UNL     1     -32.213   9.263   2.030  1.00 20.00    -0.381 OA
ENDBRANCH   1   2
BRANCH   1   5
HETATM    5  C5  UNL     1     -33.800   7.295   3.552  1.00 20.00     0.002 C 
HETATM    6  C3  UNL     1     -35.012   6.466   3.952  1.00 20.00     0.005 C 
ENDBRANCH   1   5
BRANCH   1   7
HETATM    7  C6  UNL     1     -33.024   5.512   1.960  1.00 20.00     0.002 C 
HETATM    8  C4  UNL     1     -31.875   5.193   1.013  1.00 20.00     0.005 C 
ENDBRANCH   1   7
TORSDOF 3
ENDMDL
MODEL 8
REMARK VINA RESULT:      -1.6      2.030      2.849
REMARK  3 active torsions:
REMARK  status: ('A' for Active; 'I' for Inactive)
REMARK    1  A    between atoms: C2_2  and  C7_7 
REMARK    2  A    between atoms: C5_5  and  C7_7 
REMARK    3  A    between atoms: C6_6  and  C7_7 
ROOT
HETATM    1  C7  UNL     1     -32.760   6.867   2.517  1.00 20.00     0.016 C 
ENDROOT
BRANCH   1   2
HETATM    2  C2  UNL     1     -34.116   7.338   3.052  1.00 20.00     0.149 A 
HETATM    3  C1  UNL     1     -34.897   6.508   4.031  1.00 20.00     0.200 A 
HETATM    4  O8  UNL     1     -34.129   7.647   4.450  1.00 20.00    -0.381 OA
ENDBRANCH   1   2
BRANCH   1   5
HETATM    5  C5  UNL     1     -31.853   8.058   2.140  1.00 20.00     0.002 C 
HETATM    6  C3  UNL     1     -32.343   8.848   0.935  1.00 20.00     0.005 C 
ENDBRANCH   1   5
BRANCH   1   7
HETATM    7  C6  UNL     1     -32.924   5.950   1.286  1.00 20.00     0.002 C 
HETATM    8  C4  UNL     1     -31.740   5.023   1.046  1.00 20.00     0.005 C 
ENDBRANCH   1   7
TORSDOF 3
ENDMDL
MODEL 9
REMARK VINA RESULT:      -1.2      1.594      3.579
REMARK  3 active torsions:
REMARK  status: ('A' for Active; 'I' for Inactive)
REMARK    1  A    between atoms: C2_2  and  C7_7 
REMARK    2  A    between atoms: C5_5  and  C7_7 
REMARK    3  A    between atoms: C6_6  and  C7_7 
ROOT
HETATM    1  C7  UNL     1     -33.587   5.497   3.420  1.00 20.00     0.016 C 
ENDROOT
BRANCH   1   2
HETATM    2  C2  UNL     1     -34.419   6.729   3.789  1.00 20.00     0.149 A 
HETATM    3  C1  UNL     1     -33.887   7.776   4.726  1.00 20.00     0.200 A 
HETATM    4  O8  UNL     1     -33.895   7.969   3.303  1.00 20.00    -0.381 OA
ENDBRANCH   1   2
BRANCH   1   5
HETATM    5  C5  UNL     1     -33.388   5.382   1.894  1.00 20.00     0.002 C 
HETATM    6  C3  UNL     1     -31.998   5.783   1.422  1.00 20.00     0.005 C 
ENDBRANCH   1   5
BRANCH   1   7
HETATM    7  C6  UNL     1     -34.235   4.197   3.943  1.00 20.00     0.002 C 
HETATM    8  C4  UNL     1     -33.247   3.227   4.575  1.00 20.00     0.005 C 
ENDBRANCH   1   7
TORSDOF 3
ENDMDL
