MODEL 1
REMARK VINA RESULT:      -1.3      0.000      0.000
REMARK  3 active torsions:
REMARK  status: ('A' for Active; 'I' for Inactive)
REMARK    1  A    between atoms: C2_2  and  C6_6 
REMARK    2  A    between atoms: C6_6  and  C7_7 
REMARK    3  A    between atoms: C7_7  and  C8_8 
ROOT
HETATM    1  C6  UNL     1     -32.903   6.979   1.460  1.00 20.00     0.040 C 
ENDROOT
BRANCH   1   2
HETATM    2  C2  UNL     1     -32.068   8.250   1.508  1.00 20.00     0.079 A 
HETATM    3  C1  UNL     1     -32.487   9.448   0.690  1.00 20.00     0.206 A 
HETATM    4  O9  UNL     1     -31.432   8.571   0.264  1.00 20.00    -0.375 OA
HETATM    5  C3  UNL     1     -31.189   8.444   2.701  1.00 20.00     0.048 C 
ENDBRANCH   1   2
BRANCH   1   6
HETATM    6  C7  UNL     1     -33.147   6.419   2.864  1.00 20.00     0.007 C 
BRANCH   6   7
HETATM    7  C8  UNL     1     -34.360   7.049   3.573  1.00 20.00    -0.023 C 
HETATM    8  C4  UNL     1     -33.886   7.907   4.749  1.00 20.00     0.009 C 
HETATM    9  C5  UNL     1     -35.357   6.000   4.069  1.00 20.00     0.009 C 
ENDBRANCH   6   7
ENDBRANCH   1   6
TORSDOF 3
ENDMDL
MODEL 2
REMARK VINA RESULT:      -1.2      1.981      4.280
REMARK  3 active torsions:
REMARK  status: ('A' for Active; 'I' for Inactive)
REMARK    1  A    between atoms: C2_2  and  C6_6 
REMARK    2  A    between atoms: C6_6  and  C7_7 
REMARK    3  A    between atoms: C7_7  and  C8_8 
ROOT
HETATM    1  C6  UNL     1     -33.184   6.889   2.245  1.00 20.00     0.040 C 
ENDROOT
BRANCH   1   2
HETATM    2  C2  UNL     1     -33.964   6.898   3.552  1.00 20.00     0.079 A 
HETATM    3  C1  UNL     1     -34.584   5.617   4.057  1.00 20.00     0.206 A 
HETATM    4  O9  UNL     1     -35.362   6.625   3.393  1.00 20.00    -0.375 OA
HETATM    5  C3  UNL     1     -33.671   8.004   4.513  1.00 20.00     0.048 C 
ENDBRANCH   1   2
BRANCH   1   6
HETATM    6  C7  UNL     1     -32.288   8.123   2.122  1.00 20.00     0.007 C 
BRANCH   6   7
HETATM    7  C8  UNL     1     -32.422   8.847   0.770  1.00 20.00    -0.023 C 
HETATM    8  C4  UNL     1     -31.127   8.698  -0.031  1.00 20.00     0.009 C 
HETATM    9  C5  UNL     1     -32.759  10.331   0.932  1.00 20.00     0.009 C 
ENDBRANCH   6   7
ENDBRANCH   1   6
TORSDOF 3
ENDMDL
MODEL 3
REMARK VINA RESULT:      -0.9      1.530      2.531
REMARK  3 active torsions:
REMARK  status: ('A' for Active; 'I' for Inactive)
REMARK    1  A    between atoms: C2_2  and  C6_6 
REMARK    2  A    between atoms: C6_6  and  C7_7 
REMARK    3  A    between atoms: C7_7  and  C8_8 
ROOT
HETATM    1  C6  UNL     1     -32.672   8.907   1.615  1.00 20.00     0.040 C 
ENDROOT
BRANCH   1   2
HETATM    2  C2  UNL     1     -32.143   9.483   0.309  1.00 20.00     0.079 A 
HETATM    3  C1  UNL     1     -32.480  10.906  -0.067  1.00 20.00     0.206 A 
HETATM    4  O9  UNL     1     -33.167   9.785  -0.647  1.00 20.00    -0.375 OA
HETATM    5  C3  UNL     1     -30.937   8.830  -0.285  1.00 20.00     0.048 C 
ENDBRANCH   1   2
BRANCH   1   6
HETATM    6  C7  UNL     1     -32.033   7.552   1.926  1.00 20.00     0.007 C 
BRANCH   6   7
HETATM    7  C8  UNL     1     -32.993   6.363   1.737  1.00 20.00    -0.023 C 
HETATM    8  C4  UNL     1     -33.706   6.055   3.056  1.00 20.00     0.009 C 
HETATM    9  C5  UNL     1     -32.277   5.108   1.233  1.00 20.00     0.009 C 
ENDBRANCH   6   7
ENDBRANCH   1   6
TORSDOF 3
ENDMDL
MODEL 4
REMARK VINA RESULT:      -0.9      1.682      2.108
REMARK  3 active torsions:
REMARK  status: ('A' for Active; 'I' for Inactive)
REMARK    1  A    between atoms: C2_2  and  C6_6 
REMARK    2  A    between atoms: C6_6  and  C7_7 
REMARK    3  A    between atoms: C7_7  and  C8_8 
ROOT
HETATM    1  C6  UNL     1     -33.537   6.328   2.129  1.00 20.00     0.040 C 
ENDROOT
BRANCH   1   2
HETATM    2  C2  UNL     1     -32.737   7.589   2.423  1.00 20.00     0.079 A 
HETATM    3  C1  UNL     1     -32.347   8.504   1.287  1.00 20.00     0.206 A 
HETATM    4  O9  UNL     1     -31.416   7.578   1.867  1.00 20.00    -0.375 OA
HETATM    5  C3  UNL     1     -32.802   8.129   3.815  1.00 20.00     0.048 C 
ENDBRANCH   1   2
BRANCH   1   6
HETATM    6  C7  UNL     1     -33.001   5.132   2.920  1.00 20.00     0.007 C 
BRANCH   6   7
HETATM    7  C8  UNL     1     -34.101   4.334   3.645  1.00 20.00    -0.023 C 
HETATM    8  C4  UNL     1     -35.065   5.296   4.343  1.00 20.00     0.009 C 
HETATM    9  C5  UNL     1     -33.531   3.346   4.663  1.00 20.00     0.009 C 
ENDBRANCH   6   7
ENDBRANCH   1   6
TORSDOF 3
ENDMDL
MODEL 5
REMARK VINA RESULT:      -0.7      1.161      2.002
REMARK  3 active torsions:
REMARK  status: ('A' for Active; 'I' for Inactive)
REMARK    1  A    between atoms: C2_2  and  C6_6 
REMARK    2  A    between atoms: C6_6  and  C7_7 
REMARK    3  A    between atoms: C7_7  and  C8_8 
ROOT
HETATM    1  C6  UNL     1     -33.769   7.947   2.864  1.00 20.00     0.040 C 
ENDROOT
BRANCH   1   2
HETATM    2  C2  UNL     1     -32.587   7.525   2.004  1.00 20.00     0.079 A 
HETATM    3  C1  UNL     1     -31.283   8.278   2.111  1.00 20.00     0.206 A 
HETATM    4  O9  UNL     1     -32.202   8.504   1.030  1.00 20.00    -0.375 OA
HETATM    5  C3  UNL     1     -32.589   6.124   1.482  1.00 20.00     0.048 C 
ENDBRANCH   1   2
BRANCH   1   6
HETATM    6  C7  UNL     1     -33.816   7.156   4.174  1.00 20.00     0.007 C 
BRANCH   6   7
HETATM    7  C8  UNL     1     -35.050   6.241   4.293  1.00 20.00    -0.023 C 
HETATM    8  C4  UNL     1     -34.617   4.775   4.229  1.00 20.00     0.009 C 
HETATM    9  C5  UNL     1     -36.090   6.519   3.207  1.00 20.00     0.009 C 
ENDBRANCH   6   7
ENDBRANCH   1   6
TORSDOF 3
ENDMDL
MODEL 6
REMARK VINA RESULT:      -0.7      1.454      2.146
REMARK  3 active torsions:
REMARK  status: ('A' for Active; 'I' for Inactive)
REMARK    1  A    between atoms: C2_2  and  C6_6 
REMARK    2  A    between atoms: C6_6  and  C7_7 
REMARK    3  A    between atoms: C7_7  and  C8_8 
ROOT
HETATM    1  C6  UNL     1     -32.151   6.344   1.690  1.00 20.00     0.040 C 
ENDROOT
BRANCH   1   2
HETATM    2  C2  UNL     1     -32.028   7.856   1.799  1.00 20.00     0.079 A 
HETATM    3  C1  UNL     1     -31.246   8.458   2.942  1.00 20.00     0.206 A 
HETATM    4  O9  UNL     1     -32.681   8.408   2.951  1.00 20.00    -0.375 OA
HETATM    5  C3  UNL     1     -32.236   8.650   0.551  1.00 20.00     0.048 C 
ENDBRANCH   1   2
BRANCH   1   6
HETATM    6  C7  UNL     1     -33.582   5.879   1.974  1.00 20.00     0.007 C 
BRANCH   6   7
HETATM    7  C8  UNL     1     -33.884   5.704   3.474  1.00 20.00    -0.023 C 
HETATM    8  C4  UNL     1     -33.935   4.215   3.823  1.00 20.00     0.009 C 
HETATM    9  C5  UNL     1     -35.194   6.376   3.889  1.00 20.00     0.009 C 
ENDBRANCH   6   7
ENDBRANCH   1   6
TORSDOF 3
ENDMDL
MODEL 7
REMARK VINA RESULT:      -0.6      1.079      2.026
REMARK  3 active torsions:
REMARK  status: ('A' for Active; 'I' for Inactive)
REMARK    1  A    between atoms: C2_2  and  C6_6 
REMARK    2  A    between atoms: C6_6  and  C7_7 
REMARK    3  A    between atoms: C7_7  and  C8_8 
ROOT
HETATM    1  C6  UNL     1     -31.964   8.196   1.469  1.00 20.00     0.040 C 
ENDROOT
BRANCH   1   2
HETATM    2  C2  UNL     1     -32.323   9.417   0.634  1.00 20.00     0.079 A 
HETATM    3  C1  UNL     1     -32.639   9.248  -0.833  1.00 20.00     0.206 A 
HETATM    4  O9  UNL     1     -31.361   9.725  -0.384  1.00 20.00    -0.375 OA
HETATM    5  C3  UNL     1     -32.833  10.617   1.364  1.00 20.00     0.048 C 
ENDBRANCH   1   2
BRANCH   1   6
HETATM    6  C7  UNL     1     -32.824   8.112   2.732  1.00 20.00     0.007 C 
BRANCH   6   7
HETATM    7  C8  UNL     1     -33.265   6.678   3.080  1.00 20.00    -0.023 C 
HETATM    8  C4  UNL     1     -33.191   5.795   1.832  1.00 20.00     0.009 C 
HETATM    9  C5  UNL     1     -34.678   6.627   3.664  1.00 20.00     0.009 C 
ENDBRANCH   6   7
ENDBRANCH   1   6
TORSDOF 3
ENDMDL
MODEL 8
REMARK VINA RESULT:      -0.6      1.951      4.264
REMARK  3 active torsions:
REMARK  status: ('A' for Active; 'I' for Inactive)
REMARK    1  A    between atoms: C2_2  and  C6_6 
REMARK    2  A    between atoms: C6_6  and  C7_7 
REMARK    3  A    between atoms: C7_7  and  C8_8 
ROOT
HETATM    1  C6  UNL     1     -32.573   8.055   2.781  1.00 20.00     0.040 C 
ENDROOT
BRANCH   1   2
HETATM    2  C2  UNL     1     -33.399   6.779   2.700  1.00 20.00     0.079 A 
HETATM    3  C1  UNL     1     -34.779   6.746   3.311  1.00 20.00     0.206 A 
HETATM    4  O9  UNL     1     -33.644   6.167   3.973  1.00 20.00    -0.375 OA
HETATM    5  C3  UNL     1     -33.048   5.806   1.621  1.00 20.00     0.048 C 
ENDBRANCH   1   2
BRANCH   1   6
HETATM    6  C7  UNL     1     -31.912   8.377   1.439  1.00 20.00     0.007 C 
BRANCH   6   7
HETATM    7  C8  UNL     1     -32.715   9.374   0.583  1.00 20.00    -0.023 C 
HETATM    8  C4  UNL     1     -32.205   9.348  -0.860  1.00 20.00     0.009 C 
HETATM    9  C5  UNL     1     -32.645  10.801   1.129  1.00 20.00     0.009 C 
ENDBRANCH   6   7
ENDBRANCH   1   6
TORSDOF 3
ENDMDL
MODEL 9
REMARK VINA RESULT:      -0.6      2.004      3.924
REMARK  3 active torsions:
REMARK  status: ('A' for Active; 'I' for Inactive)
REMARK    1  A    between atoms: C2_2  and  C6_6 
REMARK    2  A    between atoms: C6_6  and  C7_7 
REMARK    3  A    between atoms: C7_7  and  C8_8 
ROOT
HETATM    1  C6  UNL     1     -33.697   6.477   1.901  1.00 20.00     0.040 C 
ENDROOT
BRANCH   1   2
HETATM    2  C2  UNL     1     -34.144   5.968   3.264  1.00 20.00     0.079 A 
HETATM    3  C1  UNL     1     -35.444   6.463   3.853  1.00 20.00     0.206 A 
HETATM    4  O9  UNL     1     -34.174   6.981   4.278  1.00 20.00    -0.375 OA
HETATM    5  C3  UNL     1     -33.574   4.667   3.728  1.00 20.00     0.048 C 
ENDBRANCH   1   2
BRANCH   1   6
HETATM    6  C7  UNL     1     -32.170   6.533   1.802  1.00 20.00     0.007 C 
BRANCH   6   7
HETATM    7  C8  UNL     1     -31.614   7.966   1.706  1.00 20.00    -0.023 C 
HETATM    8  C4  UNL     1     -31.567   8.598   3.099  1.00 20.00     0.009 C 
HETATM    9  C5  UNL     1     -32.436   8.850   0.767  1.00 20.00     0.009 C 
ENDBRANCH   6   7
ENDBRANCH   1   6
TORSDOF 3
ENDMDL
