MODEL 1
REMARK VINA RESULT:      -3.0      0.000      0.000
REMARK  3 active torsions:
REMARK  status: ('A' for Active; 'I' for Inactive)
REMARK    1  A    between atoms: C3_3  and  C4_4 
REMARK    2  A    between atoms: C4_4  and  C6_6 
REMARK    3  A    between atoms: C5_5  and  C6_6 
ROOT
HETATM    1  C2  UNL     1     -32.757   5.831   1.704  1.00 20.00     0.011 C 
HETATM    2  C6  UNL     1     -33.113   7.252   2.160  1.00 20.00    -0.005 C 
ENDROOT
BRANCH   2   3
HETATM    3  C4  UNL     1     -31.940   8.206   1.855  1.00 20.00     0.005 C 
BRANCH   3   4
HETATM    4  C3  UNL     1     -31.939   8.737   0.419  1.00 20.00    -0.004 C 
HETATM    5  C1  UNL     1     -32.541  10.132   0.343  1.00 20.00     0.005 C 
ENDBRANCH   3   4
ENDBRANCH   2   3
BRANCH   2   6
HETATM    6  C5  UNL     1     -33.588   7.266   3.622  1.00 20.00     0.119 C 
HETATM    7 CL7  UNL     1     -35.134   6.421   3.877  1.00 20.00    -0.130 Cl
ENDBRANCH   2   6
TORSDOF 3
ENDMDL
MODEL 2
REMARK VINA RESULT:      -2.8      2.782      4.837
REMARK  3 active torsions:
REMARK  status: ('A' for Active; 'I' for Inactive)
REMARK    1  A    between atoms: C3_3  and  C4_4 
REMARK    2  A    between atoms: C4_4  and  C6_6 
REMARK    3  A    between atoms: C5_5  and  C6_6 
ROOT
HETATM    1  C2  UNL     1     -34.066   7.555   4.199  1.00 20.00     0.011 C 
HETATM    2  C6  UNL     1     -34.305   6.307   3.340  1.00 20.00    -0.005 C 
ENDROOT
BRANCH   2   3
HETATM    3  C4  UNL     1     -34.545   5.086   4.252  1.00 20.00     0.005 C 
BRANCH   3   4
HETATM    4  C3  UNL     1     -33.810   3.825   3.793  1.00 20.00    -0.004 C 
HETATM    5  C1  UNL     1     -33.187   3.087   4.969  1.00 20.00     0.005 C 
ENDBRANCH   3   4
ENDBRANCH   2   3
BRANCH   2   6
HETATM    6  C5  UNL     1     -33.188   6.122   2.301  1.00 20.00     0.119 C 
HETATM    7 CL7  UNL     1     -32.297   7.620   1.938  1.00 20.00    -0.130 Cl
ENDBRANCH   2   6
TORSDOF 3
ENDMDL
MODEL 3
REMARK VINA RESULT:      -2.4      2.275      3.754
REMARK  3 active torsions:
REMARK  status: ('A' for Active; 'I' for Inactive)
REMARK    1  A    between atoms: C3_3  and  C4_4 
REMARK    2  A    between atoms: C4_4  and  C6_6 
REMARK    3  A    between atoms: C5_5  and  C6_6 
ROOT
HETATM    1  C2  UNL     1     -32.706   5.812   1.422  1.00 20.00     0.011 C 
HETATM    2  C6  UNL     1     -32.434   7.087   2.231  1.00 20.00    -0.005 C 
ENDROOT
BRANCH   2   3
HETATM    3  C4  UNL     1     -33.769   7.693   2.711  1.00 20.00     0.005 C 
BRANCH   3   4
HETATM    4  C3  UNL     1     -34.190   7.220   4.104  1.00 20.00    -0.004 C 
HETATM    5  C1  UNL     1     -35.300   6.182   4.025  1.00 20.00     0.005 C 
ENDBRANCH   3   4
ENDBRANCH   2   3
BRANCH   2   6
HETATM    6  C5  UNL     1     -31.531   8.058   1.453  1.00 20.00     0.119 C 
HETATM    7 CL7  UNL     1     -32.422   9.381   0.663  1.00 20.00    -0.130 Cl
ENDBRANCH   2   6
TORSDOF 3
ENDMDL
MODEL 4
REMARK VINA RESULT:      -2.4      1.888      2.825
REMARK  3 active torsions:
REMARK  status: ('A' for Active; 'I' for Inactive)
REMARK    1  A    between atoms: C3_3  and  C4_4 
REMARK    2  A    between atoms: C4_4  and  C6_6 
REMARK    3  A    between atoms: C5_5  and  C6_6 
ROOT
HETATM    1  C2  UNL     1     -34.534   7.298   4.029  1.00 20.00     0.011 C 
HETATM    2  C6  UNL     1     -33.819   6.015   3.590  1.00 20.00    -0.005 C 
ENDROOT
BRANCH   2   3
HETATM    3  C4  UNL     1     -33.547   6.064   2.072  1.00 20.00     0.005 C 
BRANCH   3   4
HETATM    4  C3  UNL     1     -32.094   6.391   1.720  1.00 20.00    -0.004 C 
HETATM    5  C1  UNL     1     -31.874   7.893   1.612  1.00 20.00     0.005 C 
ENDBRANCH   3   4
ENDBRANCH   2   3
BRANCH   2   6
HETATM    6  C5  UNL     1     -34.575   4.764   4.066  1.00 20.00     0.119 C 
HETATM    7 CL7  UNL     1     -33.510   3.388   4.443  1.00 20.00    -0.130 Cl
ENDBRANCH   2   6
TORSDOF 3
ENDMDL
MODEL 5
REMARK VINA RESULT:      -2.2      2.598      4.690
REMARK  3 active torsions:
REMARK  status: ('A' for Active; 'I' for Inactive)
REMARK    1  A    between atoms: C3_3  and  C4_4 
REMARK    2  A    between atoms: C4_4  and  C6_6 
REMARK    3  A    between atoms: C5_5  and  C6_6 
ROOT
HETATM    1  C2  UNL     1     -35.415   6.266   4.091  1.00 20.00     0.011 C 
HETATM    2  C6  UNL     1     -34.194   6.251   3.164  1.00 20.00    -0.005 C 
ENDROOT
BRANCH   2   3
HETATM    3  C4  UNL     1     -33.454   4.904   3.300  1.00 20.00     0.005 C 
BRANCH   3   4
HETATM    4  C3  UNL     1     -34.067   3.971   4.347  1.00 20.00    -0.004 C 
HETATM    5  C1  UNL     1     -33.099   2.865   4.740  1.00 20.00     0.005 C 
ENDBRANCH   3   4
ENDBRANCH   2   3
BRANCH   2   6
HETATM    6  C5  UNL     1     -33.312   7.491   3.382  1.00 20.00     0.119 C 
HETATM    7 CL7  UNL     1     -33.437   8.175   5.021  1.00 20.00    -0.130 Cl
ENDBRANCH   2   6
TORSDOF 3
ENDMDL
MODEL 6
REMARK VINA RESULT:      -2.1      2.208      4.091
REMARK  3 active torsions:
REMARK  status: ('A' for Active; 'I' for Inactive)
REMARK    1  A    between atoms: C3_3  and  C4_4 
REMARK    2  A    between atoms: C4_4  and  C6_6 
REMARK    3  A    between atoms: C5_5  and  C6_6 
ROOT
HETATM    1  C2  UNL     1     -31.994   7.917   2.121  1.00 20.00     0.011 C 
HETATM    2  C6  UNL     1     -33.313   7.142   2.228  1.00 20.00    -0.005 C 
ENDROOT
BRANCH   2   3
HETATM    3  C4  UNL     1     -33.815   7.168   3.687  1.00 20.00     0.005 C 
BRANCH   3   4
HETATM    4  C3  UNL     1     -35.178   6.500   3.878  1.00 20.00    -0.004 C 
HETATM    5  C1  UNL     1     -35.033   5.090   4.430  1.00 20.00     0.005 C 
ENDBRANCH   3   4
ENDBRANCH   2   3
BRANCH   2   6
HETATM    6  C5  UNL     1     -33.185   5.737   1.618  1.00 20.00     0.119 C 
HETATM    7 CL7  UNL     1     -31.521   5.312   1.150  1.00 20.00    -0.130 Cl
ENDBRANCH   2   6
TORSDOF 3
ENDMDL
MODEL 7
REMARK VINA RESULT:      -2.1      1.761      2.219
REMARK  3 active torsions:
REMARK  status: ('A' for Active; 'I' for Inactive)
REMARK    1  A    between atoms: C3_3  and  C4_4 
REMARK    2  A    between atoms: C4_4  and  C6_6 
REMARK    3  A    between atoms: C5_5  and  C6_6 
ROOT
HETATM    1  C2  UNL     1     -34.001   7.355   3.666  1.00 20.00     0.011 C 
HETATM    2  C6  UNL     1     -32.794   7.136   2.746  1.00 20.00    -0.005 C 
ENDROOT
BRANCH   2   3
HETATM    3  C4  UNL     1     -32.223   8.499   2.303  1.00 20.00     0.005 C 
BRANCH   3   4
HETATM    4  C3  UNL     1     -32.063   8.632   0.787  1.00 20.00    -0.004 C 
HETATM    5  C1  UNL     1     -32.488  10.011   0.303  1.00 20.00     0.005 C 
ENDBRANCH   3   4
ENDBRANCH   2   3
BRANCH   2   6
HETATM    6  C5  UNL     1     -33.138   6.179   1.593  1.00 20.00     0.119 C 
HETATM    7 CL7  UNL     1     -31.809   5.075   1.162  1.00 20.00    -0.130 Cl
ENDBRANCH   2   6
TORSDOF 3
ENDMDL
MODEL 8
REMARK VINA RESULT:      -2.0      1.654      2.723
REMARK  3 active torsions:
REMARK  status: ('A' for Active; 'I' for Inactive)
REMARK    1  A    between atoms: C3_3  and  C4_4 
REMARK    2  A    between atoms: C4_4  and  C6_6 
REMARK    3  A    between atoms: C5_5  and  C6_6 
ROOT
HETATM    1  C2  UNL     1     -33.444   8.125   4.908  1.00 20.00     0.011 C 
HETATM    2  C6  UNL     1     -33.644   7.138   3.751  1.00 20.00    -0.005 C 
ENDROOT
BRANCH   2   3
HETATM    3  C4  UNL     1     -33.244   7.809   2.420  1.00 20.00     0.005 C 
BRANCH   3   4
HETATM    4  C3  UNL     1     -32.103   7.095   1.693  1.00 20.00    -0.004 C 
HETATM    5  C1  UNL     1     -32.461   5.649   1.383  1.00 20.00     0.005 C 
ENDBRANCH   3   4
ENDBRANCH   2   3
BRANCH   2   6
HETATM    6  C5  UNL     1     -35.059   6.539   3.768  1.00 20.00     0.119 C 
HETATM    7 CL7  UNL     1     -35.130   4.896   4.451  1.00 20.00    -0.130 Cl
ENDBRANCH   2   6
TORSDOF 3
ENDMDL
MODEL 9
REMARK VINA RESULT:      -1.9      2.284      4.383
REMARK  3 active torsions:
REMARK  status: ('A' for Active; 'I' for Inactive)
REMARK    1  A    between atoms: C3_3  and  C4_4 
REMARK    2  A    between atoms: C4_4  and  C6_6 
REMARK    3  A    between atoms: C5_5  and  C6_6 
ROOT
HETATM    1  C2  UNL     1     -33.642   7.826   4.941  1.00 20.00     0.011 C 
HETATM    2  C6  UNL     1     -33.993   7.618   3.463  1.00 20.00    -0.005 C 
ENDROOT
BRANCH   2   3
HETATM    3  C4  UNL     1     -35.017   6.472   3.327  1.00 20.00     0.005 C 
BRANCH   3   4
HETATM    4  C3  UNL     1     -35.017   5.507   4.515  1.00 20.00    -0.004 C 
HETATM    5  C1  UNL     1     -34.210   4.253   4.212  1.00 20.00     0.005 C 
ENDBRANCH   3   4
ENDBRANCH   2   3
BRANCH   2   6
HETATM    6  C5  UNL     1     -32.727   7.451   2.607  1.00 20.00     0.119 C 
HETATM    7 CL7  UNL     1     -32.774   6.031   1.535  1.00 20.00    -0.130 Cl
ENDBRANCH   2   6
TORSDOF 3
ENDMDL
