MODEL 1
REMARK VINA RESULT:      -2.4      0.000      0.000
REMARK  3 active torsions:
REMARK  status: ('A' for Active; 'I' for Inactive)
REMARK    1  A    between atoms: C1_1  and  C4_4 
REMARK    2  A    between atoms: C1_1  and  O6_6 
REMARK    3  A    between atoms: C5_5  and  O6_6 
ROOT
HETATM    1  C1  UNL     1     -32.988   7.397   2.598  1.00 20.00     0.112 C 
HETATM    2  S7  UNL     1     -32.815   5.976   1.738  1.00 20.00    -0.058 SA
ENDROOT
BRANCH   1   3
HETATM    3  C4  UNL     1     -33.872   7.522   3.811  1.00 20.00     0.072 C 
HETATM    4  C2  UNL     1     -34.935   6.435   3.843  1.00 20.00     0.013 C 
ENDBRANCH   1   3
BRANCH   1   5
HETATM    5  O6  UNL     1     -32.257   8.439   2.166  1.00 20.00    -0.344 OA
BRANCH   5   6
HETATM    6  C5  UNL     1     -31.963   8.635   0.773  1.00 20.00     0.172 C 
HETATM    7  C3  UNL     1     -32.504   9.981   0.339  1.00 20.00     0.034 C 
ENDBRANCH   5   6
ENDBRANCH   1   5
TORSDOF 3
ENDMDL
MODEL 2
REMARK VINA RESULT:      -1.9      2.700      4.666
REMARK  3 active torsions:
REMARK  status: ('A' for Active; 'I' for Inactive)
REMARK    1  A    between atoms: C1_1  and  C4_4 
REMARK    2  A    between atoms: C1_1  and  O6_6 
REMARK    3  A    between atoms: C5_5  and  O6_6 
ROOT
HETATM    1  C1  UNL     1     -33.474   6.025   2.822  1.00 20.00     0.112 C 
HETATM    2  S7  UNL     1     -34.404   6.949   3.857  1.00 20.00    -0.058 SA
ENDROOT
BRANCH   1   3
HETATM    3  C4  UNL     1     -32.717   6.606   1.658  1.00 20.00     0.072 C 
HETATM    4  C2  UNL     1     -32.132   7.968   1.994  1.00 20.00     0.013 C 
ENDBRANCH   1   3
BRANCH   1   5
HETATM    5  O6  UNL     1     -33.406   4.714   3.107  1.00 20.00    -0.344 OA
BRANCH   5   6
HETATM    6  C5  UNL     1     -34.061   4.150   4.254  1.00 20.00     0.172 C 
HETATM    7  C3  UNL     1     -33.246   2.980   4.763  1.00 20.00     0.034 C 
ENDBRANCH   5   6
ENDBRANCH   1   5
TORSDOF 3
ENDMDL
MODEL 3
REMARK VINA RESULT:      -1.8      2.930      4.433
REMARK  3 active torsions:
REMARK  status: ('A' for Active; 'I' for Inactive)
REMARK    1  A    between atoms: C1_1  and  C4_4 
REMARK    2  A    between atoms: C1_1  and  O6_6 
REMARK    3  A    between atoms: C5_5  and  O6_6 
ROOT
HETATM    1  C1  UNL     1     -33.661   5.836   2.946  1.00 20.00     0.112 C 
HETATM    2  S7  UNL     1     -32.748   6.428   1.679  1.00 20.00    -0.058 SA
ENDROOT
BRANCH   1   3
HETATM    3  C4  UNL     1     -34.629   6.684   3.728  1.00 20.00     0.072 C 
HETATM    4  C2  UNL     1     -33.934   7.868   4.381  1.00 20.00     0.013 C 
ENDBRANCH   1   3
BRANCH   1   5
HETATM    5  O6  UNL     1     -33.513   4.528   3.217  1.00 20.00    -0.344 OA
BRANCH   5   6
HETATM    6  C5  UNL     1     -34.019   3.939   4.425  1.00 20.00     0.172 C 
HETATM    7  C3  UNL     1     -33.106   2.806   4.843  1.00 20.00     0.034 C 
ENDBRANCH   5   6
ENDBRANCH   1   5
TORSDOF 3
ENDMDL
MODEL 4
REMARK VINA RESULT:      -1.8      1.080      3.632
REMARK  3 active torsions:
REMARK  status: ('A' for Active; 'I' for Inactive)
REMARK    1  A    between atoms: C1_1  and  C4_4 
REMARK    2  A    between atoms: C1_1  and  O6_6 
REMARK    3  A    between atoms: C5_5  and  O6_6 
ROOT
HETATM    1  C1  UNL     1     -32.482   7.213   1.973  1.00 20.00     0.112 C 
HETATM    2  S7  UNL     1     -32.349   5.744   1.190  1.00 20.00    -0.058 SA
ENDROOT
BRANCH   1   3
HETATM    3  C4  UNL     1     -31.667   8.422   1.597  1.00 20.00     0.072 C 
HETATM    4  C2  UNL     1     -32.422   9.333   0.643  1.00 20.00     0.013 C 
ENDBRANCH   1   3
BRANCH   1   5
HETATM    5  O6  UNL     1     -33.399   7.275   2.954  1.00 20.00    -0.344 OA
BRANCH   5   6
HETATM    6  C5  UNL     1     -34.016   6.095   3.493  1.00 20.00     0.172 C 
HETATM    7  C3  UNL     1     -35.400   6.447   3.995  1.00 20.00     0.034 C 
ENDBRANCH   5   6
ENDBRANCH   1   5
TORSDOF 3
ENDMDL
MODEL 5
REMARK VINA RESULT:      -1.5      2.015      2.398
REMARK  3 active torsions:
REMARK  status: ('A' for Active; 'I' for Inactive)
REMARK    1  A    between atoms: C1_1  and  C4_4 
REMARK    2  A    between atoms: C1_1  and  O6_6 
REMARK    3  A    between atoms: C5_5  and  O6_6 
ROOT
HETATM    1  C1  UNL     1     -34.052   5.704   3.212  1.00 20.00     0.112 C 
HETATM    2  S7  UNL     1     -33.760   4.208   3.894  1.00 20.00    -0.058 SA
ENDROOT
BRANCH   1   3
HETATM    3  C4  UNL     1     -34.842   6.783   3.903  1.00 20.00     0.072 C 
HETATM    4  C2  UNL     1     -33.935   7.828   4.531  1.00 20.00     0.013 C 
ENDBRANCH   1   3
BRANCH   1   5
HETATM    5  O6  UNL     1     -33.504   5.915   2.003  1.00 20.00    -0.344 OA
BRANCH   5   6
HETATM    6  C5  UNL     1     -32.104   6.194   1.840  1.00 20.00     0.172 C 
HETATM    7  C3  UNL     1     -31.921   7.678   1.604  1.00 20.00     0.034 C 
ENDBRANCH   5   6
ENDBRANCH   1   5
TORSDOF 3
ENDMDL
MODEL 6
REMARK VINA RESULT:      -1.4      2.043      3.658
REMARK  3 active torsions:
REMARK  status: ('A' for Active; 'I' for Inactive)
REMARK    1  A    between atoms: C1_1  and  C4_4 
REMARK    2  A    between atoms: C1_1  and  O6_6 
REMARK    3  A    between atoms: C5_5  and  O6_6 
ROOT
HETATM    1  C1  UNL     1     -32.774   7.046   2.245  1.00 20.00     0.112 C 
HETATM    2  S7  UNL     1     -31.957   8.340   1.576  1.00 20.00    -0.058 SA
ENDROOT
BRANCH   1   3
HETATM    3  C4  UNL     1     -33.043   5.768   1.497  1.00 20.00     0.072 C 
HETATM    4  C2  UNL     1     -31.753   5.096   1.055  1.00 20.00     0.013 C 
ENDBRANCH   1   3
BRANCH   1   5
HETATM    5  O6  UNL     1     -33.159   7.193   3.525  1.00 20.00    -0.344 OA
BRANCH   5   6
HETATM    6  C5  UNL     1     -34.525   7.457   3.883  1.00 20.00     0.172 C 
HETATM    7  C3  UNL     1     -35.242   6.142   4.101  1.00 20.00     0.034 C 
ENDBRANCH   5   6
ENDBRANCH   1   5
TORSDOF 3
ENDMDL
MODEL 7
REMARK VINA RESULT:      -1.4      1.681      2.031
REMARK  3 active torsions:
REMARK  status: ('A' for Active; 'I' for Inactive)
REMARK    1  A    between atoms: C1_1  and  C4_4 
REMARK    2  A    between atoms: C1_1  and  O6_6 
REMARK    3  A    between atoms: C5_5  and  O6_6 
ROOT
HETATM    1  C1  UNL     1     -32.626   7.537   2.299  1.00 20.00     0.112 C 
HETATM    2  S7  UNL     1     -33.727   7.385   3.545  1.00 20.00    -0.058 SA
ENDROOT
BRANCH   1   3
HETATM    3  C4  UNL     1     -31.982   6.357   1.622  1.00 20.00     0.072 C 
HETATM    4  C2  UNL     1     -33.018   5.356   1.137  1.00 20.00     0.013 C 
ENDBRANCH   1   3
BRANCH   1   5
HETATM    5  O6  UNL     1     -32.363   8.793   1.899  1.00 20.00    -0.344 OA
BRANCH   5   6
HETATM    6  C5  UNL     1     -31.948   9.092   0.556  1.00 20.00     0.172 C 
HETATM    7  C3  UNL     1     -32.652  10.349   0.090  1.00 20.00     0.034 C 
ENDBRANCH   5   6
ENDBRANCH   1   5
TORSDOF 3
ENDMDL
MODEL 8
REMARK VINA RESULT:      -1.4      2.133      2.660
REMARK  3 active torsions:
REMARK  status: ('A' for Active; 'I' for Inactive)
REMARK    1  A    between atoms: C1_1  and  C4_4 
REMARK    2  A    between atoms: C1_1  and  O6_6 
REMARK    3  A    between atoms: C5_5  and  O6_6 
ROOT
HETATM    1  C1  UNL     1     -34.151   6.281   3.510  1.00 20.00     0.112 C 
HETATM    2  S7  UNL     1     -33.970   7.734   4.313  1.00 20.00    -0.058 SA
ENDROOT
BRANCH   1   3
HETATM    3  C4  UNL     1     -34.803   5.074   4.132  1.00 20.00     0.072 C 
HETATM    4  C2  UNL     1     -33.842   3.900   4.217  1.00 20.00     0.013 C 
ENDBRANCH   1   3
BRANCH   1   5
HETATM    5  O6  UNL     1     -33.707   6.251   2.242  1.00 20.00    -0.344 OA
BRANCH   5   6
HETATM    6  C5  UNL     1     -32.309   6.332   1.923  1.00 20.00     0.172 C 
HETATM    7  C3  UNL     1     -31.969   7.759   1.550  1.00 20.00     0.034 C 
ENDBRANCH   5   6
ENDBRANCH   1   5
TORSDOF 3
ENDMDL
MODEL 9
REMARK VINA RESULT:      -1.2      2.283      2.742
REMARK  3 active torsions:
REMARK  status: ('A' for Active; 'I' for Inactive)
REMARK    1  A    between atoms: C1_1  and  C4_4 
REMARK    2  A    between atoms: C1_1  and  O6_6 
REMARK    3  A    between atoms: C5_5  and  O6_6 
ROOT
HETATM    1  C1  UNL     1     -33.202   7.061   2.778  1.00 20.00     0.112 C 
HETATM    2  S7  UNL     1     -32.159   8.169   2.089  1.00 20.00    -0.058 SA
ENDROOT
BRANCH   1   3
HETATM    3  C4  UNL     1     -34.157   7.411   3.888  1.00 20.00     0.072 C 
HETATM    4  C2  UNL     1     -35.244   6.360   4.043  1.00 20.00     0.013 C 
ENDBRANCH   1   3
BRANCH   1   5
HETATM    5  O6  UNL     1     -33.169   5.822   2.259  1.00 20.00    -0.344 OA
BRANCH   5   6
HETATM    6  C5  UNL     1     -32.783   5.579   0.896  1.00 20.00     0.172 C 
HETATM    7  C3  UNL     1     -31.554   4.695   0.881  1.00 20.00     0.034 C 
ENDBRANCH   5   6
ENDBRANCH   1   5
TORSDOF 3
ENDMDL
