MODEL 1
REMARK VINA RESULT:      -1.1      0.000      0.000
REMARK  1 active torsions:
REMARK  status: ('A' for Active; 'I' for Inactive)
REMARK    1  A    between atoms: C1_1  and  C2_2 
ROOT
HETATM    1  C1  UNL     1     -32.226   7.651   1.846  1.00 20.00     0.437 C 
HETATM    2  F3  UNL     1     -32.569   8.487   0.841  1.00 20.00    -0.166 F 
HETATM    3  F4  UNL     1     -30.876   7.577   1.867  1.00 20.00    -0.166 F 
HETATM    4  F5  UNL     1     -32.614   8.232   3.004  1.00 20.00    -0.166 F 
ENDROOT
BRANCH   1   5
HETATM    5  C2  UNL     1     -32.857   6.280   1.671  1.00 20.00     0.286 C 
HETATM    6 CL6  UNL     1     -31.582   5.041   1.494  1.00 20.00    -0.074 Cl
HETATM    7 CL7  UNL     1     -33.859   5.882   3.097  1.00 20.00    -0.074 Cl
HETATM    8 CL8  UNL     1     -33.888   6.265   0.213  1.00 20.00    -0.074 Cl
ENDBRANCH   1   5
TORSDOF 1
ENDMDL
MODEL 2
REMARK VINA RESULT:      -1.1      0.017      1.783
REMARK  1 active torsions:
REMARK  status: ('A' for Active; 'I' for Inactive)
REMARK    1  A    between atoms: C1_1  and  C2_2 
ROOT
HETATM    1  C1  UNL     1     -32.237   7.640   1.849  1.00 20.00     0.437 C 
HETATM    2  F3  UNL     1     -32.583   8.476   0.845  1.00 20.00    -0.166 F 
HETATM    3  F4  UNL     1     -30.887   7.574   1.871  1.00 20.00    -0.166 F 
HETATM    4  F5  UNL     1     -32.630   8.217   3.008  1.00 20.00    -0.166 F 
ENDROOT
BRANCH   1   5
HETATM    5  C2  UNL     1     -32.860   6.266   1.671  1.00 20.00     0.286 C 
HETATM    6 CL6  UNL     1     -33.895   6.250   0.215  1.00 20.00    -0.074 Cl
HETATM    7 CL7  UNL     1     -31.578   5.034   1.486  1.00 20.00    -0.074 Cl
HETATM    8 CL8  UNL     1     -33.856   5.858   3.097  1.00 20.00    -0.074 Cl
ENDBRANCH   1   5
TORSDOF 1
ENDMDL
MODEL 3
REMARK VINA RESULT:      -1.1      0.005      1.782
REMARK  1 active torsions:
REMARK  status: ('A' for Active; 'I' for Inactive)
REMARK    1  A    between atoms: C1_1  and  C2_2 
ROOT
HETATM    1  C1  UNL     1     -32.228   7.653   1.843  1.00 20.00     0.437 C 
HETATM    2  F3  UNL     1     -32.575   8.489   0.839  1.00 20.00    -0.166 F 
HETATM    3  F4  UNL     1     -30.878   7.580   1.858  1.00 20.00    -0.166 F 
HETATM    4  F5  UNL     1     -32.612   8.234   3.002  1.00 20.00    -0.166 F 
ENDROOT
BRANCH   1   5
HETATM    5  C2  UNL     1     -32.859   6.282   1.670  1.00 20.00     0.286 C 
HETATM    6 CL6  UNL     1     -33.861   5.888   3.095  1.00 20.00    -0.074 Cl
HETATM    7 CL7  UNL     1     -33.893   6.265   0.212  1.00 20.00    -0.074 Cl
HETATM    8 CL8  UNL     1     -31.585   5.042   1.494  1.00 20.00    -0.074 Cl
ENDBRANCH   1   5
TORSDOF 1
ENDMDL
MODEL 4
REMARK VINA RESULT:      -1.0      2.074      2.950
REMARK  1 active torsions:
REMARK  status: ('A' for Active; 'I' for Inactive)
REMARK    1  A    between atoms: C1_1  and  C2_2 
ROOT
HETATM    1  C1  UNL     1     -33.169   6.369   2.023  1.00 20.00     0.437 C 
HETATM    2  F3  UNL     1     -32.448   7.507   1.912  1.00 20.00    -0.166 F 
HETATM    3  F4  UNL     1     -33.976   6.296   0.941  1.00 20.00    -0.166 F 
HETATM    4  F5  UNL     1     -32.301   5.334   1.947  1.00 20.00    -0.166 F 
ENDROOT
BRANCH   1   5
HETATM    5  C2  UNL     1     -33.965   6.336   3.316  1.00 20.00     0.286 C 
HETATM    6 CL6  UNL     1     -33.313   7.539   4.465  1.00 20.00    -0.074 Cl
HETATM    7 CL7  UNL     1     -35.680   6.718   2.988  1.00 20.00    -0.074 Cl
HETATM    8 CL8  UNL     1     -33.862   4.712   4.055  1.00 20.00    -0.074 Cl
ENDBRANCH   1   5
TORSDOF 1
ENDMDL
MODEL 5
REMARK VINA RESULT:      -1.0      2.071      2.496
REMARK  1 active torsions:
REMARK  status: ('A' for Active; 'I' for Inactive)
REMARK    1  A    between atoms: C1_1  and  C2_2 
ROOT
HETATM    1  C1  UNL     1     -33.163   6.379   2.031  1.00 20.00     0.437 C 
HETATM    2  F3  UNL     1     -33.967   6.311   0.946  1.00 20.00    -0.166 F 
HETATM    3  F4  UNL     1     -32.296   5.344   1.955  1.00 20.00    -0.166 F 
HETATM    4  F5  UNL     1     -32.440   7.517   1.926  1.00 20.00    -0.166 F 
ENDROOT
BRANCH   1   5
HETATM    5  C2  UNL     1     -33.963   6.343   3.322  1.00 20.00     0.286 C 
HETATM    6 CL6  UNL     1     -33.858   4.719   4.059  1.00 20.00    -0.074 Cl
HETATM    7 CL7  UNL     1     -33.317   7.547   4.474  1.00 20.00    -0.074 Cl
HETATM    8 CL8  UNL     1     -35.677   6.719   2.988  1.00 20.00    -0.074 Cl
ENDBRANCH   1   5
TORSDOF 1
ENDMDL
MODEL 6
REMARK VINA RESULT:      -1.0      2.082      2.885
REMARK  1 active torsions:
REMARK  status: ('A' for Active; 'I' for Inactive)
REMARK    1  A    between atoms: C1_1  and  C2_2 
ROOT
HETATM    1  C1  UNL     1     -33.177   6.358   2.030  1.00 20.00     0.437 C 
HETATM    2  F3  UNL     1     -33.981   6.288   0.945  1.00 20.00    -0.166 F 
HETATM    3  F4  UNL     1     -32.312   5.321   1.958  1.00 20.00    -0.166 F 
HETATM    4  F5  UNL     1     -32.452   7.494   1.921  1.00 20.00    -0.166 F 
ENDROOT
BRANCH   1   5
HETATM    5  C2  UNL     1     -33.978   6.328   3.321  1.00 20.00     0.286 C 
HETATM    6 CL6  UNL     1     -35.691   6.709   2.984  1.00 20.00    -0.074 Cl
HETATM    7 CL7  UNL     1     -33.879   4.705   4.063  1.00 20.00    -0.074 Cl
HETATM    8 CL8  UNL     1     -33.330   7.534   4.469  1.00 20.00    -0.074 Cl
ENDBRANCH   1   5
TORSDOF 1
ENDMDL
MODEL 7
REMARK VINA RESULT:      -0.9      2.087      2.850
REMARK  1 active torsions:
REMARK  status: ('A' for Active; 'I' for Inactive)
REMARK    1  A    between atoms: C1_1  and  C2_2 
ROOT
HETATM    1  C1  UNL     1     -33.815   6.363   3.120  1.00 20.00     0.437 C 
HETATM    2  F3  UNL     1     -33.714   5.150   3.708  1.00 20.00    -0.166 F 
HETATM    3  F4  UNL     1     -35.128   6.588   2.886  1.00 20.00    -0.166 F 
HETATM    4  F5  UNL     1     -33.405   7.283   4.022  1.00 20.00    -0.166 F 
ENDROOT
BRANCH   1   5
HETATM    5  C2  UNL     1     -33.000   6.433   1.841  1.00 20.00     0.286 C 
HETATM    6 CL6  UNL     1     -31.777   5.130   1.825  1.00 20.00    -0.074 Cl
HETATM    7 CL7  UNL     1     -34.070   6.240   0.423  1.00 20.00    -0.074 Cl
HETATM    8 CL8  UNL     1     -32.168   8.010   1.732  1.00 20.00    -0.074 Cl
ENDBRANCH   1   5
TORSDOF 1
ENDMDL
MODEL 8
REMARK VINA RESULT:      -0.9      2.086      3.073
REMARK  1 active torsions:
REMARK  status: ('A' for Active; 'I' for Inactive)
REMARK    1  A    between atoms: C1_1  and  C2_2 
ROOT
HETATM    1  C1  UNL     1     -33.817   6.366   3.119  1.00 20.00     0.437 C 
HETATM    2  F3  UNL     1     -33.721   5.152   3.705  1.00 20.00    -0.166 F 
HETATM    3  F4  UNL     1     -35.128   6.597   2.883  1.00 20.00    -0.166 F 
HETATM    4  F5  UNL     1     -33.403   7.284   4.022  1.00 20.00    -0.166 F 
ENDROOT
BRANCH   1   5
HETATM    5  C2  UNL     1     -33.000   6.435   1.840  1.00 20.00     0.286 C 
HETATM    6 CL6  UNL     1     -34.070   6.239   0.422  1.00 20.00    -0.074 Cl
HETATM    7 CL7  UNL     1     -32.171   8.014   1.728  1.00 20.00    -0.074 Cl
HETATM    8 CL8  UNL     1     -31.776   5.133   1.827  1.00 20.00    -0.074 Cl
ENDBRANCH   1   5
TORSDOF 1
ENDMDL
MODEL 9
REMARK VINA RESULT:      -0.9      2.086      2.850
REMARK  1 active torsions:
REMARK  status: ('A' for Active; 'I' for Inactive)
REMARK    1  A    between atoms: C1_1  and  C2_2 
ROOT
HETATM    1  C1  UNL     1     -33.817   6.367   3.119  1.00 20.00     0.437 C 
HETATM    2  F3  UNL     1     -33.721   5.153   3.706  1.00 20.00    -0.166 F 
HETATM    3  F4  UNL     1     -35.128   6.598   2.884  1.00 20.00    -0.166 F 
HETATM    4  F5  UNL     1     -33.402   7.285   4.021  1.00 20.00    -0.166 F 
ENDROOT
BRANCH   1   5
HETATM    5  C2  UNL     1     -33.000   6.434   1.840  1.00 20.00     0.286 C 
HETATM    6 CL6  UNL     1     -32.170   8.013   1.729  1.00 20.00    -0.074 Cl
HETATM    7 CL7  UNL     1     -31.775   5.133   1.828  1.00 20.00    -0.074 Cl
HETATM    8 CL8  UNL     1     -34.070   6.240   0.422  1.00 20.00    -0.074 Cl
ENDBRANCH   1   5
TORSDOF 1
ENDMDL
