MODEL 1
REMARK VINA RESULT:      -2.5      0.000      0.000
REMARK  3 active torsions:
REMARK  status: ('A' for Active; 'I' for Inactive)
REMARK    1  A    between atoms: C3_3  and  C4_4 
REMARK    2  A    between atoms: C3_3  and  C5_5 
REMARK    3  A    between atoms: C4_4  and  O6_6 
ROOT
HETATM    1  C1  UNL     1     -35.186   7.031   3.335  1.00 20.00     0.022 A 
HETATM    2  C2  UNL     1     -33.976   7.363   4.161  1.00 20.00     0.022 A 
HETATM    3  C3  UNL     1     -33.967   6.143   3.270  1.00 20.00     0.079 A 
ENDROOT
BRANCH   3   4
HETATM    4  C4  UNL     1     -34.043   4.791   3.924  1.00 20.00     0.182 C 
BRANCH   4   5
HETATM    5  O6  UNL     1     -35.320   4.632   4.531  1.00 20.00    -0.400 OA
HETATM    6  H16 UNL     1     -35.820   4.017   3.970  1.00 20.00     0.209 HD
ENDBRANCH   4   5
ENDBRANCH   3   4
BRANCH   3   7
HETATM    7  C5  UNL     1     -33.127   6.187   2.022  1.00 20.00     0.397 C 
HETATM    8  F7  UNL     1     -32.238   5.172   2.002  1.00 20.00    -0.170 F 
HETATM    9  F8  UNL     1     -33.898   6.087   0.918  1.00 20.00    -0.170 F 
HETATM   10  F9  UNL     1     -32.439   7.346   1.944  1.00 20.00    -0.170 F 
ENDBRANCH   3   7
TORSDOF 3
ENDMDL
MODEL 2
REMARK VINA RESULT:      -2.4      2.587      3.308
REMARK  3 active torsions:
REMARK  status: ('A' for Active; 'I' for Inactive)
REMARK    1  A    between atoms: C3_3  and  C4_4 
REMARK    2  A    between atoms: C3_3  and  C5_5 
REMARK    3  A    between atoms: C4_4  and  O6_6 
ROOT
HETATM    1  C1  UNL     1     -31.495   7.973   2.186  1.00 20.00     0.022 A 
HETATM    2  C2  UNL     1     -32.658   8.536   1.420  1.00 20.00     0.022 A 
HETATM    3  C3  UNL     1     -32.835   7.277   2.236  1.00 20.00     0.079 A 
ENDROOT
BRANCH   3   4
HETATM    4  C4  UNL     1     -32.981   5.974   1.500  1.00 20.00     0.182 C 
BRANCH   4   5
HETATM    5  O6  UNL     1     -31.710   5.339   1.407  1.00 20.00    -0.400 OA
HETATM    6  H16 UNL     1     -31.871   4.441   1.076  1.00 20.00     0.209 HD
ENDBRANCH   4   5
ENDBRANCH   3   4
BRANCH   3   7
HETATM    7  C5  UNL     1     -33.629   7.368   3.510  1.00 20.00     0.397 C 
HETATM    8  F7  UNL     1     -34.111   6.159   3.867  1.00 20.00    -0.170 F 
HETATM    9  F8  UNL     1     -32.865   7.827   4.524  1.00 20.00    -0.170 F 
HETATM   10  F9  UNL     1     -34.677   8.208   3.367  1.00 20.00    -0.170 F 
ENDBRANCH   3   7
TORSDOF 3
ENDMDL
MODEL 3
REMARK VINA RESULT:      -2.4      1.728      2.551
REMARK  3 active torsions:
REMARK  status: ('A' for Active; 'I' for Inactive)
REMARK    1  A    between atoms: C3_3  and  C4_4 
REMARK    2  A    between atoms: C3_3  and  C5_5 
REMARK    3  A    between atoms: C4_4  and  O6_6 
ROOT
HETATM    1  C1  UNL     1     -32.736   8.405   1.320  1.00 20.00     0.022 A 
HETATM    2  C2  UNL     1     -31.452   8.043   2.012  1.00 20.00     0.022 A 
HETATM    3  C3  UNL     1     -32.703   7.242   2.284  1.00 20.00     0.079 A 
ENDROOT
BRANCH   3   4
HETATM    4  C4  UNL     1     -33.375   7.412   3.618  1.00 20.00     0.182 C 
BRANCH   4   5
HETATM    5  O6  UNL     1     -34.726   6.974   3.525  1.00 20.00    -0.400 OA
HETATM    6  H16 UNL     1     -34.982   6.671   4.412  1.00 20.00     0.209 HD
ENDBRANCH   4   5
ENDBRANCH   3   4
BRANCH   3   7
HETATM    7  C5  UNL     1     -32.788   5.852   1.714  1.00 20.00     0.397 C 
HETATM    8  F7  UNL     1     -33.635   5.811   0.664  1.00 20.00    -0.170 F 
HETATM    9  F8  UNL     1     -31.578   5.430   1.288  1.00 20.00    -0.170 F 
HETATM   10  F9  UNL     1     -33.231   4.976   2.640  1.00 20.00    -0.170 F 
ENDBRANCH   3   7
TORSDOF 3
ENDMDL
MODEL 4
REMARK VINA RESULT:      -2.4      2.687      3.502
REMARK  3 active torsions:
REMARK  status: ('A' for Active; 'I' for Inactive)
REMARK    1  A    between atoms: C3_3  and  C4_4 
REMARK    2  A    between atoms: C3_3  and  C5_5 
REMARK    3  A    between atoms: C4_4  and  O6_6 
ROOT
HETATM    1  C1  UNL     1     -33.403   6.182   0.881  1.00 20.00     0.022 A 
HETATM    2  C2  UNL     1     -32.390   5.436   1.701  1.00 20.00     0.022 A 
HETATM    3  C3  UNL     1     -32.986   6.720   2.229  1.00 20.00     0.079 A 
ENDROOT
BRANCH   3   4
HETATM    4  C4  UNL     1     -32.111   7.942   2.262  1.00 20.00     0.182 C 
BRANCH   4   5
HETATM    5  O6  UNL     1     -32.376   8.743   1.115  1.00 20.00    -0.400 OA
HETATM    6  H16 UNL     1     -32.676   9.606   1.442  1.00 20.00     0.209 HD
ENDBRANCH   4   5
ENDBRANCH   3   4
BRANCH   3   7
HETATM    7  C5  UNL     1     -33.973   6.626   3.361  1.00 20.00     0.397 C 
HETATM    8  F7  UNL     1     -35.226   6.882   2.931  1.00 20.00    -0.170 F 
HETATM    9  F8  UNL     1     -33.965   5.392   3.908  1.00 20.00    -0.170 F 
HETATM   10  F9  UNL     1     -33.677   7.514   4.334  1.00 20.00    -0.170 F 
ENDBRANCH   3   7
TORSDOF 3
ENDMDL
MODEL 5
REMARK VINA RESULT:      -2.3      2.688      3.502
REMARK  3 active torsions:
REMARK  status: ('A' for Active; 'I' for Inactive)
REMARK    1  A    between atoms: C3_3  and  C4_4 
REMARK    2  A    between atoms: C3_3  and  C5_5 
REMARK    3  A    between atoms: C4_4  and  O6_6 
ROOT
HETATM    1  C1  UNL     1     -33.401   6.187   0.881  1.00 20.00     0.022 A 
HETATM    2  C2  UNL     1     -32.389   5.440   1.701  1.00 20.00     0.022 A 
HETATM    3  C3  UNL     1     -32.985   6.723   2.230  1.00 20.00     0.079 A 
ENDROOT
BRANCH   3   4
HETATM    4  C4  UNL     1     -32.111   7.946   2.264  1.00 20.00     0.182 C 
BRANCH   4   5
HETATM    5  O6  UNL     1     -32.376   8.748   1.119  1.00 20.00    -0.400 OA
HETATM    6  H16 UNL     1     -31.801   9.527   1.185  1.00 20.00     0.209 HD
ENDBRANCH   4   5
ENDBRANCH   3   4
BRANCH   3   7
HETATM    7  C5  UNL     1     -33.972   6.628   3.362  1.00 20.00     0.397 C 
HETATM    8  F7  UNL     1     -33.963   5.393   3.907  1.00 20.00    -0.170 F 
HETATM    9  F8  UNL     1     -33.677   7.514   4.336  1.00 20.00    -0.170 F 
HETATM   10  F9  UNL     1     -35.226   6.884   2.932  1.00 20.00    -0.170 F 
ENDBRANCH   3   7
TORSDOF 3
ENDMDL
MODEL 6
REMARK VINA RESULT:      -2.1      1.916      2.749
REMARK  3 active torsions:
REMARK  status: ('A' for Active; 'I' for Inactive)
REMARK    1  A    between atoms: C3_3  and  C4_4 
REMARK    2  A    between atoms: C3_3  and  C5_5 
REMARK    3  A    between atoms: C4_4  and  O6_6 
ROOT
HETATM    1  C1  UNL     1     -32.372   5.418   1.786  1.00 20.00     0.022 A 
HETATM    2  C2  UNL     1     -33.358   6.039   0.838  1.00 20.00     0.022 A 
HETATM    3  C3  UNL     1     -32.939   6.786   2.082  1.00 20.00     0.079 A 
ENDROOT
BRANCH   3   4
HETATM    4  C4  UNL     1     -33.937   6.909   3.201  1.00 20.00     0.182 C 
BRANCH   4   5
HETATM    5  O6  UNL     1     -34.178   5.623   3.761  1.00 20.00    -0.400 OA
HETATM    6  H16 UNL     1     -33.886   5.663   4.686  1.00 20.00     0.209 HD
ENDBRANCH   4   5
ENDBRANCH   3   4
BRANCH   3   7
HETATM    7  C5  UNL     1     -32.033   7.975   1.919  1.00 20.00     0.397 C 
HETATM    8  F7  UNL     1     -31.617   8.434   3.118  1.00 20.00    -0.170 F 
HETATM    9  F8  UNL     1     -30.940   7.654   1.195  1.00 20.00    -0.170 F 
HETATM   10  F9  UNL     1     -32.668   8.984   1.285  1.00 20.00    -0.170 F 
ENDBRANCH   3   7
TORSDOF 3
ENDMDL
MODEL 7
REMARK VINA RESULT:      -2.0      2.102      2.808
REMARK  3 active torsions:
REMARK  status: ('A' for Active; 'I' for Inactive)
REMARK    1  A    between atoms: C3_3  and  C4_4 
REMARK    2  A    between atoms: C3_3  and  C5_5 
REMARK    3  A    between atoms: C4_4  and  O6_6 
ROOT
HETATM    1  C1  UNL     1     -32.178   5.368   1.417  1.00 20.00     0.022 A 
HETATM    2  C2  UNL     1     -33.389   5.985   0.778  1.00 20.00     0.022 A 
HETATM    3  C3  UNL     1     -32.818   6.585   2.041  1.00 20.00     0.079 A 
ENDROOT
BRANCH   3   4
HETATM    4  C4  UNL     1     -33.587   6.400   3.320  1.00 20.00     0.182 C 
BRANCH   4   5
HETATM    5  O6  UNL     1     -34.298   7.596   3.620  1.00 20.00    -0.400 OA
HETATM    6  H16 UNL     1     -34.098   8.224   2.908  1.00 20.00     0.209 HD
ENDBRANCH   4   5
ENDBRANCH   3   4
BRANCH   3   7
HETATM    7  C5  UNL     1     -32.092   7.898   1.932  1.00 20.00     0.397 C 
HETATM    8  F7  UNL     1     -31.004   7.784   1.142  1.00 20.00    -0.170 F 
HETATM    9  F8  UNL     1     -32.891   8.850   1.405  1.00 20.00    -0.170 F 
HETATM   10  F9  UNL     1     -31.681   8.325   3.145  1.00 20.00    -0.170 F 
ENDBRANCH   3   7
TORSDOF 3
ENDMDL
MODEL 8
REMARK VINA RESULT:      -1.9      1.634      2.701
REMARK  3 active torsions:
REMARK  status: ('A' for Active; 'I' for Inactive)
REMARK    1  A    between atoms: C3_3  and  C4_4 
REMARK    2  A    between atoms: C3_3  and  C5_5 
REMARK    3  A    between atoms: C4_4  and  O6_6 
ROOT
HETATM    1  C1  UNL     1     -33.165   5.174   3.448  1.00 20.00     0.022 A 
HETATM    2  C2  UNL     1     -33.686   5.686   2.135  1.00 20.00     0.022 A 
HETATM    3  C3  UNL     1     -34.124   6.341   3.424  1.00 20.00     0.079 A 
ENDROOT
BRANCH   3   4
HETATM    4  C4  UNL     1     -35.533   6.105   3.892  1.00 20.00     0.182 C 
BRANCH   4   5
HETATM    5  O6  UNL     1     -35.583   4.904   4.653  1.00 20.00    -0.400 OA
HETATM    6  H16 UNL     1     -34.665   4.620   4.786  1.00 20.00     0.209 HD
ENDBRANCH   4   5
ENDBRANCH   3   4
BRANCH   3   7
HETATM    7  C5  UNL     1     -33.579   7.707   3.742  1.00 20.00     0.397 C 
HETATM    8  F7  UNL     1     -34.516   8.658   3.545  1.00 20.00    -0.170 F 
HETATM    9  F8  UNL     1     -33.178   7.779   5.029  1.00 20.00    -0.170 F 
HETATM   10  F9  UNL     1     -32.519   7.999   2.959  1.00 20.00    -0.170 F 
ENDBRANCH   3   7
TORSDOF 3
ENDMDL
MODEL 9
REMARK VINA RESULT:      -1.8      2.476      3.075
REMARK  3 active torsions:
REMARK  status: ('A' for Active; 'I' for Inactive)
REMARK    1  A    between atoms: C3_3  and  C4_4 
REMARK    2  A    between atoms: C3_3  and  C5_5 
REMARK    3  A    between atoms: C4_4  and  O6_6 
ROOT
HETATM    1  C1  UNL     1     -33.337   7.196   4.015  1.00 20.00     0.022 A 
HETATM    2  C2  UNL     1     -34.307   7.709   2.989  1.00 20.00     0.022 A 
HETATM    3  C3  UNL     1     -32.938   7.238   2.559  1.00 20.00     0.079 A 
ENDROOT
BRANCH   3   4
HETATM    4  C4  UNL     1     -31.937   8.276   2.131  1.00 20.00     0.182 C 
BRANCH   4   5
HETATM    5  O6  UNL     1     -32.281   8.757   0.837  1.00 20.00    -0.400 OA
HETATM    6  H16 UNL     1     -32.008   8.073   0.204  1.00 20.00     0.209 HD
ENDBRANCH   4   5
ENDBRANCH   3   4
BRANCH   3   7
HETATM    7  C5  UNL     1     -32.842   5.933   1.816  1.00 20.00     0.397 C 
HETATM    8  F7  UNL     1     -33.640   5.937   0.728  1.00 20.00    -0.170 F 
HETATM    9  F8  UNL     1     -31.577   5.704   1.404  1.00 20.00    -0.170 F 
HETATM   10  F9  UNL     1     -33.216   4.901   2.602  1.00 20.00    -0.170 F 
ENDBRANCH   3   7
TORSDOF 3
ENDMDL
