MODEL 1
REMARK VINA RESULT:      -3.3      0.000      0.000
REMARK  1 active torsions:
REMARK  status: ('A' for Active; 'I' for Inactive)
REMARK    1  A    between atoms: C7_7  and  C8_8 
ROOT
HETATM    1  C1  UNL     1     -32.812   5.905   1.718  1.00 20.00     0.132 C 
HETATM    2  C2  UNL     1     -33.523   5.589   3.011  1.00 20.00     0.079 C 
HETATM    3  C3  UNL     1     -34.285   6.805   3.526  1.00 20.00     0.008 C 
HETATM    4  C4  UNL     1     -33.346   7.976   3.809  1.00 20.00     0.006 C 
HETATM    5  C5  UNL     1     -32.113   7.213   1.652  1.00 20.00     0.073 A 
HETATM    6  C6  UNL     1     -32.415   8.280   2.675  1.00 20.00     0.011 A 
HETATM    7  C7  UNL     1     -32.904   8.441   1.256  1.00 20.00     0.110 A 
HETATM    8  O9  UNL     1     -32.742   5.118   0.782  1.00 20.00    -0.298 OA
ENDROOT
BRANCH   7   9
HETATM    9  C8  UNL     1     -32.288   9.467   0.369  1.00 20.00     0.392 C 
HETATM   10  F10 UNL     1     -32.288  10.691   0.949  1.00 20.00    -0.171 F 
HETATM   11  F11 UNL     1     -31.003   9.160   0.072  1.00 20.00    -0.171 F 
HETATM   12  F12 UNL     1     -32.960   9.576  -0.804  1.00 20.00    -0.171 F 
ENDBRANCH   7   9
TORSDOF 1
ENDMDL
MODEL 2
REMARK VINA RESULT:      -2.0      4.056      4.947
REMARK  1 active torsions:
REMARK  status: ('A' for Active; 'I' for Inactive)
REMARK    1  A    between atoms: C7_7  and  C8_8 
ROOT
HETATM    1  C1  UNL     1     -32.467   6.183   1.610  1.00 20.00     0.132 C 
HETATM    2  C2  UNL     1     -32.279   7.676   1.728  1.00 20.00     0.079 C 
HETATM    3  C3  UNL     1     -32.433   8.133   3.174  1.00 20.00     0.008 C 
HETATM    4  C4  UNL     1     -33.825   7.816   3.718  1.00 20.00     0.006 C 
HETATM    5  C5  UNL     1     -33.590   5.597   2.385  1.00 20.00     0.073 A 
HETATM    6  C6  UNL     1     -34.247   6.398   3.482  1.00 20.00     0.011 A 
HETATM    7  C7  UNL     1     -33.361   5.228   3.834  1.00 20.00     0.110 A 
HETATM    8  O9  UNL     1     -31.789   5.478   0.874  1.00 20.00    -0.298 OA
ENDROOT
BRANCH   7   9
HETATM    9  C8  UNL     1     -33.959   3.981   4.387  1.00 20.00     0.392 C 
HETATM   10  F10 UNL     1     -35.230   4.184   4.809  1.00 20.00    -0.171 F 
HETATM   11  F11 UNL     1     -33.994   2.993   3.460  1.00 20.00    -0.171 F 
HETATM   12  F12 UNL     1     -33.251   3.517   5.445  1.00 20.00    -0.171 F 
ENDBRANCH   7   9
TORSDOF 1
ENDMDL
MODEL 3
REMARK VINA RESULT:      -0.6      2.668      3.359
REMARK  1 active torsions:
REMARK  status: ('A' for Active; 'I' for Inactive)
REMARK    1  A    between atoms: C7_7  and  C8_8 
ROOT
HETATM    1  C1  UNL     1     -34.143   4.330   4.206  1.00 20.00     0.132 C 
HETATM    2  C2  UNL     1     -35.292   5.093   4.820  1.00 20.00     0.079 C 
HETATM    3  C3  UNL     1     -35.741   6.229   3.909  1.00 20.00     0.008 C 
HETATM    4  C4  UNL     1     -34.617   7.235   3.671  1.00 20.00     0.006 C 
HETATM    5  C5  UNL     1     -33.076   5.145   3.570  1.00 20.00     0.073 A 
HETATM    6  C6  UNL     1     -33.327   6.598   3.253  1.00 20.00     0.011 A 
HETATM    7  C7  UNL     1     -33.256   5.588   2.135  1.00 20.00     0.110 A 
HETATM    8  O9  UNL     1     -34.035   3.112   4.270  1.00 20.00    -0.298 OA
ENDROOT
BRANCH   7   9
HETATM    9  C8  UNL     1     -32.092   5.586   1.206  1.00 20.00     0.392 C 
HETATM   10  F10 UNL     1     -31.689   6.846   0.912  1.00 20.00    -0.171 F 
HETATM   11  F11 UNL     1     -31.030   4.936   1.739  1.00 20.00    -0.171 F 
HETATM   12  F12 UNL     1     -32.393   4.975   0.033  1.00 20.00    -0.171 F 
ENDBRANCH   7   9
TORSDOF 1
ENDMDL
MODEL 4
REMARK VINA RESULT:      -0.3      1.891      2.475
REMARK  1 active torsions:
REMARK  status: ('A' for Active; 'I' for Inactive)
REMARK    1  A    between atoms: C7_7  and  C8_8 
ROOT
HETATM    1  C1  UNL     1     -33.917   4.718   3.769  1.00 20.00     0.132 C 
HETATM    2  C2  UNL     1     -35.193   5.067   4.496  1.00 20.00     0.079 C 
HETATM    3  C3  UNL     1     -35.804   6.348   3.941  1.00 20.00     0.008 C 
HETATM    4  C4  UNL     1     -34.860   7.537   4.106  1.00 20.00     0.006 C 
HETATM    5  C5  UNL     1     -32.987   5.843   3.494  1.00 20.00     0.073 A 
HETATM    6  C6  UNL     1     -33.471   7.267   3.615  1.00 20.00     0.011 A 
HETATM    7  C7  UNL     1     -33.202   6.678   2.251  1.00 20.00     0.110 A 
HETATM    8  O9  UNL     1     -33.607   3.572   3.468  1.00 20.00    -0.298 OA
ENDROOT
BRANCH   7   9
HETATM    9  C8  UNL     1     -32.031   7.144   1.457  1.00 20.00     0.392 C 
HETATM   10  F10 UNL     1     -31.133   7.797   2.233  1.00 20.00    -0.171 F 
HETATM   11  F11 UNL     1     -31.383   6.108   0.873  1.00 20.00    -0.171 F 
HETATM   12  F12 UNL     1     -32.407   7.994   0.470  1.00 20.00    -0.171 F 
ENDBRANCH   7   9
TORSDOF 1
ENDMDL
