MODEL 1
REMARK VINA RESULT:       2.7      0.000      0.000
REMARK  0 active torsions:
REMARK  status: ('A' for Active; 'I' for Inactive)
ROOT
HETATM    1  C1  UNL     1     -35.578   7.234   2.934  1.00 20.00     0.013 C 
HETATM    2  C2  UNL     1     -35.477   6.010   3.868  1.00 20.00     0.013 C 
HETATM    3  C3  UNL     1     -33.255   7.187   1.879  1.00 20.00     0.280 C 
HETATM    4  C4  UNL     1     -33.096   5.249   3.358  1.00 20.00     0.280 C 
HETATM    5  C5  UNL     1     -34.165   7.849   2.932  1.00 20.00     0.086 C 
HETATM    6  C6  UNL     1     -34.013   5.996   4.347  1.00 20.00     0.086 C 
HETATM    7  C7  UNL     1     -33.674   7.476   4.318  1.00 20.00     0.254 C 
HETATM    8  N8  UNL     1     -33.216   5.720   1.970  1.00 20.00     0.084 N 
HETATM    9  F9  UNL     1     -32.367   7.725   4.504  1.00 20.00    -0.205 F 
HETATM   10  F10 UNL     1     -34.358   8.146   5.272  1.00 20.00    -0.205 F 
HETATM   11  H21 UNL     1     -34.082   5.351   1.579  1.00 20.00     0.315 HD
ENDROOT
TORSDOF 0
ENDMDL
MODEL 2
REMARK VINA RESULT:       3.0      1.935      2.639
REMARK  0 active torsions:
REMARK  status: ('A' for Active; 'I' for Inactive)
ROOT
HETATM    1  C1  UNL     1     -34.144   8.071   4.241  1.00 20.00     0.013 C 
HETATM    2  C2  UNL     1     -33.086   7.077   4.762  1.00 20.00     0.013 C 
HETATM    3  C3  UNL     1     -35.872   6.442   3.308  1.00 20.00     0.280 C 
HETATM    4  C4  UNL     1     -34.197   4.867   4.133  1.00 20.00     0.280 C 
HETATM    5  C5  UNL     1     -34.721   7.411   2.974  1.00 20.00     0.086 C 
HETATM    6  C6  UNL     1     -33.117   5.904   3.762  1.00 20.00     0.086 C 
HETATM    7  C7  UNL     1     -33.527   6.612   2.483  1.00 20.00     0.254 C 
HETATM    8  N8  UNL     1     -35.530   5.451   4.339  1.00 20.00     0.084 N 
HETATM    9  F9  UNL     1     -33.828   5.768   1.482  1.00 20.00    -0.205 F 
HETATM   10  F10 UNL     1     -32.543   7.430   2.047  1.00 20.00    -0.205 F 
HETATM   11  H21 UNL     1     -35.542   5.914   5.247  1.00 20.00     0.315 HD
ENDROOT
TORSDOF 0
ENDMDL
MODEL 3
REMARK VINA RESULT:       3.2      2.723      3.704
REMARK  0 active torsions:
REMARK  status: ('A' for Active; 'I' for Inactive)
ROOT
HETATM    1  C1  UNL     1     -31.384   5.178   2.080  1.00 20.00     0.013 C 
HETATM    2  C2  UNL     1     -32.601   4.682   2.887  1.00 20.00     0.013 C 
HETATM    3  C3  UNL     1     -32.040   7.618   1.727  1.00 20.00     0.280 C 
HETATM    4  C4  UNL     1     -33.968   6.834   3.006  1.00 20.00     0.280 C 
HETATM    5  C5  UNL     1     -31.955   6.215   1.094  1.00 20.00     0.086 C 
HETATM    6  C6  UNL     1     -33.800   5.464   2.317  1.00 20.00     0.086 C 
HETATM    7  C7  UNL     1     -33.360   5.682   0.880  1.00 20.00     0.254 C 
HETATM    8  N8  UNL     1     -32.740   7.642   3.020  1.00 20.00     0.084 N 
HETATM    9  F9  UNL     1     -34.154   6.530   0.205  1.00 20.00    -0.205 F 
HETATM   10  F10 UNL     1     -33.337   4.513   0.201  1.00 20.00    -0.205 F 
HETATM   11  H21 UNL     1     -32.114   7.266   3.731  1.00 20.00     0.315 HD
ENDROOT
TORSDOF 0
ENDMDL
MODEL 4
REMARK VINA RESULT:       3.3      2.496      3.620
REMARK  0 active torsions:
REMARK  status: ('A' for Active; 'I' for Inactive)
ROOT
HETATM    1  C1  UNL     1     -31.205   6.849   1.810  1.00 20.00     0.013 C 
HETATM    2  C2  UNL     1     -32.594   6.236   1.536  1.00 20.00     0.013 C 
HETATM    3  C3  UNL     1     -31.814   8.565   3.597  1.00 20.00     0.280 C 
HETATM    4  C4  UNL     1     -34.014   7.595   3.163  1.00 20.00     0.280 C 
HETATM    5  C5  UNL     1     -31.478   8.335   2.110  1.00 20.00     0.086 C 
HETATM    6  C6  UNL     1     -33.583   7.407   1.695  1.00 20.00     0.086 C 
HETATM    7  C7  UNL     1     -32.721   8.585   1.276  1.00 20.00     0.254 C 
HETATM    8  N8  UNL     1     -32.887   7.695   4.102  1.00 20.00     0.084 N 
HETATM    9  F9  UNL     1     -33.294   9.775   1.520  1.00 20.00    -0.205 F 
HETATM   10  F10 UNL     1     -32.437   8.530  -0.045  1.00 20.00    -0.205 F 
HETATM   11  H21 UNL     1     -32.503   6.762   4.245  1.00 20.00     0.315 HD
ENDROOT
TORSDOF 0
ENDMDL
MODEL 5
REMARK VINA RESULT:       3.3      1.412      2.516
REMARK  0 active torsions:
REMARK  status: ('A' for Active; 'I' for Inactive)
ROOT
HETATM    1  C1  UNL     1     -33.263   5.590   1.663  1.00 20.00     0.013 C 
HETATM    2  C2  UNL     1     -34.508   6.497   1.574  1.00 20.00     0.013 C 
HETATM    3  C3  UNL     1     -33.426   4.839   4.095  1.00 20.00     0.280 C 
HETATM    4  C4  UNL     1     -35.397   6.275   3.955  1.00 20.00     0.280 C 
HETATM    5  C5  UNL     1     -32.731   5.784   3.096  1.00 20.00     0.086 C 
HETATM    6  C6  UNL     1     -34.616   7.159   2.962  1.00 20.00     0.086 C 
HETATM    7  C7  UNL     1     -33.159   7.212   3.383  1.00 20.00     0.254 C 
HETATM    8  N8  UNL     1     -34.894   4.896   4.041  1.00 20.00     0.084 N 
HETATM    9  F9  UNL     1     -32.990   7.569   4.667  1.00 20.00    -0.205 F 
HETATM   10  F10 UNL     1     -32.467   8.088   2.620  1.00 20.00    -0.205 F 
HETATM   11  H21 UNL     1     -35.205   4.388   3.214  1.00 20.00     0.315 HD
ENDROOT
TORSDOF 0
ENDMDL
MODEL 6
REMARK VINA RESULT:       3.6      1.622      2.662
REMARK  0 active torsions:
REMARK  status: ('A' for Active; 'I' for Inactive)
ROOT
HETATM    1  C1  UNL     1     -33.250   7.500   4.802  1.00 20.00     0.013 C 
HETATM    2  C2  UNL     1     -32.629   7.774   3.417  1.00 20.00     0.013 C 
HETATM    3  C3  UNL     1     -34.414   5.277   4.341  1.00 20.00     0.280 C 
HETATM    4  C4  UNL     1     -33.430   5.711   2.148  1.00 20.00     0.280 C 
HETATM    5  C5  UNL     1     -34.590   6.799   4.505  1.00 20.00     0.086 C 
HETATM    6  C6  UNL     1     -33.649   7.215   2.406  1.00 20.00     0.086 C 
HETATM    7  C7  UNL     1     -34.953   7.405   3.161  1.00 20.00     0.254 C 
HETATM    8  N8  UNL     1     -33.371   4.903   3.374  1.00 20.00     0.084 N 
HETATM    9  F9  UNL     1     -35.999   6.803   2.573  1.00 20.00    -0.205 F 
HETATM   10  F10 UNL     1     -35.252   8.717   3.286  1.00 20.00    -0.205 F 
HETATM   11  H21 UNL     1     -32.462   5.047   3.811  1.00 20.00     0.315 HD
ENDROOT
TORSDOF 0
ENDMDL
MODEL 7
REMARK VINA RESULT:       3.6      2.548      3.703
REMARK  0 active torsions:
REMARK  status: ('A' for Active; 'I' for Inactive)
ROOT
HETATM    1  C1  UNL     1     -34.027   6.323   0.603  1.00 20.00     0.013 C 
HETATM    2  C2  UNL     1     -32.991   7.436   0.339  1.00 20.00     0.013 C 
HETATM    3  C3  UNL     1     -33.743   6.029   3.121  1.00 20.00     0.280 C 
HETATM    4  C4  UNL     1     -32.102   7.791   2.704  1.00 20.00     0.280 C 
HETATM    5  C5  UNL     1     -33.413   5.465   1.725  1.00 20.00     0.086 C 
HETATM    6  C6  UNL     1     -31.843   7.150   1.326  1.00 20.00     0.086 C 
HETATM    7  C7  UNL     1     -31.929   5.639   1.457  1.00 20.00     0.254 C 
HETATM    8  N8  UNL     1     -33.414   7.454   3.275  1.00 20.00     0.084 N 
HETATM    9  F9  UNL     1     -31.151   5.146   2.434  1.00 20.00    -0.205 F 
HETATM   10  F10 UNL     1     -31.571   5.034   0.302  1.00 20.00    -0.205 F 
HETATM   11  H21 UNL     1     -34.125   8.002   2.792  1.00 20.00     0.315 HD
ENDROOT
TORSDOF 0
ENDMDL
MODEL 8
REMARK VINA RESULT:       3.6      2.463      3.456
REMARK  0 active torsions:
REMARK  status: ('A' for Active; 'I' for Inactive)
ROOT
HETATM    1  C1  UNL     1     -32.349   8.416   3.553  1.00 20.00     0.013 C 
HETATM    2  C2  UNL     1     -31.028   8.039   2.852  1.00 20.00     0.013 C 
HETATM    3  C3  UNL     1     -33.927   6.722   2.482  1.00 20.00     0.280 C 
HETATM    4  C4  UNL     1     -31.835   6.124   1.371  1.00 20.00     0.280 C 
HETATM    5  C5  UNL     1     -33.442   8.184   2.492  1.00 20.00     0.086 C 
HETATM    6  C6  UNL     1     -31.441   7.613   1.429  1.00 20.00     0.086 C 
HETATM    7  C7  UNL     1     -32.679   8.464   1.210  1.00 20.00     0.254 C 
HETATM    8  N8  UNL     1     -32.839   5.739   2.374  1.00 20.00     0.084 N 
HETATM    9  F9  UNL     1     -33.362   8.131   0.102  1.00 20.00    -0.205 F 
HETATM   10  F10 UNL     1     -32.355   9.773   1.115  1.00 20.00    -0.205 F 
HETATM   11  H21 UNL     1     -32.378   5.669   3.280  1.00 20.00     0.315 HD
ENDROOT
TORSDOF 0
ENDMDL
MODEL 9
REMARK VINA RESULT:       3.8      1.773      2.363
REMARK  0 active torsions:
REMARK  status: ('A' for Active; 'I' for Inactive)
ROOT
HETATM    1  C1  UNL     1     -33.450   5.580   2.557  1.00 20.00     0.013 C 
HETATM    2  C2  UNL     1     -33.566   5.617   4.095  1.00 20.00     0.013 C 
HETATM    3  C3  UNL     1     -32.661   7.964   2.106  1.00 20.00     0.280 C 
HETATM    4  C4  UNL     1     -32.845   8.024   4.542  1.00 20.00     0.280 C 
HETATM    5  C5  UNL     1     -33.857   6.992   2.093  1.00 20.00     0.086 C 
HETATM    6  C6  UNL     1     -34.033   7.049   4.423  1.00 20.00     0.086 C 
HETATM    7  C7  UNL     1     -34.836   7.394   3.181  1.00 20.00     0.254 C 
HETATM    8  N8  UNL     1     -31.937   7.992   3.386  1.00 20.00     0.084 N 
HETATM    9  F9  UNL     1     -35.194   8.687   3.122  1.00 20.00    -0.205 F 
HETATM   10  F10 UNL     1     -35.965   6.653   3.115  1.00 20.00    -0.205 F 
HETATM   11  H21 UNL     1     -31.364   7.152   3.449  1.00 20.00     0.315 HD
ENDROOT
TORSDOF 0
ENDMDL
