MODEL 1
REMARK VINA RESULT:       7.5      0.000      0.000
REMARK  0 active torsions:
REMARK  status: ('A' for Active; 'I' for Inactive)
ROOT
HETATM    1  C1  UNL     1     -33.620   7.531   3.721  1.00 20.00     0.027 C 
HETATM    2  C2  UNL     1     -32.595   8.296   2.886  1.00 20.00     0.027 C 
HETATM    3  C3  UNL     1     -33.192   5.111   0.628  1.00 20.00     0.009 C 
HETATM    4  C4  UNL     1     -33.069   5.111   3.127  1.00 20.00     0.030 C 
HETATM    5  C5  UNL     1     -34.961   6.332   1.910  1.00 20.00     0.030 C 
HETATM    6  C6  UNL     1     -31.349   6.391   1.735  1.00 20.00     0.030 C 
HETATM    7  C7  UNL     1     -33.240   7.609   0.516  1.00 20.00     0.030 C 
HETATM    8  C8  UNL     1     -32.251   5.156   1.832  1.00 20.00    -0.010 C 
HETATM    9  C9  UNL     1     -34.095   6.344   0.646  1.00 20.00    -0.010 C 
HETATM   10  C10 UNL     1     -34.165   6.187   3.219  1.00 20.00     0.038 C 
HETATM   11  C11 UNL     1     -32.108   7.716   1.553  1.00 20.00     0.038 C 
HETATM   12 CL12 UNL     1     -35.344   5.638   4.500  1.00 20.00    -0.119 Cl
HETATM   13 CL13 UNL     1     -30.910   8.933   0.910  1.00 20.00    -0.119 Cl
ENDROOT
TORSDOF 0
ENDMDL
MODEL 2
REMARK VINA RESULT:       7.5      0.020      3.669
REMARK  0 active torsions:
REMARK  status: ('A' for Active; 'I' for Inactive)
ROOT
HETATM    1  C1  UNL     1     -32.606   8.281   2.884  1.00 20.00     0.027 C 
HETATM    2  C2  UNL     1     -33.626   7.511   3.721  1.00 20.00     0.027 C 
HETATM    3  C3  UNL     1     -33.203   5.097   0.623  1.00 20.00     0.009 C 
HETATM    4  C4  UNL     1     -33.258   7.597   0.514  1.00 20.00     0.030 C 
HETATM    5  C5  UNL     1     -31.359   6.380   1.724  1.00 20.00     0.030 C 
HETATM    6  C6  UNL     1     -34.970   6.312   1.913  1.00 20.00     0.030 C 
HETATM    7  C7  UNL     1     -33.071   5.095   3.121  1.00 20.00     0.030 C 
HETATM    8  C8  UNL     1     -34.109   6.329   0.646  1.00 20.00    -0.010 C 
HETATM    9  C9  UNL     1     -32.258   5.144   1.823  1.00 20.00    -0.010 C 
HETATM   10  C10 UNL     1     -32.122   7.704   1.547  1.00 20.00     0.038 C 
HETATM   11  C11 UNL     1     -34.169   6.168   3.219  1.00 20.00     0.038 C 
HETATM   12 CL12 UNL     1     -30.930   8.925   0.901  1.00 20.00    -0.119 Cl
HETATM   13 CL13 UNL     1     -35.341   5.614   4.504  1.00 20.00    -0.119 Cl
ENDROOT
TORSDOF 0
ENDMDL
MODEL 3
REMARK VINA RESULT:       7.6      1.387      3.106
REMARK  0 active torsions:
REMARK  status: ('A' for Active; 'I' for Inactive)
ROOT
HETATM    1  C1  UNL     1     -32.983   5.362   2.321  1.00 20.00     0.027 C 
HETATM    2  C2  UNL     1     -32.524   6.594   1.543  1.00 20.00     0.027 C 
HETATM    3  C3  UNL     1     -34.151   8.268   4.729  1.00 20.00     0.009 C 
HETATM    4  C4  UNL     1     -35.041   6.256   3.537  1.00 20.00     0.030 C 
HETATM    5  C5  UNL     1     -32.779   6.176   4.732  1.00 20.00     0.030 C 
HETATM    6  C6  UNL     1     -34.276   8.316   2.230  1.00 20.00     0.030 C 
HETATM    7  C7  UNL     1     -32.016   8.237   3.426  1.00 20.00     0.030 C 
HETATM    8  C8  UNL     1     -34.934   7.784   3.508  1.00 20.00    -0.010 C 
HETATM    9  C9  UNL     1     -32.731   7.706   4.673  1.00 20.00    -0.010 C 
HETATM   10  C10 UNL     1     -33.690   5.531   3.672  1.00 20.00     0.038 C 
HETATM   11  C11 UNL     1     -32.777   7.995   2.111  1.00 20.00     0.038 C 
HETATM   12 CL12 UNL     1     -34.051   3.835   4.242  1.00 20.00    -0.119 Cl
HETATM   13 CL13 UNL     1     -32.082   9.145   0.875  1.00 20.00    -0.119 Cl
ENDROOT
TORSDOF 0
ENDMDL
MODEL 4
REMARK VINA RESULT:       7.6      1.382      4.034
REMARK  0 active torsions:
REMARK  status: ('A' for Active; 'I' for Inactive)
ROOT
HETATM    1  C1  UNL     1     -32.547   6.592   1.525  1.00 20.00     0.027 C 
HETATM    2  C2  UNL     1     -33.017   5.365   2.305  1.00 20.00     0.027 C 
HETATM    3  C3  UNL     1     -34.108   8.278   4.739  1.00 20.00     0.009 C 
HETATM    4  C4  UNL     1     -31.989   8.220   3.409  1.00 20.00     0.030 C 
HETATM    5  C5  UNL     1     -34.264   8.339   2.242  1.00 20.00     0.030 C 
HETATM    6  C6  UNL     1     -32.769   6.165   4.715  1.00 20.00     0.030 C 
HETATM    7  C7  UNL     1     -35.043   6.286   3.551  1.00 20.00     0.030 C 
HETATM    8  C8  UNL     1     -32.697   7.694   4.663  1.00 20.00    -0.010 C 
HETATM    9  C9  UNL     1     -34.913   7.812   3.526  1.00 20.00    -0.010 C 
HETATM   10  C10 UNL     1     -32.771   7.996   2.102  1.00 20.00     0.038 C 
HETATM   11  C11 UNL     1     -33.703   5.539   3.665  1.00 20.00     0.038 C 
HETATM   12 CL12 UNL     1     -32.074   9.140   0.863  1.00 20.00    -0.119 Cl
HETATM   13 CL13 UNL     1     -34.083   3.846   4.232  1.00 20.00    -0.119 Cl
ENDROOT
TORSDOF 0
ENDMDL
MODEL 5
REMARK VINA RESULT:       8.2      1.851      3.188
REMARK  0 active torsions:
REMARK  status: ('A' for Active; 'I' for Inactive)
ROOT
HETATM    1  C1  UNL     1     -33.829   6.202   3.705  1.00 20.00     0.027 C 
HETATM    2  C2  UNL     1     -33.519   5.266   2.538  1.00 20.00     0.027 C 
HETATM    3  C3  UNL     1     -32.003   8.664   1.213  1.00 20.00     0.009 C 
HETATM    4  C4  UNL     1     -34.130   8.437   2.511  1.00 20.00     0.030 C 
HETATM    5  C5  UNL     1     -31.879   7.844   3.574  1.00 20.00     0.030 C 
HETATM    6  C6  UNL     1     -33.618   6.870   0.556  1.00 20.00     0.030 C 
HETATM    7  C7  UNL     1     -31.367   6.279   1.618  1.00 20.00     0.030 C 
HETATM    8  C8  UNL     1     -33.481   8.283   1.131  1.00 20.00    -0.010 C 
HETATM    9  C9  UNL     1     -31.287   7.707   2.167  1.00 20.00    -0.010 C 
HETATM   10  C10 UNL     1     -33.407   7.676   3.636  1.00 20.00     0.038 C 
HETATM   11  C11 UNL     1     -32.794   5.803   1.299  1.00 20.00     0.038 C 
HETATM   12 CL12 UNL     1     -33.960   8.408   5.214  1.00 20.00    -0.119 Cl
HETATM   13 CL13 UNL     1     -32.640   4.372   0.176  1.00 20.00    -0.119 Cl
ENDROOT
TORSDOF 0
ENDMDL
MODEL 6
REMARK VINA RESULT:       8.2      1.849      3.152
REMARK  0 active torsions:
REMARK  status: ('A' for Active; 'I' for Inactive)
ROOT
HETATM    1  C1  UNL     1     -33.478   5.276   2.556  1.00 20.00     0.027 C 
HETATM    2  C2  UNL     1     -33.805   6.217   3.714  1.00 20.00     0.027 C 
HETATM    3  C3  UNL     1     -32.019   8.689   1.204  1.00 20.00     0.009 C 
HETATM    4  C4  UNL     1     -31.341   6.319   1.629  1.00 20.00     0.030 C 
HETATM    5  C5  UNL     1     -33.602   6.861   0.559  1.00 20.00     0.030 C 
HETATM    6  C6  UNL     1     -31.884   7.891   3.571  1.00 20.00     0.030 C 
HETATM    7  C7  UNL     1     -34.143   8.435   2.500  1.00 20.00     0.030 C 
HETATM    8  C8  UNL     1     -31.288   7.753   2.166  1.00 20.00    -0.010 C 
HETATM    9  C9  UNL     1     -33.490   8.282   1.123  1.00 20.00    -0.010 C 
HETATM   10  C10 UNL     1     -32.760   5.816   1.312  1.00 20.00     0.038 C 
HETATM   11  C11 UNL     1     -33.409   7.696   3.633  1.00 20.00     0.038 C 
HETATM   12 CL12 UNL     1     -32.579   4.379   0.201  1.00 20.00    -0.119 Cl
HETATM   13 CL13 UNL     1     -33.977   8.432   5.204  1.00 20.00    -0.119 Cl
ENDROOT
TORSDOF 0
ENDMDL
MODEL 7
REMARK VINA RESULT:       9.3      2.033      3.523
REMARK  0 active torsions:
REMARK  status: ('A' for Active; 'I' for Inactive)
ROOT
HETATM    1  C1  UNL     1     -32.371   6.897   1.792  1.00 20.00     0.027 C 
HETATM    2  C2  UNL     1     -32.257   7.792   3.025  1.00 20.00     0.027 C 
HETATM    3  C3  UNL     1     -35.258   5.441   4.062  1.00 20.00     0.009 C 
HETATM    4  C4  UNL     1     -34.866   6.362   1.769  1.00 20.00     0.030 C 
HETATM    5  C5  UNL     1     -33.211   4.716   2.819  1.00 20.00     0.030 C 
HETATM    6  C6  UNL     1     -34.678   7.864   3.829  1.00 20.00     0.030 C 
HETATM    7  C7  UNL     1     -33.025   6.218   4.880  1.00 20.00     0.030 C 
HETATM    8  C8  UNL     1     -35.392   6.678   3.173  1.00 20.00    -0.010 C 
HETATM    9  C9  UNL     1     -33.780   5.073   4.196  1.00 20.00    -0.010 C 
HETATM   10  C10 UNL     1     -33.436   5.793   1.743  1.00 20.00     0.038 C 
HETATM   11  C11 UNL     1     -33.212   7.589   4.207  1.00 20.00     0.038 C 
HETATM   12 CL12 UNL     1     -33.215   4.983   0.123  1.00 20.00    -0.119 Cl
HETATM   13 CL13 UNL     1     -32.732   8.853   5.433  1.00 20.00    -0.119 Cl
ENDROOT
TORSDOF 0
ENDMDL
MODEL 8
REMARK VINA RESULT:       9.3      2.043      2.929
REMARK  0 active torsions:
REMARK  status: ('A' for Active; 'I' for Inactive)
ROOT
HETATM    1  C1  UNL     1     -32.258   7.776   3.013  1.00 20.00     0.027 C 
HETATM    2  C2  UNL     1     -32.397   6.887   1.778  1.00 20.00     0.027 C 
HETATM    3  C3  UNL     1     -35.253   5.434   4.088  1.00 20.00     0.009 C 
HETATM    4  C4  UNL     1     -33.003   6.196   4.874  1.00 20.00     0.030 C 
HETATM    5  C5  UNL     1     -34.666   7.855   3.857  1.00 20.00     0.030 C 
HETATM    6  C6  UNL     1     -33.230   4.706   2.808  1.00 20.00     0.030 C 
HETATM    7  C7  UNL     1     -34.894   6.364   1.793  1.00 20.00     0.030 C 
HETATM    8  C8  UNL     1     -33.775   5.059   4.196  1.00 20.00    -0.010 C 
HETATM    9  C9  UNL     1     -35.396   6.675   3.207  1.00 20.00    -0.010 C 
HETATM   10  C10 UNL     1     -33.195   7.572   4.211  1.00 20.00     0.038 C 
HETATM   11  C11 UNL     1     -33.468   5.789   1.742  1.00 20.00     0.038 C 
HETATM   12 CL12 UNL     1     -32.690   8.827   5.435  1.00 20.00    -0.119 Cl
HETATM   13 CL13 UNL     1     -33.276   4.986   0.114  1.00 20.00    -0.119 Cl
ENDROOT
TORSDOF 0
ENDMDL
MODEL 9
REMARK VINA RESULT:       9.6      1.529      2.166
REMARK  0 active torsions:
REMARK  status: ('A' for Active; 'I' for Inactive)
ROOT
HETATM    1  C1  UNL     1     -34.024   9.208   2.841  1.00 20.00     0.027 C 
HETATM    2  C2  UNL     1     -33.647   9.721   1.452  1.00 20.00     0.027 C 
HETATM    3  C3  UNL     1     -31.524   6.395   1.639  1.00 20.00     0.009 C 
HETATM    4  C4  UNL     1     -31.896   7.984   3.536  1.00 20.00     0.030 C 
HETATM    5  C5  UNL     1     -33.850   6.682   2.517  1.00 20.00     0.030 C 
HETATM    6  C6  UNL     1     -31.262   8.847   1.214  1.00 20.00     0.030 C 
HETATM    7  C7  UNL     1     -33.214   7.544   0.195  1.00 20.00     0.030 C 
HETATM    8  C8  UNL     1     -31.100   7.730   2.251  1.00 20.00    -0.010 C 
HETATM    9  C9  UNL     1     -33.004   6.461   1.258  1.00 20.00    -0.010 C 
HETATM   10  C10 UNL     1     -33.422   7.896   3.361  1.00 20.00     0.038 C 
HETATM   11  C11 UNL     1     -32.663   8.927   0.585  1.00 20.00     0.038 C 
HETATM   12 CL12 UNL     1     -34.136   7.665   5.024  1.00 20.00    -0.119 Cl
HETATM   13 CL13 UNL     1     -32.500   9.889  -0.958  1.00 20.00    -0.119 Cl
ENDROOT
TORSDOF 0
ENDMDL
