MODEL 1
REMARK VINA RESULT:      -0.4      0.000      0.000
REMARK  3 active torsions:
REMARK  status: ('A' for Active; 'I' for Inactive)
REMARK    1  A    between atoms: C1_1  and  C4_4 
REMARK       I    between atoms: C1_1  and  N10_10 
REMARK    2  A    between atoms: C8_8  and  C9_9 
REMARK    3  A    between atoms: C9_9  and  N10_10 
ROOT
HETATM    1  C1  UNL     1     -34.378   4.579   4.288  1.00 20.00     0.222 C 
HETATM    2  N10 UNL     1     -33.564   5.523   3.703  1.00 20.00    -0.352 N 
HETATM    3  O11 UNL     1     -35.522   4.749   4.695  1.00 20.00    -0.273 OA
HETATM    4  H28 UNL     1     -32.635   5.247   3.411  1.00 20.00     0.163 HD
ENDROOT
BRANCH   2   5
HETATM    5  C9  UNL     1     -33.980   6.898   3.486  1.00 20.00     0.025 C 
HETATM    6  C6  UNL     1     -35.477   6.901   3.137  1.00 20.00     0.038 C 
HETATM    7  C7  UNL     1     -33.769   7.701   4.777  1.00 20.00     0.038 C 
BRANCH   5   8
HETATM    8  C8  UNL     1     -33.193   7.511   2.303  1.00 20.00     0.026 C 
HETATM    9  C5  UNL     1     -32.341   6.522   1.513  1.00 20.00     0.007 C 
ENDBRANCH   5   8
ENDBRANCH   2   5
BRANCH   1  10
HETATM   10  C4  UNL     1     -33.747   3.233   4.410  1.00 20.00     0.078 A 
HETATM   11  C2  UNL     1     -32.271   3.117   4.221  1.00 20.00     0.015 A 
HETATM   12  C3  UNL     1     -32.871   2.961   5.587  1.00 20.00     0.015 A 
ENDBRANCH   1  10
TORSDOF 3
ENDMDL
MODEL 2
REMARK VINA RESULT:      -0.3      2.519      5.011
REMARK  3 active torsions:
REMARK  status: ('A' for Active; 'I' for Inactive)
REMARK    1  A    between atoms: C1_1  and  C4_4 
REMARK       I    between atoms: C1_1  and  N10_10 
REMARK    2  A    between atoms: C8_8  and  C9_9 
REMARK    3  A    between atoms: C9_9  and  N10_10 
ROOT
HETATM    1  C1  UNL     1     -32.226   7.950   1.712  1.00 20.00     0.222 C 
HETATM    2  N10 UNL     1     -33.314   8.202   2.519  1.00 20.00    -0.352 N 
HETATM    3  O11 UNL     1     -31.586   6.908   1.650  1.00 20.00    -0.273 OA
HETATM    4  H28 UNL     1     -33.752   9.113   2.470  1.00 20.00     0.163 HD
ENDROOT
BRANCH   2   5
HETATM    5  C9  UNL     1     -33.860   7.217   3.437  1.00 20.00     0.025 C 
HETATM    6  C6  UNL     1     -33.445   7.607   4.865  1.00 20.00     0.038 C 
HETATM    7  C7  UNL     1     -35.392   7.232   3.343  1.00 20.00     0.038 C 
BRANCH   5   8
HETATM    8  C8  UNL     1     -33.285   5.817   3.117  1.00 20.00     0.026 C 
HETATM    9  C5  UNL     1     -34.028   4.652   3.761  1.00 20.00     0.007 C 
ENDBRANCH   5   8
ENDBRANCH   2   5
BRANCH   1  10
HETATM   10  C4  UNL     1     -31.839   9.103   0.848  1.00 20.00     0.078 A 
HETATM   11  C2  UNL     1     -32.652   9.385  -0.372  1.00 20.00     0.015 A 
HETATM   12  C3  UNL     1     -32.733  10.299   0.814  1.00 20.00     0.015 A 
ENDBRANCH   1  10
TORSDOF 3
ENDMDL
MODEL 3
REMARK VINA RESULT:      -0.3      2.832      5.431
REMARK  3 active torsions:
REMARK  status: ('A' for Active; 'I' for Inactive)
REMARK    1  A    between atoms: C1_1  and  C4_4 
REMARK       I    between atoms: C1_1  and  N10_10 
REMARK    2  A    between atoms: C8_8  and  C9_9 
REMARK    3  A    between atoms: C9_9  and  N10_10 
ROOT
HETATM    1  C1  UNL     1     -32.011   8.277   1.562  1.00 20.00     0.222 C 
HETATM    2  N10 UNL     1     -32.565   7.217   0.878  1.00 20.00    -0.352 N 
HETATM    3  O11 UNL     1     -31.702   8.303   2.747  1.00 20.00    -0.273 OA
HETATM    4  H28 UNL     1     -32.773   7.332  -0.106  1.00 20.00     0.163 HD
ENDROOT
BRANCH   2   5
HETATM    5  C9  UNL     1     -32.864   5.942   1.507  1.00 20.00     0.025 C 
HETATM    6  C6  UNL     1     -33.730   5.118   0.541  1.00 20.00     0.038 C 
HETATM    7  C7  UNL     1     -31.553   5.187   1.766  1.00 20.00     0.038 C 
BRANCH   5   8
HETATM    8  C8  UNL     1     -33.656   6.168   2.817  1.00 20.00     0.026 C 
HETATM    9  C5  UNL     1     -34.026   4.898   3.575  1.00 20.00     0.007 C 
ENDBRANCH   5   8
ENDBRANCH   2   5
BRANCH   1  10
HETATM   10  C4  UNL     1     -31.788   9.487   0.718  1.00 20.00     0.078 A 
HETATM   11  C2  UNL     1     -32.669   9.702  -0.468  1.00 20.00     0.015 A 
HETATM   12  C3  UNL     1     -32.813  10.573   0.744  1.00 20.00     0.015 A 
ENDBRANCH   1  10
TORSDOF 3
ENDMDL
MODEL 4
REMARK VINA RESULT:      -0.1      2.048      3.262
REMARK  3 active torsions:
REMARK  status: ('A' for Active; 'I' for Inactive)
REMARK    1  A    between atoms: C1_1  and  C4_4 
REMARK       I    between atoms: C1_1  and  N10_10 
REMARK    2  A    between atoms: C8_8  and  C9_9 
REMARK    3  A    between atoms: C9_9  and  N10_10 
ROOT
HETATM    1  C1  UNL     1     -33.871   6.969   3.301  1.00 20.00     0.222 C 
HETATM    2  N10 UNL     1     -33.085   7.050   2.172  1.00 20.00    -0.352 N 
HETATM    3  O11 UNL     1     -33.920   7.779   4.219  1.00 20.00    -0.273 OA
HETATM    4  H28 UNL     1     -33.142   6.306   1.488  1.00 20.00     0.163 HD
ENDROOT
BRANCH   2   5
HETATM    5  C9  UNL     1     -32.178   8.157   1.920  1.00 20.00     0.025 C 
HETATM    6  C6  UNL     1     -31.509   8.545   3.249  1.00 20.00     0.038 C 
HETATM    7  C7  UNL     1     -31.094   7.707   0.931  1.00 20.00     0.038 C 
BRANCH   5   8
HETATM    8  C8  UNL     1     -32.965   9.377   1.385  1.00 20.00     0.026 C 
HETATM    9  C5  UNL     1     -32.475   9.924   0.048  1.00 20.00     0.007 C 
ENDBRANCH   5   8
ENDBRANCH   2   5
BRANCH   1  10
HETATM   10  C4  UNL     1     -34.727   5.748   3.351  1.00 20.00     0.078 A 
HETATM   11  C2  UNL     1     -34.238   4.565   4.118  1.00 20.00     0.015 A 
HETATM   12  C3  UNL     1     -35.376   5.387   4.646  1.00 20.00     0.015 A 
ENDBRANCH   1  10
TORSDOF 3
ENDMDL
MODEL 5
REMARK VINA RESULT:      -0.0      2.416      3.424
REMARK  3 active torsions:
REMARK  status: ('A' for Active; 'I' for Inactive)
REMARK    1  A    between atoms: C1_1  and  C4_4 
REMARK       I    between atoms: C1_1  and  N10_10 
REMARK    2  A    between atoms: C8_8  and  C9_9 
REMARK    3  A    between atoms: C9_9  and  N10_10 
ROOT
HETATM    1  C1  UNL     1     -33.579   7.594   3.923  1.00 20.00     0.222 C 
HETATM    2  N10 UNL     1     -33.371   7.495   2.565  1.00 20.00    -0.352 N 
HETATM    3  O11 UNL     1     -32.813   8.077   4.748  1.00 20.00    -0.273 OA
HETATM    4  H28 UNL     1     -34.090   7.070   1.994  1.00 20.00     0.163 HD
ENDROOT
BRANCH   2   5
HETATM    5  C9  UNL     1     -32.163   7.976   1.915  1.00 20.00     0.025 C 
HETATM    6  C6  UNL     1     -32.560   9.059   0.900  1.00 20.00     0.038 C 
HETATM    7  C7  UNL     1     -31.236   8.598   2.968  1.00 20.00     0.038 C 
BRANCH   5   8
HETATM    8  C8  UNL     1     -31.469   6.817   1.161  1.00 20.00     0.026 C 
HETATM    9  C5  UNL     1     -32.210   5.485   1.201  1.00 20.00     0.007 C 
ENDBRANCH   5   8
ENDBRANCH   2   5
BRANCH   1  10
HETATM   10  C4  UNL     1     -34.889   7.038   4.372  1.00 20.00     0.078 A 
HETATM   11  C2  UNL     1     -35.819   6.484   3.345  1.00 20.00     0.015 A 
HETATM   12  C3  UNL     1     -35.104   5.563   4.286  1.00 20.00     0.015 A 
ENDBRANCH   1  10
TORSDOF 3
ENDMDL
MODEL 6
REMARK VINA RESULT:       0.1      1.512      2.343
REMARK  3 active torsions:
REMARK  status: ('A' for Active; 'I' for Inactive)
REMARK    1  A    between atoms: C1_1  and  C4_4 
REMARK       I    between atoms: C1_1  and  N10_10 
REMARK    2  A    between atoms: C8_8  and  C9_9 
REMARK    3  A    between atoms: C9_9  and  N10_10 
ROOT
HETATM    1  C1  UNL     1     -33.978   4.962   3.683  1.00 20.00     0.222 C 
HETATM    2  N10 UNL     1     -33.031   4.817   2.693  1.00 20.00    -0.352 N 
HETATM    3  O11 UNL     1     -34.728   5.917   3.845  1.00 20.00    -0.273 OA
HETATM    4  H28 UNL     1     -32.475   3.972   2.674  1.00 20.00     0.163 HD
ENDROOT
BRANCH   2   5
HETATM    5  C9  UNL     1     -32.797   5.825   1.673  1.00 20.00     0.025 C 
HETATM    6  C6  UNL     1     -31.460   5.511   0.982  1.00 20.00     0.038 C 
HETATM    7  C7  UNL     1     -33.921   5.761   0.630  1.00 20.00     0.038 C 
BRANCH   5   8
HETATM    8  C8  UNL     1     -32.704   7.227   2.322  1.00 20.00     0.026 C 
HETATM    9  C5  UNL     1     -31.947   8.268   1.505  1.00 20.00     0.007 C 
ENDBRANCH   5   8
ENDBRANCH   2   5
BRANCH   1  10
HETATM   10  C4  UNL     1     -34.049   3.804   4.621  1.00 20.00     0.078 A 
HETATM   11  C2  UNL     1     -33.315   2.553   4.267  1.00 20.00     0.015 A 
HETATM   12  C3  UNL     1     -32.820   3.427   5.381  1.00 20.00     0.015 A 
ENDBRANCH   1  10
TORSDOF 3
ENDMDL
MODEL 7
REMARK VINA RESULT:       0.3      1.815      3.682
REMARK  3 active torsions:
REMARK  status: ('A' for Active; 'I' for Inactive)
REMARK    1  A    between atoms: C1_1  and  C4_4 
REMARK       I    between atoms: C1_1  and  N10_10 
REMARK    2  A    between atoms: C8_8  and  C9_9 
REMARK    3  A    between atoms: C9_9  and  N10_10 
ROOT
HETATM    1  C1  UNL     1     -32.850   6.788   2.124  1.00 20.00     0.222 C 
HETATM    2  N10 UNL     1     -33.775   5.927   2.672  1.00 20.00    -0.352 N 
HETATM    3  O11 UNL     1     -32.667   7.960   2.432  1.00 20.00    -0.273 OA
HETATM    4  H28 UNL     1     -33.821   4.979   2.322  1.00 20.00     0.163 HD
ENDROOT
BRANCH   2   5
HETATM    5  C9  UNL     1     -34.688   6.321   3.732  1.00 20.00     0.025 C 
HETATM    6  C6  UNL     1     -34.013   7.423   4.565  1.00 20.00     0.038 C 
HETATM    7  C7  UNL     1     -35.973   6.885   3.110  1.00 20.00     0.038 C 
BRANCH   5   8
HETATM    8  C8  UNL     1     -34.985   5.114   4.653  1.00 20.00     0.026 C 
HETATM    9  C5  UNL     1     -34.063   3.914   4.463  1.00 20.00     0.007 C 
ENDBRANCH   5   8
ENDBRANCH   2   5
BRANCH   1  10
HETATM   10  C4  UNL     1     -32.016   6.170   1.051  1.00 20.00     0.078 A 
HETATM   11  C2  UNL     1     -31.307   4.891   1.347  1.00 20.00     0.015 A 
HETATM   12  C3  UNL     1     -32.489   4.901   0.424  1.00 20.00     0.015 A 
ENDBRANCH   1  10
TORSDOF 3
ENDMDL
MODEL 8
REMARK VINA RESULT:       0.3      2.237      3.635
REMARK  3 active torsions:
REMARK  status: ('A' for Active; 'I' for Inactive)
REMARK    1  A    between atoms: C1_1  and  C4_4 
REMARK       I    between atoms: C1_1  and  N10_10 
REMARK    2  A    between atoms: C8_8  and  C9_9 
REMARK    3  A    between atoms: C9_9  and  N10_10 
ROOT
HETATM    1  C1  UNL     1     -33.530   6.669   2.981  1.00 20.00     0.222 C 
HETATM    2  N10 UNL     1     -33.122   7.968   2.771  1.00 20.00    -0.352 N 
HETATM    3  O11 UNL     1     -33.151   5.675   2.373  1.00 20.00    -0.273 OA
HETATM    4  H28 UNL     1     -33.518   8.699   3.349  1.00 20.00     0.163 HD
ENDROOT
BRANCH   2   5
HETATM    5  C9  UNL     1     -32.148   8.335   1.758  1.00 20.00     0.025 C 
HETATM    6  C6  UNL     1     -30.777   8.483   2.436  1.00 20.00     0.038 C 
HETATM    7  C7  UNL     1     -32.066   7.218   0.708  1.00 20.00     0.038 C 
BRANCH   5   8
HETATM    8  C8  UNL     1     -32.534   9.689   1.116  1.00 20.00     0.026 C 
HETATM    9  C5  UNL     1     -32.518   9.708  -0.409  1.00 20.00     0.007 C 
ENDBRANCH   5   8
ENDBRANCH   2   5
BRANCH   1  10
HETATM   10  C4  UNL     1     -34.535   6.523   4.075  1.00 20.00     0.078 A 
HETATM   11  C2  UNL     1     -35.944   6.194   3.710  1.00 20.00     0.015 A 
HETATM   12  C3  UNL     1     -35.076   5.163   4.367  1.00 20.00     0.015 A 
ENDBRANCH   1  10
TORSDOF 3
ENDMDL
MODEL 9
REMARK VINA RESULT:       0.4      2.936      5.241
REMARK  3 active torsions:
REMARK  status: ('A' for Active; 'I' for Inactive)
REMARK    1  A    between atoms: C1_1  and  C4_4 
REMARK       I    between atoms: C1_1  and  N10_10 
REMARK    2  A    between atoms: C8_8  and  C9_9 
REMARK    3  A    between atoms: C9_9  and  N10_10 
ROOT
HETATM    1  C1  UNL     1     -32.052   8.174   1.561  1.00 20.00     0.222 C 
HETATM    2  N10 UNL     1     -33.283   8.120   2.178  1.00 20.00    -0.352 N 
HETATM    3  O11 UNL     1     -31.158   7.339   1.635  1.00 20.00    -0.273 OA
HETATM    4  H28 UNL     1     -33.932   8.882   2.031  1.00 20.00     0.163 HD
ENDROOT
BRANCH   2   5
HETATM    5  C9  UNL     1     -33.690   7.017   3.031  1.00 20.00     0.025 C 
HETATM    6  C6  UNL     1     -35.215   7.079   3.206  1.00 20.00     0.038 C 
HETATM    7  C7  UNL     1     -33.321   5.690   2.352  1.00 20.00     0.038 C 
BRANCH   5   8
HETATM    8  C8  UNL     1     -33.024   7.147   4.422  1.00 20.00     0.026 C 
HETATM    9  C5  UNL     1     -33.348   8.432   5.175  1.00 20.00     0.007 C 
ENDBRANCH   5   8
ENDBRANCH   2   5
BRANCH   1  10
HETATM   10  C4  UNL     1     -31.849   9.396   0.730  1.00 20.00     0.078 A 
HETATM   11  C2  UNL     1     -32.755   9.627  -0.434  1.00 20.00     0.015 A 
HETATM   12  C3  UNL     1     -32.876  10.479   0.794  1.00 20.00     0.015 A 
ENDBRANCH   1  10
TORSDOF 3
ENDMDL
