MODEL 1
REMARK VINA RESULT:      -0.1      0.000      0.000
REMARK  1 active torsions:
REMARK  status: ('A' for Active; 'I' for Inactive)
REMARK    1  A    between atoms: C7_7  and  C8_8 
ROOT
HETATM    1  C1  UNL     1     -34.953   5.183   4.447  1.00 20.00     0.005 C 
HETATM    2  C2  UNL     1     -33.817   4.811   3.484  1.00 20.00     0.005 C 
HETATM    3  C3  UNL     1     -35.072   6.579   2.522  1.00 20.00     0.010 C 
HETATM    4  C4  UNL     1     -34.175   7.568   4.491  1.00 20.00     0.010 C 
HETATM    5  C5  UNL     1     -35.300   6.623   4.032  1.00 20.00    -0.014 C 
HETATM    6  C6  UNL     1     -33.625   6.098   2.661  1.00 20.00    -0.009 C 
HETATM    7  C7  UNL     1     -32.993   7.172   3.579  1.00 20.00     0.004 C 
ENDROOT
BRANCH   7   8
HETATM    8  C8  UNL     1     -32.439   8.362   2.803  1.00 20.00     0.119 C 
HETATM    9 CL9  UNL     1     -31.738   7.817   1.268  1.00 20.00    -0.130 Cl
ENDBRANCH   7   8
TORSDOF 1
ENDMDL
MODEL 2
REMARK VINA RESULT:       0.2      2.315      3.517
REMARK  1 active torsions:
REMARK  status: ('A' for Active; 'I' for Inactive)
REMARK    1  A    between atoms: C7_7  and  C8_8 
ROOT
HETATM    1  C1  UNL     1     -31.428   6.567   1.536  1.00 20.00     0.005 C 
HETATM    2  C2  UNL     1     -32.006   7.917   1.982  1.00 20.00     0.005 C 
HETATM    3  C3  UNL     1     -33.758   6.618   1.051  1.00 20.00     0.010 C 
HETATM    4  C4  UNL     1     -33.102   5.349   2.954  1.00 20.00     0.010 C 
HETATM    5  C5  UNL     1     -32.666   5.653   1.509  1.00 20.00    -0.014 C 
HETATM    6  C6  UNL     1     -33.499   7.602   2.194  1.00 20.00    -0.009 C 
HETATM    7  C7  UNL     1     -33.633   6.711   3.452  1.00 20.00     0.004 C 
ENDROOT
BRANCH   7   8
HETATM    8  C8  UNL     1     -35.067   6.620   3.963  1.00 20.00     0.119 C 
HETATM    9 CL9  UNL     1     -35.398   4.987   4.570  1.00 20.00    -0.130 Cl
ENDBRANCH   7   8
TORSDOF 1
ENDMDL
MODEL 3
REMARK VINA RESULT:       0.3      2.268      3.541
REMARK  1 active torsions:
REMARK  status: ('A' for Active; 'I' for Inactive)
REMARK    1  A    between atoms: C7_7  and  C8_8 
ROOT
HETATM    1  C1  UNL     1     -32.740   7.961   2.639  1.00 20.00     0.005 C 
HETATM    2  C2  UNL     1     -33.364   7.835   4.036  1.00 20.00     0.005 C 
HETATM    3  C3  UNL     1     -34.801   6.781   2.470  1.00 20.00     0.010 C 
HETATM    4  C4  UNL     1     -32.819   5.470   2.347  1.00 20.00     0.010 C 
HETATM    5  C5  UNL     1     -33.400   6.810   1.861  1.00 20.00    -0.014 C 
HETATM    6  C6  UNL     1     -34.277   6.603   3.898  1.00 20.00    -0.009 C 
HETATM    7  C7  UNL     1     -33.381   5.345   3.780  1.00 20.00     0.004 C 
ENDROOT
BRANCH   7   8
HETATM    8  C8  UNL     1     -34.154   4.047   3.987  1.00 20.00     0.119 C 
HETATM    9 CL9  UNL     1     -33.145   2.865   4.842  1.00 20.00    -0.130 Cl
ENDBRANCH   7   8
TORSDOF 1
ENDMDL
MODEL 4
REMARK VINA RESULT:       0.3      1.121      2.107
REMARK  1 active torsions:
REMARK  status: ('A' for Active; 'I' for Inactive)
REMARK    1  A    between atoms: C7_7  and  C8_8 
ROOT
HETATM    1  C1  UNL     1     -35.215   5.829   3.757  1.00 20.00     0.005 C 
HETATM    2  C2  UNL     1     -35.356   7.344   3.546  1.00 20.00     0.005 C 
HETATM    3  C3  UNL     1     -33.217   6.908   4.474  1.00 20.00     0.010 C 
HETATM    4  C4  UNL     1     -33.124   5.801   2.370  1.00 20.00     0.010 C 
HETATM    5  C5  UNL     1     -33.690   5.626   3.791  1.00 20.00    -0.014 C 
HETATM    6  C6  UNL     1     -33.894   7.817   3.445  1.00 20.00    -0.009 C 
HETATM    7  C7  UNL     1     -33.311   7.311   2.104  1.00 20.00     0.004 C 
ENDROOT
BRANCH   7   8
HETATM    8  C8  UNL     1     -32.002   7.999   1.731  1.00 20.00     0.119 C 
HETATM    9 CL9  UNL     1     -32.314   9.344   0.618  1.00 20.00    -0.130 Cl
ENDBRANCH   7   8
TORSDOF 1
ENDMDL
MODEL 5
REMARK VINA RESULT:       0.8      2.304      3.771
REMARK  1 active torsions:
REMARK  status: ('A' for Active; 'I' for Inactive)
REMARK    1  A    between atoms: C7_7  and  C8_8 
ROOT
HETATM    1  C1  UNL     1     -32.248   8.832   1.037  1.00 20.00     0.005 C 
HETATM    2  C2  UNL     1     -33.043   7.710   0.353  1.00 20.00     0.005 C 
HETATM    3  C3  UNL     1     -31.469   6.727   1.831  1.00 20.00     0.010 C 
HETATM    4  C4  UNL     1     -32.889   7.949   3.297  1.00 20.00     0.010 C 
HETATM    5  C5  UNL     1     -31.722   8.154   2.314  1.00 20.00    -0.014 C 
HETATM    6  C6  UNL     1     -32.908   6.537   1.342  1.00 20.00    -0.009 C 
HETATM    7  C7  UNL     1     -33.744   6.866   2.603  1.00 20.00     0.004 C 
ENDROOT
BRANCH   7   8
HETATM    8  C8  UNL     1     -33.973   5.651   3.495  1.00 20.00     0.119 C 
HETATM    9 CL9  UNL     1     -35.527   5.792   4.335  1.00 20.00    -0.130 Cl
ENDBRANCH   7   8
TORSDOF 1
ENDMDL
MODEL 6
REMARK VINA RESULT:       0.8      1.896      3.005
REMARK  1 active torsions:
REMARK  status: ('A' for Active; 'I' for Inactive)
REMARK    1  A    between atoms: C7_7  and  C8_8 
ROOT
HETATM    1  C1  UNL     1     -33.833   6.143   2.926  1.00 20.00     0.005 C 
HETATM    2  C2  UNL     1     -33.264   7.435   3.531  1.00 20.00     0.005 C 
HETATM    3  C3  UNL     1     -31.622   6.481   2.110  1.00 20.00     0.010 C 
HETATM    4  C4  UNL     1     -33.393   6.999   0.609  1.00 20.00     0.010 C 
HETATM    5  C5  UNL     1     -32.982   5.951   1.659  1.00 20.00    -0.014 C 
HETATM    6  C6  UNL     1     -32.183   7.846   2.514  1.00 20.00    -0.009 C 
HETATM    7  C7  UNL     1     -32.888   8.324   1.222  1.00 20.00     0.004 C 
ENDROOT
BRANCH   7   8
HETATM    8  C8  UNL     1     -31.953   9.076   0.281  1.00 20.00     0.119 C 
HETATM    9 CL9  UNL     1     -32.665  10.636  -0.170  1.00 20.00    -0.130 Cl
ENDBRANCH   7   8
TORSDOF 1
ENDMDL
MODEL 7
REMARK VINA RESULT:       1.1      1.589      2.013
REMARK  1 active torsions:
REMARK  status: ('A' for Active; 'I' for Inactive)
REMARK    1  A    between atoms: C7_7  and  C8_8 
ROOT
HETATM    1  C1  UNL     1     -33.462   5.583   3.331  1.00 20.00     0.005 C 
HETATM    2  C2  UNL     1     -32.440   5.093   2.296  1.00 20.00     0.005 C 
HETATM    3  C3  UNL     1     -33.972   6.545   1.214  1.00 20.00     0.010 C 
HETATM    4  C4  UNL     1     -32.907   7.970   2.794  1.00 20.00     0.010 C 
HETATM    5  C5  UNL     1     -33.994   6.883   2.704  1.00 20.00    -0.014 C 
HETATM    6  C6  UNL     1     -32.482   6.194   1.220  1.00 20.00    -0.009 C 
HETATM    7  C7  UNL     1     -31.831   7.471   1.805  1.00 20.00     0.004 C 
ENDROOT
BRANCH   7   8
HETATM    8  C8  UNL     1     -31.500   8.508   0.738  1.00 20.00     0.119 C 
HETATM    9 CL9  UNL     1     -32.661   9.847   0.806  1.00 20.00    -0.130 Cl
ENDBRANCH   7   8
TORSDOF 1
ENDMDL
MODEL 8
REMARK VINA RESULT:       1.1      2.138      3.311
REMARK  1 active torsions:
REMARK  status: ('A' for Active; 'I' for Inactive)
REMARK    1  A    between atoms: C7_7  and  C8_8 
ROOT
HETATM    1  C1  UNL     1     -33.465   8.052   2.158  1.00 20.00     0.005 C 
HETATM    2  C2  UNL     1     -32.762   6.702   1.956  1.00 20.00     0.005 C 
HETATM    3  C3  UNL     1     -32.887   7.146   4.282  1.00 20.00     0.010 C 
HETATM    4  C4  UNL     1     -35.173   6.974   3.646  1.00 20.00     0.010 C 
HETATM    5  C5  UNL     1     -33.988   7.957   3.601  1.00 20.00    -0.014 C 
HETATM    6  C6  UNL     1     -33.004   5.982   3.295  1.00 20.00    -0.009 C 
HETATM    7  C7  UNL     1     -34.503   5.607   3.382  1.00 20.00     0.004 C 
ENDROOT
BRANCH   7   8
HETATM    8  C8  UNL     1     -34.797   4.596   4.485  1.00 20.00     0.119 C 
HETATM    9 CL9  UNL     1     -33.558   3.328   4.498  1.00 20.00    -0.130 Cl
ENDBRANCH   7   8
TORSDOF 1
ENDMDL
MODEL 9
REMARK VINA RESULT:       1.3      2.275      3.852
REMARK  1 active torsions:
REMARK  status: ('A' for Active; 'I' for Inactive)
REMARK    1  A    between atoms: C7_7  and  C8_8 
ROOT
HETATM    1  C1  UNL     1     -32.672   9.521   1.525  1.00 20.00     0.005 C 
HETATM    2  C2  UNL     1     -32.161   8.608   0.401  1.00 20.00     0.005 C 
HETATM    3  C3  UNL     1     -31.185   7.906   2.445  1.00 20.00     0.010 C 
HETATM    4  C4  UNL     1     -33.507   7.530   2.803  1.00 20.00     0.010 C 
HETATM    5  C5  UNL     1     -32.466   8.665   2.786  1.00 20.00    -0.014 C 
HETATM    6  C6  UNL     1     -31.762   7.324   1.152  1.00 20.00    -0.009 C 
HETATM    7  C7  UNL     1     -33.054   6.624   1.637  1.00 20.00     0.004 C 
ENDROOT
BRANCH   7   8
HETATM    8  C8  UNL     1     -32.816   5.185   2.083  1.00 20.00     0.119 C 
HETATM    9 CL9  UNL     1     -33.800   4.816   3.511  1.00 20.00    -0.130 Cl
ENDBRANCH   7   8
TORSDOF 1
ENDMDL
