MODEL 1
REMARK VINA RESULT:      -1.5      0.000      0.000
REMARK  2 active torsions:
REMARK  status: ('A' for Active; 'I' for Inactive)
REMARK    1  A    between atoms: C1_1  and  C9_9 
REMARK    2  A    between atoms: C2_2  and  C8_8 
ROOT
HETATM    1  C1  UNL     1     -33.715   5.931   2.635  1.00 20.00    -0.016 C 
HETATM    2  C2  UNL     1     -32.667   6.501   2.002  1.00 20.00    -0.087 C 
HETATM    3  C3  UNL     1     -31.883   5.695   0.994  1.00 20.00     0.043 C 
ENDROOT
BRANCH   1   4
HETATM    4  C9  UNL     1     -34.679   6.476   3.685  1.00 20.00    -0.033 C 
HETATM    5  C5  UNL     1     -35.123   5.296   4.582  1.00 20.00     0.018 C 
HETATM    6  C6  UNL     1     -34.039   7.525   4.611  1.00 20.00     0.018 C 
HETATM    7  C7  UNL     1     -35.936   7.052   3.011  1.00 20.00     0.018 C 
ENDBRANCH   1   4
BRANCH   2   8
HETATM    8  C8  UNL     1     -32.199   7.928   2.156  1.00 20.00     0.029 C 
HETATM    9  C4  UNL     1     -32.129   8.670   0.829  1.00 20.00     0.010 C 
ENDBRANCH   2   8
TORSDOF 2
ENDMDL
MODEL 2
REMARK VINA RESULT:      -1.4      0.062      1.449
REMARK  2 active torsions:
REMARK  status: ('A' for Active; 'I' for Inactive)
REMARK    1  A    between atoms: C1_1  and  C9_9 
REMARK    2  A    between atoms: C2_2  and  C8_8 
ROOT
HETATM    1  C1  UNL     1     -33.727   5.904   2.658  1.00 20.00    -0.016 C 
HETATM    2  C2  UNL     1     -32.701   6.503   2.016  1.00 20.00    -0.087 C 
HETATM    3  C3  UNL     1     -31.911   5.724   0.991  1.00 20.00     0.043 C 
ENDROOT
BRANCH   1   4
HETATM    4  C9  UNL     1     -34.689   6.418   3.725  1.00 20.00    -0.033 C 
HETATM    5  C5  UNL     1     -35.902   7.055   3.007  1.00 20.00     0.018 C 
HETATM    6  C6  UNL     1     -35.240   5.304   4.632  1.00 20.00     0.018 C 
HETATM    7  C7  UNL     1     -34.017   7.513   4.570  1.00 20.00     0.018 C 
ENDBRANCH   1   4
BRANCH   2   8
HETATM    8  C8  UNL     1     -32.264   7.940   2.175  1.00 20.00     0.029 C 
HETATM    9  C4  UNL     1     -32.115   8.660   0.843  1.00 20.00     0.010 C 
ENDBRANCH   2   8
TORSDOF 2
ENDMDL
MODEL 3
REMARK VINA RESULT:      -1.2      0.075      1.443
REMARK  2 active torsions:
REMARK  status: ('A' for Active; 'I' for Inactive)
REMARK    1  A    between atoms: C1_1  and  C9_9 
REMARK    2  A    between atoms: C2_2  and  C8_8 
ROOT
HETATM    1  C1  UNL     1     -33.726   5.878   2.638  1.00 20.00    -0.016 C 
HETATM    2  C2  UNL     1     -32.694   6.492   2.020  1.00 20.00    -0.087 C 
HETATM    3  C3  UNL     1     -31.856   5.716   1.031  1.00 20.00     0.043 C 
ENDROOT
BRANCH   1   4
HETATM    4  C9  UNL     1     -34.732   6.384   3.668  1.00 20.00    -0.033 C 
HETATM    5  C5  UNL     1     -34.031   7.460   4.531  1.00 20.00     0.018 C 
HETATM    6  C6  UNL     1     -35.965   7.052   3.035  1.00 20.00     0.018 C 
HETATM    7  C7  UNL     1     -35.162   5.242   4.603  1.00 20.00     0.018 C 
ENDBRANCH   1   4
BRANCH   2   8
HETATM    8  C8  UNL     1     -32.294   7.940   2.172  1.00 20.00     0.029 C 
HETATM    9  C4  UNL     1     -32.067   8.630   0.835  1.00 20.00     0.010 C 
ENDBRANCH   2   8
TORSDOF 2
ENDMDL
MODEL 4
REMARK VINA RESULT:      -1.2      1.108      4.092
REMARK  2 active torsions:
REMARK  status: ('A' for Active; 'I' for Inactive)
REMARK    1  A    between atoms: C1_1  and  C9_9 
REMARK    2  A    between atoms: C2_2  and  C8_8 
ROOT
HETATM    1  C1  UNL     1     -33.579   7.523   2.825  1.00 20.00    -0.016 C 
HETATM    2  C2  UNL     1     -34.068   6.375   3.341  1.00 20.00    -0.087 C 
HETATM    3  C3  UNL     1     -35.379   6.398   4.090  1.00 20.00     0.043 C 
ENDROOT
BRANCH   1   4
HETATM    4  C9  UNL     1     -32.305   7.815   2.037  1.00 20.00    -0.033 C 
HETATM    5  C5  UNL     1     -32.626   8.920   1.004  1.00 20.00     0.018 C 
HETATM    6  C6  UNL     1     -31.156   8.342   2.914  1.00 20.00     0.018 C 
HETATM    7  C7  UNL     1     -31.857   6.565   1.262  1.00 20.00     0.018 C 
ENDBRANCH   1   4
BRANCH   2   8
HETATM    8  C8  UNL     1     -33.453   5.002   3.207  1.00 20.00     0.029 C 
HETATM    9  C4  UNL     1     -33.973   4.021   4.248  1.00 20.00     0.010 C 
ENDBRANCH   2   8
TORSDOF 2
ENDMDL
MODEL 5
REMARK VINA RESULT:      -1.2      1.111      4.071
REMARK  2 active torsions:
REMARK  status: ('A' for Active; 'I' for Inactive)
REMARK    1  A    between atoms: C1_1  and  C9_9 
REMARK    2  A    between atoms: C2_2  and  C8_8 
ROOT
HETATM    1  C1  UNL     1     -33.597   7.528   2.838  1.00 20.00    -0.016 C 
HETATM    2  C2  UNL     1     -34.080   6.376   3.350  1.00 20.00    -0.087 C 
HETATM    3  C3  UNL     1     -35.363   6.400   4.147  1.00 20.00     0.043 C 
ENDROOT
BRANCH   1   4
HETATM    4  C9  UNL     1     -32.349   7.821   2.010  1.00 20.00    -0.033 C 
HETATM    5  C5  UNL     1     -31.245   8.320   2.971  1.00 20.00     0.018 C 
HETATM    6  C6  UNL     1     -31.791   6.579   1.293  1.00 20.00     0.018 C 
HETATM    7  C7  UNL     1     -32.630   8.943   0.996  1.00 20.00     0.018 C 
ENDBRANCH   1   4
BRANCH   2   8
HETATM    8  C8  UNL     1     -33.486   4.999   3.170  1.00 20.00     0.029 C 
HETATM    9  C4  UNL     1     -33.959   4.012   4.227  1.00 20.00     0.010 C 
ENDBRANCH   2   8
TORSDOF 2
ENDMDL
MODEL 6
REMARK VINA RESULT:      -0.8      0.968      3.721
REMARK  2 active torsions:
REMARK  status: ('A' for Active; 'I' for Inactive)
REMARK    1  A    between atoms: C1_1  and  C9_9 
REMARK    2  A    between atoms: C2_2  and  C8_8 
ROOT
HETATM    1  C1  UNL     1     -33.645   5.479   2.632  1.00 20.00    -0.016 C 
HETATM    2  C2  UNL     1     -34.376   6.110   3.574  1.00 20.00    -0.087 C 
HETATM    3  C3  UNL     1     -35.189   5.294   4.552  1.00 20.00     0.043 C 
ENDROOT
BRANCH   1   4
HETATM    4  C9  UNL     1     -32.744   6.016   1.524  1.00 20.00    -0.033 C 
HETATM    5  C5  UNL     1     -33.611   6.219   0.260  1.00 20.00     0.018 C 
HETATM    6  C6  UNL     1     -32.116   7.380   1.860  1.00 20.00     0.018 C 
HETATM    7  C7  UNL     1     -31.648   4.993   1.181  1.00 20.00     0.018 C 
ENDBRANCH   1   4
BRANCH   2   8
HETATM    8  C8  UNL     1     -34.440   7.601   3.807  1.00 20.00     0.029 C 
HETATM    9  C4  UNL     1     -33.566   8.053   4.968  1.00 20.00     0.010 C 
ENDBRANCH   2   8
TORSDOF 2
ENDMDL
MODEL 7
REMARK VINA RESULT:      -0.5      1.485      4.282
REMARK  2 active torsions:
REMARK  status: ('A' for Active; 'I' for Inactive)
REMARK    1  A    between atoms: C1_1  and  C9_9 
REMARK    2  A    between atoms: C2_2  and  C8_8 
ROOT
HETATM    1  C1  UNL     1     -33.810   6.163   2.828  1.00 20.00    -0.016 C 
HETATM    2  C2  UNL     1     -34.234   5.163   3.629  1.00 20.00    -0.087 C 
HETATM    3  C3  UNL     1     -35.287   5.446   4.675  1.00 20.00     0.043 C 
ENDROOT
BRANCH   1   4
HETATM    4  C9  UNL     1     -32.778   6.190   1.704  1.00 20.00    -0.033 C 
HETATM    5  C5  UNL     1     -32.144   7.600   1.673  1.00 20.00     0.018 C 
HETATM    6  C6  UNL     1     -31.630   5.186   1.911  1.00 20.00     0.018 C 
HETATM    7  C7  UNL     1     -33.459   5.952   0.346  1.00 20.00     0.018 C 
ENDBRANCH   1   4
BRANCH   2   8
HETATM    8  C8  UNL     1     -33.796   3.719   3.565  1.00 20.00     0.029 C 
HETATM    9  C4  UNL     1     -33.220   3.220   4.882  1.00 20.00     0.010 C 
ENDBRANCH   2   8
TORSDOF 2
ENDMDL
MODEL 8
REMARK VINA RESULT:      -0.3      1.008      4.045
REMARK  2 active torsions:
REMARK  status: ('A' for Active; 'I' for Inactive)
REMARK    1  A    between atoms: C1_1  and  C9_9 
REMARK    2  A    between atoms: C2_2  and  C8_8 
ROOT
HETATM    1  C1  UNL     1     -32.882   7.558   2.952  1.00 20.00    -0.016 C 
HETATM    2  C2  UNL     1     -33.858   7.308   3.851  1.00 20.00    -0.087 C 
HETATM    3  C3  UNL     1     -33.897   8.096   5.140  1.00 20.00     0.043 C 
ENDROOT
BRANCH   1   4
HETATM    4  C9  UNL     1     -32.581   6.939   1.590  1.00 20.00    -0.033 C 
HETATM    5  C5  UNL     1     -31.760   5.649   1.824  1.00 20.00     0.018 C 
HETATM    6  C6  UNL     1     -33.846   6.530   0.816  1.00 20.00     0.018 C 
HETATM    7  C7  UNL     1     -31.721   7.894   0.746  1.00 20.00     0.018 C 
ENDBRANCH   1   4
BRANCH   2   8
HETATM    8  C8  UNL     1     -34.992   6.324   3.690  1.00 20.00     0.029 C 
HETATM    9  C4  UNL     1     -34.635   4.929   4.183  1.00 20.00     0.010 C 
ENDBRANCH   2   8
TORSDOF 2
ENDMDL
MODEL 9
REMARK VINA RESULT:      -0.1      0.934      2.334
REMARK  2 active torsions:
REMARK  status: ('A' for Active; 'I' for Inactive)
REMARK    1  A    between atoms: C1_1  and  C9_9 
REMARK    2  A    between atoms: C2_2  and  C8_8 
ROOT
HETATM    1  C1  UNL     1     -33.220   7.500   2.856  1.00 20.00    -0.016 C 
HETATM    2  C2  UNL     1     -32.630   7.076   1.718  1.00 20.00    -0.087 C 
HETATM    3  C3  UNL     1     -31.620   7.966   1.032  1.00 20.00     0.043 C 
ENDROOT
BRANCH   1   4
HETATM    4  C9  UNL     1     -34.261   6.844   3.759  1.00 20.00    -0.033 C 
HETATM    5  C5  UNL     1     -34.227   7.564   5.127  1.00 20.00     0.018 C 
HETATM    6  C6  UNL     1     -35.697   6.970   3.222  1.00 20.00     0.018 C 
HETATM    7  C7  UNL     1     -33.907   5.366   3.999  1.00 20.00     0.018 C 
ENDBRANCH   1   4
BRANCH   2   8
HETATM    8  C8  UNL     1     -32.834   5.738   1.050  1.00 20.00     0.029 C 
HETATM    9  C4  UNL     1     -31.577   4.880   1.056  1.00 20.00     0.010 C 
ENDBRANCH   2   8
TORSDOF 2
ENDMDL
