MODEL 1
REMARK VINA RESULT:      -1.4      0.000      0.000
REMARK  1 active torsions:
REMARK  status: ('A' for Active; 'I' for Inactive)
REMARK    1  A    between atoms: C1_1  and  C5_5 
ROOT
HETATM    1  C2  UNL     1     -35.398   5.594   4.263  1.00 20.00     0.002 C 
HETATM    2  C3  UNL     1     -35.451   6.837   3.358  1.00 20.00     0.016 C 
HETATM    3  C4  UNL     1     -33.906   5.460   3.911  1.00 20.00     0.016 C 
HETATM    4  C5  UNL     1     -33.901   6.971   3.512  1.00 20.00     0.009 C 
HETATM    5  C6  UNL     1     -33.481   7.901   4.652  1.00 20.00     0.023 C 
ENDROOT
BRANCH   4   6
HETATM    6  C1  UNL     1     -33.132   7.308   2.206  1.00 20.00     0.240 C 
HETATM    7  O7  UNL     1     -32.127   8.011   2.175  1.00 20.00    -0.306 OA
ENDBRANCH   4   6
TORSDOF 1
ENDMDL
MODEL 2
REMARK VINA RESULT:      -0.9      2.128      3.178
REMARK  1 active torsions:
REMARK  status: ('A' for Active; 'I' for Inactive)
REMARK    1  A    between atoms: C1_1  and  C5_5 
ROOT
HETATM    1  C2  UNL     1     -32.837   7.813   2.500  1.00 20.00     0.002 C 
HETATM    2  C3  UNL     1     -33.168   7.442   3.955  1.00 20.00     0.016 C 
HETATM    3  C4  UNL     1     -33.333   6.417   2.083  1.00 20.00     0.016 C 
HETATM    4  C5  UNL     1     -34.141   6.344   3.417  1.00 20.00     0.009 C 
HETATM    5  C6  UNL     1     -35.587   6.825   3.281  1.00 20.00     0.023 C 
ENDROOT
BRANCH   4   6
HETATM    6  C1  UNL     1     -34.075   4.980   4.157  1.00 20.00     0.240 C 
HETATM    7  O7  UNL     1     -35.064   4.394   4.586  1.00 20.00    -0.306 OA
ENDBRANCH   4   6
TORSDOF 1
ENDMDL
MODEL 3
REMARK VINA RESULT:      -0.7      1.947      3.648
REMARK  1 active torsions:
REMARK  status: ('A' for Active; 'I' for Inactive)
REMARK    1  A    between atoms: C1_1  and  C5_5 
ROOT
HETATM    1  C2  UNL     1     -31.553   8.703   0.984  1.00 20.00     0.002 C 
HETATM    2  C3  UNL     1     -33.068   8.485   1.140  1.00 20.00     0.016 C 
HETATM    3  C4  UNL     1     -31.365   8.035   2.358  1.00 20.00     0.016 C 
HETATM    4  C5  UNL     1     -32.763   7.361   2.182  1.00 20.00     0.009 C 
HETATM    5  C6  UNL     1     -32.693   5.962   1.567  1.00 20.00     0.023 C 
ENDROOT
BRANCH   4   6
HETATM    6  C1  UNL     1     -33.665   7.369   3.447  1.00 20.00     0.240 C 
HETATM    7  O7  UNL     1     -34.535   6.531   3.663  1.00 20.00    -0.306 OA
ENDBRANCH   4   6
TORSDOF 1
ENDMDL
MODEL 4
REMARK VINA RESULT:      -0.6      1.492      2.266
REMARK  1 active torsions:
REMARK  status: ('A' for Active; 'I' for Inactive)
REMARK    1  A    between atoms: C1_1  and  C5_5 
ROOT
HETATM    1  C2  UNL     1     -34.574   7.510   4.368  1.00 20.00     0.002 C 
HETATM    2  C3  UNL     1     -33.153   7.265   3.834  1.00 20.00     0.016 C 
HETATM    3  C4  UNL     1     -35.111   6.704   3.172  1.00 20.00     0.016 C 
HETATM    4  C5  UNL     1     -33.704   6.041   3.034  1.00 20.00     0.009 C 
HETATM    5  C6  UNL     1     -33.578   4.714   3.786  1.00 20.00     0.023 C 
ENDROOT
BRANCH   4   6
HETATM    6  C1  UNL     1     -33.175   5.908   1.579  1.00 20.00     0.240 C 
HETATM    7  O7  UNL     1     -32.129   5.335   1.289  1.00 20.00    -0.306 OA
ENDBRANCH   4   6
TORSDOF 1
ENDMDL
MODEL 5
REMARK VINA RESULT:      -0.5      1.986      2.692
REMARK  1 active torsions:
REMARK  status: ('A' for Active; 'I' for Inactive)
REMARK    1  A    between atoms: C1_1  and  C5_5 
ROOT
HETATM    1  C2  UNL     1     -33.164   6.144   2.656  1.00 20.00     0.002 C 
HETATM    2  C3  UNL     1     -33.586   7.623   2.664  1.00 20.00     0.016 C 
HETATM    3  C4  UNL     1     -32.322   6.441   1.403  1.00 20.00     0.016 C 
HETATM    4  C5  UNL     1     -32.323   7.951   1.803  1.00 20.00     0.009 C 
HETATM    5  C6  UNL     1     -31.108   8.362   2.636  1.00 20.00     0.023 C 
ENDROOT
BRANCH   4   6
HETATM    6  C1  UNL     1     -32.559   8.945   0.634  1.00 20.00     0.240 C 
HETATM    7  O7  UNL     1     -32.400  10.158   0.733  1.00 20.00    -0.306 OA
ENDBRANCH   4   6
TORSDOF 1
ENDMDL
MODEL 6
REMARK VINA RESULT:      -0.5      2.184      2.917
REMARK  1 active torsions:
REMARK  status: ('A' for Active; 'I' for Inactive)
REMARK    1  A    between atoms: C1_1  and  C5_5 
ROOT
HETATM    1  C2  UNL     1     -34.553   7.812   4.004  1.00 20.00     0.002 C 
HETATM    2  C3  UNL     1     -35.193   6.462   3.636  1.00 20.00     0.016 C 
HETATM    3  C4  UNL     1     -33.215   7.073   4.182  1.00 20.00     0.016 C 
HETATM    4  C5  UNL     1     -33.769   5.925   3.280  1.00 20.00     0.009 C 
HETATM    5  C6  UNL     1     -33.410   6.083   1.802  1.00 20.00     0.023 C 
ENDROOT
BRANCH   4   6
HETATM    6  C1  UNL     1     -33.461   4.486   3.778  1.00 20.00     0.240 C 
HETATM    7  O7  UNL     1     -34.262   3.801   4.408  1.00 20.00    -0.306 OA
ENDBRANCH   4   6
TORSDOF 1
ENDMDL
MODEL 7
REMARK VINA RESULT:      -0.5      1.993      3.240
REMARK  1 active torsions:
REMARK  status: ('A' for Active; 'I' for Inactive)
REMARK    1  A    between atoms: C1_1  and  C5_5 
ROOT
HETATM    1  C2  UNL     1     -32.157   5.041   0.590  1.00 20.00     0.002 C 
HETATM    2  C3  UNL     1     -31.931   5.261   2.095  1.00 20.00     0.016 C 
HETATM    3  C4  UNL     1     -33.456   5.856   0.715  1.00 20.00     0.016 C 
HETATM    4  C5  UNL     1     -32.888   6.495   2.022  1.00 20.00     0.009 C 
HETATM    5  C6  UNL     1     -32.158   7.819   1.787  1.00 20.00     0.023 C 
ENDROOT
BRANCH   4   6
HETATM    6  C1  UNL     1     -33.901   6.617   3.194  1.00 20.00     0.240 C 
HETATM    7  O7  UNL     1     -33.920   7.562   3.976  1.00 20.00    -0.306 OA
ENDBRANCH   4   6
TORSDOF 1
ENDMDL
MODEL 8
REMARK VINA RESULT:      -0.2      2.057      3.210
REMARK  1 active torsions:
REMARK  status: ('A' for Active; 'I' for Inactive)
REMARK    1  A    between atoms: C1_1  and  C5_5 
ROOT
HETATM    1  C2  UNL     1     -32.226   7.320   1.784  1.00 20.00     0.002 C 
HETATM    2  C3  UNL     1     -33.541   6.570   1.510  1.00 20.00     0.016 C 
HETATM    3  C4  UNL     1     -32.704   7.531   3.231  1.00 20.00     0.016 C 
HETATM    4  C5  UNL     1     -33.680   6.325   3.047  1.00 20.00     0.009 C 
HETATM    5  C6  UNL     1     -33.091   4.990   3.507  1.00 20.00     0.023 C 
ENDROOT
BRANCH   4   6
HETATM    6  C1  UNL     1     -35.106   6.534   3.625  1.00 20.00     0.240 C 
HETATM    7  O7  UNL     1     -35.650   5.743   4.390  1.00 20.00    -0.306 OA
ENDBRANCH   4   6
TORSDOF 1
ENDMDL
MODEL 9
REMARK VINA RESULT:      -0.2      0.883      1.890
REMARK  1 active torsions:
REMARK  status: ('A' for Active; 'I' for Inactive)
REMARK    1  A    between atoms: C1_1  and  C5_5 
ROOT
HETATM    1  C2  UNL     1     -35.191   5.545   4.100  1.00 20.00     0.002 C 
HETATM    2  C3  UNL     1     -33.653   5.520   4.121  1.00 20.00     0.016 C 
HETATM    3  C4  UNL     1     -35.110   6.891   3.356  1.00 20.00     0.016 C 
HETATM    4  C5  UNL     1     -33.655   6.522   2.922  1.00 20.00     0.009 C 
HETATM    5  C6  UNL     1     -33.581   5.838   1.555  1.00 20.00     0.023 C 
ENDROOT
BRANCH   4   6
HETATM    6  C1  UNL     1     -32.622   7.678   3.023  1.00 20.00     0.240 C 
HETATM    7  O7  UNL     1     -31.977   8.095   2.066  1.00 20.00    -0.306 OA
ENDBRANCH   4   6
TORSDOF 1
ENDMDL
