MODEL 1
REMARK VINA RESULT:      -1.8      0.000      0.000
REMARK  3 active torsions:
REMARK  status: ('A' for Active; 'I' for Inactive)
REMARK    1  A    between atoms: C4_4  and  C7_7 
REMARK    2  A    between atoms: C6_6  and  C7_7 
REMARK    3  A    between atoms: C7_7  and  O9_9 
ROOT
HETATM    1  C1  UNL     1     -34.899   6.832   3.403  1.00 20.00     0.035 C 
HETATM    2  C2  UNL     1     -35.432   5.943   4.506  1.00 20.00     0.168 C 
HETATM    3  C3  UNL     1     -33.795   4.764   3.341  1.00 20.00     0.174 C 
HETATM    4  C4  UNL     1     -33.521   6.248   3.176  1.00 20.00     0.040 C 
HETATM    5  O8  UNL     1     -34.840   4.648   4.320  1.00 20.00    -0.391 OA
ENDROOT
BRANCH   4   6
HETATM    6  C7  UNL     1     -32.903   6.611   1.840  1.00 20.00     0.124 C 
BRANCH   6   7
HETATM    7  C6  UNL     1     -31.955   7.809   1.968  1.00 20.00     0.027 C 
HETATM    8  C5  UNL     1     -32.258   8.901   0.951  1.00 20.00     0.007 C 
ENDBRANCH   6   7
BRANCH   6   9
HETATM    9  O9  UNL     1     -32.169   5.491   1.347  1.00 20.00    -0.395 OA
HETATM   10  H23 UNL     1     -32.804   4.764   1.258  1.00 20.00     0.210 HD
ENDBRANCH   6   9
ENDBRANCH   4   6
TORSDOF 3
ENDMDL
MODEL 2
REMARK VINA RESULT:      -1.7      1.547      4.151
REMARK  3 active torsions:
REMARK  status: ('A' for Active; 'I' for Inactive)
REMARK    1  A    between atoms: C4_4  and  C7_7 
REMARK    2  A    between atoms: C6_6  and  C7_7 
REMARK    3  A    between atoms: C7_7  and  O9_9 
ROOT
HETATM    1  C1  UNL     1     -32.984   5.993   1.762  1.00 20.00     0.035 C 
HETATM    2  C2  UNL     1     -32.081   7.202   1.630  1.00 20.00     0.168 C 
HETATM    3  C3  UNL     1     -33.489   7.534   3.456  1.00 20.00     0.174 C 
HETATM    4  C4  UNL     1     -33.346   6.039   3.230  1.00 20.00     0.040 C 
HETATM    5  O8  UNL     1     -32.541   8.170   2.586  1.00 20.00    -0.391 OA
ENDROOT
BRANCH   4   6
HETATM    6  C7  UNL     1     -34.587   5.244   3.590  1.00 20.00     0.124 C 
BRANCH   6   7
HETATM    7  C6  UNL     1     -34.302   4.236   4.708  1.00 20.00     0.027 C 
HETATM    8  C5  UNL     1     -33.342   3.138   4.270  1.00 20.00     0.007 C 
ENDBRANCH   6   7
BRANCH   6   9
HETATM    9  O9  UNL     1     -35.605   6.144   4.028  1.00 20.00    -0.395 OA
HETATM   10  H23 UNL     1     -36.342   6.050   3.405  1.00 20.00     0.210 HD
ENDBRANCH   6   9
ENDBRANCH   4   6
TORSDOF 3
ENDMDL
MODEL 3
REMARK VINA RESULT:      -1.4      1.341      4.004
REMARK  3 active torsions:
REMARK  status: ('A' for Active; 'I' for Inactive)
REMARK    1  A    between atoms: C4_4  and  C7_7 
REMARK    2  A    between atoms: C6_6  and  C7_7 
REMARK    3  A    between atoms: C7_7  and  O9_9 
ROOT
HETATM    1  C1  UNL     1     -33.621   7.123   3.802  1.00 20.00     0.035 C 
HETATM    2  C2  UNL     1     -32.889   7.971   2.783  1.00 20.00     0.168 C 
HETATM    3  C3  UNL     1     -32.973   5.782   1.990  1.00 20.00     0.174 C 
HETATM    4  C4  UNL     1     -34.137   5.989   2.943  1.00 20.00     0.040 C 
HETATM    5  O8  UNL     1     -32.382   7.074   1.783  1.00 20.00    -0.391 OA
ENDROOT
BRANCH   4   6
HETATM    6  C7  UNL     1     -34.520   4.744   3.720  1.00 20.00     0.124 C 
BRANCH   6   7
HETATM    7  C6  UNL     1     -33.336   4.202   4.527  1.00 20.00     0.027 C 
HETATM    8  C5  UNL     1     -33.304   2.680   4.561  1.00 20.00     0.007 C 
ENDBRANCH   6   7
BRANCH   6   9
HETATM    9  O9  UNL     1     -35.584   5.064   4.616  1.00 20.00    -0.395 OA
HETATM   10  H23 UNL     1     -35.847   5.975   4.416  1.00 20.00     0.210 HD
ENDBRANCH   6   9
ENDBRANCH   4   6
TORSDOF 3
ENDMDL
MODEL 4
REMARK VINA RESULT:      -1.3      0.974      1.425
REMARK  3 active torsions:
REMARK  status: ('A' for Active; 'I' for Inactive)
REMARK    1  A    between atoms: C4_4  and  C7_7 
REMARK    2  A    between atoms: C6_6  and  C7_7 
REMARK    3  A    between atoms: C7_7  and  O9_9 
ROOT
HETATM    1  C1  UNL     1     -33.912   5.180   3.156  1.00 20.00     0.035 C 
HETATM    2  C2  UNL     1     -34.907   5.497   4.253  1.00 20.00     0.168 C 
HETATM    3  C3  UNL     1     -33.962   7.497   3.520  1.00 20.00     0.174 C 
HETATM    4  C4  UNL     1     -33.873   6.485   2.390  1.00 20.00     0.040 C 
HETATM    5  O8  UNL     1     -34.777   6.898   4.539  1.00 20.00    -0.391 OA
ENDROOT
BRANCH   4   6
HETATM    6  C7  UNL     1     -32.648   6.656   1.512  1.00 20.00     0.124 C 
BRANCH   6   7
HETATM    7  C6  UNL     1     -31.878   7.932   1.867  1.00 20.00     0.027 C 
HETATM    8  C5  UNL     1     -32.080   9.037   0.839  1.00 20.00     0.007 C 
ENDBRANCH   6   7
BRANCH   6   9
HETATM    9  O9  UNL     1     -31.787   5.532   1.691  1.00 20.00    -0.395 OA
HETATM   10  H23 UNL     1     -32.342   4.742   1.591  1.00 20.00     0.210 HD
ENDBRANCH   6   9
ENDBRANCH   4   6
TORSDOF 3
ENDMDL
MODEL 5
REMARK VINA RESULT:      -1.3      1.733      2.169
REMARK  3 active torsions:
REMARK  status: ('A' for Active; 'I' for Inactive)
REMARK    1  A    between atoms: C4_4  and  C7_7 
REMARK    2  A    between atoms: C6_6  and  C7_7 
REMARK    3  A    between atoms: C7_7  and  O9_9 
ROOT
HETATM    1  C1  UNL     1     -33.596   5.984   2.750  1.00 20.00     0.035 C 
HETATM    2  C2  UNL     1     -34.775   6.021   3.699  1.00 20.00     0.168 C 
HETATM    3  C3  UNL     1     -33.615   8.032   3.894  1.00 20.00     0.174 C 
HETATM    4  C4  UNL     1     -33.346   7.458   2.514  1.00 20.00     0.040 C 
HETATM    5  O8  UNL     1     -34.644   7.219   4.480  1.00 20.00    -0.391 OA
ENDROOT
BRANCH   4   6
HETATM    6  C7  UNL     1     -31.964   7.777   1.977  1.00 20.00     0.124 C 
BRANCH   6   7
HETATM    7  C6  UNL     1     -32.038   8.450   0.603  1.00 20.00     0.027 C 
HETATM    8  C5  UNL     1     -32.483   9.904   0.690  1.00 20.00     0.007 C 
ENDBRANCH   6   7
BRANCH   6   9
HETATM    9  O9  UNL     1     -31.303   8.655   2.887  1.00 20.00    -0.395 OA
HETATM   10  H23 UNL     1     -31.991   9.218   3.275  1.00 20.00     0.210 HD
ENDBRANCH   6   9
ENDBRANCH   4   6
TORSDOF 3
ENDMDL
MODEL 6
REMARK VINA RESULT:      -1.2      1.566      4.090
REMARK  3 active torsions:
REMARK  status: ('A' for Active; 'I' for Inactive)
REMARK    1  A    between atoms: C4_4  and  C7_7 
REMARK    2  A    between atoms: C6_6  and  C7_7 
REMARK    3  A    between atoms: C7_7  and  O9_9 
ROOT
HETATM    1  C1  UNL     1     -33.327   5.868   1.767  1.00 20.00     0.035 C 
HETATM    2  C2  UNL     1     -31.978   6.024   1.099  1.00 20.00     0.168 C 
HETATM    3  C3  UNL     1     -32.329   7.867   2.480  1.00 20.00     0.174 C 
HETATM    4  C4  UNL     1     -33.151   6.707   3.014  1.00 20.00     0.040 C 
HETATM    5  O8  UNL     1     -31.490   7.330   1.446  1.00 20.00    -0.391 OA
ENDROOT
BRANCH   4   6
HETATM    6  C7  UNL     1     -34.453   7.130   3.669  1.00 20.00     0.124 C 
BRANCH   6   7
HETATM    7  C6  UNL     1     -35.306   5.918   4.055  1.00 20.00     0.027 C 
HETATM    8  C5  UNL     1     -34.462   4.692   4.376  1.00 20.00     0.007 C 
ENDBRANCH   6   7
BRANCH   6   9
HETATM    9  O9  UNL     1     -34.158   7.883   4.845  1.00 20.00    -0.395 OA
HETATM   10  H23 UNL     1     -34.378   8.805   4.643  1.00 20.00     0.210 HD
ENDBRANCH   6   9
ENDBRANCH   4   6
TORSDOF 3
ENDMDL
MODEL 7
REMARK VINA RESULT:      -0.9      1.318      1.574
REMARK  3 active torsions:
REMARK  status: ('A' for Active; 'I' for Inactive)
REMARK    1  A    between atoms: C4_4  and  C7_7 
REMARK    2  A    between atoms: C6_6  and  C7_7 
REMARK    3  A    between atoms: C7_7  and  O9_9 
ROOT
HETATM    1  C1  UNL     1     -34.016   7.961   3.376  1.00 20.00     0.035 C 
HETATM    2  C2  UNL     1     -34.639   6.895   4.253  1.00 20.00     0.168 C 
HETATM    3  C3  UNL     1     -33.445   5.840   2.554  1.00 20.00     0.174 C 
HETATM    4  C4  UNL     1     -32.844   7.216   2.774  1.00 20.00     0.040 C 
HETATM    5  O8  UNL     1     -34.391   5.633   3.615  1.00 20.00    -0.391 OA
ENDROOT
BRANCH   4   6
HETATM    6  C7  UNL     1     -32.285   7.849   1.514  1.00 20.00     0.124 C 
BRANCH   6   7
HETATM    7  C6  UNL     1     -32.614   9.344   1.444  1.00 20.00     0.027 C 
HETATM    8  C5  UNL     1     -32.486   9.902   0.033  1.00 20.00     0.007 C 
ENDBRANCH   6   7
BRANCH   6   9
HETATM    9  O9  UNL     1     -30.868   7.686   1.500  1.00 20.00    -0.395 OA
HETATM   10  H23 UNL     1     -30.587   7.799   0.579  1.00 20.00     0.210 HD
ENDBRANCH   6   9
ENDBRANCH   4   6
TORSDOF 3
ENDMDL
MODEL 8
REMARK VINA RESULT:      -0.6      1.788      2.414
REMARK  3 active torsions:
REMARK  status: ('A' for Active; 'I' for Inactive)
REMARK    1  A    between atoms: C4_4  and  C7_7 
REMARK    2  A    between atoms: C6_6  and  C7_7 
REMARK    3  A    between atoms: C7_7  and  O9_9 
ROOT
HETATM    1  C1  UNL     1     -34.232   5.684   3.207  1.00 20.00     0.035 C 
HETATM    2  C2  UNL     1     -35.216   6.223   4.225  1.00 20.00     0.168 C 
HETATM    3  C3  UNL     1     -33.544   7.814   3.908  1.00 20.00     0.174 C 
HETATM    4  C4  UNL     1     -33.632   6.959   2.656  1.00 20.00     0.040 C 
HETATM    5  O8  UNL     1     -34.662   7.447   4.731  1.00 20.00    -0.391 OA
ENDROOT
BRANCH   4   6
HETATM    6  C7  UNL     1     -32.302   6.768   1.952  1.00 20.00     0.124 C 
BRANCH   6   7
HETATM    7  C6  UNL     1     -32.399   5.707   0.851  1.00 20.00     0.027 C 
HETATM    8  C5  UNL     1     -31.361   4.604   1.013  1.00 20.00     0.007 C 
ENDBRANCH   6   7
BRANCH   6   9
HETATM    9  O9  UNL     1     -31.903   8.007   1.367  1.00 20.00    -0.395 OA
HETATM   10  H23 UNL     1     -31.458   7.787   0.534  1.00 20.00     0.210 HD
ENDBRANCH   6   9
ENDBRANCH   4   6
TORSDOF 3
ENDMDL
MODEL 9
REMARK VINA RESULT:      -0.5      1.918      4.443
REMARK  3 active torsions:
REMARK  status: ('A' for Active; 'I' for Inactive)
REMARK    1  A    between atoms: C4_4  and  C7_7 
REMARK    2  A    between atoms: C6_6  and  C7_7 
REMARK    3  A    between atoms: C7_7  and  O9_9 
ROOT
HETATM    1  C1  UNL     1     -31.849   8.049   0.512  1.00 20.00     0.035 C 
HETATM    2  C2  UNL     1     -31.815   9.443  -0.080  1.00 20.00     0.168 C 
HETATM    3  C3  UNL     1     -33.114   9.499   1.852  1.00 20.00     0.174 C 
HETATM    4  C4  UNL     1     -32.137   8.342   1.968  1.00 20.00     0.040 C 
HETATM    5  O8  UNL     1     -32.728  10.242   0.686  1.00 20.00    -0.391 OA
ENDROOT
BRANCH   4   6
HETATM    6  C7  UNL     1     -32.681   7.158   2.745  1.00 20.00     0.124 C 
BRANCH   6   7
HETATM    7  C6  UNL     1     -33.830   7.574   3.669  1.00 20.00     0.027 C 
HETATM    8  C5  UNL     1     -34.876   6.479   3.827  1.00 20.00     0.007 C 
ENDBRANCH   6   7
BRANCH   6   9
HETATM    9  O9  UNL     1     -33.160   6.178   1.824  1.00 20.00    -0.395 OA
HETATM   10  H23 UNL     1     -32.379   5.716   1.483  1.00 20.00     0.210 HD
ENDBRANCH   6   9
ENDBRANCH   4   6
TORSDOF 3
ENDMDL
