MODEL 1
REMARK VINA RESULT:      -2.9      0.000      0.000
REMARK  4 active torsions:
REMARK  status: ('A' for Active; 'I' for Inactive)
REMARK    1  A    between atoms: C2_2  and  C3_3 
REMARK    2  A    between atoms: C3_3  and  C5_5 
REMARK    3  A    between atoms: C5_5  and  C6_6 
REMARK    4  A    between atoms: C6_6  and  C7_7 
ROOT
HETATM    1  C3  UNL     1     -33.742   7.075   3.490  1.00 20.00     0.154 C 
HETATM    2  O8  UNL     1     -33.426   7.854   4.392  1.00 20.00    -0.293 OA
ENDROOT
BRANCH   1   3
HETATM    3  C2  UNL     1     -32.877   6.980   2.265  1.00 20.00    -0.025 C 
HETATM    4  C1  UNL     1     -32.863   5.882   1.496  1.00 20.00     0.022 C 
HETATM    5  C4  UNL     1     -32.031   8.178   1.948  1.00 20.00     0.051 C 
ENDBRANCH   1   3
BRANCH   1   6
HETATM    6  C5  UNL     1     -34.992   6.208   3.587  1.00 20.00     0.084 C 
BRANCH   6   7
HETATM    7  C6  UNL     1     -34.791   5.005   4.513  1.00 20.00     0.023 C 
BRANCH   7   8
HETATM    8  C7  UNL     1     -33.954   3.895   3.887  1.00 20.00     0.115 C 
HETATM    9 CL9  UNL     1     -33.059   2.962   5.109  1.00 20.00    -0.130 Cl
ENDBRANCH   7   8
ENDBRANCH   6   7
ENDBRANCH   1   6
TORSDOF 4
ENDMDL
MODEL 2
REMARK VINA RESULT:      -2.9      0.070      1.173
REMARK  4 active torsions:
REMARK  status: ('A' for Active; 'I' for Inactive)
REMARK    1  A    between atoms: C2_2  and  C3_3 
REMARK    2  A    between atoms: C3_3  and  C5_5 
REMARK    3  A    between atoms: C5_5  and  C6_6 
REMARK    4  A    between atoms: C6_6  and  C7_7 
ROOT
HETATM    1  C3  UNL     1     -33.719   7.130   3.525  1.00 20.00     0.154 C 
HETATM    2  O8  UNL     1     -33.437   7.868   4.471  1.00 20.00    -0.293 OA
ENDROOT
BRANCH   1   3
HETATM    3  C2  UNL     1     -32.830   7.120   2.312  1.00 20.00    -0.025 C 
HETATM    4  C1  UNL     1     -32.057   8.169   1.996  1.00 20.00     0.022 C 
HETATM    5  C4  UNL     1     -32.854   5.875   1.475  1.00 20.00     0.051 C 
ENDBRANCH   1   3
BRANCH   1   6
HETATM    6  C5  UNL     1     -34.947   6.229   3.554  1.00 20.00     0.084 C 
BRANCH   6   7
HETATM    7  C6  UNL     1     -34.765   5.033   4.493  1.00 20.00     0.023 C 
BRANCH   7   8
HETATM    8  C7  UNL     1     -33.949   3.902   3.878  1.00 20.00     0.115 C 
HETATM    9 CL9  UNL     1     -33.062   2.972   5.107  1.00 20.00    -0.130 Cl
ENDBRANCH   7   8
ENDBRANCH   6   7
ENDBRANCH   1   6
TORSDOF 4
ENDMDL
MODEL 3
REMARK VINA RESULT:      -2.8      3.369      4.925
REMARK  4 active torsions:
REMARK  status: ('A' for Active; 'I' for Inactive)
REMARK    1  A    between atoms: C2_2  and  C3_3 
REMARK    2  A    between atoms: C3_3  and  C5_5 
REMARK    3  A    between atoms: C5_5  and  C6_6 
REMARK    4  A    between atoms: C6_6  and  C7_7 
ROOT
HETATM    1  C3  UNL     1     -33.167   6.293   2.442  1.00 20.00     0.154 C 
HETATM    2  O8  UNL     1     -32.831   5.549   1.518  1.00 20.00    -0.293 OA
ENDROOT
BRANCH   1   3
HETATM    3  C2  UNL     1     -34.167   5.803   3.452  1.00 20.00    -0.025 C 
HETATM    4  C1  UNL     1     -35.123   6.604   3.943  1.00 20.00     0.022 C 
HETATM    5  C4  UNL     1     -34.039   4.371   3.881  1.00 20.00     0.051 C 
ENDBRANCH   1   3
BRANCH   1   6
HETATM    6  C5  UNL     1     -32.596   7.699   2.583  1.00 20.00     0.084 C 
BRANCH   6   7
HETATM    7  C6  UNL     1     -31.959   8.197   1.282  1.00 20.00     0.023 C 
BRANCH   7   8
HETATM    8  C7  UNL     1     -32.283   9.654   0.972  1.00 20.00     0.115 C 
HETATM    9 CL9  UNL     1     -32.791   9.881  -0.717  1.00 20.00    -0.130 Cl
ENDBRANCH   7   8
ENDBRANCH   6   7
ENDBRANCH   1   6
TORSDOF 4
ENDMDL
MODEL 4
REMARK VINA RESULT:      -2.8      3.501      4.920
REMARK  4 active torsions:
REMARK  status: ('A' for Active; 'I' for Inactive)
REMARK    1  A    between atoms: C2_2  and  C3_3 
REMARK    2  A    between atoms: C3_3  and  C5_5 
REMARK    3  A    between atoms: C5_5  and  C6_6 
REMARK    4  A    between atoms: C6_6  and  C7_7 
ROOT
HETATM    1  C3  UNL     1     -33.130   6.859   2.604  1.00 20.00     0.154 C 
HETATM    2  O8  UNL     1     -33.228   5.880   1.862  1.00 20.00    -0.293 OA
ENDROOT
BRANCH   1   3
HETATM    3  C2  UNL     1     -34.105   7.022   3.737  1.00 20.00    -0.025 C 
HETATM    4  C1  UNL     1     -35.218   6.280   3.821  1.00 20.00     0.022 C 
HETATM    5  C4  UNL     1     -33.765   8.057   4.770  1.00 20.00     0.051 C 
ENDBRANCH   1   3
BRANCH   1   6
HETATM    6  C5  UNL     1     -32.046   7.910   2.400  1.00 20.00     0.084 C 
BRANCH   6   7
HETATM    7  C6  UNL     1     -31.945   8.361   0.940  1.00 20.00     0.023 C 
BRANCH   7   8
HETATM    8  C7  UNL     1     -32.282   9.835   0.739  1.00 20.00     0.115 C 
HETATM    9 CL9  UNL     1     -32.973  10.150  -0.869  1.00 20.00    -0.130 Cl
ENDBRANCH   7   8
ENDBRANCH   6   7
ENDBRANCH   1   6
TORSDOF 4
ENDMDL
MODEL 5
REMARK VINA RESULT:      -2.8      3.512      5.070
REMARK  4 active torsions:
REMARK  status: ('A' for Active; 'I' for Inactive)
REMARK    1  A    between atoms: C2_2  and  C3_3 
REMARK    2  A    between atoms: C3_3  and  C5_5 
REMARK    3  A    between atoms: C5_5  and  C6_6 
REMARK    4  A    between atoms: C6_6  and  C7_7 
ROOT
HETATM    1  C3  UNL     1     -33.093   6.909   2.613  1.00 20.00     0.154 C 
HETATM    2  O8  UNL     1     -33.249   5.916   1.900  1.00 20.00    -0.293 OA
ENDROOT
BRANCH   1   3
HETATM    3  C2  UNL     1     -34.021   7.133   3.774  1.00 20.00    -0.025 C 
HETATM    4  C1  UNL     1     -33.783   8.078   4.695  1.00 20.00     0.022 C 
HETATM    5  C4  UNL     1     -35.228   6.245   3.847  1.00 20.00     0.051 C 
ENDBRANCH   1   3
BRANCH   1   6
HETATM    6  C5  UNL     1     -31.981   7.917   2.345  1.00 20.00     0.084 C 
BRANCH   6   7
HETATM    7  C6  UNL     1     -31.970   8.393   0.889  1.00 20.00     0.023 C 
BRANCH   7   8
HETATM    8  C7  UNL     1     -32.319   9.869   0.735  1.00 20.00     0.115 C 
HETATM    9 CL9  UNL     1     -32.988  10.233  -0.873  1.00 20.00    -0.130 Cl
ENDBRANCH   7   8
ENDBRANCH   6   7
ENDBRANCH   1   6
TORSDOF 4
ENDMDL
MODEL 6
REMARK VINA RESULT:      -2.3      3.011      4.608
REMARK  4 active torsions:
REMARK  status: ('A' for Active; 'I' for Inactive)
REMARK    1  A    between atoms: C2_2  and  C3_3 
REMARK    2  A    between atoms: C3_3  and  C5_5 
REMARK    3  A    between atoms: C5_5  and  C6_6 
REMARK    4  A    between atoms: C6_6  and  C7_7 
ROOT
HETATM    1  C3  UNL     1     -33.490   7.002   3.302  1.00 20.00     0.154 C 
HETATM    2  O8  UNL     1     -33.352   7.968   4.055  1.00 20.00    -0.293 OA
ENDROOT
BRANCH   1   3
HETATM    3  C2  UNL     1     -34.403   5.879   3.707  1.00 20.00    -0.025 C 
HETATM    4  C1  UNL     1     -35.669   6.102   4.087  1.00 20.00     0.022 C 
HETATM    5  C4  UNL     1     -33.823   4.496   3.664  1.00 20.00     0.051 C 
ENDBRANCH   1   3
BRANCH   1   6
HETATM    6  C5  UNL     1     -32.756   6.920   1.969  1.00 20.00     0.084 C 
BRANCH   6   7
HETATM    7  C6  UNL     1     -31.814   8.107   1.752  1.00 20.00     0.023 C 
BRANCH   7   8
HETATM    8  C7  UNL     1     -31.967   8.756   0.381  1.00 20.00     0.115 C 
HETATM    9 CL9  UNL     1     -32.646  10.396   0.490  1.00 20.00    -0.130 Cl
ENDBRANCH   7   8
ENDBRANCH   6   7
ENDBRANCH   1   6
TORSDOF 4
ENDMDL
MODEL 7
REMARK VINA RESULT:      -2.2      3.267      4.551
REMARK  4 active torsions:
REMARK  status: ('A' for Active; 'I' for Inactive)
REMARK    1  A    between atoms: C2_2  and  C3_3 
REMARK    2  A    between atoms: C3_3  and  C5_5 
REMARK    3  A    between atoms: C5_5  and  C6_6 
REMARK    4  A    between atoms: C6_6  and  C7_7 
ROOT
HETATM    1  C3  UNL     1     -33.417   6.024   2.684  1.00 20.00     0.154 C 
HETATM    2  O8  UNL     1     -33.034   4.866   2.868  1.00 20.00    -0.293 OA
ENDROOT
BRANCH   1   3
HETATM    3  C2  UNL     1     -34.329   6.664   3.692  1.00 20.00    -0.025 C 
HETATM    4  C1  UNL     1     -35.515   6.126   4.011  1.00 20.00     0.022 C 
HETATM    5  C4  UNL     1     -33.843   7.935   4.324  1.00 20.00     0.051 C 
ENDBRANCH   1   3
BRANCH   1   6
HETATM    6  C5  UNL     1     -32.989   6.820   1.457  1.00 20.00     0.084 C 
BRANCH   6   7
HETATM    7  C6  UNL     1     -31.923   7.867   1.789  1.00 20.00     0.023 C 
BRANCH   7   8
HETATM    8  C7  UNL     1     -31.556   8.752   0.603  1.00 20.00     0.115 C 
HETATM    9 CL9  UNL     1     -32.630  10.164   0.466  1.00 20.00    -0.130 Cl
ENDBRANCH   7   8
ENDBRANCH   6   7
ENDBRANCH   1   6
TORSDOF 4
ENDMDL
MODEL 8
REMARK VINA RESULT:      -2.2      3.030      4.571
REMARK  4 active torsions:
REMARK  status: ('A' for Active; 'I' for Inactive)
REMARK    1  A    between atoms: C2_2  and  C3_3 
REMARK    2  A    between atoms: C3_3  and  C5_5 
REMARK    3  A    between atoms: C5_5  and  C6_6 
REMARK    4  A    between atoms: C6_6  and  C7_7 
ROOT
HETATM    1  C3  UNL     1     -33.458   6.970   3.249  1.00 20.00     0.154 C 
HETATM    2  O8  UNL     1     -33.413   7.959   3.984  1.00 20.00    -0.293 OA
ENDROOT
BRANCH   1   3
HETATM    3  C2  UNL     1     -34.288   5.786   3.662  1.00 20.00    -0.025 C 
HETATM    4  C1  UNL     1     -33.801   4.538   3.626  1.00 20.00     0.022 C 
HETATM    5  C4  UNL     1     -35.688   6.076   4.118  1.00 20.00     0.051 C 
ENDBRANCH   1   3
BRANCH   1   6
HETATM    6  C5  UNL     1     -32.691   6.918   1.934  1.00 20.00     0.084 C 
BRANCH   6   7
HETATM    7  C6  UNL     1     -31.791   8.141   1.740  1.00 20.00     0.023 C 
BRANCH   7   8
HETATM    8  C7  UNL     1     -31.945   8.793   0.370  1.00 20.00     0.115 C 
HETATM    9 CL9  UNL     1     -32.658  10.419   0.480  1.00 20.00    -0.130 Cl
ENDBRANCH   7   8
ENDBRANCH   6   7
ENDBRANCH   1   6
TORSDOF 4
ENDMDL
MODEL 9
REMARK VINA RESULT:      -2.0      1.479      2.114
REMARK  4 active torsions:
REMARK  status: ('A' for Active; 'I' for Inactive)
REMARK    1  A    between atoms: C2_2  and  C3_3 
REMARK    2  A    between atoms: C3_3  and  C5_5 
REMARK    3  A    between atoms: C5_5  and  C6_6 
REMARK    4  A    between atoms: C6_6  and  C7_7 
ROOT
HETATM    1  C3  UNL     1     -33.020   7.053   2.401  1.00 20.00     0.154 C 
HETATM    2  O8  UNL     1     -33.091   6.056   1.679  1.00 20.00    -0.293 OA
ENDROOT
BRANCH   1   3
HETATM    3  C2  UNL     1     -32.101   8.178   2.013  1.00 20.00    -0.025 C 
HETATM    4  C1  UNL     1     -31.084   8.559   2.798  1.00 20.00     0.022 C 
HETATM    5  C4  UNL     1     -32.382   8.849   0.700  1.00 20.00     0.051 C 
ENDBRANCH   1   3
BRANCH   1   6
HETATM    6  C5  UNL     1     -33.840   7.171   3.680  1.00 20.00     0.084 C 
BRANCH   6   7
HETATM    7  C6  UNL     1     -35.150   6.381   3.603  1.00 20.00     0.023 C 
BRANCH   7   8
HETATM    8  C7  UNL     1     -35.193   5.189   4.553  1.00 20.00     0.115 C 
HETATM    9 CL9  UNL     1     -33.967   3.966   4.146  1.00 20.00    -0.130 Cl
ENDBRANCH   7   8
ENDBRANCH   6   7
ENDBRANCH   1   6
TORSDOF 4
ENDMDL
