MODEL 1
REMARK VINA RESULT:      -2.3      0.000      0.000
REMARK  3 active torsions:
REMARK  status: ('A' for Active; 'I' for Inactive)
REMARK    1  A    between atoms: C4_4  and  C7_7 
REMARK    2  A    between atoms: C6_6  and  C7_7 
REMARK    3  A    between atoms: C7_7  and  O9_9 
ROOT
HETATM    1  C1  UNL     1     -33.399   7.412   3.737  1.00 20.00     0.035 C 
HETATM    2  C2  UNL     1     -32.818   7.996   2.465  1.00 20.00     0.168 C 
HETATM    3  C3  UNL     1     -33.069   5.698   2.169  1.00 20.00     0.174 C 
HETATM    4  C4  UNL     1     -34.066   6.154   3.220  1.00 20.00     0.040 C 
HETATM    5  O8  UNL     1     -32.491   6.889   1.611  1.00 20.00    -0.391 OA
ENDROOT
BRANCH   4   6
HETATM    6  C7  UNL     1     -34.347   5.116   4.288  1.00 20.00     0.124 C 
BRANCH   6   7
HETATM    7  C6  UNL     1     -33.842   3.731   3.870  1.00 20.00     0.027 C 
HETATM    8  C5  UNL     1     -33.096   3.020   4.992  1.00 20.00     0.007 C 
ENDBRANCH   6   7
BRANCH   6   9
HETATM    9  O9  UNL     1     -35.754   5.046   4.512  1.00 20.00    -0.395 OA
HETATM   10  H23 UNL     1     -35.930   4.169   4.887  1.00 20.00     0.210 HD
ENDBRANCH   6   9
ENDBRANCH   4   6
TORSDOF 3
ENDMDL
MODEL 2
REMARK VINA RESULT:      -1.4      2.066      4.543
REMARK  3 active torsions:
REMARK  status: ('A' for Active; 'I' for Inactive)
REMARK    1  A    between atoms: C4_4  and  C7_7 
REMARK    2  A    between atoms: C6_6  and  C7_7 
REMARK    3  A    between atoms: C7_7  and  O9_9 
ROOT
HETATM    1  C1  UNL     1     -33.860   6.279   2.749  1.00 20.00     0.035 C 
HETATM    2  C2  UNL     1     -34.855   6.509   3.868  1.00 20.00     0.168 C 
HETATM    3  C3  UNL     1     -33.198   8.142   4.012  1.00 20.00     0.174 C 
HETATM    4  C4  UNL     1     -33.272   7.663   2.573  1.00 20.00     0.040 C 
HETATM    5  O8  UNL     1     -34.316   7.552   4.695  1.00 20.00    -0.391 OA
ENDROOT
BRANCH   4   6
HETATM    6  C7  UNL     1     -31.938   7.684   1.852  1.00 20.00     0.124 C 
BRANCH   6   7
HETATM    7  C6  UNL     1     -32.001   8.536   0.581  1.00 20.00     0.027 C 
HETATM    8  C5  UNL     1     -32.589   9.918   0.834  1.00 20.00     0.007 C 
ENDBRANCH   6   7
BRANCH   6   9
HETATM    9  O9  UNL     1     -31.578   6.350   1.496  1.00 20.00    -0.395 OA
HETATM   10  H23 UNL     1     -30.610   6.311   1.516  1.00 20.00     0.210 HD
ENDBRANCH   6   9
ENDBRANCH   4   6
TORSDOF 3
ENDMDL
MODEL 3
REMARK VINA RESULT:      -1.3      1.380      4.061
REMARK  3 active torsions:
REMARK  status: ('A' for Active; 'I' for Inactive)
REMARK    1  A    between atoms: C4_4  and  C7_7 
REMARK    2  A    between atoms: C6_6  and  C7_7 
REMARK    3  A    between atoms: C7_7  and  O9_9 
ROOT
HETATM    1  C1  UNL     1     -33.202   5.092   3.511  1.00 20.00     0.035 C 
HETATM    2  C2  UNL     1     -34.190   4.053   3.998  1.00 20.00     0.168 C 
HETATM    3  C3  UNL     1     -35.181   6.153   4.191  1.00 20.00     0.174 C 
HETATM    4  C4  UNL     1     -34.123   6.223   3.104  1.00 20.00     0.040 C 
HETATM    5  O8  UNL     1     -35.309   4.767   4.546  1.00 20.00    -0.391 OA
ENDROOT
BRANCH   4   6
HETATM    6  C7  UNL     1     -33.440   7.573   3.001  1.00 20.00     0.124 C 
BRANCH   6   7
HETATM    7  C6  UNL     1     -32.236   7.521   2.054  1.00 20.00     0.027 C 
HETATM    8  C5  UNL     1     -32.163   8.735   1.138  1.00 20.00     0.007 C 
ENDBRANCH   6   7
BRANCH   6   9
HETATM    9  O9  UNL     1     -32.993   7.971   4.295  1.00 20.00    -0.395 OA
HETATM   10  H23 UNL     1     -32.427   8.747   4.165  1.00 20.00     0.210 HD
ENDBRANCH   6   9
ENDBRANCH   4   6
TORSDOF 3
ENDMDL
MODEL 4
REMARK VINA RESULT:      -1.2      1.803      2.181
REMARK  3 active torsions:
REMARK  status: ('A' for Active; 'I' for Inactive)
REMARK    1  A    between atoms: C4_4  and  C7_7 
REMARK    2  A    between atoms: C6_6  and  C7_7 
REMARK    3  A    between atoms: C7_7  and  O9_9 
ROOT
HETATM    1  C1  UNL     1     -32.270   8.226   2.569  1.00 20.00     0.035 C 
HETATM    2  C2  UNL     1     -31.666   7.918   1.215  1.00 20.00     0.168 C 
HETATM    3  C3  UNL     1     -32.801   6.024   1.959  1.00 20.00     0.174 C 
HETATM    4  C4  UNL     1     -33.420   7.241   2.623  1.00 20.00     0.040 C 
HETATM    5  O8  UNL     1     -31.885   6.520   0.970  1.00 20.00    -0.391 OA
ENDROOT
BRANCH   4   6
HETATM    6  C7  UNL     1     -33.946   6.976   4.020  1.00 20.00     0.124 C 
BRANCH   6   7
HETATM    7  C6  UNL     1     -35.310   6.279   3.982  1.00 20.00     0.027 C 
HETATM    8  C5  UNL     1     -35.257   4.866   4.548  1.00 20.00     0.007 C 
ENDBRANCH   6   7
BRANCH   6   9
HETATM    9  O9  UNL     1     -34.080   8.216   4.712  1.00 20.00    -0.395 OA
HETATM   10  H23 UNL     1     -33.443   8.826   4.311  1.00 20.00     0.210 HD
ENDBRANCH   6   9
ENDBRANCH   4   6
TORSDOF 3
ENDMDL
MODEL 5
REMARK VINA RESULT:      -1.0      1.043      1.517
REMARK  3 active torsions:
REMARK  status: ('A' for Active; 'I' for Inactive)
REMARK    1  A    between atoms: C4_4  and  C7_7 
REMARK    2  A    between atoms: C6_6  and  C7_7 
REMARK    3  A    between atoms: C7_7  and  O9_9 
ROOT
HETATM    1  C1  UNL     1     -33.053   6.005   1.911  1.00 20.00     0.035 C 
HETATM    2  C2  UNL     1     -32.163   7.112   1.384  1.00 20.00     0.168 C 
HETATM    3  C3  UNL     1     -33.191   7.864   3.335  1.00 20.00     0.174 C 
HETATM    4  C4  UNL     1     -33.129   6.348   3.384  1.00 20.00     0.040 C 
HETATM    5  O8  UNL     1     -32.410   8.268   2.199  1.00 20.00    -0.391 OA
ENDROOT
BRANCH   4   6
HETATM    6  C7  UNL     1     -34.297   5.710   4.111  1.00 20.00     0.124 C 
BRANCH   6   7
HETATM    7  C6  UNL     1     -34.380   4.207   3.828  1.00 20.00     0.027 C 
HETATM    8  C5  UNL     1     -33.444   3.395   4.714  1.00 20.00     0.007 C 
ENDBRANCH   6   7
BRANCH   6   9
HETATM    9  O9  UNL     1     -35.508   6.328   3.681  1.00 20.00    -0.395 OA
HETATM   10  H23 UNL     1     -35.419   6.476   2.727  1.00 20.00     0.210 HD
ENDBRANCH   6   9
ENDBRANCH   4   6
TORSDOF 3
ENDMDL
MODEL 6
REMARK VINA RESULT:      -0.9      2.044      4.577
REMARK  3 active torsions:
REMARK  status: ('A' for Active; 'I' for Inactive)
REMARK    1  A    between atoms: C4_4  and  C7_7 
REMARK    2  A    between atoms: C6_6  and  C7_7 
REMARK    3  A    between atoms: C7_7  and  O9_9 
ROOT
HETATM    1  C1  UNL     1     -33.903   7.989   3.593  1.00 20.00     0.035 C 
HETATM    2  C2  UNL     1     -34.632   6.752   4.075  1.00 20.00     0.168 C 
HETATM    3  C3  UNL     1     -33.219   6.136   2.327  1.00 20.00     0.174 C 
HETATM    4  C4  UNL     1     -32.657   7.389   2.975  1.00 20.00     0.040 C 
HETATM    5  O8  UNL     1     -34.297   5.692   3.166  1.00 20.00    -0.391 OA
ENDROOT
BRANCH   4   6
HETATM    6  C7  UNL     1     -31.939   8.309   2.008  1.00 20.00     0.124 C 
BRANCH   6   7
HETATM    7  C6  UNL     1     -32.908   9.293   1.345  1.00 20.00     0.027 C 
HETATM    8  C5  UNL     1     -32.352   9.879   0.054  1.00 20.00     0.007 C 
ENDBRANCH   6   7
BRANCH   6   9
HETATM    9  O9  UNL     1     -31.312   7.525   0.995  1.00 20.00    -0.395 OA
HETATM   10  H23 UNL     1     -31.435   8.003   0.161  1.00 20.00     0.210 HD
ENDBRANCH   6   9
ENDBRANCH   4   6
TORSDOF 3
ENDMDL
MODEL 7
REMARK VINA RESULT:      -0.6      1.319      3.580
REMARK  3 active torsions:
REMARK  status: ('A' for Active; 'I' for Inactive)
REMARK    1  A    between atoms: C4_4  and  C7_7 
REMARK    2  A    between atoms: C6_6  and  C7_7 
REMARK    3  A    between atoms: C7_7  and  O9_9 
ROOT
HETATM    1  C1  UNL     1     -35.124   6.517   3.627  1.00 20.00     0.035 C 
HETATM    2  C2  UNL     1     -35.527   5.496   4.671  1.00 20.00     0.168 C 
HETATM    3  C3  UNL     1     -33.705   4.654   3.487  1.00 20.00     0.174 C 
HETATM    4  C4  UNL     1     -33.667   6.170   3.405  1.00 20.00     0.040 C 
HETATM    5  O8  UNL     1     -34.735   4.323   4.433  1.00 20.00    -0.391 OA
ENDROOT
BRANCH   4   6
HETATM    6  C7  UNL     1     -33.094   6.699   2.105  1.00 20.00     0.124 C 
BRANCH   6   7
HETATM    7  C6  UNL     1     -32.063   5.732   1.513  1.00 20.00     0.027 C 
HETATM    8  C5  UNL     1     -32.649   4.860   0.410  1.00 20.00     0.007 C 
ENDBRANCH   6   7
BRANCH   6   9
HETATM    9  O9  UNL     1     -32.461   7.954   2.350  1.00 20.00    -0.395 OA
HETATM   10  H23 UNL     1     -33.000   8.626   1.905  1.00 20.00     0.210 HD
ENDBRANCH   6   9
ENDBRANCH   4   6
TORSDOF 3
ENDMDL
MODEL 8
REMARK VINA RESULT:      -0.5      1.904      3.635
REMARK  3 active torsions:
REMARK  status: ('A' for Active; 'I' for Inactive)
REMARK    1  A    between atoms: C4_4  and  C7_7 
REMARK    2  A    between atoms: C6_6  and  C7_7 
REMARK    3  A    between atoms: C7_7  and  O9_9 
ROOT
HETATM    1  C1  UNL     1     -34.250   5.755   3.080  1.00 20.00     0.035 C 
HETATM    2  C2  UNL     1     -35.065   6.282   4.242  1.00 20.00     0.168 C 
HETATM    3  C3  UNL     1     -33.450   7.871   3.700  1.00 20.00     0.174 C 
HETATM    4  C4  UNL     1     -33.732   7.037   2.463  1.00 20.00     0.040 C 
HETATM    5  O8  UNL     1     -34.433   7.495   4.678  1.00 20.00    -0.391 OA
ENDROOT
BRANCH   4   6
HETATM    6  C7  UNL     1     -32.527   6.851   1.562  1.00 20.00     0.124 C 
BRANCH   6   7
HETATM    7  C6  UNL     1     -31.916   5.455   1.725  1.00 20.00     0.027 C 
HETATM    8  C5  UNL     1     -32.023   4.621   0.455  1.00 20.00     0.007 C 
ENDBRANCH   6   7
BRANCH   6   9
HETATM    9  O9  UNL     1     -31.541   7.827   1.893  1.00 20.00    -0.395 OA
HETATM   10  H23 UNL     1     -30.702   7.350   1.990  1.00 20.00     0.210 HD
ENDBRANCH   6   9
ENDBRANCH   4   6
TORSDOF 3
ENDMDL
MODEL 9
REMARK VINA RESULT:      -0.1      1.584      2.544
REMARK  3 active torsions:
REMARK  status: ('A' for Active; 'I' for Inactive)
REMARK    1  A    between atoms: C4_4  and  C7_7 
REMARK    2  A    between atoms: C6_6  and  C7_7 
REMARK    3  A    between atoms: C7_7  and  O9_9 
ROOT
HETATM    1  C1  UNL     1     -32.796   6.124   1.478  1.00 20.00     0.035 C 
HETATM    2  C2  UNL     1     -31.876   7.323   1.388  1.00 20.00     0.168 C 
HETATM    3  C3  UNL     1     -33.138   7.511   3.339  1.00 20.00     0.174 C 
HETATM    4  C4  UNL     1     -33.048   6.041   2.969  1.00 20.00     0.040 C 
HETATM    5  O8  UNL     1     -32.241   8.208   2.459  1.00 20.00    -0.391 OA
ENDROOT
BRANCH   4   6
HETATM    6  C7  UNL     1     -34.276   5.238   3.348  1.00 20.00     0.124 C 
BRANCH   6   7
HETATM    7  C6  UNL     1     -35.286   6.092   4.123  1.00 20.00     0.027 C 
HETATM    8  C5  UNL     1     -36.353   6.696   3.219  1.00 20.00     0.007 C 
ENDBRANCH   6   7
BRANCH   6   9
HETATM    9  O9  UNL     1     -33.882   4.137   4.164  1.00 20.00    -0.395 OA
HETATM   10  H23 UNL     1     -33.745   3.386   3.566  1.00 20.00     0.210 HD
ENDBRANCH   6   9
ENDBRANCH   4   6
TORSDOF 3
ENDMDL
