MODEL 1
REMARK VINA RESULT:      -2.4      0.000      0.000
REMARK  3 active torsions:
REMARK  status: ('A' for Active; 'I' for Inactive)
REMARK    1  A    between atoms: C4_4  and  C7_7 
REMARK    2  A    between atoms: C6_6  and  C7_7 
REMARK    3  A    between atoms: C7_7  and  O9_9 
ROOT
HETATM    1  C1  UNL     1     -33.001   5.743   2.221  1.00 20.00     0.035 C 
HETATM    2  C2  UNL     1     -32.593   7.080   1.641  1.00 20.00     0.168 C 
HETATM    3  C3  UNL     1     -33.464   7.441   3.771  1.00 20.00     0.174 C 
HETATM    4  C4  UNL     1     -34.056   6.153   3.225  1.00 20.00     0.040 C 
HETATM    5  O8  UNL     1     -32.746   8.050   2.687  1.00 20.00    -0.391 OA
ENDROOT
BRANCH   4   6
HETATM    6  C7  UNL     1     -34.340   5.111   4.289  1.00 20.00     0.124 C 
BRANCH   6   7
HETATM    7  C6  UNL     1     -33.828   3.728   3.870  1.00 20.00     0.027 C 
HETATM    8  C5  UNL     1     -33.097   3.011   4.997  1.00 20.00     0.007 C 
ENDBRANCH   6   7
BRANCH   6   9
HETATM    9  O9  UNL     1     -35.748   5.035   4.506  1.00 20.00    -0.395 OA
HETATM   10  H23 UNL     1     -35.873   4.540   5.330  1.00 20.00     0.210 HD
ENDBRANCH   6   9
ENDBRANCH   4   6
TORSDOF 3
ENDMDL
MODEL 2
REMARK VINA RESULT:      -1.6      2.044      4.771
REMARK  3 active torsions:
REMARK  status: ('A' for Active; 'I' for Inactive)
REMARK    1  A    between atoms: C4_4  and  C7_7 
REMARK    2  A    between atoms: C6_6  and  C7_7 
REMARK    3  A    between atoms: C7_7  and  O9_9 
ROOT
HETATM    1  C1  UNL     1     -33.780   7.789   3.708  1.00 20.00     0.035 C 
HETATM    2  C2  UNL     1     -34.648   6.591   4.025  1.00 20.00     0.168 C 
HETATM    3  C3  UNL     1     -33.157   5.989   2.339  1.00 20.00     0.174 C 
HETATM    4  C4  UNL     1     -33.357   7.494   2.285  1.00 20.00     0.040 C 
HETATM    5  O8  UNL     1     -34.117   5.485   3.281  1.00 20.00    -0.391 OA
ENDROOT
BRANCH   4   6
HETATM    6  C7  UNL     1     -32.129   8.258   1.830  1.00 20.00     0.124 C 
BRANCH   6   7
HETATM    7  C6  UNL     1     -32.359   8.931   0.472  1.00 20.00     0.027 C 
HETATM    8  C5  UNL     1     -32.631  10.424   0.600  1.00 20.00     0.007 C 
ENDBRANCH   6   7
BRANCH   6   9
HETATM    9  O9  UNL     1     -31.031   7.355   1.717  1.00 20.00    -0.395 OA
HETATM   10  H23 UNL     1     -31.411   6.463   1.683  1.00 20.00     0.210 HD
ENDBRANCH   6   9
ENDBRANCH   4   6
TORSDOF 3
ENDMDL
MODEL 3
REMARK VINA RESULT:      -1.4      1.468      4.151
REMARK  3 active torsions:
REMARK  status: ('A' for Active; 'I' for Inactive)
REMARK    1  A    between atoms: C4_4  and  C7_7 
REMARK    2  A    between atoms: C6_6  and  C7_7 
REMARK    3  A    between atoms: C7_7  and  O9_9 
ROOT
HETATM    1  C1  UNL     1     -34.481   6.876   3.715  1.00 20.00     0.035 C 
HETATM    2  C2  UNL     1     -35.528   5.988   4.351  1.00 20.00     0.168 C 
HETATM    3  C3  UNL     1     -33.797   4.637   3.575  1.00 20.00     0.174 C 
HETATM    4  C4  UNL     1     -33.806   5.918   2.758  1.00 20.00     0.040 C 
HETATM    5  O8  UNL     1     -34.984   4.660   4.382  1.00 20.00    -0.391 OA
ENDROOT
BRANCH   4   6
HETATM    6  C7  UNL     1     -32.430   6.362   2.301  1.00 20.00     0.124 C 
BRANCH   6   7
HETATM    7  C6  UNL     1     -32.335   7.890   2.212  1.00 20.00     0.027 C 
HETATM    8  C5  UNL     1     -31.805   8.362   0.865  1.00 20.00     0.007 C 
ENDBRANCH   6   7
BRANCH   6   9
HETATM    9  O9  UNL     1     -32.164   5.807   1.013  1.00 20.00    -0.395 OA
HETATM   10  H23 UNL     1     -31.205   5.676   0.964  1.00 20.00     0.210 HD
ENDBRANCH   6   9
ENDBRANCH   4   6
TORSDOF 3
ENDMDL
MODEL 4
REMARK VINA RESULT:      -1.1      1.936      2.231
REMARK  3 active torsions:
REMARK  status: ('A' for Active; 'I' for Inactive)
REMARK    1  A    between atoms: C4_4  and  C7_7 
REMARK    2  A    between atoms: C6_6  and  C7_7 
REMARK    3  A    between atoms: C7_7  and  O9_9 
ROOT
HETATM    1  C1  UNL     1     -32.852   5.897   1.977  1.00 20.00     0.035 C 
HETATM    2  C2  UNL     1     -31.984   6.458   0.870  1.00 20.00     0.168 C 
HETATM    3  C3  UNL     1     -32.224   8.093   2.511  1.00 20.00     0.174 C 
HETATM    4  C4  UNL     1     -33.419   7.159   2.590  1.00 20.00     0.040 C 
HETATM    5  O8  UNL     1     -31.501   7.730   1.324  1.00 20.00    -0.391 OA
ENDROOT
BRANCH   4   6
HETATM    6  C7  UNL     1     -33.962   6.978   3.994  1.00 20.00     0.124 C 
BRANCH   6   7
HETATM    7  C6  UNL     1     -35.339   6.303   3.980  1.00 20.00     0.027 C 
HETATM    8  C5  UNL     1     -35.308   4.905   4.582  1.00 20.00     0.007 C 
ENDBRANCH   6   7
BRANCH   6   9
HETATM    9  O9  UNL     1     -34.080   8.255   4.618  1.00 20.00    -0.395 OA
HETATM   10  H23 UNL     1     -33.881   8.914   3.935  1.00 20.00     0.210 HD
ENDBRANCH   6   9
ENDBRANCH   4   6
TORSDOF 3
ENDMDL
MODEL 5
REMARK VINA RESULT:      -1.0      1.504      4.119
REMARK  3 active torsions:
REMARK  status: ('A' for Active; 'I' for Inactive)
REMARK    1  A    between atoms: C4_4  and  C7_7 
REMARK    2  A    between atoms: C6_6  and  C7_7 
REMARK    3  A    between atoms: C7_7  and  O9_9 
ROOT
HETATM    1  C1  UNL     1     -35.011   6.509   4.237  1.00 20.00     0.035 C 
HETATM    2  C2  UNL     1     -35.310   5.034   4.403  1.00 20.00     0.168 C 
HETATM    3  C3  UNL     1     -33.266   5.249   3.306  1.00 20.00     0.174 C 
HETATM    4  C4  UNL     1     -34.084   6.501   3.042  1.00 20.00     0.040 C 
HETATM    5  O8  UNL     1     -34.143   4.322   3.967  1.00 20.00    -0.391 OA
ENDROOT
BRANCH   4   6
HETATM    6  C7  UNL     1     -33.247   7.758   2.896  1.00 20.00     0.124 C 
BRANCH   6   7
HETATM    7  C6  UNL     1     -32.151   7.582   1.839  1.00 20.00     0.027 C 
HETATM    8  C5  UNL     1     -31.992   8.812   0.956  1.00 20.00     0.007 C 
ENDBRANCH   6   7
BRANCH   6   9
HETATM    9  O9  UNL     1     -32.635   8.060   4.149  1.00 20.00    -0.395 OA
HETATM   10  H23 UNL     1     -31.954   7.385   4.292  1.00 20.00     0.210 HD
ENDBRANCH   6   9
ENDBRANCH   4   6
TORSDOF 3
ENDMDL
MODEL 6
REMARK VINA RESULT:      -1.0      1.056      1.521
REMARK  3 active torsions:
REMARK  status: ('A' for Active; 'I' for Inactive)
REMARK    1  A    between atoms: C4_4  and  C7_7 
REMARK    2  A    between atoms: C6_6  and  C7_7 
REMARK    3  A    between atoms: C7_7  and  O9_9 
ROOT
HETATM    1  C1  UNL     1     -33.257   7.829   3.189  1.00 20.00     0.035 C 
HETATM    2  C2  UNL     1     -32.296   8.068   2.045  1.00 20.00     0.168 C 
HETATM    3  C3  UNL     1     -33.036   5.863   1.929  1.00 20.00     0.174 C 
HETATM    4  C4  UNL     1     -33.151   6.330   3.370  1.00 20.00     0.040 C 
HETATM    5  O8  UNL     1     -32.327   6.892   1.223  1.00 20.00    -0.391 OA
ENDROOT
BRANCH   4   6
HETATM    6  C7  UNL     1     -34.313   5.711   4.123  1.00 20.00     0.124 C 
BRANCH   6   7
HETATM    7  C6  UNL     1     -34.399   4.200   3.877  1.00 20.00     0.027 C 
HETATM    8  C5  UNL     1     -33.420   3.414   4.739  1.00 20.00     0.007 C 
ENDBRANCH   6   7
BRANCH   6   9
HETATM    9  O9  UNL     1     -35.528   6.319   3.689  1.00 20.00    -0.395 OA
HETATM   10  H23 UNL     1     -36.143   6.269   4.437  1.00 20.00     0.210 HD
ENDBRANCH   6   9
ENDBRANCH   4   6
TORSDOF 3
ENDMDL
MODEL 7
REMARK VINA RESULT:      -0.9      1.534      4.257
REMARK  3 active torsions:
REMARK  status: ('A' for Active; 'I' for Inactive)
REMARK    1  A    between atoms: C4_4  and  C7_7 
REMARK    2  A    between atoms: C6_6  and  C7_7 
REMARK    3  A    between atoms: C7_7  and  O9_9 
ROOT
HETATM    1  C1  UNL     1     -33.379   6.044   2.662  1.00 20.00     0.035 C 
HETATM    2  C2  UNL     1     -34.431   5.276   3.434  1.00 20.00     0.168 C 
HETATM    3  C3  UNL     1     -34.535   7.512   4.079  1.00 20.00     0.174 C 
HETATM    4  C4  UNL     1     -33.132   7.226   3.573  1.00 20.00     0.040 C 
HETATM    5  O8  UNL     1     -35.207   6.245   4.155  1.00 20.00    -0.391 OA
ENDROOT
BRANCH   4   6
HETATM    6  C7  UNL     1     -32.476   8.410   2.890  1.00 20.00     0.124 C 
BRANCH   6   7
HETATM    7  C6  UNL     1     -31.992   8.047   1.481  1.00 20.00     0.027 C 
HETATM    8  C5  UNL     1     -32.132   9.205   0.502  1.00 20.00     0.007 C 
ENDBRANCH   6   7
BRANCH   6   9
HETATM    9  O9  UNL     1     -31.356   8.836   3.666  1.00 20.00    -0.395 OA
HETATM   10  H23 UNL     1     -31.554   9.738   3.960  1.00 20.00     0.210 HD
ENDBRANCH   6   9
ENDBRANCH   4   6
TORSDOF 3
ENDMDL
MODEL 8
REMARK VINA RESULT:      -0.8      1.865      4.534
REMARK  3 active torsions:
REMARK  status: ('A' for Active; 'I' for Inactive)
REMARK    1  A    between atoms: C4_4  and  C7_7 
REMARK    2  A    between atoms: C6_6  and  C7_7 
REMARK    3  A    between atoms: C7_7  and  O9_9 
ROOT
HETATM    1  C1  UNL     1     -33.427   6.181   2.383  1.00 20.00     0.035 C 
HETATM    2  C2  UNL     1     -34.429   5.814   3.456  1.00 20.00     0.168 C 
HETATM    3  C3  UNL     1     -33.836   8.048   3.742  1.00 20.00     0.174 C 
HETATM    4  C4  UNL     1     -32.698   7.340   3.028  1.00 20.00     0.040 C 
HETATM    5  O8  UNL     1     -34.760   7.027   4.148  1.00 20.00    -0.391 OA
ENDROOT
BRANCH   4   6
HETATM    6  C7  UNL     1     -31.946   8.222   2.050  1.00 20.00     0.124 C 
BRANCH   6   7
HETATM    7  C6  UNL     1     -32.870   9.267   1.414  1.00 20.00     0.027 C 
HETATM    8  C5  UNL     1     -32.344   9.771   0.077  1.00 20.00     0.007 C 
ENDBRANCH   6   7
BRANCH   6   9
HETATM    9  O9  UNL     1     -31.390   7.409   1.018  1.00 20.00    -0.395 OA
HETATM   10  H23 UNL     1     -31.171   6.557   1.428  1.00 20.00     0.210 HD
ENDBRANCH   6   9
ENDBRANCH   4   6
TORSDOF 3
ENDMDL
MODEL 9
REMARK VINA RESULT:      -0.7      1.485      3.970
REMARK  3 active torsions:
REMARK  status: ('A' for Active; 'I' for Inactive)
REMARK    1  A    between atoms: C4_4  and  C7_7 
REMARK    2  A    between atoms: C6_6  and  C7_7 
REMARK    3  A    between atoms: C7_7  and  O9_9 
ROOT
HETATM    1  C1  UNL     1     -33.866   4.768   3.400  1.00 20.00     0.035 C 
HETATM    2  C2  UNL     1     -34.998   4.868   4.401  1.00 20.00     0.168 C 
HETATM    3  C3  UNL     1     -34.656   6.975   3.469  1.00 20.00     0.174 C 
HETATM    4  C4  UNL     1     -33.358   6.193   3.369  1.00 20.00     0.040 C 
HETATM    5  O8  UNL     1     -35.543   6.190   4.280  1.00 20.00    -0.391 OA
ENDROOT
BRANCH   4   6
HETATM    6  C7  UNL     1     -32.533   6.531   2.143  1.00 20.00     0.124 C 
BRANCH   6   7
HETATM    7  C6  UNL     1     -32.210   8.029   2.080  1.00 20.00     0.027 C 
HETATM    8  C5  UNL     1     -31.879   8.494   0.669  1.00 20.00     0.007 C 
ENDBRANCH   6   7
BRANCH   6   9
HETATM    9  O9  UNL     1     -33.264   6.168   0.972  1.00 20.00    -0.395 OA
HETATM   10  H23 UNL     1     -32.783   5.430   0.566  1.00 20.00     0.210 HD
ENDBRANCH   6   9
ENDBRANCH   4   6
TORSDOF 3
ENDMDL
