MODEL 1
REMARK VINA RESULT:      -1.5      0.000      0.000
REMARK  2 active torsions:
REMARK  status: ('A' for Active; 'I' for Inactive)
REMARK    1  A    between atoms: C8_8  and  C11_11 
REMARK    2  A    between atoms: C10_10  and  C11_11 
ROOT
HETATM    1  C11 UNL     1     -33.058   7.586   3.324  1.00 20.00     0.046 C 
ENDROOT
BRANCH   1   2
HETATM    2  C8  UNL     1     -32.524   8.211   2.090  1.00 20.00    -0.076 A 
HETATM    3  C4  UNL     1     -31.593   7.731   1.251  1.00 20.00     0.003 A 
HETATM    4  C3  UNL     1     -31.379   8.671   0.182  1.00 20.00    -0.003 A 
HETATM    5  C5  UNL     1     -32.175   9.736   0.354  1.00 20.00    -0.022 A 
HETATM    6  C9  UNL     1     -32.995   9.553   1.599  1.00 20.00     0.061 A 
ENDBRANCH   1   2
BRANCH   1   7
HETATM    7  C10 UNL     1     -34.058   6.495   2.988  1.00 20.00     0.034 A 
HETATM    8  C6  UNL     1     -35.222   6.472   3.945  1.00 20.00    -0.018 A 
HETATM    9  C1  UNL     1     -35.279   5.280   4.555  1.00 20.00    -0.004 A 
HETATM   10  C2  UNL     1     -34.208   4.444   4.081  1.00 20.00    -0.004 A 
HETATM   11  C7  UNL     1     -33.483   5.114   3.174  1.00 20.00    -0.018 A 
ENDBRANCH   1   7
TORSDOF 2
ENDMDL
MODEL 2
REMARK VINA RESULT:      -1.4      0.083      1.147
REMARK  2 active torsions:
REMARK  status: ('A' for Active; 'I' for Inactive)
REMARK    1  A    between atoms: C8_8  and  C11_11 
REMARK    2  A    between atoms: C10_10  and  C11_11 
ROOT
HETATM    1  C11 UNL     1     -33.084   7.560   3.366  1.00 20.00     0.046 C 
ENDROOT
BRANCH   1   2
HETATM    2  C8  UNL     1     -32.578   8.227   2.141  1.00 20.00    -0.076 A 
HETATM    3  C4  UNL     1     -32.951   9.407   1.623  1.00 20.00     0.003 A 
HETATM    4  C3  UNL     1     -32.198   9.664   0.423  1.00 20.00    -0.003 A 
HETATM    5  C5  UNL     1     -31.357   8.646   0.193  1.00 20.00    -0.022 A 
HETATM    6  C9  UNL     1     -31.512   7.614   1.274  1.00 20.00     0.061 A 
ENDBRANCH   1   2
BRANCH   1   7
HETATM    7  C10 UNL     1     -34.074   6.464   3.014  1.00 20.00     0.034 A 
HETATM    8  C6  UNL     1     -35.250   6.433   3.957  1.00 20.00    -0.018 A 
HETATM    9  C1  UNL     1     -35.308   5.240   4.564  1.00 20.00    -0.004 A 
HETATM   10  C2  UNL     1     -34.226   4.411   4.102  1.00 20.00    -0.004 A 
HETATM   11  C7  UNL     1     -33.493   5.087   3.206  1.00 20.00    -0.018 A 
ENDBRANCH   1   7
TORSDOF 2
ENDMDL
MODEL 3
REMARK VINA RESULT:      -0.9      0.989      4.857
REMARK  2 active torsions:
REMARK  status: ('A' for Active; 'I' for Inactive)
REMARK    1  A    between atoms: C8_8  and  C11_11 
REMARK    2  A    between atoms: C10_10  and  C11_11 
ROOT
HETATM    1  C11 UNL     1     -32.140   7.142   1.594  1.00 20.00     0.046 C 
ENDROOT
BRANCH   1   2
HETATM    2  C8  UNL     1     -33.143   7.062   2.682  1.00 20.00    -0.076 A 
HETATM    3  C4  UNL     1     -33.302   7.887   3.728  1.00 20.00     0.003 A 
HETATM    4  C3  UNL     1     -34.401   7.430   4.538  1.00 20.00    -0.003 A 
HETATM    5  C5  UNL     1     -34.927   6.322   3.998  1.00 20.00    -0.022 A 
HETATM    6  C9  UNL     1     -34.175   5.968   2.747  1.00 20.00     0.061 A 
ENDBRANCH   1   2
BRANCH   1   7
HETATM    7  C10 UNL     1     -31.683   8.574   1.384  1.00 20.00     0.034 A 
HETATM    8  C6  UNL     1     -32.824   9.556   1.469  1.00 20.00    -0.018 A 
HETATM    9  C1  UNL     1     -32.929  10.224   0.312  1.00 20.00    -0.004 A 
HETATM   10  C2  UNL     1     -31.916   9.768  -0.602  1.00 20.00    -0.004 A 
HETATM   11  C7  UNL     1     -31.178   8.815  -0.016  1.00 20.00    -0.018 A 
ENDBRANCH   1   7
TORSDOF 2
ENDMDL
MODEL 4
REMARK VINA RESULT:      -0.9      0.913      5.188
REMARK  2 active torsions:
REMARK  status: ('A' for Active; 'I' for Inactive)
REMARK    1  A    between atoms: C8_8  and  C11_11 
REMARK    2  A    between atoms: C10_10  and  C11_11 
ROOT
HETATM    1  C11 UNL     1     -32.188   8.173   2.334  1.00 20.00     0.046 C 
ENDROOT
BRANCH   1   2
HETATM    2  C8  UNL     1     -33.196   7.306   2.991  1.00 20.00    -0.076 A 
HETATM    3  C4  UNL     1     -34.092   7.642   3.931  1.00 20.00     0.003 A 
HETATM    4  C3  UNL     1     -34.872   6.485   4.285  1.00 20.00    -0.003 A 
HETATM    5  C5  UNL     1     -34.463   5.429   3.567  1.00 20.00    -0.022 A 
HETATM    6  C9  UNL     1     -33.342   5.846   2.659  1.00 20.00     0.061 A 
ENDBRANCH   1   2
BRANCH   1   7
HETATM    7  C10 UNL     1     -32.695   8.671   0.993  1.00 20.00     0.034 A 
HETATM    8  C6  UNL     1     -31.603   8.732  -0.045  1.00 20.00    -0.018 A 
HETATM    9  C1  UNL     1     -31.473   9.991  -0.486  1.00 20.00    -0.004 A 
HETATM   10  C2  UNL     1     -32.421  10.838   0.188  1.00 20.00    -0.004 A 
HETATM   11  C7  UNL     1     -33.144  10.109   1.049  1.00 20.00    -0.018 A 
ENDBRANCH   1   7
TORSDOF 2
ENDMDL
MODEL 5
REMARK VINA RESULT:      -0.9      0.926      5.083
REMARK  2 active torsions:
REMARK  status: ('A' for Active; 'I' for Inactive)
REMARK    1  A    between atoms: C8_8  and  C11_11 
REMARK    2  A    between atoms: C10_10  and  C11_11 
ROOT
HETATM    1  C11 UNL     1     -32.132   7.998   2.012  1.00 20.00     0.046 C 
ENDROOT
BRANCH   1   2
HETATM    2  C8  UNL     1     -33.098   7.141   2.741  1.00 20.00    -0.076 A 
HETATM    3  C4  UNL     1     -33.324   5.828   2.587  1.00 20.00     0.003 A 
HETATM    4  C3  UNL     1     -34.352   5.407   3.503  1.00 20.00    -0.003 A 
HETATM    5  C5  UNL     1     -34.767   6.456   4.227  1.00 20.00    -0.022 A 
HETATM    6  C9  UNL     1     -34.004   7.683   3.813  1.00 20.00     0.061 A 
ENDBRANCH   1   2
BRANCH   1   7
HETATM    7  C10 UNL     1     -32.828   8.788   0.919  1.00 20.00     0.034 A 
HETATM    8  C6  UNL     1     -31.982   8.914  -0.323  1.00 20.00    -0.018 A 
HETATM    9  C1  UNL     1     -31.756  10.209  -0.584  1.00 20.00    -0.004 A 
HETATM   10  C2  UNL     1     -32.401  11.021   0.414  1.00 20.00    -0.004 A 
HETATM   11  C7  UNL     1     -33.030  10.233   1.298  1.00 20.00    -0.018 A 
ENDBRANCH   1   7
TORSDOF 2
ENDMDL
MODEL 6
REMARK VINA RESULT:      -0.9      1.001      4.780
REMARK  2 active torsions:
REMARK  status: ('A' for Active; 'I' for Inactive)
REMARK    1  A    between atoms: C8_8  and  C11_11 
REMARK    2  A    between atoms: C10_10  and  C11_11 
ROOT
HETATM    1  C11 UNL     1     -32.196   7.078   1.561  1.00 20.00     0.046 C 
ENDROOT
BRANCH   1   2
HETATM    2  C8  UNL     1     -33.199   6.981   2.648  1.00 20.00    -0.076 A 
HETATM    3  C4  UNL     1     -34.207   6.104   2.773  1.00 20.00     0.003 A 
HETATM    4  C3  UNL     1     -34.934   6.377   3.984  1.00 20.00    -0.003 A 
HETATM    5  C5  UNL     1     -34.382   7.423   4.614  1.00 20.00    -0.022 A 
HETATM    6  C9  UNL     1     -33.208   7.922   3.822  1.00 20.00     0.061 A 
ENDBRANCH   1   2
BRANCH   1   7
HETATM    7  C10 UNL     1     -31.713   8.509   1.397  1.00 20.00     0.034 A 
HETATM    8  C6  UNL     1     -32.843   9.504   1.467  1.00 20.00    -0.018 A 
HETATM    9  C1  UNL     1     -32.901  10.198   0.322  1.00 20.00    -0.004 A 
HETATM   10  C2  UNL     1     -31.865   9.747  -0.569  1.00 20.00    -0.004 A 
HETATM   11  C7  UNL     1     -31.160   8.771   0.020  1.00 20.00    -0.018 A 
ENDBRANCH   1   7
TORSDOF 2
ENDMDL
MODEL 7
REMARK VINA RESULT:      -0.6      0.791      4.970
REMARK  2 active torsions:
REMARK  status: ('A' for Active; 'I' for Inactive)
REMARK    1  A    between atoms: C8_8  and  C11_11 
REMARK    2  A    between atoms: C10_10  and  C11_11 
ROOT
HETATM    1  C11 UNL     1     -32.788   6.432   1.760  1.00 20.00     0.046 C 
ENDROOT
BRANCH   1   2
HETATM    2  C8  UNL     1     -33.730   6.076   2.848  1.00 20.00    -0.076 A 
HETATM    3  C4  UNL     1     -34.581   6.879   3.505  1.00 20.00     0.003 A 
HETATM    4  C3  UNL     1     -35.304   6.113   4.486  1.00 20.00    -0.003 A 
HETATM    5  C5  UNL     1     -34.905   4.834   4.441  1.00 20.00    -0.022 A 
HETATM    6  C9  UNL     1     -33.850   4.675   3.383  1.00 20.00     0.061 A 
ENDBRANCH   1   2
BRANCH   1   7
HETATM    7  C10 UNL     1     -32.236   7.832   1.959  1.00 20.00     0.034 A 
HETATM    8  C6  UNL     1     -33.142   8.891   1.384  1.00 20.00    -0.018 A 
HETATM    9  C1  UNL     1     -32.482   9.587   0.448  1.00 20.00    -0.004 A 
HETATM   10  C2  UNL     1     -31.143   9.076   0.322  1.00 20.00    -0.004 A 
HETATM   11  C7  UNL     1     -30.966   8.062   1.180  1.00 20.00    -0.018 A 
ENDBRANCH   1   7
TORSDOF 2
ENDMDL
MODEL 8
REMARK VINA RESULT:      -0.4      1.027      1.629
REMARK  2 active torsions:
REMARK  status: ('A' for Active; 'I' for Inactive)
REMARK    1  A    between atoms: C8_8  and  C11_11 
REMARK    2  A    between atoms: C10_10  and  C11_11 
ROOT
HETATM    1  C11 UNL     1     -32.942   5.958   1.832  1.00 20.00     0.046 C 
ENDROOT
BRANCH   1   2
HETATM    2  C8  UNL     1     -32.521   7.305   1.377  1.00 20.00    -0.076 A 
HETATM    3  C4  UNL     1     -31.664   8.151   1.970  1.00 20.00     0.003 A 
HETATM    4  C3  UNL     1     -31.551   9.350   1.180  1.00 20.00    -0.003 A 
HETATM    5  C5  UNL     1     -32.335   9.252   0.098  1.00 20.00    -0.022 A 
HETATM    6  C9  UNL     1     -33.042   7.927   0.110  1.00 20.00     0.061 A 
ENDBRANCH   1   2
BRANCH   1   7
HETATM    7  C10 UNL     1     -33.278   5.968   3.312  1.00 20.00     0.034 A 
HETATM    8  C6  UNL     1     -33.889   4.667   3.768  1.00 20.00    -0.018 A 
HETATM    9  C1  UNL     1     -35.112   4.896   4.267  1.00 20.00    -0.004 A 
HETATM   10  C2  UNL     1     -35.409   6.301   4.190  1.00 20.00    -0.004 A 
HETATM   11  C7  UNL     1     -34.371   6.951   3.644  1.00 20.00    -0.018 A 
ENDBRANCH   1   7
TORSDOF 2
ENDMDL
MODEL 9
REMARK VINA RESULT:       0.4      0.695      4.791
REMARK  2 active torsions:
REMARK  status: ('A' for Active; 'I' for Inactive)
REMARK    1  A    between atoms: C8_8  and  C11_11 
REMARK    2  A    between atoms: C10_10  and  C11_11 
ROOT
HETATM    1  C11 UNL     1     -34.056   7.676   2.827  1.00 20.00     0.046 C 
ENDROOT
BRANCH   1   2
HETATM    2  C8  UNL     1     -34.208   6.329   3.427  1.00 20.00    -0.076 A 
HETATM    3  C4  UNL     1     -33.430   5.249   3.253  1.00 20.00     0.003 A 
HETATM    4  C3  UNL     1     -33.949   4.154   4.029  1.00 20.00    -0.003 A 
HETATM    5  C5  UNL     1     -35.049   4.548   4.685  1.00 20.00    -0.022 A 
HETATM    6  C9  UNL     1     -35.332   5.989   4.368  1.00 20.00     0.061 A 
ENDBRANCH   1   2
BRANCH   1   7
HETATM    7  C10 UNL     1     -32.597   7.977   2.536  1.00 20.00     0.034 A 
HETATM    8  C6  UNL     1     -32.401   9.357   1.962  1.00 20.00    -0.018 A 
HETATM    9  C1  UNL     1     -31.833   9.264   0.752  1.00 20.00    -0.004 A 
HETATM   10  C2  UNL     1     -31.613   7.880   0.428  1.00 20.00    -0.004 A 
HETATM   11  C7  UNL     1     -32.042   7.108   1.437  1.00 20.00    -0.018 A 
ENDBRANCH   1   7
TORSDOF 2
ENDMDL
