MODEL 1
REMARK VINA RESULT:      -3.3      0.000      0.000
REMARK  2 active torsions:
REMARK  status: ('A' for Active; 'I' for Inactive)
REMARK    1  A    between atoms: C2_2  and  C3_3 
REMARK    2  A    between atoms: C2_2  and  C4_4 
ROOT
HETATM    1  C2  UNL     1     -33.621   5.813   3.268  1.00 20.00     0.154 C 
ENDROOT
BRANCH   1   2
HETATM    2  C3  UNL     1     -33.235   6.383   1.906  1.00 20.00     0.174 C 
HETATM    3  C1  UNL     1     -32.292   7.565   2.034  1.00 20.00     0.045 C 
HETATM    4  F5  UNL     1     -32.597   5.414   1.192  1.00 20.00    -0.250 F 
ENDBRANCH   1   2
BRANCH   1   5
HETATM    5  C4  UNL     1     -34.844   6.496   3.843  1.00 20.00     0.390 C 
HETATM    6  F6  UNL     1     -35.502   5.662   4.678  1.00 20.00    -0.171 F 
HETATM    7  F7  UNL     1     -35.706   6.868   2.874  1.00 20.00    -0.171 F 
HETATM    8  F8  UNL     1     -34.506   7.598   4.547  1.00 20.00    -0.171 F 
ENDBRANCH   1   5
TORSDOF 2
ENDMDL
MODEL 2
REMARK VINA RESULT:      -3.3      0.012      1.335
REMARK  2 active torsions:
REMARK  status: ('A' for Active; 'I' for Inactive)
REMARK    1  A    between atoms: C2_2  and  C3_3 
REMARK    2  A    between atoms: C2_2  and  C4_4 
ROOT
HETATM    1  C2  UNL     1     -33.609   5.821   3.278  1.00 20.00     0.154 C 
ENDROOT
BRANCH   1   2
HETATM    2  C3  UNL     1     -33.237   6.384   1.910  1.00 20.00     0.174 C 
HETATM    3  C1  UNL     1     -32.287   7.563   2.023  1.00 20.00     0.045 C 
HETATM    4  F5  UNL     1     -32.611   5.411   1.192  1.00 20.00    -0.250 F 
ENDBRANCH   1   2
BRANCH   1   5
HETATM    5  C4  UNL     1     -34.847   6.483   3.847  1.00 20.00     0.390 C 
HETATM    6  F6  UNL     1     -34.511   7.589   4.548  1.00 20.00    -0.171 F 
HETATM    7  F7  UNL     1     -35.512   5.657   4.682  1.00 20.00    -0.171 F 
HETATM    8  F8  UNL     1     -35.696   6.862   2.868  1.00 20.00    -0.171 F 
ENDBRANCH   1   5
TORSDOF 2
ENDMDL
MODEL 3
REMARK VINA RESULT:      -3.3      0.015      1.339
REMARK  2 active torsions:
REMARK  status: ('A' for Active; 'I' for Inactive)
REMARK    1  A    between atoms: C2_2  and  C3_3 
REMARK    2  A    between atoms: C2_2  and  C4_4 
ROOT
HETATM    1  C2  UNL     1     -33.611   5.814   3.274  1.00 20.00     0.154 C 
ENDROOT
BRANCH   1   2
HETATM    2  C3  UNL     1     -33.232   6.380   1.909  1.00 20.00     0.174 C 
HETATM    3  C1  UNL     1     -32.292   7.566   2.029  1.00 20.00     0.045 C 
HETATM    4  F5  UNL     1     -32.593   5.411   1.196  1.00 20.00    -0.250 F 
ENDBRANCH   1   2
BRANCH   1   5
HETATM    5  C4  UNL     1     -34.833   6.496   3.852  1.00 20.00     0.390 C 
HETATM    6  F6  UNL     1     -35.675   6.875   2.864  1.00 20.00    -0.171 F 
HETATM    7  F7  UNL     1     -34.500   7.602   4.550  1.00 20.00    -0.171 F 
HETATM    8  F8  UNL     1     -35.514   5.671   4.676  1.00 20.00    -0.171 F 
ENDBRANCH   1   5
TORSDOF 2
ENDMDL
MODEL 4
REMARK VINA RESULT:      -3.3      2.032      3.851
REMARK  2 active torsions:
REMARK  status: ('A' for Active; 'I' for Inactive)
REMARK    1  A    between atoms: C2_2  and  C3_3 
REMARK    2  A    between atoms: C2_2  and  C4_4 
ROOT
HETATM    1  C2  UNL     1     -33.091   6.833   2.600  1.00 20.00     0.154 C 
ENDROOT
BRANCH   1   2
HETATM    2  C3  UNL     1     -34.129   7.397   3.565  1.00 20.00     0.174 C 
HETATM    3  C1  UNL     1     -35.160   6.355   3.960  1.00 20.00     0.045 C 
HETATM    4  F5  UNL     1     -33.494   7.807   4.699  1.00 20.00    -0.250 F 
ENDBRANCH   1   2
BRANCH   1   5
HETATM    5  C4  UNL     1     -32.124   7.896   2.121  1.00 20.00     0.390 C 
HETATM    6  F6  UNL     1     -31.183   7.352   1.317  1.00 20.00    -0.171 F 
HETATM    7  F7  UNL     1     -31.487   8.487   3.153  1.00 20.00    -0.171 F 
HETATM    8  F8  UNL     1     -32.759   8.857   1.416  1.00 20.00    -0.171 F 
ENDBRANCH   1   5
TORSDOF 2
ENDMDL
MODEL 5
REMARK VINA RESULT:      -3.2      2.035      3.778
REMARK  2 active torsions:
REMARK  status: ('A' for Active; 'I' for Inactive)
REMARK    1  A    between atoms: C2_2  and  C3_3 
REMARK    2  A    between atoms: C2_2  and  C4_4 
ROOT
HETATM    1  C2  UNL     1     -33.089   6.832   2.597  1.00 20.00     0.154 C 
ENDROOT
BRANCH   1   2
HETATM    2  C3  UNL     1     -34.123   7.403   3.563  1.00 20.00     0.174 C 
HETATM    3  C1  UNL     1     -35.158   6.366   3.961  1.00 20.00     0.045 C 
HETATM    4  F5  UNL     1     -33.485   7.812   4.695  1.00 20.00    -0.250 F 
ENDBRANCH   1   2
BRANCH   1   5
HETATM    5  C4  UNL     1     -32.117   7.890   2.116  1.00 20.00     0.390 C 
HETATM    6  F6  UNL     1     -32.769   8.853   1.428  1.00 20.00    -0.171 F 
HETATM    7  F7  UNL     1     -31.180   7.366   1.299  1.00 20.00    -0.171 F 
HETATM    8  F8  UNL     1     -31.485   8.484   3.151  1.00 20.00    -0.171 F 
ENDBRANCH   1   5
TORSDOF 2
ENDMDL
MODEL 6
REMARK VINA RESULT:      -3.2      2.039      3.772
REMARK  2 active torsions:
REMARK  status: ('A' for Active; 'I' for Inactive)
REMARK    1  A    between atoms: C2_2  and  C3_3 
REMARK    2  A    between atoms: C2_2  and  C4_4 
ROOT
HETATM    1  C2  UNL     1     -33.074   6.833   2.614  1.00 20.00     0.154 C 
ENDROOT
BRANCH   1   2
HETATM    2  C3  UNL     1     -34.120   7.404   3.565  1.00 20.00     0.174 C 
HETATM    3  C1  UNL     1     -35.156   6.365   3.956  1.00 20.00     0.045 C 
HETATM    4  F5  UNL     1     -33.497   7.820   4.702  1.00 20.00    -0.250 F 
ENDBRANCH   1   2
BRANCH   1   5
HETATM    5  C4  UNL     1     -32.119   7.898   2.114  1.00 20.00     0.390 C 
HETATM    6  F6  UNL     1     -31.482   8.486   3.151  1.00 20.00    -0.171 F 
HETATM    7  F7  UNL     1     -32.769   8.865   1.433  1.00 20.00    -0.171 F 
HETATM    8  F8  UNL     1     -31.179   7.373   1.300  1.00 20.00    -0.171 F 
ENDBRANCH   1   5
TORSDOF 2
ENDMDL
MODEL 7
REMARK VINA RESULT:      -3.2      1.592      3.592
REMARK  2 active torsions:
REMARK  status: ('A' for Active; 'I' for Inactive)
REMARK    1  A    between atoms: C2_2  and  C3_3 
REMARK    2  A    between atoms: C2_2  and  C4_4 
ROOT
HETATM    1  C2  UNL     1     -33.271   5.716   2.929  1.00 20.00     0.154 C 
ENDROOT
BRANCH   1   2
HETATM    2  C3  UNL     1     -34.261   6.773   3.408  1.00 20.00     0.174 C 
HETATM    3  C1  UNL     1     -35.430   6.157   4.155  1.00 20.00     0.045 C 
HETATM    4  F5  UNL     1     -33.619   7.619   4.262  1.00 20.00    -0.250 F 
ENDBRANCH   1   2
BRANCH   1   5
HETATM    5  C4  UNL     1     -32.690   6.056   1.573  1.00 20.00     0.390 C 
HETATM    6  F6  UNL     1     -32.337   7.359   1.522  1.00 20.00    -0.171 F 
HETATM    7  F7  UNL     1     -33.580   5.834   0.583  1.00 20.00    -0.171 F 
HETATM    8  F8  UNL     1     -31.586   5.323   1.313  1.00 20.00    -0.171 F 
ENDBRANCH   1   5
TORSDOF 2
ENDMDL
MODEL 8
REMARK VINA RESULT:      -3.2      1.587      3.628
REMARK  2 active torsions:
REMARK  status: ('A' for Active; 'I' for Inactive)
REMARK    1  A    between atoms: C2_2  and  C3_3 
REMARK    2  A    between atoms: C2_2  and  C4_4 
ROOT
HETATM    1  C2  UNL     1     -33.276   5.716   2.926  1.00 20.00     0.154 C 
ENDROOT
BRANCH   1   2
HETATM    2  C3  UNL     1     -34.269   6.767   3.413  1.00 20.00     0.174 C 
HETATM    3  C1  UNL     1     -35.427   6.142   4.171  1.00 20.00     0.045 C 
HETATM    4  F5  UNL     1     -33.625   7.617   4.261  1.00 20.00    -0.250 F 
ENDBRANCH   1   2
BRANCH   1   5
HETATM    5  C4  UNL     1     -32.693   6.071   1.573  1.00 20.00     0.390 C 
HETATM    6  F6  UNL     1     -31.591   5.328   1.324  1.00 20.00    -0.171 F 
HETATM    7  F7  UNL     1     -32.331   7.370   1.515  1.00 20.00    -0.171 F 
HETATM    8  F8  UNL     1     -33.577   5.838   0.580  1.00 20.00    -0.171 F 
ENDBRANCH   1   5
TORSDOF 2
ENDMDL
MODEL 9
REMARK VINA RESULT:      -3.0      3.613      4.810
REMARK  2 active torsions:
REMARK  status: ('A' for Active; 'I' for Inactive)
REMARK    1  A    between atoms: C2_2  and  C3_3 
REMARK    2  A    between atoms: C2_2  and  C4_4 
ROOT
HETATM    1  C2  UNL     1     -31.644   8.874   0.678  1.00 20.00     0.154 C 
ENDROOT
BRANCH   1   2
HETATM    2  C3  UNL     1     -32.307   8.114   1.823  1.00 20.00     0.174 C 
HETATM    3  C1  UNL     1     -32.323   6.616   1.574  1.00 20.00     0.045 C 
HETATM    4  F5  UNL     1     -31.600   8.340   2.965  1.00 20.00    -0.250 F 
ENDBRANCH   1   2
BRANCH   1   5
HETATM    5  C4  UNL     1     -32.509  10.012   0.177  1.00 20.00     0.390 C 
HETATM    6  F6  UNL     1     -33.160   9.650  -0.951  1.00 20.00    -0.171 F 
HETATM    7  F7  UNL     1     -31.771  11.105  -0.111  1.00 20.00    -0.171 F 
HETATM    8  F8  UNL     1     -33.438  10.363   1.091  1.00 20.00    -0.171 F 
ENDBRANCH   1   5
TORSDOF 2
ENDMDL
