MODEL 1
REMARK VINA RESULT:      -1.9      0.000      0.000
REMARK  1 active torsions:
REMARK  status: ('A' for Active; 'I' for Inactive)
REMARK    1  A    between atoms: C1_1  and  C4_4 
ROOT
HETATM    1  C1  UNL     1     -33.150   7.189   2.784  1.00 20.00     0.172 C 
HETATM    2  C2  UNL     1     -34.915   6.528   4.027  1.00 20.00     0.160 C 
HETATM    3  C3  UNL     1     -34.334   5.172   3.660  1.00 20.00     0.103 C 
HETATM    4  N5  UNL     1     -33.939   7.596   3.723  1.00 20.00    -0.278 NA
HETATM    5  S9  UNL     1     -33.328   5.551   2.215  1.00 20.00    -0.104 SA
ENDROOT
BRANCH   1   6
HETATM    6  C4  UNL     1     -32.071   8.030   2.193  1.00 20.00     0.440 C 
HETATM    7  F6  UNL     1     -31.343   8.640   3.154  1.00 20.00    -0.164 F 
HETATM    8  F7  UNL     1     -31.221   7.287   1.450  1.00 20.00    -0.164 F 
HETATM    9  F8  UNL     1     -32.577   8.993   1.392  1.00 20.00    -0.164 F 
ENDBRANCH   1   6
TORSDOF 1
ENDMDL
MODEL 2
REMARK VINA RESULT:      -1.8      2.752      3.599
REMARK  1 active torsions:
REMARK  status: ('A' for Active; 'I' for Inactive)
REMARK    1  A    between atoms: C1_1  and  C4_4 
ROOT
HETATM    1  C1  UNL     1     -33.645   6.817   3.066  1.00 20.00     0.172 C 
HETATM    2  C2  UNL     1     -31.914   8.021   2.263  1.00 20.00     0.160 C 
HETATM    3  C3  UNL     1     -32.093   7.032   1.123  1.00 20.00     0.103 C 
HETATM    4  N5  UNL     1     -33.089   7.979   3.159  1.00 20.00    -0.278 NA
HETATM    5  S9  UNL     1     -33.001   5.688   1.905  1.00 20.00    -0.104 SA
ENDROOT
BRANCH   1   6
HETATM    6  C4  UNL     1     -34.832   6.406   3.869  1.00 20.00     0.440 C 
HETATM    7  F6  UNL     1     -34.770   5.098   4.200  1.00 20.00    -0.164 F 
HETATM    8  F7  UNL     1     -34.917   7.113   5.017  1.00 20.00    -0.164 F 
HETATM    9  F8  UNL     1     -35.982   6.599   3.186  1.00 20.00    -0.164 F 
ENDBRANCH   1   6
TORSDOF 1
ENDMDL
MODEL 3
REMARK VINA RESULT:      -1.8      1.258      1.441
REMARK  1 active torsions:
REMARK  status: ('A' for Active; 'I' for Inactive)
REMARK    1  A    between atoms: C1_1  and  C4_4 
ROOT
HETATM    1  C1  UNL     1     -33.047   7.102   2.803  1.00 20.00     0.172 C 
HETATM    2  C2  UNL     1     -34.285   5.310   3.397  1.00 20.00     0.160 C 
HETATM    3  C3  UNL     1     -35.125   6.420   4.009  1.00 20.00     0.103 C 
HETATM    4  N5  UNL     1     -33.297   5.882   2.458  1.00 20.00    -0.278 NA
HETATM    5  S9  UNL     1     -33.952   7.782   4.129  1.00 20.00    -0.104 SA
ENDROOT
BRANCH   1   6
HETATM    6  C4  UNL     1     -32.057   7.969   2.104  1.00 20.00     0.440 C 
HETATM    7  F6  UNL     1     -31.258   8.609   2.986  1.00 20.00    -0.164 F 
HETATM    8  F7  UNL     1     -31.262   7.246   1.285  1.00 20.00    -0.164 F 
HETATM    9  F8  UNL     1     -32.668   8.910   1.352  1.00 20.00    -0.164 F 
ENDBRANCH   1   6
TORSDOF 1
ENDMDL
MODEL 4
REMARK VINA RESULT:      -1.7      3.065      3.819
REMARK  1 active torsions:
REMARK  status: ('A' for Active; 'I' for Inactive)
REMARK    1  A    between atoms: C1_1  and  C4_4 
ROOT
HETATM    1  C1  UNL     1     -33.801   6.517   2.868  1.00 20.00     0.172 C 
HETATM    2  C2  UNL     1     -32.320   6.020   1.239  1.00 20.00     0.160 C 
HETATM    3  C3  UNL     1     -31.687   7.289   1.786  1.00 20.00     0.103 C 
HETATM    4  N5  UNL     1     -33.350   5.523   2.175  1.00 20.00    -0.278 NA
HETATM    5  S9  UNL     1     -33.062   8.079   2.641  1.00 20.00    -0.104 SA
ENDROOT
BRANCH   1   6
HETATM    6  C4  UNL     1     -34.888   6.389   3.879  1.00 20.00     0.440 C 
HETATM    7  F6  UNL     1     -34.724   7.272   4.888  1.00 20.00    -0.164 F 
HETATM    8  F7  UNL     1     -36.100   6.622   3.328  1.00 20.00    -0.164 F 
HETATM    9  F8  UNL     1     -34.918   5.152   4.420  1.00 20.00    -0.164 F 
ENDBRANCH   1   6
TORSDOF 1
ENDMDL
MODEL 5
REMARK VINA RESULT:      -1.4      1.973      2.658
REMARK  1 active torsions:
REMARK  status: ('A' for Active; 'I' for Inactive)
REMARK    1  A    between atoms: C1_1  and  C4_4 
ROOT
HETATM    1  C1  UNL     1     -33.506   5.688   2.754  1.00 20.00     0.172 C 
HETATM    2  C2  UNL     1     -34.449   4.506   4.429  1.00 20.00     0.160 C 
HETATM    3  C3  UNL     1     -35.374   5.713   4.411  1.00 20.00     0.103 C 
HETATM    4  N5  UNL     1     -33.623   4.483   3.204  1.00 20.00    -0.278 NA
HETATM    5  S9  UNL     1     -34.382   6.957   3.567  1.00 20.00    -0.104 SA
ENDROOT
BRANCH   1   6
HETATM    6  C4  UNL     1     -32.697   6.044   1.554  1.00 20.00     0.440 C 
HETATM    7  F6  UNL     1     -33.441   5.991   0.428  1.00 20.00    -0.164 F 
HETATM    8  F7  UNL     1     -32.197   7.296   1.652  1.00 20.00    -0.164 F 
HETATM    9  F8  UNL     1     -31.654   5.201   1.393  1.00 20.00    -0.164 F 
ENDBRANCH   1   6
TORSDOF 1
ENDMDL
MODEL 6
REMARK VINA RESULT:      -1.4      1.937      2.283
REMARK  1 active torsions:
REMARK  status: ('A' for Active; 'I' for Inactive)
REMARK    1  A    between atoms: C1_1  and  C4_4 
ROOT
HETATM    1  C1  UNL     1     -33.482   5.770   2.725  1.00 20.00     0.172 C 
HETATM    2  C2  UNL     1     -34.509   4.641   4.388  1.00 20.00     0.160 C 
HETATM    3  C3  UNL     1     -35.347   5.910   4.380  1.00 20.00     0.103 C 
HETATM    4  N5  UNL     1     -33.683   4.572   3.164  1.00 20.00    -0.278 NA
HETATM    5  S9  UNL     1     -34.269   7.090   3.549  1.00 20.00    -0.104 SA
ENDROOT
BRANCH   1   6
HETATM    6  C4  UNL     1     -32.647   6.080   1.530  1.00 20.00     0.440 C 
HETATM    7  F6  UNL     1     -32.126   7.325   1.606  1.00 20.00    -0.164 F 
HETATM    8  F7  UNL     1     -31.617   5.215   1.413  1.00 20.00    -0.164 F 
HETATM    9  F8  UNL     1     -33.370   6.010   0.390  1.00 20.00    -0.164 F 
ENDBRANCH   1   6
TORSDOF 1
ENDMDL
MODEL 7
REMARK VINA RESULT:      -0.5      3.548      4.234
REMARK  1 active torsions:
REMARK  status: ('A' for Active; 'I' for Inactive)
REMARK    1  A    between atoms: C1_1  and  C4_4 
ROOT
HETATM    1  C1  UNL     1     -33.632   5.474   3.276  1.00 20.00     0.172 C 
HETATM    2  C2  UNL     1     -32.694   6.741   1.661  1.00 20.00     0.160 C 
HETATM    3  C3  UNL     1     -32.871   7.792   2.746  1.00 20.00     0.103 C 
HETATM    4  N5  UNL     1     -32.877   5.390   2.231  1.00 20.00    -0.278 NA
HETATM    5  S9  UNL     1     -34.129   7.058   3.805  1.00 20.00    -0.104 SA
ENDROOT
BRANCH   1   6
HETATM    6  C4  UNL     1     -34.065   4.293   4.075  1.00 20.00     0.440 C 
HETATM    7  F6  UNL     1     -35.290   4.487   4.611  1.00 20.00    -0.164 F 
HETATM    8  F7  UNL     1     -34.126   3.179   3.313  1.00 20.00    -0.164 F 
HETATM    9  F8  UNL     1     -33.211   4.044   5.092  1.00 20.00    -0.164 F 
ENDBRANCH   1   6
TORSDOF 1
ENDMDL
MODEL 8
REMARK VINA RESULT:      -0.5      1.913      2.675
REMARK  1 active torsions:
REMARK  status: ('A' for Active; 'I' for Inactive)
REMARK    1  A    between atoms: C1_1  and  C4_4 
ROOT
HETATM    1  C1  UNL     1     -33.230   6.183   2.594  1.00 20.00     0.172 C 
HETATM    2  C2  UNL     1     -34.804   6.050   4.206  1.00 20.00     0.160 C 
HETATM    3  C3  UNL     1     -34.612   7.558   4.155  1.00 20.00     0.103 C 
HETATM    4  N5  UNL     1     -34.180   5.420   3.024  1.00 20.00    -0.278 NA
HETATM    5  S9  UNL     1     -32.997   7.724   3.375  1.00 20.00    -0.104 SA
ENDROOT
BRANCH   1   6
HETATM    6  C4  UNL     1     -32.353   5.835   1.440  1.00 20.00     0.440 C 
HETATM    7  F6  UNL     1     -33.072   5.340   0.410  1.00 20.00    -0.164 F 
HETATM    8  F7  UNL     1     -31.686   6.919   0.986  1.00 20.00    -0.164 F 
HETATM    9  F8  UNL     1     -31.434   4.905   1.780  1.00 20.00    -0.164 F 
ENDBRANCH   1   6
TORSDOF 1
ENDMDL
MODEL 9
REMARK VINA RESULT:      -0.2      1.944      2.580
REMARK  1 active torsions:
REMARK  status: ('A' for Active; 'I' for Inactive)
REMARK    1  A    between atoms: C1_1  and  C4_4 
ROOT
HETATM    1  C1  UNL     1     -32.553   7.819   1.596  1.00 20.00     0.172 C 
HETATM    2  C2  UNL     1     -33.003   5.720   2.293  1.00 20.00     0.160 C 
HETATM    3  C3  UNL     1     -33.808   6.510   3.313  1.00 20.00     0.103 C 
HETATM    4  N5  UNL     1     -32.601   6.598   1.175  1.00 20.00    -0.278 NA
HETATM    5  S9  UNL     1     -33.050   8.143   3.235  1.00 20.00    -0.104 SA
ENDROOT
BRANCH   1   6
HETATM    6  C4  UNL     1     -32.135   8.968   0.744  1.00 20.00     0.440 C 
HETATM    7  F6  UNL     1     -32.932   9.090  -0.340  1.00 20.00    -0.164 F 
HETATM    8  F7  UNL     1     -32.195  10.133   1.426  1.00 20.00    -0.164 F 
HETATM    9  F8  UNL     1     -30.867   8.821   0.301  1.00 20.00    -0.164 F 
ENDBRANCH   1   6
TORSDOF 1
ENDMDL
