MODEL 1
REMARK VINA RESULT:      -0.4      0.000      0.000
REMARK  1 active torsions:
REMARK  status: ('A' for Active; 'I' for Inactive)
REMARK    1  A    between atoms: C4_4  and  C6_6 
ROOT
HETATM    1  C1  UNL     1     -35.399   5.286   4.620  1.00 20.00     0.135 A 
HETATM    2  C2  UNL     1     -35.207   6.528   4.057  1.00 20.00     0.136 A 
HETATM    3  C3  UNL     1     -33.592   4.485   3.470  1.00 20.00     0.144 A 
HETATM    4  C4  UNL     1     -33.401   5.727   2.905  1.00 20.00     0.065 A 
HETATM    5  N7  UNL     1     -34.594   4.242   4.337  1.00 20.00    -0.270 NA
HETATM    6  N8  UNL     1     -34.205   6.771   3.190  1.00 20.00    -0.261 NA
ENDROOT
BRANCH   4   7
HETATM    7  C6  UNL     1     -32.282   5.959   1.950  1.00 20.00     0.107 C 
HETATM    8  C5  UNL     1     -32.475   5.294   0.612  1.00 20.00     0.029 C 
HETATM    9 BR9  UNL     1     -32.012   7.886   1.693  1.00 20.00    -0.085 Br
ENDBRANCH   4   7
TORSDOF 1
ENDMDL
MODEL 2
REMARK VINA RESULT:      -0.3      2.427      3.793
REMARK  1 active torsions:
REMARK  status: ('A' for Active; 'I' for Inactive)
REMARK    1  A    between atoms: C4_4  and  C6_6 
ROOT
HETATM    1  C1  UNL     1     -31.737   7.628   1.297  1.00 20.00     0.135 A 
HETATM    2  C2  UNL     1     -32.223   8.371   2.350  1.00 20.00     0.136 A 
HETATM    3  C3  UNL     1     -32.910   5.810   2.039  1.00 20.00     0.144 A 
HETATM    4  C4  UNL     1     -33.394   6.553   3.093  1.00 20.00     0.065 A 
HETATM    5  N7  UNL     1     -32.072   6.334   1.122  1.00 20.00    -0.270 NA
HETATM    6  N8  UNL     1     -33.059   7.847   3.267  1.00 20.00    -0.261 NA
ENDROOT
BRANCH   4   7
HETATM    7  C6  UNL     1     -34.318   5.940   4.088  1.00 20.00     0.107 C 
HETATM    8  C5  UNL     1     -35.775   6.185   3.798  1.00 20.00     0.029 C 
HETATM    9 BR9  UNL     1     -33.986   4.009   4.205  1.00 20.00    -0.085 Br
ENDBRANCH   4   7
TORSDOF 1
ENDMDL
MODEL 3
REMARK VINA RESULT:      -0.3      2.313      4.038
REMARK  1 active torsions:
REMARK  status: ('A' for Active; 'I' for Inactive)
REMARK    1  A    between atoms: C4_4  and  C6_6 
ROOT
HETATM    1  C1  UNL     1     -31.788   7.653   1.296  1.00 20.00     0.135 A 
HETATM    2  C2  UNL     1     -32.194   6.343   1.163  1.00 20.00     0.136 A 
HETATM    3  C3  UNL     1     -33.000   7.833   3.227  1.00 20.00     0.144 A 
HETATM    4  C4  UNL     1     -33.407   6.524   3.093  1.00 20.00     0.065 A 
HETATM    5  N7  UNL     1     -32.183   8.421   2.331  1.00 20.00    -0.270 NA
HETATM    6  N8  UNL     1     -33.010   5.756   2.059  1.00 20.00    -0.261 NA
ENDROOT
BRANCH   4   7
HETATM    7  C6  UNL     1     -34.310   5.907   4.104  1.00 20.00     0.107 C 
HETATM    8  C5  UNL     1     -35.774   6.140   3.836  1.00 20.00     0.029 C 
HETATM    9 BR9  UNL     1     -33.963   3.979   4.221  1.00 20.00    -0.085 Br
ENDBRANCH   4   7
TORSDOF 1
ENDMDL
MODEL 4
REMARK VINA RESULT:      -0.1      0.914      1.600
REMARK  1 active torsions:
REMARK  status: ('A' for Active; 'I' for Inactive)
REMARK    1  A    between atoms: C4_4  and  C6_6 
ROOT
HETATM    1  C1  UNL     1     -35.375   5.546   4.588  1.00 20.00     0.135 A 
HETATM    2  C2  UNL     1     -34.561   4.489   4.245  1.00 20.00     0.136 A 
HETATM    3  C3  UNL     1     -34.156   6.927   3.233  1.00 20.00     0.144 A 
HETATM    4  C4  UNL     1     -33.340   5.870   2.891  1.00 20.00     0.065 A 
HETATM    5  N7  UNL     1     -35.187   6.784   4.089  1.00 20.00    -0.270 NA
HETATM    6  N8  UNL     1     -33.530   4.632   3.390  1.00 20.00    -0.261 NA
ENDROOT
BRANCH   4   7
HETATM    7  C6  UNL     1     -32.209   6.065   1.942  1.00 20.00     0.107 C 
HETATM    8  C5  UNL     1     -32.362   5.313   0.647  1.00 20.00     0.029 C 
HETATM    9 BR9  UNL     1     -31.973   7.977   1.569  1.00 20.00    -0.085 Br
ENDBRANCH   4   7
TORSDOF 1
ENDMDL
MODEL 5
REMARK VINA RESULT:       0.0      1.209      1.415
REMARK  1 active torsions:
REMARK  status: ('A' for Active; 'I' for Inactive)
REMARK    1  A    between atoms: C4_4  and  C6_6 
ROOT
HETATM    1  C1  UNL     1     -35.212   5.053   4.698  1.00 20.00     0.135 A 
HETATM    2  C2  UNL     1     -35.343   6.351   4.256  1.00 20.00     0.136 A 
HETATM    3  C3  UNL     1     -33.549   4.699   3.168  1.00 20.00     0.144 A 
HETATM    4  C4  UNL     1     -33.681   5.998   2.725  1.00 20.00     0.065 A 
HETATM    5  N7  UNL     1     -34.313   4.204   4.162  1.00 20.00    -0.270 NA
HETATM    6  N8  UNL     1     -34.580   6.846   3.262  1.00 20.00    -0.261 NA
ENDROOT
BRANCH   4   7
HETATM    7  C6  UNL     1     -32.821   6.511   1.624  1.00 20.00     0.107 C 
HETATM    8  C5  UNL     1     -31.982   7.701   2.009  1.00 20.00     0.029 C 
HETATM    9 BR9  UNL     1     -31.659   5.075   0.959  1.00 20.00    -0.085 Br
ENDBRANCH   4   7
TORSDOF 1
ENDMDL
MODEL 6
REMARK VINA RESULT:       0.1      1.501      2.102
REMARK  1 active torsions:
REMARK  status: ('A' for Active; 'I' for Inactive)
REMARK    1  A    between atoms: C4_4  and  C6_6 
ROOT
HETATM    1  C1  UNL     1     -35.162   5.014   4.694  1.00 20.00     0.135 A 
HETATM    2  C2  UNL     1     -34.181   4.263   4.085  1.00 20.00     0.136 A 
HETATM    3  C3  UNL     1     -34.638   6.789   3.351  1.00 20.00     0.144 A 
HETATM    4  C4  UNL     1     -33.656   6.038   2.742  1.00 20.00     0.065 A 
HETATM    5  N7  UNL     1     -35.408   6.290   4.338  1.00 20.00    -0.270 NA
HETATM    6  N8  UNL     1     -33.411   4.762   3.099  1.00 20.00    -0.261 NA
ENDROOT
BRANCH   4   7
HETATM    7  C6  UNL     1     -32.823   6.623   1.655  1.00 20.00     0.107 C 
HETATM    8  C5  UNL     1     -31.980   7.791   2.093  1.00 20.00     0.029 C 
HETATM    9 BR9  UNL     1     -31.673   5.236   0.876  1.00 20.00    -0.085 Br
ENDBRANCH   4   7
TORSDOF 1
ENDMDL
MODEL 7
REMARK VINA RESULT:       0.4      2.203      3.678
REMARK  1 active torsions:
REMARK  status: ('A' for Active; 'I' for Inactive)
REMARK    1  A    between atoms: C4_4  and  C6_6 
ROOT
HETATM    1  C1  UNL     1     -31.611   6.377   0.948  1.00 20.00     0.135 A 
HETATM    2  C2  UNL     1     -31.683   7.643   1.488  1.00 20.00     0.136 A 
HETATM    3  C3  UNL     1     -33.378   5.723   2.245  1.00 20.00     0.144 A 
HETATM    4  C4  UNL     1     -33.449   6.989   2.786  1.00 20.00     0.065 A 
HETATM    5  N7  UNL     1     -32.457   5.395   1.317  1.00 20.00    -0.270 NA
HETATM    6  N8  UNL     1     -32.602   7.971   2.416  1.00 20.00    -0.261 NA
ENDROOT
BRANCH   4   7
HETATM    7  C6  UNL     1     -34.479   7.316   3.810  1.00 20.00     0.107 C 
HETATM    8  C5  UNL     1     -35.271   6.124   4.280  1.00 20.00     0.029 C 
HETATM    9 BR9  UNL     1     -33.635   8.194   5.349  1.00 20.00    -0.085 Br
ENDBRANCH   4   7
TORSDOF 1
ENDMDL
MODEL 8
REMARK VINA RESULT:       0.4      2.069      3.948
REMARK  1 active torsions:
REMARK  status: ('A' for Active; 'I' for Inactive)
REMARK    1  A    between atoms: C4_4  and  C6_6 
ROOT
HETATM    1  C1  UNL     1     -31.586   6.391   0.945  1.00 20.00     0.135 A 
HETATM    2  C2  UNL     1     -32.504   5.451   1.358  1.00 20.00     0.136 A 
HETATM    3  C3  UNL     1     -32.521   7.926   2.359  1.00 20.00     0.144 A 
HETATM    4  C4  UNL     1     -33.440   6.986   2.771  1.00 20.00     0.065 A 
HETATM    5  N7  UNL     1     -31.578   7.646   1.438  1.00 20.00    -0.270 NA
HETATM    6  N8  UNL     1     -33.447   5.731   2.279  1.00 20.00    -0.261 NA
ENDROOT
BRANCH   4   7
HETATM    7  C6  UNL     1     -34.469   7.331   3.791  1.00 20.00     0.107 C 
HETATM    8  C5  UNL     1     -35.280   6.153   4.263  1.00 20.00     0.029 C 
HETATM    9 BR9  UNL     1     -33.618   8.203   5.330  1.00 20.00    -0.085 Br
ENDBRANCH   4   7
TORSDOF 1
ENDMDL
MODEL 9
REMARK VINA RESULT:       0.5      1.765      2.282
REMARK  1 active torsions:
REMARK  status: ('A' for Active; 'I' for Inactive)
REMARK    1  A    between atoms: C4_4  and  C6_6 
ROOT
HETATM    1  C1  UNL     1     -34.879   6.158   4.080  1.00 20.00     0.135 A 
HETATM    2  C2  UNL     1     -34.203   5.513   3.068  1.00 20.00     0.136 A 
HETATM    3  C3  UNL     1     -33.659   8.052   3.689  1.00 20.00     0.144 A 
HETATM    4  C4  UNL     1     -32.982   7.407   2.677  1.00 20.00     0.065 A 
HETATM    5  N7  UNL     1     -34.618   7.439   4.409  1.00 20.00    -0.270 NA
HETATM    6  N8  UNL     1     -33.243   6.126   2.348  1.00 20.00    -0.261 NA
ENDROOT
BRANCH   4   7
HETATM    7  C6  UNL     1     -31.926   8.116   1.902  1.00 20.00     0.107 C 
HETATM    8  C5  UNL     1     -31.177   7.231   0.941  1.00 20.00     0.029 C 
HETATM    9 BR9  UNL     1     -32.714   9.626   0.928  1.00 20.00    -0.085 Br
ENDBRANCH   4   7
TORSDOF 1
ENDMDL
