MODEL 1
REMARK VINA RESULT:       0.2      0.000      0.000
REMARK  0 active torsions:
REMARK  status: ('A' for Active; 'I' for Inactive)
ROOT
HETATM    1  C1  UNL     1     -32.937   6.034   2.277  1.00 20.00     0.025 A 
HETATM    2  C2  UNL     1     -32.953   7.373   2.381  1.00 20.00     0.091 A 
HETATM    3  C3  UNL     1     -33.827   5.323   3.231  1.00 20.00     0.227 A 
HETATM    4  C4  UNL     1     -32.141   5.192   1.332  1.00 20.00     0.055 C 
HETATM    5  O5  UNL     1     -33.931   4.106   3.289  1.00 20.00    -0.279 OA
HETATM    6  S6  UNL     1     -33.955   8.140   3.562  1.00 20.00    -0.036 SA
HETATM    7  S7  UNL     1     -34.728   6.398   4.277  1.00 20.00    -0.009 SA
HETATM    8 CL8  UNL     1     -31.998   8.404   1.376  1.00 20.00    -0.075 Cl
ENDROOT
TORSDOF 0
ENDMDL
MODEL 2
REMARK VINA RESULT:       0.2      3.272      3.881
REMARK  0 active torsions:
REMARK  status: ('A' for Active; 'I' for Inactive)
ROOT
HETATM    1  C1  UNL     1     -33.411   7.409   3.648  1.00 20.00     0.025 A 
HETATM    2  C2  UNL     1     -34.057   6.283   3.309  1.00 20.00     0.091 A 
HETATM    3  C3  UNL     1     -32.311   7.800   2.729  1.00 20.00     0.227 A 
HETATM    4  C4  UNL     1     -33.664   8.299   4.823  1.00 20.00     0.055 C 
HETATM    5  O5  UNL     1     -31.608   8.788   2.887  1.00 20.00    -0.279 OA
HETATM    6  S6  UNL     1     -33.586   5.403   1.897  1.00 20.00    -0.036 SA
HETATM    7  S7  UNL     1     -32.111   6.707   1.377  1.00 20.00    -0.009 SA
HETATM    8 CL8  UNL     1     -35.368   5.638   4.230  1.00 20.00    -0.075 Cl
ENDROOT
TORSDOF 0
ENDMDL
MODEL 3
REMARK VINA RESULT:       0.3      2.451      2.920
REMARK  0 active torsions:
REMARK  status: ('A' for Active; 'I' for Inactive)
ROOT
HETATM    1  C1  UNL     1     -33.526   6.225   2.963  1.00 20.00     0.025 A 
HETATM    2  C2  UNL     1     -32.759   6.188   1.861  1.00 20.00     0.091 A 
HETATM    3  C3  UNL     1     -33.517   7.523   3.687  1.00 20.00     0.227 A 
HETATM    4  C4  UNL     1     -34.371   5.133   3.536  1.00 20.00     0.055 C 
HETATM    5  O5  UNL     1     -34.145   7.735   4.714  1.00 20.00    -0.279 OA
HETATM    6  S6  UNL     1     -31.854   7.582   1.386  1.00 20.00    -0.036 SA
HETATM    7  S7  UNL     1     -32.516   8.739   2.924  1.00 20.00    -0.009 SA
HETATM    8 CL8  UNL     1     -32.616   4.785   0.864  1.00 20.00    -0.075 Cl
ENDROOT
TORSDOF 0
ENDMDL
MODEL 4
REMARK VINA RESULT:       0.3      2.610      3.029
REMARK  0 active torsions:
REMARK  status: ('A' for Active; 'I' for Inactive)
ROOT
HETATM    1  C1  UNL     1     -32.810   6.150   2.153  1.00 20.00     0.025 A 
HETATM    2  C2  UNL     1     -33.621   5.954   3.205  1.00 20.00     0.091 A 
HETATM    3  C3  UNL     1     -32.398   7.561   1.936  1.00 20.00     0.227 A 
HETATM    4  C4  UNL     1     -32.284   5.133   1.191  1.00 20.00     0.055 C 
HETATM    5  O5  UNL     1     -31.674   7.928   1.022  1.00 20.00    -0.279 OA
HETATM    6  S6  UNL     1     -34.110   7.291   4.185  1.00 20.00    -0.036 SA
HETATM    7  S7  UNL     1     -33.049   8.667   3.126  1.00 20.00    -0.009 SA
HETATM    8 CL8  UNL     1     -34.226   4.398   3.647  1.00 20.00    -0.075 Cl
ENDROOT
TORSDOF 0
ENDMDL
MODEL 5
REMARK VINA RESULT:       0.4      2.374      2.808
REMARK  0 active torsions:
REMARK  status: ('A' for Active; 'I' for Inactive)
ROOT
HETATM    1  C1  UNL     1     -33.528   6.309   3.052  1.00 20.00     0.025 A 
HETATM    2  C2  UNL     1     -33.315   7.523   3.584  1.00 20.00     0.091 A 
HETATM    3  C3  UNL     1     -32.823   6.056   1.768  1.00 20.00     0.227 A 
HETATM    4  C4  UNL     1     -34.378   5.203   3.590  1.00 20.00     0.055 C 
HETATM    5  O5  UNL     1     -32.910   5.014   1.136  1.00 20.00    -0.279 OA
HETATM    6  S6  UNL     1     -32.289   8.656   2.776  1.00 20.00    -0.036 SA
HETATM    7  S7  UNL     1     -31.841   7.403   1.236  1.00 20.00    -0.009 SA
HETATM    8 CL8  UNL     1     -34.030   8.037   5.069  1.00 20.00    -0.075 Cl
ENDROOT
TORSDOF 0
ENDMDL
MODEL 6
REMARK VINA RESULT:       0.4      2.268      2.770
REMARK  0 active torsions:
REMARK  status: ('A' for Active; 'I' for Inactive)
ROOT
HETATM    1  C1  UNL     1     -33.006   6.998   2.565  1.00 20.00     0.025 A 
HETATM    2  C2  UNL     1     -32.928   5.693   2.260  1.00 20.00     0.091 A 
HETATM    3  C3  UNL     1     -34.000   7.336   3.617  1.00 20.00     0.227 A 
HETATM    4  C4  UNL     1     -32.224   8.130   1.979  1.00 20.00     0.055 C 
HETATM    5  O5  UNL     1     -34.215   8.472   4.012  1.00 20.00    -0.279 OA
HETATM    6  S6  UNL     1     -33.943   4.551   3.068  1.00 20.00    -0.036 SA
HETATM    7  S7  UNL     1     -34.845   5.940   4.251  1.00 20.00    -0.009 SA
HETATM    8 CL8  UNL     1     -31.845   5.070   1.068  1.00 20.00    -0.075 Cl
ENDROOT
TORSDOF 0
ENDMDL
MODEL 7
REMARK VINA RESULT:       0.6      2.068      2.525
REMARK  0 active torsions:
REMARK  status: ('A' for Active; 'I' for Inactive)
ROOT
HETATM    1  C1  UNL     1     -33.782   6.989   3.356  1.00 20.00     0.025 A 
HETATM    2  C2  UNL     1     -32.858   6.969   2.383  1.00 20.00     0.091 A 
HETATM    3  C3  UNL     1     -34.376   5.666   3.683  1.00 20.00     0.227 A 
HETATM    4  C4  UNL     1     -34.276   8.166   4.135  1.00 20.00     0.055 C 
HETATM    5  O5  UNL     1     -35.239   5.496   4.531  1.00 20.00    -0.279 OA
HETATM    6  S6  UNL     1     -32.445   5.479   1.610  1.00 20.00    -0.036 SA
HETATM    7  S7  UNL     1     -33.716   4.353   2.731  1.00 20.00    -0.009 SA
HETATM    8 CL8  UNL     1     -32.037   8.387   1.839  1.00 20.00    -0.075 Cl
ENDROOT
TORSDOF 0
ENDMDL
MODEL 8
REMARK VINA RESULT:       1.1      2.101      2.551
REMARK  0 active torsions:
REMARK  status: ('A' for Active; 'I' for Inactive)
ROOT
HETATM    1  C1  UNL     1     -32.926   6.983   2.514  1.00 20.00     0.025 A 
HETATM    2  C2  UNL     1     -33.822   7.085   3.509  1.00 20.00     0.091 A 
HETATM    3  C3  UNL     1     -32.726   5.606   1.992  1.00 20.00     0.227 A 
HETATM    4  C4  UNL     1     -32.119   8.073   1.884  1.00 20.00     0.055 C 
HETATM    5  O5  UNL     1     -31.942   5.323   1.098  1.00 20.00    -0.279 OA
HETATM    6  S6  UNL     1     -34.639   5.677   4.089  1.00 20.00    -0.036 SA
HETATM    7  S7  UNL     1     -33.730   4.409   2.781  1.00 20.00    -0.009 SA
HETATM    8 CL8  UNL     1     -34.214   8.585   4.269  1.00 20.00    -0.075 Cl
ENDROOT
TORSDOF 0
ENDMDL
MODEL 9
REMARK VINA RESULT:       1.2      3.091      3.719
REMARK  0 active torsions:
REMARK  status: ('A' for Active; 'I' for Inactive)
ROOT
HETATM    1  C1  UNL     1     -34.132   6.254   3.508  1.00 20.00     0.025 A 
HETATM    2  C2  UNL     1     -33.413   5.230   3.022  1.00 20.00     0.091 A 
HETATM    3  C3  UNL     1     -33.716   7.596   3.024  1.00 20.00     0.227 A 
HETATM    4  C4  UNL     1     -35.282   6.202   4.464  1.00 20.00     0.055 C 
HETATM    5  O5  UNL     1     -34.248   8.641   3.370  1.00 20.00    -0.279 OA
HETATM    6  S6  UNL     1     -32.112   5.528   1.924  1.00 20.00    -0.036 SA
HETATM    7  S7  UNL     1     -32.379   7.546   1.896  1.00 20.00    -0.009 SA
HETATM    8 CL8  UNL     1     -33.717   3.584   3.446  1.00 20.00    -0.075 Cl
ENDROOT
TORSDOF 0
ENDMDL
