MODEL 1
REMARK VINA RESULT:      -0.6      0.000      0.000
REMARK  1 active torsions:
REMARK  status: ('A' for Active; 'I' for Inactive)
REMARK    1  A    between atoms: C3_3  and  C5_5 
ROOT
HETATM    1  C1  UNL     1     -35.452   6.080   4.068  1.00 20.00     0.012 C 
HETATM    2  C2  UNL     1     -34.392   6.289   3.545  1.00 20.00    -0.111 C 
HETATM    3  C4  UNL     1     -33.124   6.540   2.921  1.00 20.00     0.088 A 
HETATM    4  C5  UNL     1     -33.077   7.456   1.718  1.00 20.00     0.112 A 
HETATM    5  C6  UNL     1     -32.811   5.971   1.547  1.00 20.00    -0.018 A 
HETATM    6  C7  UNL     1     -31.402   5.476   1.316  1.00 20.00     0.017 C 
HETATM    7  C8  UNL     1     -33.850   5.169   0.798  1.00 20.00     0.017 C 
ENDROOT
BRANCH   4   8
HETATM    8  C3  UNL     1     -31.970   8.391   1.629  1.00 20.00     0.179 C 
HETATM    9  O9  UNL     1     -31.881   9.020   0.539  1.00 20.00    -0.648 OA
HETATM   10  O10 UNL     1     -31.243   8.449   2.661  1.00 20.00    -0.648 OA
ENDBRANCH   4   8
TORSDOF 1
ENDMDL
MODEL 2
REMARK VINA RESULT:      -0.6      0.034      1.024
REMARK  1 active torsions:
REMARK  status: ('A' for Active; 'I' for Inactive)
REMARK    1  A    between atoms: C3_3  and  C5_5 
ROOT
HETATM    1  C1  UNL     1     -35.458   6.038   4.084  1.00 20.00     0.012 C 
HETATM    2  C2  UNL     1     -34.399   6.254   3.559  1.00 20.00    -0.111 C 
HETATM    3  C4  UNL     1     -33.134   6.514   2.933  1.00 20.00     0.088 A 
HETATM    4  C5  UNL     1     -33.091   7.449   1.745  1.00 20.00     0.112 A 
HETATM    5  C6  UNL     1     -32.828   5.966   1.549  1.00 20.00    -0.018 A 
HETATM    6  C7  UNL     1     -31.421   5.473   1.304  1.00 20.00     0.017 C 
HETATM    7  C8  UNL     1     -33.872   5.177   0.793  1.00 20.00     0.017 C 
ENDROOT
BRANCH   4   8
HETATM    8  C3  UNL     1     -31.983   8.383   1.666  1.00 20.00     0.179 C 
HETATM    9  O9  UNL     1     -31.261   8.451   2.699  1.00 20.00    -0.648 OA
HETATM   10  O10 UNL     1     -31.890   9.003   0.569  1.00 20.00    -0.648 OA
ENDBRANCH   4   8
TORSDOF 1
ENDMDL
MODEL 3
REMARK VINA RESULT:       0.1      1.476      2.053
REMARK  1 active torsions:
REMARK  status: ('A' for Active; 'I' for Inactive)
REMARK    1  A    between atoms: C3_3  and  C5_5 
ROOT
HETATM    1  C1  UNL     1     -34.670   6.977   4.109  1.00 20.00     0.012 C 
HETATM    2  C2  UNL     1     -33.850   7.539   3.436  1.00 20.00    -0.111 C 
HETATM    3  C4  UNL     1     -32.870   8.212   2.631  1.00 20.00     0.088 A 
HETATM    4  C5  UNL     1     -33.123   8.353   1.147  1.00 20.00     0.112 A 
HETATM    5  C6  UNL     1     -32.017   7.438   1.641  1.00 20.00    -0.018 A 
HETATM    6  C7  UNL     1     -30.572   7.857   1.508  1.00 20.00     0.017 C 
HETATM    7  C8  UNL     1     -32.221   5.951   1.456  1.00 20.00     0.017 C 
ENDROOT
BRANCH   4   8
HETATM    8  C3  UNL     1     -32.774   9.617   0.524  1.00 20.00     0.179 C 
HETATM    9  O9  UNL     1     -32.568  10.572   1.322  1.00 20.00    -0.648 OA
HETATM   10  O10 UNL     1     -32.721   9.588  -0.738  1.00 20.00    -0.648 OA
ENDBRANCH   4   8
TORSDOF 1
ENDMDL
MODEL 4
REMARK VINA RESULT:       0.2      2.140      3.592
REMARK  1 active torsions:
REMARK  status: ('A' for Active; 'I' for Inactive)
REMARK    1  A    between atoms: C3_3  and  C5_5 
ROOT
HETATM    1  C1  UNL     1     -32.161   4.721   0.344  1.00 20.00     0.012 C 
HETATM    2  C2  UNL     1     -32.334   5.404   1.316  1.00 20.00    -0.111 C 
HETATM    3  C4  UNL     1     -32.542   6.220   2.478  1.00 20.00     0.088 A 
HETATM    4  C5  UNL     1     -33.814   7.032   2.577  1.00 20.00     0.112 A 
HETATM    5  C6  UNL     1     -32.484   7.735   2.381  1.00 20.00    -0.018 A 
HETATM    6  C7  UNL     1     -31.839   8.471   3.533  1.00 20.00     0.017 C 
HETATM    7  C8  UNL     1     -32.251   8.407   1.047  1.00 20.00     0.017 C 
ENDROOT
BRANCH   4   8
HETATM    8  C3  UNL     1     -34.469   7.098   3.871  1.00 20.00     0.179 C 
HETATM    9  O9  UNL     1     -34.078   8.031   4.626  1.00 20.00    -0.648 OA
HETATM   10  O10 UNL     1     -35.346   6.210   4.066  1.00 20.00    -0.648 OA
ENDBRANCH   4   8
TORSDOF 1
ENDMDL
MODEL 5
REMARK VINA RESULT:       0.4      2.212      3.582
REMARK  1 active torsions:
REMARK  status: ('A' for Active; 'I' for Inactive)
REMARK    1  A    between atoms: C3_3  and  C5_5 
ROOT
HETATM    1  C1  UNL     1     -32.357  10.376   0.177  1.00 20.00     0.012 C 
HETATM    2  C2  UNL     1     -32.761   9.428   0.793  1.00 20.00    -0.111 C 
HETATM    3  C4  UNL     1     -33.244   8.295   1.531  1.00 20.00     0.088 A 
HETATM    4  C5  UNL     1     -32.738   8.076   2.939  1.00 20.00     0.112 A 
HETATM    5  C6  UNL     1     -32.330   7.120   1.832  1.00 20.00    -0.018 A 
HETATM    6  C7  UNL     1     -32.942   5.741   1.760  1.00 20.00     0.017 C 
HETATM    7  C8  UNL     1     -30.882   7.148   1.398  1.00 20.00     0.017 C 
ENDROOT
BRANCH   4   8
HETATM    8  C3  UNL     1     -33.697   7.640   3.937  1.00 20.00     0.179 C 
HETATM    9  O9  UNL     1     -34.661   6.956   3.495  1.00 20.00    -0.648 OA
HETATM   10  O10 UNL     1     -33.435   8.005   5.118  1.00 20.00    -0.648 OA
ENDBRANCH   4   8
TORSDOF 1
ENDMDL
MODEL 6
REMARK VINA RESULT:       0.4      2.122      3.033
REMARK  1 active torsions:
REMARK  status: ('A' for Active; 'I' for Inactive)
REMARK    1  A    between atoms: C3_3  and  C5_5 
ROOT
HETATM    1  C1  UNL     1     -34.239   7.648   4.829  1.00 20.00     0.012 C 
HETATM    2  C2  UNL     1     -33.875   7.485   3.697  1.00 20.00    -0.111 C 
HETATM    3  C4  UNL     1     -33.441   7.287   2.343  1.00 20.00     0.088 A 
HETATM    4  C5  UNL     1     -32.296   6.335   2.079  1.00 20.00     0.112 A 
HETATM    5  C6  UNL     1     -32.101   7.826   1.873  1.00 20.00    -0.018 A 
HETATM    6  C7  UNL     1     -32.044   8.396   0.475  1.00 20.00     0.017 C 
HETATM    7  C8  UNL     1     -31.184   8.540   2.840  1.00 20.00     0.017 C 
ENDROOT
BRANCH   4   8
HETATM    8  C3  UNL     1     -32.399   5.465   0.922  1.00 20.00     0.179 C 
HETATM    9  O9  UNL     1     -31.335   4.867   0.600  1.00 20.00    -0.648 OA
HETATM   10  O10 UNL     1     -33.545   5.423   0.392  1.00 20.00    -0.648 OA
ENDBRANCH   4   8
TORSDOF 1
ENDMDL
MODEL 7
REMARK VINA RESULT:       0.4      2.118      2.958
REMARK  1 active torsions:
REMARK  status: ('A' for Active; 'I' for Inactive)
REMARK    1  A    between atoms: C3_3  and  C5_5 
ROOT
HETATM    1  C1  UNL     1     -34.236   7.646   4.833  1.00 20.00     0.012 C 
HETATM    2  C2  UNL     1     -33.876   7.484   3.700  1.00 20.00    -0.111 C 
HETATM    3  C4  UNL     1     -33.446   7.290   2.344  1.00 20.00     0.088 A 
HETATM    4  C5  UNL     1     -32.301   6.339   2.075  1.00 20.00     0.112 A 
HETATM    5  C6  UNL     1     -32.107   7.831   1.871  1.00 20.00    -0.018 A 
HETATM    6  C7  UNL     1     -32.055   8.403   0.474  1.00 20.00     0.017 C 
HETATM    7  C8  UNL     1     -31.187   8.543   2.837  1.00 20.00     0.017 C 
ENDROOT
BRANCH   4   8
HETATM    8  C3  UNL     1     -32.408   5.471   0.916  1.00 20.00     0.179 C 
HETATM    9  O9  UNL     1     -33.542   5.449   0.362  1.00 20.00    -0.648 OA
HETATM   10  O10 UNL     1     -31.346   4.856   0.616  1.00 20.00    -0.648 OA
ENDBRANCH   4   8
TORSDOF 1
ENDMDL
MODEL 8
REMARK VINA RESULT:       0.5      2.318      3.723
REMARK  1 active torsions:
REMARK  status: ('A' for Active; 'I' for Inactive)
REMARK    1  A    between atoms: C3_3  and  C5_5 
ROOT
HETATM    1  C1  UNL     1     -31.204   8.775   2.044  1.00 20.00     0.012 C 
HETATM    2  C2  UNL     1     -32.100   7.977   2.022  1.00 20.00    -0.111 C 
HETATM    3  C4  UNL     1     -33.172   7.022   1.997  1.00 20.00     0.088 A 
HETATM    4  C5  UNL     1     -33.143   5.872   2.980  1.00 20.00     0.112 A 
HETATM    5  C6  UNL     1     -32.938   5.606   1.499  1.00 20.00    -0.018 A 
HETATM    6  C7  UNL     1     -34.041   4.976   0.683  1.00 20.00     0.017 C 
HETATM    7  C8  UNL     1     -31.557   5.169   1.065  1.00 20.00     0.017 C 
ENDROOT
BRANCH   4   8
HETATM    8  C3  UNL     1     -34.398   5.490   3.603  1.00 20.00     0.179 C 
HETATM    9  O9  UNL     1     -34.460   4.294   3.999  1.00 20.00    -0.648 OA
HETATM   10  O10 UNL     1     -35.260   6.411   3.665  1.00 20.00    -0.648 OA
ENDBRANCH   4   8
TORSDOF 1
ENDMDL
MODEL 9
REMARK VINA RESULT:       0.5      2.299      3.650
REMARK  1 active torsions:
REMARK  status: ('A' for Active; 'I' for Inactive)
REMARK    1  A    between atoms: C3_3  and  C5_5 
ROOT
HETATM    1  C1  UNL     1     -31.178   8.784   1.992  1.00 20.00     0.012 C 
HETATM    2  C2  UNL     1     -32.077   7.988   1.980  1.00 20.00    -0.111 C 
HETATM    3  C4  UNL     1     -33.152   7.037   1.967  1.00 20.00     0.088 A 
HETATM    4  C5  UNL     1     -33.125   5.897   2.960  1.00 20.00     0.112 A 
HETATM    5  C6  UNL     1     -32.924   5.616   1.482  1.00 20.00    -0.018 A 
HETATM    6  C7  UNL     1     -34.031   4.982   0.674  1.00 20.00     0.017 C 
HETATM    7  C8  UNL     1     -31.546   5.170   1.049  1.00 20.00     0.017 C 
ENDROOT
BRANCH   4   8
HETATM    8  C3  UNL     1     -34.379   5.525   3.589  1.00 20.00     0.179 C 
HETATM    9  O9  UNL     1     -35.249   6.438   3.639  1.00 20.00    -0.648 OA
HETATM   10  O10 UNL     1     -34.431   4.332   4.002  1.00 20.00    -0.648 OA
ENDBRANCH   4   8
TORSDOF 1
ENDMDL
