MODEL 1
REMARK VINA RESULT:      -2.6      0.000      0.000
REMARK  2 active torsions:
REMARK  status: ('A' for Active; 'I' for Inactive)
REMARK    1  A    between atoms: C3_3  and  C6_6 
REMARK    2  A    between atoms: C4_4  and  C7_7 
ROOT
HETATM    1  C1  UNL     1     -34.317   6.788   3.755  1.00 20.00    -0.176 C 
HETATM    2  C2  UNL     1     -35.353   6.094   4.118  1.00 20.00     0.091 C 
HETATM    3  C3  UNL     1     -33.280   7.483   3.395  1.00 20.00     0.072 C 
ENDROOT
BRANCH   3   4
HETATM    4  C6  UNL     1     -33.065   7.783   1.986  1.00 20.00     0.017 A 
HETATM    5  C5  UNL     1     -31.753   7.411   1.355  1.00 20.00     0.022 A 
HETATM    6  C7  UNL     1     -32.073   8.861   1.613  1.00 20.00     0.092 A 
BRANCH   6   7
HETATM    7  C4  UNL     1     -32.390   9.691   0.468  1.00 20.00     0.177 C 
HETATM    8  O8  UNL     1     -32.374   9.101  -0.648  1.00 20.00    -0.648 OA
HETATM    9  O9  UNL     1     -32.642  10.899   0.742  1.00 20.00    -0.648 OA
ENDBRANCH   6   7
ENDBRANCH   3   4
TORSDOF 2
ENDMDL
MODEL 2
REMARK VINA RESULT:      -2.6      0.009      1.078
REMARK  2 active torsions:
REMARK  status: ('A' for Active; 'I' for Inactive)
REMARK    1  A    between atoms: C3_3  and  C6_6 
REMARK    2  A    between atoms: C4_4  and  C7_7 
ROOT
HETATM    1  C1  UNL     1     -34.320   6.783   3.759  1.00 20.00    -0.176 C 
HETATM    2  C2  UNL     1     -35.355   6.088   4.123  1.00 20.00     0.091 C 
HETATM    3  C3  UNL     1     -33.284   7.479   3.399  1.00 20.00     0.072 C 
ENDROOT
BRANCH   3   4
HETATM    4  C6  UNL     1     -33.071   7.781   1.990  1.00 20.00     0.017 A 
HETATM    5  C5  UNL     1     -31.762   7.403   1.356  1.00 20.00     0.022 A 
HETATM    6  C7  UNL     1     -32.074   8.855   1.617  1.00 20.00     0.092 A 
BRANCH   6   7
HETATM    7  C4  UNL     1     -32.390   9.689   0.475  1.00 20.00     0.177 C 
HETATM    8  O8  UNL     1     -32.644  10.896   0.740  1.00 20.00    -0.648 OA
HETATM    9  O9  UNL     1     -32.368   9.092  -0.639  1.00 20.00    -0.648 OA
ENDBRANCH   6   7
ENDBRANCH   3   4
TORSDOF 2
ENDMDL
MODEL 3
REMARK VINA RESULT:      -2.5      2.708      4.331
REMARK  2 active torsions:
REMARK  status: ('A' for Active; 'I' for Inactive)
REMARK    1  A    between atoms: C3_3  and  C6_6 
REMARK    2  A    between atoms: C4_4  and  C7_7 
ROOT
HETATM    1  C1  UNL     1     -32.290   9.403   0.652  1.00 20.00    -0.176 C 
HETATM    2  C2  UNL     1     -32.768  10.610   0.606  1.00 20.00     0.091 C 
HETATM    3  C3  UNL     1     -31.811   8.196   0.694  1.00 20.00     0.072 C 
ENDROOT
BRANCH   3   4
HETATM    4  C6  UNL     1     -32.057   7.363   1.863  1.00 20.00     0.017 A 
HETATM    5  C5  UNL     1     -32.171   5.875   1.683  1.00 20.00     0.022 A 
HETATM    6  C7  UNL     1     -33.401   6.685   2.006  1.00 20.00     0.092 A 
BRANCH   6   7
HETATM    7  C4  UNL     1     -33.949   6.568   3.343  1.00 20.00     0.177 C 
HETATM    8  O8  UNL     1     -34.147   7.660   3.943  1.00 20.00    -0.648 OA
HETATM    9  O9  UNL     1     -34.155   5.382   3.729  1.00 20.00    -0.648 OA
ENDBRANCH   6   7
ENDBRANCH   3   4
TORSDOF 2
ENDMDL
MODEL 4
REMARK VINA RESULT:      -2.4      2.711      4.217
REMARK  2 active torsions:
REMARK  status: ('A' for Active; 'I' for Inactive)
REMARK    1  A    between atoms: C3_3  and  C6_6 
REMARK    2  A    between atoms: C4_4  and  C7_7 
ROOT
HETATM    1  C1  UNL     1     -32.289   9.401   0.661  1.00 20.00    -0.176 C 
HETATM    2  C2  UNL     1     -32.769  10.607   0.618  1.00 20.00     0.091 C 
HETATM    3  C3  UNL     1     -31.808   8.195   0.701  1.00 20.00     0.072 C 
ENDROOT
BRANCH   3   4
HETATM    4  C6  UNL     1     -32.053   7.358   1.867  1.00 20.00     0.017 A 
HETATM    5  C5  UNL     1     -32.159   5.870   1.684  1.00 20.00     0.022 A 
HETATM    6  C7  UNL     1     -33.394   6.673   2.004  1.00 20.00     0.092 A 
BRANCH   6   7
HETATM    7  C4  UNL     1     -33.945   6.551   3.339  1.00 20.00     0.177 C 
HETATM    8  O8  UNL     1     -34.146   5.369   3.735  1.00 20.00    -0.648 OA
HETATM    9  O9  UNL     1     -34.151   7.649   3.930  1.00 20.00    -0.648 OA
ENDBRANCH   6   7
ENDBRANCH   3   4
TORSDOF 2
ENDMDL
MODEL 5
REMARK VINA RESULT:      -2.4      3.210      4.850
REMARK  2 active torsions:
REMARK  status: ('A' for Active; 'I' for Inactive)
REMARK    1  A    between atoms: C3_3  and  C6_6 
REMARK    2  A    between atoms: C4_4  and  C7_7 
ROOT
HETATM    1  C1  UNL     1     -32.269   8.822   1.055  1.00 20.00    -0.176 C 
HETATM    2  C2  UNL     1     -32.266   9.809   0.211  1.00 20.00     0.091 C 
HETATM    3  C3  UNL     1     -32.270   7.833   1.897  1.00 20.00     0.072 C 
ENDROOT
BRANCH   3   4
HETATM    4  C6  UNL     1     -33.504   7.460   2.573  1.00 20.00     0.017 A 
HETATM    5  C5  UNL     1     -33.758   7.974   3.961  1.00 20.00     0.022 A 
HETATM    6  C7  UNL     1     -33.434   6.517   3.753  1.00 20.00     0.092 A 
BRANCH   6   7
HETATM    7  C4  UNL     1     -34.514   5.562   3.907  1.00 20.00     0.177 C 
HETATM    8  O8  UNL     1     -35.665   6.064   4.029  1.00 20.00    -0.648 OA
HETATM    9  O9  UNL     1     -34.155   4.350   3.899  1.00 20.00    -0.648 OA
ENDBRANCH   6   7
ENDBRANCH   3   4
TORSDOF 2
ENDMDL
MODEL 6
REMARK VINA RESULT:      -2.3      2.399      3.346
REMARK  2 active torsions:
REMARK  status: ('A' for Active; 'I' for Inactive)
REMARK    1  A    between atoms: C3_3  and  C6_6 
REMARK    2  A    between atoms: C4_4  and  C7_7 
ROOT
HETATM    1  C1  UNL     1     -33.813   3.658   4.375  1.00 20.00    -0.176 C 
HETATM    2  C2  UNL     1     -33.244   2.548   4.738  1.00 20.00     0.091 C 
HETATM    3  C3  UNL     1     -34.384   4.767   4.012  1.00 20.00     0.072 C 
ENDROOT
BRANCH   3   4
HETATM    4  C6  UNL     1     -33.573   5.953   3.773  1.00 20.00     0.017 A 
HETATM    5  C5  UNL     1     -34.252   7.289   3.672  1.00 20.00     0.022 A 
HETATM    6  C7  UNL     1     -33.675   6.649   2.435  1.00 20.00     0.092 A 
BRANCH   6   7
HETATM    7  C4  UNL     1     -32.461   7.222   1.888  1.00 20.00     0.177 C 
HETATM    8  O8  UNL     1     -32.322   8.463   2.066  1.00 20.00    -0.648 OA
HETATM    9  O9  UNL     1     -31.702   6.397   1.304  1.00 20.00    -0.648 OA
ENDBRANCH   6   7
ENDBRANCH   3   4
TORSDOF 2
ENDMDL
MODEL 7
REMARK VINA RESULT:      -2.1      3.858      5.331
REMARK  2 active torsions:
REMARK  status: ('A' for Active; 'I' for Inactive)
REMARK    1  A    between atoms: C3_3  and  C6_6 
REMARK    2  A    between atoms: C4_4  and  C7_7 
ROOT
HETATM    1  C1  UNL     1     -32.216   7.346   1.530  1.00 20.00    -0.176 C 
HETATM    2  C2  UNL     1     -31.783   8.570   1.543  1.00 20.00     0.091 C 
HETATM    3  C3  UNL     1     -32.648   6.121   1.515  1.00 20.00     0.072 C 
ENDROOT
BRANCH   3   4
HETATM    4  C6  UNL     1     -33.780   5.743   2.349  1.00 20.00     0.017 A 
HETATM    5  C5  UNL     1     -34.228   6.681   3.434  1.00 20.00     0.022 A 
HETATM    6  C7  UNL     1     -33.533   5.394   3.799  1.00 20.00     0.092 A 
BRANCH   6   7
HETATM    7  C4  UNL     1     -34.339   4.337   4.376  1.00 20.00     0.177 C 
HETATM    8  O8  UNL     1     -35.503   4.676   4.728  1.00 20.00    -0.648 OA
HETATM    9  O9  UNL     1     -33.766   3.213   4.450  1.00 20.00    -0.648 OA
ENDBRANCH   6   7
ENDBRANCH   3   4
TORSDOF 2
ENDMDL
MODEL 8
REMARK VINA RESULT:      -1.7      2.804      3.815
REMARK  2 active torsions:
REMARK  status: ('A' for Active; 'I' for Inactive)
REMARK    1  A    between atoms: C3_3  and  C6_6 
REMARK    2  A    between atoms: C4_4  and  C7_7 
ROOT
HETATM    1  C1  UNL     1     -33.524   3.337   4.475  1.00 20.00    -0.176 C 
HETATM    2  C2  UNL     1     -32.773   2.472   5.088  1.00 20.00     0.091 C 
HETATM    3  C3  UNL     1     -34.275   4.200   3.861  1.00 20.00     0.072 C 
ENDROOT
BRANCH   3   4
HETATM    4  C6  UNL     1     -34.173   5.614   4.193  1.00 20.00     0.017 A 
HETATM    5  C5  UNL     1     -35.300   6.532   3.817  1.00 20.00     0.022 A 
HETATM    6  C7  UNL     1     -33.991   6.615   3.074  1.00 20.00     0.092 A 
BRANCH   6   7
HETATM    7  C4  UNL     1     -33.143   7.760   3.337  1.00 20.00     0.177 C 
HETATM    8  O8  UNL     1     -32.397   8.110   2.381  1.00 20.00    -0.648 OA
HETATM    9  O9  UNL     1     -33.265   8.256   4.493  1.00 20.00    -0.648 OA
ENDBRANCH   6   7
ENDBRANCH   3   4
TORSDOF 2
ENDMDL
MODEL 9
REMARK VINA RESULT:      -1.7      0.832      1.540
REMARK  2 active torsions:
REMARK  status: ('A' for Active; 'I' for Inactive)
REMARK    1  A    between atoms: C3_3  and  C6_6 
REMARK    2  A    between atoms: C4_4  and  C7_7 
ROOT
HETATM    1  C1  UNL     1     -33.613   6.409   2.761  1.00 20.00    -0.176 C 
HETATM    2  C2  UNL     1     -34.472   6.528   3.729  1.00 20.00     0.091 C 
HETATM    3  C3  UNL     1     -32.755   6.286   1.794  1.00 20.00     0.072 C 
ENDROOT
BRANCH   3   4
HETATM    4  C6  UNL     1     -32.058   7.463   1.294  1.00 20.00     0.017 A 
HETATM    5  C5  UNL     1     -31.615   8.515   2.271  1.00 20.00     0.022 A 
HETATM    6  C7  UNL     1     -32.762   8.800   1.335  1.00 20.00     0.092 A 
BRANCH   6   7
HETATM    7  C4  UNL     1     -32.518   9.714   0.236  1.00 20.00     0.177 C 
HETATM    8  O8  UNL     1     -32.059  10.843   0.564  1.00 20.00    -0.648 OA
HETATM    9  O9  UNL     1     -32.799   9.255  -0.907  1.00 20.00    -0.648 OA
ENDBRANCH   6   7
ENDBRANCH   3   4
TORSDOF 2
ENDMDL
