MODEL 1
REMARK VINA RESULT:      -0.4      0.000      0.000
REMARK  1 active torsions:
REMARK  status: ('A' for Active; 'I' for Inactive)
REMARK    1  A    between atoms: C1_1  and  C2_2 
ROOT
HETATM    1  C2  UNL     1     -33.261   5.458   3.624  1.00 20.00     0.064 A 
HETATM    2  C3  UNL     1     -34.187   6.659   3.509  1.00 20.00    -0.030 A 
HETATM    3  C4  UNL     1     -33.293   6.249   2.325  1.00 20.00    -0.030 A 
HETATM    4  C5  UNL     1     -33.831   7.891   4.315  1.00 20.00     0.016 C 
HETATM    5  C6  UNL     1     -35.684   6.458   3.420  1.00 20.00     0.016 C 
HETATM    6  C7  UNL     1     -33.926   5.650   1.087  1.00 20.00     0.016 C 
HETATM    7  C8  UNL     1     -32.077   7.086   1.989  1.00 20.00     0.016 C 
ENDROOT
BRANCH   1   8
HETATM    8  C1  UNL     1     -33.792   4.090   3.696  1.00 20.00     0.237 C 
HETATM    9  O9  UNL     1     -33.492   3.294   4.580  1.00 20.00    -0.306 OA
ENDBRANCH   1   8
TORSDOF 1
ENDMDL
MODEL 2
REMARK VINA RESULT:       0.7      3.121      4.205
REMARK  1 active torsions:
REMARK  status: ('A' for Active; 'I' for Inactive)
REMARK    1  A    between atoms: C1_1  and  C2_2 
ROOT
HETATM    1  C2  UNL     1     -33.097   8.290   1.434  1.00 20.00     0.064 A 
HETATM    2  C3  UNL     1     -32.848   7.912   2.886  1.00 20.00    -0.030 A 
HETATM    3  C4  UNL     1     -32.361   6.997   1.749  1.00 20.00    -0.030 A 
HETATM    4  C5  UNL     1     -34.049   7.496   3.710  1.00 20.00     0.016 C 
HETATM    5  C6  UNL     1     -31.840   8.683   3.709  1.00 20.00     0.016 C 
HETATM    6  C7  UNL     1     -30.877   6.881   1.471  1.00 20.00     0.016 C 
HETATM    7  C8  UNL     1     -33.089   5.698   1.478  1.00 20.00     0.016 C 
ENDROOT
BRANCH   1   8
HETATM    8  C1  UNL     1     -32.406   9.429   0.813  1.00 20.00     0.237 C 
HETATM    9  O9  UNL     1     -32.665   9.847  -0.310  1.00 20.00    -0.306 OA
ENDBRANCH   1   8
TORSDOF 1
ENDMDL
MODEL 3
REMARK VINA RESULT:       1.0      1.894      2.870
REMARK  1 active torsions:
REMARK  status: ('A' for Active; 'I' for Inactive)
REMARK    1  A    between atoms: C1_1  and  C2_2 
ROOT
HETATM    1  C2  UNL     1     -32.927   6.953   2.897  1.00 20.00     0.064 A 
HETATM    2  C3  UNL     1     -32.217   7.741   1.807  1.00 20.00    -0.030 A 
HETATM    3  C4  UNL     1     -32.692   6.301   1.544  1.00 20.00    -0.030 A 
HETATM    4  C5  UNL     1     -30.740   8.012   1.997  1.00 20.00     0.016 C 
HETATM    5  C6  UNL     1     -32.919   8.895   1.125  1.00 20.00     0.016 C 
HETATM    6  C7  UNL     1     -33.854   6.059   0.605  1.00 20.00     0.016 C 
HETATM    7  C8  UNL     1     -31.672   5.184   1.478  1.00 20.00     0.016 C 
ENDROOT
BRANCH   1   8
HETATM    8  C1  UNL     1     -34.279   7.316   3.343  1.00 20.00     0.237 C 
HETATM    9  O9  UNL     1     -35.035   6.539   3.917  1.00 20.00    -0.306 OA
ENDBRANCH   1   8
TORSDOF 1
ENDMDL
MODEL 4
REMARK VINA RESULT:       1.0      1.860      3.265
REMARK  1 active torsions:
REMARK  status: ('A' for Active; 'I' for Inactive)
REMARK    1  A    between atoms: C1_1  and  C2_2 
ROOT
HETATM    1  C2  UNL     1     -33.713   7.480   2.411  1.00 20.00     0.064 A 
HETATM    2  C3  UNL     1     -32.881   6.491   1.610  1.00 20.00    -0.030 A 
HETATM    3  C4  UNL     1     -32.374   7.925   1.844  1.00 20.00    -0.030 A 
HETATM    4  C5  UNL     1     -33.395   6.101   0.240  1.00 20.00     0.016 C 
HETATM    5  C6  UNL     1     -32.198   5.334   2.305  1.00 20.00     0.016 C 
HETATM    6  C7  UNL     1     -31.197   8.157   2.767  1.00 20.00     0.016 C 
HETATM    7  C8  UNL     1     -32.398   8.916   0.700  1.00 20.00     0.016 C 
ENDROOT
BRANCH   1   8
HETATM    8  C1  UNL     1     -33.910   7.313   3.858  1.00 20.00     0.237 C 
HETATM    9  O9  UNL     1     -34.902   6.785   4.349  1.00 20.00    -0.306 OA
ENDBRANCH   1   8
TORSDOF 1
ENDMDL
MODEL 5
REMARK VINA RESULT:       1.7      2.106      3.417
REMARK  1 active torsions:
REMARK  status: ('A' for Active; 'I' for Inactive)
REMARK    1  A    between atoms: C1_1  and  C2_2 
ROOT
HETATM    1  C2  UNL     1     -33.766   6.269   1.200  1.00 20.00     0.064 A 
HETATM    2  C3  UNL     1     -32.392   6.481   1.816  1.00 20.00    -0.030 A 
HETATM    3  C4  UNL     1     -33.596   6.119   2.703  1.00 20.00    -0.030 A 
HETATM    4  C5  UNL     1     -31.852   7.895   1.839  1.00 20.00     0.016 C 
HETATM    5  C6  UNL     1     -31.295   5.463   1.594  1.00 20.00     0.016 C 
HETATM    6  C7  UNL     1     -33.664   4.749   3.343  1.00 20.00     0.016 C 
HETATM    7  C8  UNL     1     -34.215   7.184   3.583  1.00 20.00     0.016 C 
ENDROOT
BRANCH   1   8
HETATM    8  C1  UNL     1     -34.047   5.107   0.345  1.00 20.00     0.237 C 
HETATM    9  O9  UNL     1     -34.675   5.177  -0.706  1.00 20.00    -0.306 OA
ENDBRANCH   1   8
TORSDOF 1
ENDMDL
MODEL 6
REMARK VINA RESULT:       1.8      2.428      3.818
REMARK  1 active torsions:
REMARK  status: ('A' for Active; 'I' for Inactive)
REMARK    1  A    between atoms: C1_1  and  C2_2 
ROOT
HETATM    1  C2  UNL     1     -32.298   6.700   2.255  1.00 20.00     0.064 A 
HETATM    2  C3  UNL     1     -33.046   5.779   1.304  1.00 20.00    -0.030 A 
HETATM    3  C4  UNL     1     -33.473   5.889   2.779  1.00 20.00    -0.030 A 
HETATM    4  C5  UNL     1     -32.324   4.534   0.833  1.00 20.00     0.016 C 
HETATM    5  C6  UNL     1     -33.932   6.360   0.225  1.00 20.00     0.016 C 
HETATM    6  C7  UNL     1     -34.776   6.577   3.127  1.00 20.00     0.016 C 
HETATM    7  C8  UNL     1     -33.165   4.751   3.727  1.00 20.00     0.016 C 
ENDROOT
BRANCH   1   8
HETATM    8  C1  UNL     1     -32.379   8.161   2.123  1.00 20.00     0.237 C 
HETATM    9  O9  UNL     1     -31.994   8.773   1.132  1.00 20.00    -0.306 OA
ENDBRANCH   1   8
TORSDOF 1
ENDMDL
MODEL 7
REMARK VINA RESULT:       1.9      1.962      3.327
REMARK  1 active torsions:
REMARK  status: ('A' for Active; 'I' for Inactive)
REMARK    1  A    between atoms: C1_1  and  C2_2 
ROOT
HETATM    1  C2  UNL     1     -32.938   6.633   3.701  1.00 20.00     0.064 A 
HETATM    2  C3  UNL     1     -33.242   6.175   2.284  1.00 20.00    -0.030 A 
HETATM    3  C4  UNL     1     -34.145   5.743   3.452  1.00 20.00    -0.030 A 
HETATM    4  C5  UNL     1     -32.300   5.165   1.663  1.00 20.00     0.016 C 
HETATM    5  C6  UNL     1     -33.763   7.162   1.262  1.00 20.00     0.016 C 
HETATM    6  C7  UNL     1     -35.544   6.313   3.562  1.00 20.00     0.016 C 
HETATM    7  C8  UNL     1     -34.075   4.318   3.957  1.00 20.00     0.016 C 
ENDROOT
BRANCH   1   8
HETATM    8  C1  UNL     1     -33.096   8.039   4.099  1.00 20.00     0.237 C 
HETATM    9  O9  UNL     1     -33.226   8.403   5.263  1.00 20.00    -0.306 OA
ENDBRANCH   1   8
TORSDOF 1
ENDMDL
MODEL 8
REMARK VINA RESULT:       2.0      1.990      2.408
REMARK  1 active torsions:
REMARK  status: ('A' for Active; 'I' for Inactive)
REMARK    1  A    between atoms: C1_1  and  C2_2 
ROOT
HETATM    1  C2  UNL     1     -32.524   6.575   2.577  1.00 20.00     0.064 A 
HETATM    2  C3  UNL     1     -33.387   7.568   3.340  1.00 20.00    -0.030 A 
HETATM    3  C4  UNL     1     -32.339   8.064   2.328  1.00 20.00    -0.030 A 
HETATM    4  C5  UNL     1     -33.119   7.726   4.822  1.00 20.00     0.016 C 
HETATM    5  C6  UNL     1     -34.859   7.701   3.017  1.00 20.00     0.016 C 
HETATM    6  C7  UNL     1     -32.796   8.678   1.023  1.00 20.00     0.016 C 
HETATM    7  C8  UNL     1     -31.062   8.700   2.834  1.00 20.00     0.016 C 
ENDROOT
BRANCH   1   8
HETATM    8  C1  UNL     1     -33.100   5.696   1.550  1.00 20.00     0.237 C 
HETATM    9  O9  UNL     1     -32.428   4.963   0.833  1.00 20.00    -0.306 OA
ENDBRANCH   1   8
TORSDOF 1
ENDMDL
MODEL 9
REMARK VINA RESULT:       2.1      0.659      2.731
REMARK  1 active torsions:
REMARK  status: ('A' for Active; 'I' for Inactive)
REMARK    1  A    between atoms: C1_1  and  C2_2 
ROOT
HETATM    1  C2  UNL     1     -33.999   4.955   3.221  1.00 20.00     0.064 A 
HETATM    2  C3  UNL     1     -33.472   5.881   2.136  1.00 20.00    -0.030 A 
HETATM    3  C4  UNL     1     -34.241   6.452   3.340  1.00 20.00    -0.030 A 
HETATM    4  C5  UNL     1     -34.150   5.821   0.783  1.00 20.00     0.016 C 
HETATM    5  C6  UNL     1     -31.986   6.134   2.010  1.00 20.00     0.016 C 
HETATM    6  C7  UNL     1     -33.498   7.261   4.381  1.00 20.00     0.016 C 
HETATM    7  C8  UNL     1     -35.659   6.945   3.148  1.00 20.00     0.016 C 
ENDROOT
BRANCH   1   8
HETATM    8  C1  UNL     1     -33.086   4.256   4.136  1.00 20.00     0.237 C 
HETATM    9  O9  UNL     1     -33.347   3.179   4.660  1.00 20.00    -0.306 OA
ENDBRANCH   1   8
TORSDOF 1
ENDMDL
