MODEL 1
REMARK VINA RESULT:      -2.7      0.000      0.000
REMARK  2 active torsions:
REMARK  status: ('A' for Active; 'I' for Inactive)
REMARK    1  A    between atoms: C1_1  and  C3_3 
REMARK    2  A    between atoms: C1_1  and  O7_7 
ROOT
HETATM    1  C2  UNL     1     -33.851   7.605   4.138  1.00 20.00     0.055 A 
HETATM    2  C3  UNL     1     -33.977   7.176   2.713  1.00 20.00     0.122 A 
HETATM    3  C4  UNL     1     -34.486   6.296   3.793  1.00 20.00     0.184 A 
HETATM    4  F8  UNL     1     -35.860   6.200   3.919  1.00 20.00    -0.248 F 
ENDROOT
BRANCH   2   5
HETATM    5  C1  UNL     1     -32.734   6.762   1.986  1.00 20.00     0.265 C 
HETATM    6  O6  UNL     1     -32.557   5.648   1.513  1.00 20.00    -0.265 OA
BRANCH   5   7
HETATM    7  O7  UNL     1     -31.860   7.808   1.943  1.00 20.00    -0.326 OA
HETATM    8  C5  UNL     1     -32.183   8.840   1.006  1.00 20.00     0.213 C 
ENDBRANCH   5   7
ENDBRANCH   2   5
TORSDOF 2
ENDMDL
MODEL 2
REMARK VINA RESULT:      -2.2      1.195      1.409
REMARK  2 active torsions:
REMARK  status: ('A' for Active; 'I' for Inactive)
REMARK    1  A    between atoms: C1_1  and  C3_3 
REMARK    2  A    between atoms: C1_1  and  O7_7 
ROOT
HETATM    1  C2  UNL     1     -34.818   6.577   3.633  1.00 20.00     0.055 A 
HETATM    2  C3  UNL     1     -33.336   6.662   3.476  1.00 20.00     0.122 A 
HETATM    3  C4  UNL     1     -34.088   7.828   4.002  1.00 20.00     0.184 A 
HETATM    4  F8  UNL     1     -33.937   8.106   5.349  1.00 20.00    -0.248 F 
ENDROOT
BRANCH   2   5
HETATM    5  C1  UNL     1     -32.774   6.746   2.089  1.00 20.00     0.265 C 
HETATM    6  O6  UNL     1     -33.026   5.946   1.199  1.00 20.00    -0.265 OA
BRANCH   5   7
HETATM    7  O7  UNL     1     -31.959   7.835   1.992  1.00 20.00    -0.326 OA
HETATM    8  C5  UNL     1     -32.282   8.754   0.945  1.00 20.00     0.213 C 
ENDBRANCH   5   7
ENDBRANCH   2   5
TORSDOF 2
ENDMDL
MODEL 3
REMARK VINA RESULT:      -2.1      0.806      1.747
REMARK  2 active torsions:
REMARK  status: ('A' for Active; 'I' for Inactive)
REMARK    1  A    between atoms: C1_1  and  C3_3 
REMARK    2  A    between atoms: C1_1  and  O7_7 
ROOT
HETATM    1  C2  UNL     1     -33.918   7.608   4.434  1.00 20.00     0.055 A 
HETATM    2  C3  UNL     1     -34.082   7.451   2.959  1.00 20.00     0.122 A 
HETATM    3  C4  UNL     1     -34.513   6.360   3.866  1.00 20.00     0.184 A 
HETATM    4  F8  UNL     1     -35.877   6.178   4.012  1.00 20.00    -0.248 F 
ENDROOT
BRANCH   2   5
HETATM    5  C1  UNL     1     -32.852   7.239   2.128  1.00 20.00     0.265 C 
HETATM    6  O6  UNL     1     -31.909   8.018   2.090  1.00 20.00    -0.265 OA
BRANCH   5   7
HETATM    7  O7  UNL     1     -32.961   6.066   1.443  1.00 20.00    -0.326 OA
HETATM    8  C5  UNL     1     -31.771   5.273   1.389  1.00 20.00     0.213 C 
ENDBRANCH   5   7
ENDBRANCH   2   5
TORSDOF 2
ENDMDL
MODEL 4
REMARK VINA RESULT:      -2.0      2.609      3.871
REMARK  2 active torsions:
REMARK  status: ('A' for Active; 'I' for Inactive)
REMARK    1  A    between atoms: C1_1  and  C3_3 
REMARK    2  A    between atoms: C1_1  and  O7_7 
ROOT
HETATM    1  C2  UNL     1     -32.295   6.299   1.553  1.00 20.00     0.055 A 
HETATM    2  C3  UNL     1     -33.341   7.223   2.082  1.00 20.00     0.122 A 
HETATM    3  C4  UNL     1     -31.949   7.707   1.920  1.00 20.00     0.184 A 
HETATM    4  F8  UNL     1     -31.718   8.598   0.887  1.00 20.00    -0.248 F 
ENDROOT
BRANCH   2   5
HETATM    5  C1  UNL     1     -33.855   6.990   3.470  1.00 20.00     0.265 C 
HETATM    6  O6  UNL     1     -33.960   7.866   4.318  1.00 20.00    -0.265 OA
BRANCH   5   7
HETATM    7  O7  UNL     1     -34.177   5.674   3.623  1.00 20.00    -0.326 OA
HETATM    8  C5  UNL     1     -35.365   5.415   4.377  1.00 20.00     0.213 C 
ENDBRANCH   5   7
ENDBRANCH   2   5
TORSDOF 2
ENDMDL
MODEL 5
REMARK VINA RESULT:      -2.0      1.732      2.337
REMARK  2 active torsions:
REMARK  status: ('A' for Active; 'I' for Inactive)
REMARK    1  A    between atoms: C1_1  and  C3_3 
REMARK    2  A    between atoms: C1_1  and  O7_7 
ROOT
HETATM    1  C2  UNL     1     -35.499   5.928   4.052  1.00 20.00     0.055 A 
HETATM    2  C3  UNL     1     -34.221   6.199   3.328  1.00 20.00     0.122 A 
HETATM    3  C4  UNL     1     -34.271   5.131   4.356  1.00 20.00     0.184 A 
HETATM    4  F8  UNL     1     -34.226   3.826   3.898  1.00 20.00    -0.248 F 
ENDROOT
BRANCH   2   5
HETATM    5  C1  UNL     1     -33.479   7.460   3.649  1.00 20.00     0.265 C 
HETATM    6  O6  UNL     1     -33.546   8.039   4.725  1.00 20.00    -0.265 OA
BRANCH   5   7
HETATM    7  O7  UNL     1     -32.738   7.841   2.570  1.00 20.00    -0.326 OA
HETATM    8  C5  UNL     1     -32.326   6.781   1.702  1.00 20.00     0.213 C 
ENDBRANCH   5   7
ENDBRANCH   2   5
TORSDOF 2
ENDMDL
MODEL 6
REMARK VINA RESULT:      -1.9      2.504      3.519
REMARK  2 active torsions:
REMARK  status: ('A' for Active; 'I' for Inactive)
REMARK    1  A    between atoms: C1_1  and  C3_3 
REMARK    2  A    between atoms: C1_1  and  O7_7 
ROOT
HETATM    1  C2  UNL     1     -31.376   8.559   2.274  1.00 20.00     0.055 A 
HETATM    2  C3  UNL     1     -31.979   7.447   1.482  1.00 20.00     0.122 A 
HETATM    3  C4  UNL     1     -32.388   8.847   1.212  1.00 20.00     0.184 A 
HETATM    4  F8  UNL     1     -31.933   9.408   0.032  1.00 20.00    -0.248 F 
ENDROOT
BRANCH   2   5
HETATM    5  C1  UNL     1     -32.958   6.541   2.166  1.00 20.00     0.265 C 
HETATM    6  O6  UNL     1     -33.182   5.389   1.819  1.00 20.00    -0.265 OA
BRANCH   5   7
HETATM    7  O7  UNL     1     -33.537   7.199   3.210  1.00 20.00    -0.326 OA
HETATM    8  C5  UNL     1     -34.690   6.566   3.773  1.00 20.00     0.213 C 
ENDBRANCH   5   7
ENDBRANCH   2   5
TORSDOF 2
ENDMDL
MODEL 7
REMARK VINA RESULT:      -1.9      2.895      3.908
REMARK  2 active torsions:
REMARK  status: ('A' for Active; 'I' for Inactive)
REMARK    1  A    between atoms: C1_1  and  C3_3 
REMARK    2  A    between atoms: C1_1  and  O7_7 
ROOT
HETATM    1  C2  UNL     1     -33.050   7.279   2.745  1.00 20.00     0.055 A 
HETATM    2  C3  UNL     1     -33.406   5.945   3.310  1.00 20.00     0.122 A 
HETATM    3  C4  UNL     1     -33.206   6.093   1.848  1.00 20.00     0.184 A 
HETATM    4  F8  UNL     1     -32.056   5.535   1.320  1.00 20.00    -0.248 F 
ENDROOT
BRANCH   2   5
HETATM    5  C1  UNL     1     -34.801   5.741   3.820  1.00 20.00     0.265 C 
HETATM    6  O6  UNL     1     -35.697   6.567   3.711  1.00 20.00    -0.265 OA
BRANCH   5   7
HETATM    7  O7  UNL     1     -34.898   4.515   4.407  1.00 20.00    -0.326 OA
HETATM    8  C5  UNL     1     -33.730   3.694   4.313  1.00 20.00     0.213 C 
ENDBRANCH   5   7
ENDBRANCH   2   5
TORSDOF 2
ENDMDL
MODEL 8
REMARK VINA RESULT:      -1.9      2.338      3.605
REMARK  2 active torsions:
REMARK  status: ('A' for Active; 'I' for Inactive)
REMARK    1  A    between atoms: C1_1  and  C3_3 
REMARK    2  A    between atoms: C1_1  and  O7_7 
ROOT
HETATM    1  C2  UNL     1     -35.449   6.855   3.464  1.00 20.00     0.055 A 
HETATM    2  C3  UNL     1     -34.569   5.951   4.261  1.00 20.00     0.122 A 
HETATM    3  C4  UNL     1     -34.123   7.333   3.962  1.00 20.00     0.184 A 
HETATM    4  F8  UNL     1     -34.120   8.227   5.018  1.00 20.00    -0.248 F 
ENDROOT
BRANCH   2   5
HETATM    5  C1  UNL     1     -33.892   4.817   3.553  1.00 20.00     0.265 C 
HETATM    6  O6  UNL     1     -33.199   4.949   2.554  1.00 20.00    -0.265 OA
BRANCH   5   7
HETATM    7  O7  UNL     1     -34.171   3.646   4.194  1.00 20.00    -0.326 OA
HETATM    8  C5  UNL     1     -33.043   2.966   4.753  1.00 20.00     0.213 C 
ENDBRANCH   5   7
ENDBRANCH   2   5
TORSDOF 2
ENDMDL
MODEL 9
REMARK VINA RESULT:      -1.9      1.460      2.286
REMARK  2 active torsions:
REMARK  status: ('A' for Active; 'I' for Inactive)
REMARK    1  A    between atoms: C1_1  and  C3_3 
REMARK    2  A    between atoms: C1_1  and  O7_7 
ROOT
HETATM    1  C2  UNL     1     -34.720   6.648   3.685  1.00 20.00     0.055 A 
HETATM    2  C3  UNL     1     -33.258   6.853   3.470  1.00 20.00     0.122 A 
HETATM    3  C4  UNL     1     -34.071   7.938   4.071  1.00 20.00     0.184 A 
HETATM    4  F8  UNL     1     -33.881   8.180   5.420  1.00 20.00    -0.248 F 
ENDROOT
BRANCH   2   5
HETATM    5  C1  UNL     1     -32.766   7.029   2.065  1.00 20.00     0.265 C 
HETATM    6  O6  UNL     1     -32.194   8.031   1.660  1.00 20.00    -0.265 OA
BRANCH   5   7
HETATM    7  O7  UNL     1     -33.057   5.913   1.337  1.00 20.00    -0.326 OA
HETATM    8  C5  UNL     1     -31.947   5.054   1.059  1.00 20.00     0.213 C 
ENDBRANCH   5   7
ENDBRANCH   2   5
TORSDOF 2
ENDMDL
