MODEL 1
REMARK VINA RESULT:      -0.9      0.000      0.000
REMARK  2 active torsions:
REMARK  status: ('A' for Active; 'I' for Inactive)
REMARK    1  A    between atoms: C1_1  and  C4_4 
REMARK    2  A    between atoms: C4_4  and  C5_5 
ROOT
HETATM    1  C4  UNL     1     -33.813   6.545   1.969  1.00 20.00     0.137 C 
ENDROOT
BRANCH   1   2
HETATM    2  C1  UNL     1     -32.310   6.602   1.673  1.00 20.00     0.174 C 
HETATM    3  O6  UNL     1     -31.802   7.757   1.702  1.00 20.00    -0.648 OA
HETATM    4  O7  UNL     1     -31.772   5.488   1.415  1.00 20.00    -0.648 OA
ENDBRANCH   1   2
BRANCH   1   5
HETATM    5  C5  UNL     1     -34.173   6.379   3.455  1.00 20.00     0.039 C 
HETATM    6  C2  UNL     1     -33.442   7.393   4.340  1.00 20.00     0.032 C 
HETATM    7  C3  UNL     1     -35.685   6.464   3.693  1.00 20.00     0.032 C 
HETATM    8 CL8  UNL     1     -33.636   4.728   3.958  1.00 20.00    -0.119 Cl
ENDBRANCH   1   5
TORSDOF 2
ENDMDL
MODEL 2
REMARK VINA RESULT:      -0.9      2.448      3.372
REMARK  2 active torsions:
REMARK  status: ('A' for Active; 'I' for Inactive)
REMARK    1  A    between atoms: C1_1  and  C4_4 
REMARK    2  A    between atoms: C4_4  and  C5_5 
ROOT
HETATM    1  C4  UNL     1     -33.398   5.749   3.110  1.00 20.00     0.137 C 
ENDROOT
BRANCH   1   2
HETATM    2  C1  UNL     1     -34.422   6.702   3.736  1.00 20.00     0.174 C 
HETATM    3  O6  UNL     1     -33.938   7.765   4.219  1.00 20.00    -0.648 OA
HETATM    4  O7  UNL     1     -35.618   6.298   3.711  1.00 20.00    -0.648 OA
ENDBRANCH   1   2
BRANCH   1   5
HETATM    5  C5  UNL     1     -32.833   6.206   1.755  1.00 20.00     0.039 C 
HETATM    6  C2  UNL     1     -33.893   6.176   0.650  1.00 20.00     0.032 C 
HETATM    7  C3  UNL     1     -32.196   7.597   1.838  1.00 20.00     0.032 C 
HETATM    8 CL8  UNL     1     -31.531   5.039   1.294  1.00 20.00    -0.119 Cl
ENDBRANCH   1   5
TORSDOF 2
ENDMDL
MODEL 3
REMARK VINA RESULT:      -0.8      2.582      3.388
REMARK  2 active torsions:
REMARK  status: ('A' for Active; 'I' for Inactive)
REMARK    1  A    between atoms: C1_1  and  C4_4 
REMARK    2  A    between atoms: C4_4  and  C5_5 
ROOT
HETATM    1  C4  UNL     1     -33.397   5.732   3.149  1.00 20.00     0.137 C 
ENDROOT
BRANCH   1   2
HETATM    2  C1  UNL     1     -34.436   6.701   3.724  1.00 20.00     0.174 C 
HETATM    3  O6  UNL     1     -33.972   7.803   4.133  1.00 20.00    -0.648 OA
HETATM    4  O7  UNL     1     -35.623   6.269   3.738  1.00 20.00    -0.648 OA
ENDBRANCH   1   2
BRANCH   1   5
HETATM    5  C5  UNL     1     -32.858   6.112   1.760  1.00 20.00     0.039 C 
HETATM    6  C2  UNL     1     -31.751   5.161   1.293  1.00 20.00     0.032 C 
HETATM    7  C3  UNL     1     -33.971   6.181   0.710  1.00 20.00     0.032 C 
HETATM    8 CL8  UNL     1     -32.136   7.764   1.897  1.00 20.00    -0.119 Cl
ENDBRANCH   1   5
TORSDOF 2
ENDMDL
MODEL 4
REMARK VINA RESULT:      -0.8      1.173      1.625
REMARK  2 active torsions:
REMARK  status: ('A' for Active; 'I' for Inactive)
REMARK    1  A    between atoms: C1_1  and  C4_4 
REMARK    2  A    between atoms: C4_4  and  C5_5 
ROOT
HETATM    1  C4  UNL     1     -33.801   6.573   1.985  1.00 20.00     0.137 C 
ENDROOT
BRANCH   1   2
HETATM    2  C1  UNL     1     -32.301   6.614   1.675  1.00 20.00     0.174 C 
HETATM    3  O6  UNL     1     -31.771   7.759   1.740  1.00 20.00    -0.648 OA
HETATM    4  O7  UNL     1     -31.785   5.502   1.372  1.00 20.00    -0.648 OA
ENDBRANCH   1   2
BRANCH   1   5
HETATM    5  C5  UNL     1     -34.150   6.309   3.459  1.00 20.00     0.039 C 
HETATM    6  C2  UNL     1     -35.652   6.443   3.727  1.00 20.00     0.032 C 
HETATM    7  C3  UNL     1     -33.649   4.941   3.933  1.00 20.00     0.032 C 
HETATM    8 CL8  UNL     1     -33.306   7.568   4.445  1.00 20.00    -0.119 Cl
ENDBRANCH   1   5
TORSDOF 2
ENDMDL
MODEL 5
REMARK VINA RESULT:      -0.8      2.513      3.389
REMARK  2 active torsions:
REMARK  status: ('A' for Active; 'I' for Inactive)
REMARK    1  A    between atoms: C1_1  and  C4_4 
REMARK    2  A    between atoms: C4_4  and  C5_5 
ROOT
HETATM    1  C4  UNL     1     -33.459   5.683   3.077  1.00 20.00     0.137 C 
ENDROOT
BRANCH   1   2
HETATM    2  C1  UNL     1     -34.425   6.696   3.701  1.00 20.00     0.174 C 
HETATM    3  O6  UNL     1     -33.878   7.710   4.219  1.00 20.00    -0.648 OA
HETATM    4  O7  UNL     1     -35.647   6.381   3.638  1.00 20.00    -0.648 OA
ENDBRANCH   1   2
BRANCH   1   5
HETATM    5  C5  UNL     1     -32.823   6.129   1.750  1.00 20.00     0.039 C 
HETATM    6  C2  UNL     1     -32.284   7.561   1.823  1.00 20.00     0.032 C 
HETATM    7  C3  UNL     1     -31.718   5.172   1.292  1.00 20.00     0.032 C 
HETATM    8 CL8  UNL     1     -34.123   6.099   0.494  1.00 20.00    -0.119 Cl
ENDBRANCH   1   5
TORSDOF 2
ENDMDL
MODEL 6
REMARK VINA RESULT:      -0.7      1.171      1.985
REMARK  2 active torsions:
REMARK  status: ('A' for Active; 'I' for Inactive)
REMARK    1  A    between atoms: C1_1  and  C4_4 
REMARK    2  A    between atoms: C4_4  and  C5_5 
ROOT
HETATM    1  C4  UNL     1     -33.804   6.556   1.980  1.00 20.00     0.137 C 
ENDROOT
BRANCH   1   2
HETATM    2  C1  UNL     1     -32.305   6.612   1.668  1.00 20.00     0.174 C 
HETATM    3  O6  UNL     1     -31.774   5.501   1.389  1.00 20.00    -0.648 OA
HETATM    4  O7  UNL     1     -31.782   7.759   1.750  1.00 20.00    -0.648 OA
ENDBRANCH   1   2
BRANCH   1   5
HETATM    5  C5  UNL     1     -34.147   6.301   3.457  1.00 20.00     0.039 C 
HETATM    6  C2  UNL     1     -35.648   6.442   3.731  1.00 20.00     0.032 C 
HETATM    7  C3  UNL     1     -33.650   4.932   3.935  1.00 20.00     0.032 C 
HETATM    8 CL8  UNL     1     -33.293   7.560   4.433  1.00 20.00    -0.119 Cl
ENDBRANCH   1   5
TORSDOF 2
ENDMDL
MODEL 7
REMARK VINA RESULT:      -0.7      1.192      1.607
REMARK  2 active torsions:
REMARK  status: ('A' for Active; 'I' for Inactive)
REMARK    1  A    between atoms: C1_1  and  C4_4 
REMARK    2  A    between atoms: C4_4  and  C5_5 
ROOT
HETATM    1  C4  UNL     1     -33.782   6.625   1.936  1.00 20.00     0.137 C 
ENDROOT
BRANCH   1   2
HETATM    2  C1  UNL     1     -32.271   6.632   1.679  1.00 20.00     0.174 C 
HETATM    3  O6  UNL     1     -31.722   7.767   1.741  1.00 20.00    -0.648 OA
HETATM    4  O7  UNL     1     -31.767   5.504   1.415  1.00 20.00    -0.648 OA
ENDBRANCH   1   2
BRANCH   1   5
HETATM    5  C5  UNL     1     -34.187   6.408   3.403  1.00 20.00     0.039 C 
HETATM    6  C2  UNL     1     -33.786   5.018   3.910  1.00 20.00     0.032 C 
HETATM    7  C3  UNL     1     -33.616   7.491   4.325  1.00 20.00     0.032 C 
HETATM    8 CL8  UNL     1     -35.990   6.519   3.486  1.00 20.00    -0.119 Cl
ENDBRANCH   1   5
TORSDOF 2
ENDMDL
MODEL 8
REMARK VINA RESULT:      -0.5      2.960      3.753
REMARK  2 active torsions:
REMARK  status: ('A' for Active; 'I' for Inactive)
REMARK    1  A    between atoms: C1_1  and  C4_4 
REMARK    2  A    between atoms: C4_4  and  C5_5 
ROOT
HETATM    1  C4  UNL     1     -33.764   8.062   2.544  1.00 20.00     0.137 C 
ENDROOT
BRANCH   1   2
HETATM    2  C1  UNL     1     -33.972   7.271   3.840  1.00 20.00     0.174 C 
HETATM    3  O6  UNL     1     -34.352   6.077   3.683  1.00 20.00    -0.648 OA
HETATM    4  O7  UNL     1     -33.759   7.918   4.904  1.00 20.00    -0.648 OA
ENDBRANCH   1   2
BRANCH   1   5
HETATM    5  C5  UNL     1     -32.350   7.967   1.948  1.00 20.00     0.039 C 
HETATM    6  C2  UNL     1     -31.273   8.389   2.953  1.00 20.00     0.032 C 
HETATM    7  C3  UNL     1     -32.047   6.565   1.407  1.00 20.00     0.032 C 
HETATM    8 CL8  UNL     1     -32.275   9.115   0.554  1.00 20.00    -0.119 Cl
ENDBRANCH   1   5
TORSDOF 2
ENDMDL
MODEL 9
REMARK VINA RESULT:      -0.4      2.591      3.620
REMARK  2 active torsions:
REMARK  status: ('A' for Active; 'I' for Inactive)
REMARK    1  A    between atoms: C1_1  and  C4_4 
REMARK    2  A    between atoms: C4_4  and  C5_5 
ROOT
HETATM    1  C4  UNL     1     -33.751   7.985   2.460  1.00 20.00     0.137 C 
ENDROOT
BRANCH   1   2
HETATM    2  C1  UNL     1     -33.965   7.214   3.767  1.00 20.00     0.174 C 
HETATM    3  O6  UNL     1     -34.239   5.989   3.629  1.00 20.00    -0.648 OA
HETATM    4  O7  UNL     1     -33.862   7.905   4.820  1.00 20.00    -0.648 OA
ENDBRANCH   1   2
BRANCH   1   5
HETATM    5  C5  UNL     1     -32.310   7.963   1.925  1.00 20.00     0.039 C 
HETATM    6  C2  UNL     1     -32.140   8.859   0.694  1.00 20.00     0.032 C 
HETATM    7  C3  UNL     1     -31.291   8.348   3.002  1.00 20.00     0.032 C 
HETATM    8 CL8  UNL     1     -31.949   6.266   1.417  1.00 20.00    -0.119 Cl
ENDBRANCH   1   5
TORSDOF 2
ENDMDL
