MODEL 1
REMARK VINA RESULT:      -0.7      0.000      0.000
REMARK  0 active torsions:
REMARK  status: ('A' for Active; 'I' for Inactive)
ROOT
HETATM    1  C1  UNL     1     -32.217   8.972   0.898  1.00 20.00     0.064 C 
HETATM    2  C2  UNL     1     -31.861   6.592   1.524  1.00 20.00     0.030 C 
HETATM    3  C3  UNL     1     -33.328   6.237   1.728  1.00 20.00     0.075 C 
HETATM    4  C4  UNL     1     -32.371   8.225   3.265  1.00 20.00     0.093 C 
HETATM    5  C5  UNL     1     -31.672   8.056   1.918  1.00 20.00     0.103 C 
HETATM    6  N6  UNL     1     -32.644   9.693   0.095  1.00 20.00    -0.197 NA
HETATM    7  S7  UNL     1     -33.833   7.143   3.215  1.00 20.00    -0.168 SA
ENDROOT
TORSDOF 0
ENDMDL
MODEL 2
REMARK VINA RESULT:       0.2      3.126      3.810
REMARK  0 active torsions:
REMARK  status: ('A' for Active; 'I' for Inactive)
ROOT
HETATM    1  C1  UNL     1     -33.613   7.666   4.305  1.00 20.00     0.064 C 
HETATM    2  C2  UNL     1     -35.615   6.294   3.765  1.00 20.00     0.030 C 
HETATM    3  C3  UNL     1     -35.261   5.103   4.645  1.00 20.00     0.075 C 
HETATM    4  C4  UNL     1     -33.469   5.738   2.742  1.00 20.00     0.093 C 
HETATM    5  C5  UNL     1     -34.311   6.904   3.253  1.00 20.00     0.103 C 
HETATM    6  N6  UNL     1     -33.064   8.266   5.133  1.00 20.00    -0.197 NA
HETATM    7  S7  UNL     1     -33.821   4.338   3.851  1.00 20.00    -0.168 SA
ENDROOT
TORSDOF 0
ENDMDL
MODEL 3
REMARK VINA RESULT:       0.4      3.532      4.375
REMARK  0 active torsions:
REMARK  status: ('A' for Active; 'I' for Inactive)
ROOT
HETATM    1  C1  UNL     1     -33.879   4.260   4.050  1.00 20.00     0.064 C 
HETATM    2  C2  UNL     1     -33.594   5.970   2.268  1.00 20.00     0.030 C 
HETATM    3  C3  UNL     1     -32.828   6.983   3.109  1.00 20.00     0.075 C 
HETATM    4  C4  UNL     1     -35.276   6.317   4.003  1.00 20.00     0.093 C 
HETATM    5  C5  UNL     1     -34.569   5.237   3.187  1.00 20.00     0.103 C 
HETATM    6  N6  UNL     1     -33.337   3.491   4.729  1.00 20.00    -0.197 NA
HETATM    7  S7  UNL     1     -34.034   7.611   4.308  1.00 20.00    -0.168 SA
ENDROOT
TORSDOF 0
ENDMDL
MODEL 4
REMARK VINA RESULT:       1.2      2.884      3.693
REMARK  0 active torsions:
REMARK  status: ('A' for Active; 'I' for Inactive)
ROOT
HETATM    1  C1  UNL     1     -35.560   6.587   3.438  1.00 20.00     0.064 C 
HETATM    2  C2  UNL     1     -33.297   7.574   3.734  1.00 20.00     0.030 C 
HETATM    3  C3  UNL     1     -32.936   7.646   2.257  1.00 20.00     0.075 C 
HETATM    4  C4  UNL     1     -33.509   5.199   3.213  1.00 20.00     0.093 C 
HETATM    5  C5  UNL     1     -34.193   6.354   3.940  1.00 20.00     0.103 C 
HETATM    6  N6  UNL     1     -36.635   6.770   3.043  1.00 20.00    -0.197 NA
HETATM    7  S7  UNL     1     -32.736   5.922   1.733  1.00 20.00    -0.168 SA
ENDROOT
TORSDOF 0
ENDMDL
MODEL 5
REMARK VINA RESULT:       1.5      2.187      2.931
REMARK  0 active torsions:
REMARK  status: ('A' for Active; 'I' for Inactive)
ROOT
HETATM    1  C1  UNL     1     -32.203   5.684   1.533  1.00 20.00     0.064 C 
HETATM    2  C2  UNL     1     -32.521   8.150   1.534  1.00 20.00     0.030 C 
HETATM    3  C3  UNL     1     -31.884   8.415   2.891  1.00 20.00     0.075 C 
HETATM    4  C4  UNL     1     -33.997   6.751   2.884  1.00 20.00     0.093 C 
HETATM    5  C5  UNL     1     -33.191   6.777   1.588  1.00 20.00     0.103 C 
HETATM    6  N6  UNL     1     -31.425   4.823   1.490  1.00 20.00    -0.197 NA
HETATM    7  S7  UNL     1     -33.029   7.697   4.100  1.00 20.00    -0.168 SA
ENDROOT
TORSDOF 0
ENDMDL
MODEL 6
REMARK VINA RESULT:       1.7      1.989      2.669
REMARK  0 active torsions:
REMARK  status: ('A' for Active; 'I' for Inactive)
ROOT
HETATM    1  C1  UNL     1     -32.256   7.738   2.313  1.00 20.00     0.064 C 
HETATM    2  C2  UNL     1     -34.627   7.178   2.811  1.00 20.00     0.030 C 
HETATM    3  C3  UNL     1     -34.360   6.369   4.074  1.00 20.00     0.075 C 
HETATM    4  C4  UNL     1     -33.174   5.478   1.831  1.00 20.00     0.093 C 
HETATM    5  C5  UNL     1     -33.441   6.981   1.868  1.00 20.00     0.103 C 
HETATM    6  N6  UNL     1     -31.323   8.334   2.663  1.00 20.00    -0.197 NA
HETATM    7  S7  UNL     1     -33.531   4.861   3.505  1.00 20.00    -0.168 SA
ENDROOT
TORSDOF 0
ENDMDL
MODEL 7
REMARK VINA RESULT:       2.0      2.405      3.129
REMARK  0 active torsions:
REMARK  status: ('A' for Active; 'I' for Inactive)
ROOT
HETATM    1  C1  UNL     1     -32.379   6.546   1.463  1.00 20.00     0.064 C 
HETATM    2  C2  UNL     1     -31.974   8.725   2.591  1.00 20.00     0.030 C 
HETATM    3  C3  UNL     1     -33.074   9.503   1.881  1.00 20.00     0.075 C 
HETATM    4  C4  UNL     1     -31.200   8.399   0.298  1.00 20.00     0.093 C 
HETATM    5  C5  UNL     1     -31.440   7.673   1.619  1.00 20.00     0.103 C 
HETATM    6  N6  UNL     1     -33.117   5.659   1.341  1.00 20.00    -0.197 NA
HETATM    7  S7  UNL     1     -32.520   9.645   0.161  1.00 20.00    -0.168 SA
ENDROOT
TORSDOF 0
ENDMDL
MODEL 8
REMARK VINA RESULT:       2.0      2.165      2.777
REMARK  0 active torsions:
REMARK  status: ('A' for Active; 'I' for Inactive)
ROOT
HETATM    1  C1  UNL     1     -33.477   5.676   0.953  1.00 20.00     0.064 C 
HETATM    2  C2  UNL     1     -33.434   5.043   3.357  1.00 20.00     0.030 C 
HETATM    3  C3  UNL     1     -34.673   5.825   3.772  1.00 20.00     0.075 C 
HETATM    4  C4  UNL     1     -32.677   7.266   2.689  1.00 20.00     0.093 C 
HETATM    5  C5  UNL     1     -32.749   5.812   2.228  1.00 20.00     0.103 C 
HETATM    6  N6  UNL     1     -34.049   5.568  -0.051  1.00 20.00    -0.197 NA
HETATM    7  S7  UNL     1     -34.200   7.570   3.639  1.00 20.00    -0.168 SA
ENDROOT
TORSDOF 0
ENDMDL
MODEL 9
REMARK VINA RESULT:       2.2      2.515      3.009
REMARK  0 active torsions:
REMARK  status: ('A' for Active; 'I' for Inactive)
ROOT
HETATM    1  C1  UNL     1     -33.711   7.565   3.724  1.00 20.00     0.064 C 
HETATM    2  C2  UNL     1     -33.345   6.067   1.773  1.00 20.00     0.030 C 
HETATM    3  C3  UNL     1     -31.829   5.981   1.894  1.00 20.00     0.075 C 
HETATM    4  C4  UNL     1     -32.848   8.448   1.566  1.00 20.00     0.093 C 
HETATM    5  C5  UNL     1     -33.776   7.452   2.255  1.00 20.00     0.103 C 
HETATM    6  N6  UNL     1     -33.660   7.654   4.880  1.00 20.00    -0.197 NA
HETATM    7  S7  UNL     1     -31.224   7.633   1.459  1.00 20.00    -0.168 SA
ENDROOT
TORSDOF 0
ENDMDL
