MODEL 1
REMARK VINA RESULT:      -0.4      0.000      0.000
REMARK  2 active torsions:
REMARK  status: ('A' for Active; 'I' for Inactive)
REMARK    1  A    between atoms: C8_8  and  C9_9 
REMARK    2  A    between atoms: C8_8  and  N10_10 
ROOT
HETATM    1  C1  UNL     1     -33.748   5.488   2.849  1.00 20.00     0.039 C 
HETATM    2  C2  UNL     1     -34.061   7.503   4.339  1.00 20.00     0.039 C 
HETATM    3  C3  UNL     1     -33.023   6.353   1.806  1.00 20.00     0.273 C 
HETATM    4  C4  UNL     1     -32.723   7.873   3.678  1.00 20.00     0.273 C 
HETATM    5  C5  UNL     1     -34.765   6.281   3.693  1.00 20.00    -0.044 C 
HETATM    6  C6  UNL     1     -35.939   6.752   2.809  1.00 20.00     0.015 C 
HETATM    7  C7  UNL     1     -35.338   5.370   4.792  1.00 20.00     0.015 C 
HETATM    8  N10 UNL     1     -32.817   7.745   2.228  1.00 20.00     0.089 N 
ENDROOT
BRANCH   8   9
HETATM    9  C8  UNL     1     -31.666   8.336   1.553  1.00 20.00     0.287 C 
BRANCH   9  10
HETATM   10  C9  UNL     1     -32.056   9.111   0.303  1.00 20.00     0.144 C 
HETATM   11 CL11 UNL     1     -32.835  10.657   0.717  1.00 20.00    -0.129 Cl
ENDBRANCH   9  10
ENDBRANCH   8   9
TORSDOF 2
ENDMDL
MODEL 2
REMARK VINA RESULT:       0.3      3.052      4.753
REMARK  2 active torsions:
REMARK  status: ('A' for Active; 'I' for Inactive)
REMARK    1  A    between atoms: C8_8  and  C9_9 
REMARK    2  A    between atoms: C8_8  and  N10_10 
ROOT
HETATM    1  C1  UNL     1     -33.066   6.643   1.163  1.00 20.00     0.039 C 
HETATM    2  C2  UNL     1     -33.384   8.205   3.122  1.00 20.00     0.039 C 
HETATM    3  C3  UNL     1     -33.247   5.427   2.084  1.00 20.00     0.273 C 
HETATM    4  C4  UNL     1     -34.294   7.048   3.562  1.00 20.00     0.273 C 
HETATM    5  C5  UNL     1     -32.497   7.876   1.893  1.00 20.00    -0.044 C 
HETATM    6  C6  UNL     1     -31.046   7.607   2.342  1.00 20.00     0.015 C 
HETATM    7  C7  UNL     1     -32.478   9.075   0.929  1.00 20.00     0.015 C 
HETATM    8  N10 UNL     1     -33.584   5.776   3.472  1.00 20.00     0.089 N 
ENDROOT
BRANCH   8   9
HETATM    9  C8  UNL     1     -34.316   4.695   4.125  1.00 20.00     0.287 C 
BRANCH   9  10
HETATM   10  C9  UNL     1     -33.592   3.361   4.032  1.00 20.00     0.144 C 
HETATM   11 CL11 UNL     1     -32.751   2.973   5.552  1.00 20.00    -0.129 Cl
ENDBRANCH   9  10
ENDBRANCH   8   9
TORSDOF 2
ENDMDL
MODEL 3
REMARK VINA RESULT:       1.4      2.443      4.712
REMARK  2 active torsions:
REMARK  status: ('A' for Active; 'I' for Inactive)
REMARK    1  A    between atoms: C8_8  and  C9_9 
REMARK    2  A    between atoms: C8_8  and  N10_10 
ROOT
HETATM    1  C1  UNL     1     -31.339   8.476   2.412  1.00 20.00     0.039 C 
HETATM    2  C2  UNL     1     -32.846   7.195   0.841  1.00 20.00     0.039 C 
HETATM    3  C3  UNL     1     -32.410   8.415   3.512  1.00 20.00     0.273 C 
HETATM    4  C4  UNL     1     -33.283   6.580   2.180  1.00 20.00     0.273 C 
HETATM    5  C5  UNL     1     -31.931   8.438   0.989  1.00 20.00    -0.044 C 
HETATM    6  C6  UNL     1     -32.735   9.725   0.711  1.00 20.00     0.015 C 
HETATM    7  C7  UNL     1     -30.787   8.367  -0.038  1.00 20.00     0.015 C 
HETATM    8  N10 UNL     1     -33.595   7.627   3.146  1.00 20.00     0.089 N 
ENDROOT
BRANCH   8   9
HETATM    9  C8  UNL     1     -34.262   7.095   4.331  1.00 20.00     0.287 C 
BRANCH   9  10
HETATM   10  C9  UNL     1     -35.224   5.965   4.001  1.00 20.00     0.144 C 
HETATM   11 CL11 UNL     1     -34.540   4.382   4.444  1.00 20.00    -0.129 Cl
ENDBRANCH   9  10
ENDBRANCH   8   9
TORSDOF 2
ENDMDL
MODEL 4
REMARK VINA RESULT:       1.6      2.803      4.784
REMARK  2 active torsions:
REMARK  status: ('A' for Active; 'I' for Inactive)
REMARK    1  A    between atoms: C8_8  and  C9_9 
REMARK    2  A    between atoms: C8_8  and  N10_10 
ROOT
HETATM    1  C1  UNL     1     -31.983   8.239   3.032  1.00 20.00     0.039 C 
HETATM    2  C2  UNL     1     -32.372   6.673   1.089  1.00 20.00     0.039 C 
HETATM    3  C3  UNL     1     -33.194   7.648   3.770  1.00 20.00     0.273 C 
HETATM    4  C4  UNL     1     -32.871   5.787   2.242  1.00 20.00     0.273 C 
HETATM    5  C5  UNL     1     -32.104   8.145   1.498  1.00 20.00    -0.044 C 
HETATM    6  C6  UNL     1     -33.247   9.051   0.996  1.00 20.00     0.015 C 
HETATM    7  C7  UNL     1     -30.796   8.634   0.853  1.00 20.00     0.015 C 
HETATM    8  N10 UNL     1     -33.822   6.516   3.073  1.00 20.00     0.089 N 
ENDROOT
BRANCH   8   9
HETATM    9  C8  UNL     1     -34.514   5.637   4.011  1.00 20.00     0.287 C 
BRANCH   9  10
HETATM   10  C9  UNL     1     -34.255   4.165   3.730  1.00 20.00     0.144 C 
HETATM   11 CL11 UNL     1     -33.297   3.416   5.030  1.00 20.00    -0.129 Cl
ENDBRANCH   9  10
ENDBRANCH   8   9
TORSDOF 2
ENDMDL
MODEL 5
REMARK VINA RESULT:       1.9      0.775      1.893
REMARK  2 active torsions:
REMARK  status: ('A' for Active; 'I' for Inactive)
REMARK    1  A    between atoms: C8_8  and  C9_9 
REMARK    2  A    between atoms: C8_8  and  N10_10 
ROOT
HETATM    1  C1  UNL     1     -33.959   7.522   3.972  1.00 20.00     0.039 C 
HETATM    2  C2  UNL     1     -34.117   5.923   2.023  1.00 20.00     0.039 C 
HETATM    3  C3  UNL     1     -32.614   8.049   3.449  1.00 20.00     0.273 C 
HETATM    4  C4  UNL     1     -33.361   7.079   1.349  1.00 20.00     0.273 C 
HETATM    5  C5  UNL     1     -34.236   6.062   3.563  1.00 20.00    -0.044 C 
HETATM    6  C6  UNL     1     -33.239   5.113   4.260  1.00 20.00     0.015 C 
HETATM    7  C7  UNL     1     -35.654   5.667   4.012  1.00 20.00     0.015 C 
HETATM    8  N10 UNL     1     -32.212   7.477   2.156  1.00 20.00     0.089 N 
ENDROOT
BRANCH   8   9
HETATM    9  C8  UNL     1     -31.324   8.382   1.431  1.00 20.00     0.287 C 
BRANCH   9  10
HETATM   10  C9  UNL     1     -31.986   8.990   0.205  1.00 20.00     0.144 C 
HETATM   11 CL11 UNL     1     -32.664  10.597   0.564  1.00 20.00    -0.129 Cl
ENDBRANCH   9  10
ENDBRANCH   8   9
TORSDOF 2
ENDMDL
MODEL 6
REMARK VINA RESULT:       2.4      2.636      4.530
REMARK  2 active torsions:
REMARK  status: ('A' for Active; 'I' for Inactive)
REMARK    1  A    between atoms: C8_8  and  C9_9 
REMARK    2  A    between atoms: C8_8  and  N10_10 
ROOT
HETATM    1  C1  UNL     1     -32.685   6.943   0.722  1.00 20.00     0.039 C 
HETATM    2  C2  UNL     1     -33.253   7.968   2.959  1.00 20.00     0.039 C 
HETATM    3  C3  UNL     1     -32.666   5.541   1.352  1.00 20.00     0.273 C 
HETATM    4  C4  UNL     1     -33.963   6.613   3.106  1.00 20.00     0.273 C 
HETATM    5  C5  UNL     1     -32.324   8.060   1.720  1.00 20.00    -0.044 C 
HETATM    6  C6  UNL     1     -30.849   7.934   2.153  1.00 20.00     0.015 C 
HETATM    7  C7  UNL     1     -32.500   9.429   1.039  1.00 20.00     0.015 C 
HETATM    8  N10 UNL     1     -33.056   5.521   2.769  1.00 20.00     0.089 N 
ENDROOT
BRANCH   8   9
HETATM    9  C8  UNL     1     -33.602   4.222   3.148  1.00 20.00     0.287 C 
BRANCH   9  10
HETATM   10  C9  UNL     1     -34.079   4.187   4.591  1.00 20.00     0.144 C 
HETATM   11 CL11 UNL     1     -35.642   5.021   4.776  1.00 20.00    -0.129 Cl
ENDBRANCH   9  10
ENDBRANCH   8   9
TORSDOF 2
ENDMDL
MODEL 7
REMARK VINA RESULT:       2.5      1.987      4.488
REMARK  2 active torsions:
REMARK  status: ('A' for Active; 'I' for Inactive)
REMARK    1  A    between atoms: C8_8  and  C9_9 
REMARK    2  A    between atoms: C8_8  and  N10_10 
ROOT
HETATM    1  C1  UNL     1     -31.359   8.516   2.441  1.00 20.00     0.039 C 
HETATM    2  C2  UNL     1     -32.771   7.108   0.890  1.00 20.00     0.039 C 
HETATM    3  C3  UNL     1     -32.440   8.426   3.530  1.00 20.00     0.273 C 
HETATM    4  C4  UNL     1     -33.191   6.508   2.241  1.00 20.00     0.273 C 
HETATM    5  C5  UNL     1     -31.928   8.404   1.013  1.00 20.00    -0.044 C 
HETATM    6  C6  UNL     1     -32.799   9.636   0.688  1.00 20.00     0.015 C 
HETATM    7  C7  UNL     1     -30.768   8.368   0.003  1.00 20.00     0.015 C 
HETATM    8  N10 UNL     1     -33.574   7.563   3.173  1.00 20.00     0.089 N 
ENDROOT
BRANCH   8   9
HETATM    9  C8  UNL     1     -34.226   7.029   4.364  1.00 20.00     0.287 C 
BRANCH   9  10
HETATM   10  C9  UNL     1     -35.335   6.043   4.030  1.00 20.00     0.144 C 
HETATM   11 CL11 UNL     1     -36.571   6.787   2.988  1.00 20.00    -0.129 Cl
ENDBRANCH   9  10
ENDBRANCH   8   9
TORSDOF 2
ENDMDL
