MODEL 1
REMARK VINA RESULT:      -0.3      0.000      0.000
REMARK  1 active torsions:
REMARK  status: ('A' for Active; 'I' for Inactive)
REMARK    1  A    between atoms: C2_2  and  C8_8 
ROOT
HETATM    1  C1  UNL     1     -32.760   6.281   1.299  1.00 20.00     0.203 C 
HETATM    2  C2  UNL     1     -32.126   7.362   2.177  1.00 20.00     0.244 C 
HETATM    3  C3  UNL     1     -33.915   6.771   3.762  1.00 20.00     0.245 C 
HETATM    4  C4  UNL     1     -33.338   5.375   3.446  1.00 20.00     0.150 C 
HETATM    5  C5  UNL     1     -35.370   6.953   3.311  1.00 20.00     0.045 C 
HETATM    6  C6  UNL     1     -34.158   4.231   4.033  1.00 20.00     0.042 C 
HETATM    7  N9  UNL     1     -33.082   7.840   3.183  1.00 20.00     0.097 N 
HETATM    8  O10 UNL     1     -33.237   5.154   2.037  1.00 20.00    -0.382 OA
HETATM    9  H27 UNL     1     -32.571   8.325   3.940  1.00 20.00     0.317 HD
ENDROOT
BRANCH   2  10
HETATM   10  C8  UNL     1     -31.632   8.534   1.334  1.00 20.00     0.033 C 
HETATM   11  C7  UNL     1     -32.765   9.299   0.731  1.00 20.00     0.007 C 
ENDBRANCH   2  10
TORSDOF 1
ENDMDL
MODEL 2
REMARK VINA RESULT:      -0.2      1.550      2.141
REMARK  1 active torsions:
REMARK  status: ('A' for Active; 'I' for Inactive)
REMARK    1  A    between atoms: C2_2  and  C8_8 
ROOT
HETATM    1  C1  UNL     1     -32.775   7.992   3.481  1.00 20.00     0.203 C 
HETATM    2  C2  UNL     1     -32.879   7.765   1.971  1.00 20.00     0.244 C 
HETATM    3  C3  UNL     1     -33.788   5.570   2.616  1.00 20.00     0.245 C 
HETATM    4  C4  UNL     1     -34.662   6.507   3.476  1.00 20.00     0.150 C 
HETATM    5  C5  UNL     1     -32.898   4.631   3.438  1.00 20.00     0.045 C 
HETATM    6  C6  UNL     1     -35.550   5.767   4.471  1.00 20.00     0.042 C 
HETATM    7  N9  UNL     1     -32.958   6.332   1.666  1.00 20.00     0.097 N 
HETATM    8  O10 UNL     1     -33.866   7.435   4.218  1.00 20.00    -0.382 OA
HETATM    9  H27 UNL     1     -33.328   6.204   0.709  1.00 20.00     0.317 HD
ENDROOT
BRANCH   2  10
HETATM   10  C8  UNL     1     -31.692   8.385   1.240  1.00 20.00     0.033 C 
HETATM   11  C7  UNL     1     -32.112   9.519   0.363  1.00 20.00     0.007 C 
ENDBRANCH   2  10
TORSDOF 1
ENDMDL
MODEL 3
REMARK VINA RESULT:      -0.1      1.507      4.247
REMARK  1 active torsions:
REMARK  status: ('A' for Active; 'I' for Inactive)
REMARK    1  A    between atoms: C2_2  and  C8_8 
ROOT
HETATM    1  C1  UNL     1     -34.300   6.433   3.590  1.00 20.00     0.203 C 
HETATM    2  C2  UNL     1     -33.412   5.189   3.665  1.00 20.00     0.244 C 
HETATM    3  C3  UNL     1     -32.609   5.936   1.461  1.00 20.00     0.245 C 
HETATM    4  C4  UNL     1     -32.456   7.236   2.278  1.00 20.00     0.150 C 
HETATM    5  C5  UNL     1     -33.627   6.042   0.318  1.00 20.00     0.045 C 
HETATM    6  C6  UNL     1     -32.086   8.448   1.429  1.00 20.00     0.042 C 
HETATM    7  N9  UNL     1     -32.957   4.795   2.327  1.00 20.00     0.097 N 
HETATM    8  O10 UNL     1     -33.657   7.557   2.984  1.00 20.00    -0.382 OA
HETATM    9  H27 UNL     1     -32.140   4.168   2.412  1.00 20.00     0.317 HD
ENDROOT
BRANCH   2  10
HETATM   10  C8  UNL     1     -34.150   4.027   4.324  1.00 20.00     0.033 C 
HETATM   11  C7  UNL     1     -33.217   2.927   4.713  1.00 20.00     0.007 C 
ENDBRANCH   2  10
TORSDOF 1
ENDMDL
MODEL 4
REMARK VINA RESULT:       0.5      1.305      3.875
REMARK  1 active torsions:
REMARK  status: ('A' for Active; 'I' for Inactive)
REMARK    1  A    between atoms: C2_2  and  C8_8 
ROOT
HETATM    1  C1  UNL     1     -32.933   5.622   2.597  1.00 20.00     0.203 C 
HETATM    2  C2  UNL     1     -34.249   6.083   3.226  1.00 20.00     0.244 C 
HETATM    3  C3  UNL     1     -33.203   8.310   3.182  1.00 20.00     0.245 C 
HETATM    4  C4  UNL     1     -32.978   7.859   1.724  1.00 20.00     0.150 C 
HETATM    5  C5  UNL     1     -31.903   8.514   3.971  1.00 20.00     0.045 C 
HETATM    6  C6  UNL     1     -32.087   8.804   0.925  1.00 20.00     0.042 C 
HETATM    7  N9  UNL     1     -34.077   7.371   3.907  1.00 20.00     0.097 N 
HETATM    8  O10 UNL     1     -32.391   6.557   1.661  1.00 20.00    -0.382 OA
HETATM    9  H27 UNL     1     -35.002   7.808   4.055  1.00 20.00     0.317 HD
ENDROOT
BRANCH   2  10
HETATM   10  C8  UNL     1     -34.780   5.044   4.210  1.00 20.00     0.033 C 
HETATM   11  C7  UNL     1     -33.885   3.850   4.292  1.00 20.00     0.007 C 
ENDBRANCH   2  10
TORSDOF 1
ENDMDL
MODEL 5
REMARK VINA RESULT:       1.3      1.488      4.078
REMARK  1 active torsions:
REMARK  status: ('A' for Active; 'I' for Inactive)
REMARK    1  A    between atoms: C2_2  and  C8_8 
ROOT
HETATM    1  C1  UNL     1     -34.109   6.778   3.481  1.00 20.00     0.203 C 
HETATM    2  C2  UNL     1     -33.385   5.431   3.532  1.00 20.00     0.244 C 
HETATM    3  C3  UNL     1     -32.599   6.050   1.283  1.00 20.00     0.245 C 
HETATM    4  C4  UNL     1     -32.243   7.327   2.073  1.00 20.00     0.150 C 
HETATM    5  C5  UNL     1     -33.648   6.277   0.187  1.00 20.00     0.045 C 
HETATM    6  C6  UNL     1     -31.761   8.474   1.191  1.00 20.00     0.042 C 
HETATM    7  N9  UNL     1     -33.049   4.971   2.180  1.00 20.00     0.097 N 
HETATM    8  O10 UNL     1     -33.357   7.805   2.830  1.00 20.00    -0.382 OA
HETATM    9  H27 UNL     1     -32.315   4.245   2.237  1.00 20.00     0.317 HD
ENDROOT
BRANCH   2  10
HETATM   10  C8  UNL     1     -34.234   4.379   4.241  1.00 20.00     0.033 C 
HETATM   11  C7  UNL     1     -35.517   4.952   4.748  1.00 20.00     0.007 C 
ENDBRANCH   2  10
TORSDOF 1
ENDMDL
MODEL 6
REMARK VINA RESULT:       2.4      1.736      3.121
REMARK  1 active torsions:
REMARK  status: ('A' for Active; 'I' for Inactive)
REMARK    1  A    between atoms: C2_2  and  C8_8 
ROOT
HETATM    1  C1  UNL     1     -33.727   5.777   1.964  1.00 20.00     0.203 C 
HETATM    2  C2  UNL     1     -32.224   5.630   1.722  1.00 20.00     0.244 C 
HETATM    3  C3  UNL     1     -32.130   7.981   2.443  1.00 20.00     0.245 C 
HETATM    4  C4  UNL     1     -32.950   7.362   3.593  1.00 20.00     0.150 C 
HETATM    5  C5  UNL     1     -32.905   9.021   1.624  1.00 20.00     0.045 C 
HETATM    6  C6  UNL     1     -33.519   8.394   4.560  1.00 20.00     0.042 C 
HETATM    7  N9  UNL     1     -31.595   6.944   1.544  1.00 20.00     0.097 N 
HETATM    8  O10 UNL     1     -34.045   6.586   3.099  1.00 20.00    -0.382 OA
HETATM    9  H27 UNL     1     -30.575   6.859   1.686  1.00 20.00     0.317 HD
ENDROOT
BRANCH   2  10
HETATM   10  C8  UNL     1     -31.948   4.754   0.503  1.00 20.00     0.033 C 
HETATM   11  C7  UNL     1     -33.212   4.272  -0.131  1.00 20.00     0.007 C 
ENDBRANCH   2  10
TORSDOF 1
ENDMDL
