MODEL 1
REMARK VINA RESULT:      -2.7      0.000      0.000
REMARK  3 active torsions:
REMARK  status: ('A' for Active; 'I' for Inactive)
REMARK    1  A    between atoms: C3_3  and  C4_4 
REMARK    2  A    between atoms: C4_4  and  C5_5 
REMARK    3  A    between atoms: C5_5  and  C6_6 
ROOT
HETATM    1  C4  UNL     1     -33.086   6.002   2.440  1.00 20.00     0.005 C 
ENDROOT
BRANCH   1   2
HETATM    2  C3  UNL     1     -34.225   6.866   2.959  1.00 20.00    -0.014 A 
HETATM    3  C1  UNL     1     -35.169   6.329   3.999  1.00 20.00     0.005 A 
HETATM    4  C2  UNL     1     -34.186   7.407   4.361  1.00 20.00     0.005 A 
ENDBRANCH   1   2
BRANCH   1   5
HETATM    5  C5  UNL     1     -32.299   6.714   1.339  1.00 20.00     0.015 C 
BRANCH   5   6
HETATM    6  C6  UNL     1     -31.872   8.107   1.784  1.00 20.00     0.114 C 
HETATM    7 CL7  UNL     1     -32.295   9.311   0.546  1.00 20.00    -0.130 Cl
ENDBRANCH   5   6
ENDBRANCH   1   5
TORSDOF 3
ENDMDL
MODEL 2
REMARK VINA RESULT:      -2.6      2.592      4.112
REMARK  3 active torsions:
REMARK  status: ('A' for Active; 'I' for Inactive)
REMARK    1  A    between atoms: C3_3  and  C4_4 
REMARK    2  A    between atoms: C4_4  and  C5_5 
REMARK    3  A    between atoms: C5_5  and  C6_6 
ROOT
HETATM    1  C4  UNL     1     -33.730   6.949   3.647  1.00 20.00     0.005 C 
ENDROOT
BRANCH   1   2
HETATM    2  C3  UNL     1     -33.328   7.142   2.193  1.00 20.00    -0.014 A 
HETATM    3  C1  UNL     1     -31.972   7.693   1.849  1.00 20.00     0.005 A 
HETATM    4  C2  UNL     1     -32.290   6.250   1.570  1.00 20.00     0.005 A 
ENDBRANCH   1   2
BRANCH   1   5
HETATM    5  C5  UNL     1     -35.175   6.465   3.769  1.00 20.00     0.015 C 
BRANCH   5   6
HETATM    6  C6  UNL     1     -35.253   5.164   4.557  1.00 20.00     0.114 C 
HETATM    7 CL7  UNL     1     -33.961   4.053   4.047  1.00 20.00    -0.130 Cl
ENDBRANCH   5   6
ENDBRANCH   1   5
TORSDOF 3
ENDMDL
MODEL 3
REMARK VINA RESULT:      -2.5      0.834      1.273
REMARK  3 active torsions:
REMARK  status: ('A' for Active; 'I' for Inactive)
REMARK    1  A    between atoms: C3_3  and  C4_4 
REMARK    2  A    between atoms: C4_4  and  C5_5 
REMARK    3  A    between atoms: C5_5  and  C6_6 
ROOT
HETATM    1  C4  UNL     1     -33.089   6.946   1.946  1.00 20.00     0.005 C 
ENDROOT
BRANCH   1   2
HETATM    2  C3  UNL     1     -33.507   6.629   3.373  1.00 20.00    -0.014 A 
HETATM    3  C1  UNL     1     -34.295   7.631   4.172  1.00 20.00     0.005 A 
HETATM    4  C2  UNL     1     -34.951   6.364   3.698  1.00 20.00     0.005 A 
ENDBRANCH   1   2
BRANCH   1   5
HETATM    5  C5  UNL     1     -31.974   7.991   1.908  1.00 20.00     0.015 C 
BRANCH   5   6
HETATM    6  C6  UNL     1     -31.861   8.622   0.526  1.00 20.00     0.114 C 
HETATM    7 CL7  UNL     1     -32.623  10.229   0.513  1.00 20.00    -0.130 Cl
ENDBRANCH   5   6
ENDBRANCH   1   5
TORSDOF 3
ENDMDL
MODEL 4
REMARK VINA RESULT:      -2.4      2.549      4.098
REMARK  3 active torsions:
REMARK  status: ('A' for Active; 'I' for Inactive)
REMARK    1  A    between atoms: C3_3  and  C4_4 
REMARK    2  A    between atoms: C4_4  and  C5_5 
REMARK    3  A    between atoms: C5_5  and  C6_6 
ROOT
HETATM    1  C4  UNL     1     -31.988   8.128   1.732  1.00 20.00     0.005 C 
ENDROOT
BRANCH   1   2
HETATM    2  C3  UNL     1     -32.781   8.987   0.761  1.00 20.00    -0.014 A 
HETATM    3  C1  UNL     1     -32.658  10.486   0.801  1.00 20.00     0.005 A 
HETATM    4  C2  UNL     1     -32.080   9.714  -0.353  1.00 20.00     0.005 A 
ENDBRANCH   1   2
BRANCH   1   5
HETATM    5  C5  UNL     1     -32.843   7.000   2.310  1.00 20.00     0.015 C 
BRANCH   5   6
HETATM    6  C6  UNL     1     -33.550   7.446   3.584  1.00 20.00     0.114 C 
HETATM    7 CL7  UNL     1     -35.024   6.485   3.844  1.00 20.00    -0.130 Cl
ENDBRANCH   5   6
ENDBRANCH   1   5
TORSDOF 3
ENDMDL
MODEL 5
REMARK VINA RESULT:      -2.3      2.450      3.983
REMARK  3 active torsions:
REMARK  status: ('A' for Active; 'I' for Inactive)
REMARK    1  A    between atoms: C3_3  and  C4_4 
REMARK    2  A    between atoms: C4_4  and  C5_5 
REMARK    3  A    between atoms: C5_5  and  C6_6 
ROOT
HETATM    1  C4  UNL     1     -32.378   8.319   1.768  1.00 20.00     0.005 C 
ENDROOT
BRANCH   1   2
HETATM    2  C3  UNL     1     -31.904   9.299   0.706  1.00 20.00    -0.014 A 
HETATM    3  C1  UNL     1     -32.757   9.582  -0.499  1.00 20.00     0.005 A 
HETATM    4  C2  UNL     1     -32.575  10.636   0.557  1.00 20.00     0.005 A 
ENDBRANCH   1   2
BRANCH   1   5
HETATM    5  C5  UNL     1     -31.921   6.893   1.458  1.00 20.00     0.015 C 
BRANCH   5   6
HETATM    6  C6  UNL     1     -32.984   5.878   1.858  1.00 20.00     0.114 C 
HETATM    7 CL7  UNL     1     -33.948   6.493   3.220  1.00 20.00    -0.130 Cl
ENDBRANCH   5   6
ENDBRANCH   1   5
TORSDOF 3
ENDMDL
MODEL 6
REMARK VINA RESULT:      -2.3      2.578      4.119
REMARK  3 active torsions:
REMARK  status: ('A' for Active; 'I' for Inactive)
REMARK    1  A    between atoms: C3_3  and  C4_4 
REMARK    2  A    between atoms: C4_4  and  C5_5 
REMARK    3  A    between atoms: C5_5  and  C6_6 
ROOT
HETATM    1  C4  UNL     1     -33.472   6.882   2.627  1.00 20.00     0.005 C 
ENDROOT
BRANCH   1   2
HETATM    2  C3  UNL     1     -32.391   7.930   2.418  1.00 20.00    -0.014 A 
HETATM    3  C1  UNL     1     -31.313   7.713   1.392  1.00 20.00     0.005 A 
HETATM    4  C2  UNL     1     -32.371   8.757   1.162  1.00 20.00     0.005 A 
ENDBRANCH   1   2
BRANCH   1   5
HETATM    5  C5  UNL     1     -34.285   7.159   3.891  1.00 20.00     0.015 C 
BRANCH   5   6
HETATM    6  C6  UNL     1     -35.289   6.044   4.152  1.00 20.00     0.114 C 
HETATM    7 CL7  UNL     1     -34.460   4.475   4.259  1.00 20.00    -0.130 Cl
ENDBRANCH   5   6
ENDBRANCH   1   5
TORSDOF 3
ENDMDL
MODEL 7
REMARK VINA RESULT:      -2.1      0.908      1.096
REMARK  3 active torsions:
REMARK  status: ('A' for Active; 'I' for Inactive)
REMARK    1  A    between atoms: C3_3  and  C4_4 
REMARK    2  A    between atoms: C4_4  and  C5_5 
REMARK    3  A    between atoms: C5_5  and  C6_6 
ROOT
HETATM    1  C4  UNL     1     -33.256   7.231   3.105  1.00 20.00     0.005 C 
ENDROOT
BRANCH   1   2
HETATM    2  C3  UNL     1     -34.388   6.216   3.099  1.00 20.00    -0.014 A 
HETATM    3  C1  UNL     1     -34.364   5.049   4.047  1.00 20.00     0.005 A 
HETATM    4  C2  UNL     1     -35.360   6.159   4.244  1.00 20.00     0.005 A 
ENDBRANCH   1   2
BRANCH   1   5
HETATM    5  C5  UNL     1     -32.437   7.167   1.816  1.00 20.00     0.015 C 
BRANCH   5   6
HETATM    6  C6  UNL     1     -31.625   8.440   1.618  1.00 20.00     0.114 C 
HETATM    7 CL7  UNL     1     -32.432   9.517   0.456  1.00 20.00    -0.130 Cl
ENDBRANCH   5   6
ENDBRANCH   1   5
TORSDOF 3
ENDMDL
MODEL 8
REMARK VINA RESULT:      -1.9      2.673      3.436
REMARK  3 active torsions:
REMARK  status: ('A' for Active; 'I' for Inactive)
REMARK    1  A    between atoms: C3_3  and  C4_4 
REMARK    2  A    between atoms: C4_4  and  C5_5 
REMARK    3  A    between atoms: C5_5  and  C6_6 
ROOT
HETATM    1  C4  UNL     1     -33.820   4.979   3.537  1.00 20.00     0.005 C 
ENDROOT
BRANCH   1   2
HETATM    2  C3  UNL     1     -33.993   3.802   4.483  1.00 20.00    -0.014 A 
HETATM    3  C1  UNL     1     -33.271   2.509   4.223  1.00 20.00     0.005 A 
HETATM    4  C2  UNL     1     -32.863   3.379   5.380  1.00 20.00     0.005 A 
ENDBRANCH   1   2
BRANCH   1   5
HETATM    5  C5  UNL     1     -34.814   6.098   3.846  1.00 20.00     0.015 C 
BRANCH   5   6
HETATM    6  C6  UNL     1     -34.114   7.449   3.917  1.00 20.00     0.114 C 
HETATM    7 CL7  UNL     1     -32.864   7.567   2.658  1.00 20.00    -0.130 Cl
ENDBRANCH   5   6
ENDBRANCH   1   5
TORSDOF 3
ENDMDL
MODEL 9
REMARK VINA RESULT:      -1.8      3.604      4.416
REMARK  3 active torsions:
REMARK  status: ('A' for Active; 'I' for Inactive)
REMARK    1  A    between atoms: C3_3  and  C4_4 
REMARK    2  A    between atoms: C4_4  and  C5_5 
REMARK    3  A    between atoms: C5_5  and  C6_6 
ROOT
HETATM    1  C4  UNL     1     -35.139   5.343   4.417  1.00 20.00     0.005 C 
ENDROOT
BRANCH   1   2
HETATM    2  C3  UNL     1     -34.925   6.699   3.764  1.00 20.00    -0.014 A 
HETATM    3  C1  UNL     1     -34.010   7.709   4.398  1.00 20.00     0.005 A 
HETATM    4  C2  UNL     1     -33.608   7.029   3.118  1.00 20.00     0.005 A 
ENDBRANCH   1   2
BRANCH   1   5
HETATM    5  C5  UNL     1     -34.188   4.290   3.847  1.00 20.00     0.015 C 
BRANCH   5   6
HETATM    6  C6  UNL     1     -33.459   3.550   4.961  1.00 20.00     0.114 C 
HETATM    7 CL7  UNL     1     -33.205   1.848   4.513  1.00 20.00    -0.130 Cl
ENDBRANCH   5   6
ENDBRANCH   1   5
TORSDOF 3
ENDMDL
