MODEL 1
REMARK VINA RESULT:      -3.0      0.000      0.000
REMARK  3 active torsions:
REMARK  status: ('A' for Active; 'I' for Inactive)
REMARK    1  A    between atoms: C3_3  and  C7_7 
REMARK    2  A    between atoms: C5_5  and  C6_6 
REMARK    3  A    between atoms: C6_6  and  C7_7 
ROOT
HETATM    1  C1  UNL     1     -32.387   9.646   0.264  1.00 20.00     0.012 C 
HETATM    2  C2  UNL     1     -32.244   8.820   1.123  1.00 20.00    -0.117 C 
HETATM    3  C5  UNL     1     -32.064   7.811   2.178  1.00 20.00     0.093 C 
ENDROOT
BRANCH   3   4
HETATM    4  C6  UNL     1     -32.996   6.607   1.995  1.00 20.00     0.023 C 
BRANCH   4   5
HETATM    5  C7  UNL     1     -34.123   6.522   3.037  1.00 20.00     0.044 C 
HETATM    6  C4  UNL     1     -33.948   7.600   4.105  1.00 20.00     0.017 C 
BRANCH   5   7
HETATM    7  C3  UNL     1     -34.179   5.178   3.744  1.00 20.00     0.235 C 
HETATM    8  O8  UNL     1     -35.136   4.761   4.386  1.00 20.00    -0.306 OA
ENDBRANCH   5   7
ENDBRANCH   4   5
ENDBRANCH   3   4
TORSDOF 3
ENDMDL
MODEL 2
REMARK VINA RESULT:      -2.8      1.048      1.519
REMARK  3 active torsions:
REMARK  status: ('A' for Active; 'I' for Inactive)
REMARK    1  A    between atoms: C3_3  and  C7_7 
REMARK    2  A    between atoms: C5_5  and  C6_6 
REMARK    3  A    between atoms: C6_6  and  C7_7 
ROOT
HETATM    1  C1  UNL     1     -32.582  10.252   0.033  1.00 20.00     0.012 C 
HETATM    2  C2  UNL     1     -32.272   9.274   0.656  1.00 20.00    -0.117 C 
HETATM    3  C5  UNL     1     -31.891   8.072   1.413  1.00 20.00     0.093 C 
ENDROOT
BRANCH   3   4
HETATM    4  C6  UNL     1     -32.531   8.038   2.806  1.00 20.00     0.023 C 
BRANCH   4   5
HETATM    5  C7  UNL     1     -33.217   6.705   3.149  1.00 20.00     0.044 C 
HETATM    6  C4  UNL     1     -33.317   5.819   1.908  1.00 20.00     0.017 C 
BRANCH   5   7
HETATM    7  C3  UNL     1     -34.621   6.884   3.700  1.00 20.00     0.235 C 
HETATM    8  O8  UNL     1     -35.342   5.976   4.098  1.00 20.00    -0.306 OA
ENDBRANCH   5   7
ENDBRANCH   4   5
ENDBRANCH   3   4
TORSDOF 3
ENDMDL
MODEL 3
REMARK VINA RESULT:      -2.7      2.423      4.652
REMARK  3 active torsions:
REMARK  status: ('A' for Active; 'I' for Inactive)
REMARK    1  A    between atoms: C3_3  and  C7_7 
REMARK    2  A    between atoms: C5_5  and  C6_6 
REMARK    3  A    between atoms: C6_6  and  C7_7 
ROOT
HETATM    1  C1  UNL     1     -33.810   3.536   4.466  1.00 20.00     0.012 C 
HETATM    2  C2  UNL     1     -34.227   4.610   4.129  1.00 20.00    -0.117 C 
HETATM    3  C5  UNL     1     -34.744   5.922   3.714  1.00 20.00     0.093 C 
ENDROOT
BRANCH   3   4
HETATM    4  C6  UNL     1     -33.621   6.940   3.481  1.00 20.00     0.023 C 
BRANCH   4   5
HETATM    5  C7  UNL     1     -33.159   7.041   2.017  1.00 20.00     0.044 C 
HETATM    6  C4  UNL     1     -32.579   5.708   1.546  1.00 20.00     0.017 C 
BRANCH   5   7
HETATM    7  C3  UNL     1     -32.099   8.107   1.801  1.00 20.00     0.235 C 
HETATM    8  O8  UNL     1     -32.125   8.955   0.916  1.00 20.00    -0.306 OA
ENDBRANCH   5   7
ENDBRANCH   4   5
ENDBRANCH   3   4
TORSDOF 3
ENDMDL
MODEL 4
REMARK VINA RESULT:      -2.7      0.884      1.271
REMARK  3 active torsions:
REMARK  status: ('A' for Active; 'I' for Inactive)
REMARK    1  A    between atoms: C3_3  and  C7_7 
REMARK    2  A    between atoms: C5_5  and  C6_6 
REMARK    3  A    between atoms: C6_6  and  C7_7 
ROOT
HETATM    1  C1  UNL     1     -31.869   8.588   1.314  1.00 20.00     0.012 C 
HETATM    2  C2  UNL     1     -32.257   7.460   1.443  1.00 20.00    -0.117 C 
HETATM    3  C5  UNL     1     -32.732   6.077   1.595  1.00 20.00     0.093 C 
ENDROOT
BRANCH   3   4
HETATM    4  C6  UNL     1     -33.220   5.784   3.019  1.00 20.00     0.023 C 
BRANCH   4   5
HETATM    5  C7  UNL     1     -34.391   6.670   3.477  1.00 20.00     0.044 C 
HETATM    6  C4  UNL     1     -33.895   7.769   4.415  1.00 20.00     0.017 C 
BRANCH   5   7
HETATM    7  C3  UNL     1     -35.473   5.893   4.208  1.00 20.00     0.235 C 
HETATM    8  O8  UNL     1     -35.367   4.735   4.596  1.00 20.00    -0.306 OA
ENDBRANCH   5   7
ENDBRANCH   4   5
ENDBRANCH   3   4
TORSDOF 3
ENDMDL
MODEL 5
REMARK VINA RESULT:      -2.5      2.596      4.412
REMARK  3 active torsions:
REMARK  status: ('A' for Active; 'I' for Inactive)
REMARK    1  A    between atoms: C3_3  and  C7_7 
REMARK    2  A    between atoms: C5_5  and  C6_6 
REMARK    3  A    between atoms: C6_6  and  C7_7 
ROOT
HETATM    1  C1  UNL     1     -35.343   5.763   4.075  1.00 20.00     0.012 C 
HETATM    2  C2  UNL     1     -34.690   6.770   4.085  1.00 20.00    -0.117 C 
HETATM    3  C5  UNL     1     -33.896   8.007   4.100  1.00 20.00     0.093 C 
ENDROOT
BRANCH   3   4
HETATM    4  C6  UNL     1     -32.567   7.853   3.350  1.00 20.00     0.023 C 
BRANCH   4   5
HETATM    5  C7  UNL     1     -32.723   7.643   1.834  1.00 20.00     0.044 C 
HETATM    6  C4  UNL     1     -32.295   6.228   1.443  1.00 20.00     0.017 C 
BRANCH   5   7
HETATM    7  C3  UNL     1     -31.897   8.617   1.012  1.00 20.00     0.235 C 
HETATM    8  O8  UNL     1     -32.354   9.547   0.356  1.00 20.00    -0.306 OA
ENDBRANCH   5   7
ENDBRANCH   4   5
ENDBRANCH   3   4
TORSDOF 3
ENDMDL
MODEL 6
REMARK VINA RESULT:      -2.5      1.682      1.812
REMARK  3 active torsions:
REMARK  status: ('A' for Active; 'I' for Inactive)
REMARK    1  A    between atoms: C3_3  and  C7_7 
REMARK    2  A    between atoms: C5_5  and  C6_6 
REMARK    3  A    between atoms: C6_6  and  C7_7 
ROOT
HETATM    1  C1  UNL     1     -32.717  10.303  -0.095  1.00 20.00     0.012 C 
HETATM    2  C2  UNL     1     -32.223   9.411   0.539  1.00 20.00    -0.117 C 
HETATM    3  C5  UNL     1     -31.615   8.318   1.311  1.00 20.00     0.093 C 
ENDROOT
BRANCH   3   4
HETATM    4  C6  UNL     1     -32.304   8.111   2.666  1.00 20.00     0.023 C 
BRANCH   4   5
HETATM    5  C7  UNL     1     -33.525   7.178   2.613  1.00 20.00     0.044 C 
HETATM    6  C4  UNL     1     -34.284   7.215   3.939  1.00 20.00     0.017 C 
BRANCH   5   7
HETATM    7  C3  UNL     1     -33.157   5.731   2.334  1.00 20.00     0.235 C 
HETATM    8  O8  UNL     1     -32.703   5.314   1.274  1.00 20.00    -0.306 OA
ENDBRANCH   5   7
ENDBRANCH   4   5
ENDBRANCH   3   4
TORSDOF 3
ENDMDL
MODEL 7
REMARK VINA RESULT:      -2.5      2.349      4.437
REMARK  3 active torsions:
REMARK  status: ('A' for Active; 'I' for Inactive)
REMARK    1  A    between atoms: C3_3  and  C7_7 
REMARK    2  A    between atoms: C5_5  and  C6_6 
REMARK    3  A    between atoms: C6_6  and  C7_7 
ROOT
HETATM    1  C1  UNL     1     -33.495   3.390   4.294  1.00 20.00     0.012 C 
HETATM    2  C2  UNL     1     -34.323   4.255   4.385  1.00 20.00    -0.117 C 
HETATM    3  C5  UNL     1     -35.341   5.309   4.498  1.00 20.00     0.093 C 
ENDROOT
BRANCH   3   4
HETATM    4  C6  UNL     1     -35.036   6.510   3.595  1.00 20.00     0.023 C 
BRANCH   4   5
HETATM    5  C7  UNL     1     -33.580   7.000   3.673  1.00 20.00     0.044 C 
HETATM    6  C4  UNL     1     -33.467   8.196   4.618  1.00 20.00     0.017 C 
BRANCH   5   7
HETATM    7  C3  UNL     1     -33.024   7.425   2.324  1.00 20.00     0.235 C 
HETATM    8  O8  UNL     1     -32.001   8.081   2.161  1.00 20.00    -0.306 OA
ENDBRANCH   5   7
ENDBRANCH   4   5
ENDBRANCH   3   4
TORSDOF 3
ENDMDL
MODEL 8
REMARK VINA RESULT:      -2.4      1.652      1.995
REMARK  3 active torsions:
REMARK  status: ('A' for Active; 'I' for Inactive)
REMARK    1  A    between atoms: C3_3  and  C7_7 
REMARK    2  A    between atoms: C5_5  and  C6_6 
REMARK    3  A    between atoms: C6_6  and  C7_7 
ROOT
HETATM    1  C1  UNL     1     -32.375   9.691   0.273  1.00 20.00     0.012 C 
HETATM    2  C2  UNL     1     -32.237   8.757   1.014  1.00 20.00    -0.117 C 
HETATM    3  C5  UNL     1     -32.061   7.614   1.921  1.00 20.00     0.093 C 
ENDROOT
BRANCH   3   4
HETATM    4  C6  UNL     1     -33.366   6.835   2.132  1.00 20.00     0.023 C 
BRANCH   4   5
HETATM    5  C7  UNL     1     -33.805   6.731   3.602  1.00 20.00     0.044 C 
HETATM    6  C4  UNL     1     -35.247   6.234   3.696  1.00 20.00     0.017 C 
BRANCH   5   7
HETATM    7  C3  UNL     1     -33.725   8.056   4.341  1.00 20.00     0.235 C 
HETATM    8  O8  UNL     1     -32.891   8.336   5.195  1.00 20.00    -0.306 OA
ENDBRANCH   5   7
ENDBRANCH   4   5
ENDBRANCH   3   4
TORSDOF 3
ENDMDL
MODEL 9
REMARK VINA RESULT:      -2.2      1.841      4.099
REMARK  3 active torsions:
REMARK  status: ('A' for Active; 'I' for Inactive)
REMARK    1  A    between atoms: C3_3  and  C7_7 
REMARK    2  A    between atoms: C5_5  and  C6_6 
REMARK    3  A    between atoms: C6_6  and  C7_7 
ROOT
HETATM    1  C1  UNL     1     -33.964   3.831   4.417  1.00 20.00     0.012 C 
HETATM    2  C2  UNL     1     -34.440   4.893   4.120  1.00 20.00    -0.117 C 
HETATM    3  C5  UNL     1     -35.029   6.189   3.756  1.00 20.00     0.093 C 
ENDROOT
BRANCH   3   4
HETATM    4  C6  UNL     1     -33.982   7.309   3.710  1.00 20.00     0.023 C 
BRANCH   4   5
HETATM    5  C7  UNL     1     -32.789   7.017   2.784  1.00 20.00     0.044 C 
HETATM    6  C4  UNL     1     -32.196   8.319   2.247  1.00 20.00     0.017 C 
BRANCH   5   7
HETATM    7  C3  UNL     1     -33.161   6.153   1.591  1.00 20.00     0.235 C 
HETATM    8  O8  UNL     1     -32.493   5.217   1.165  1.00 20.00    -0.306 OA
ENDBRANCH   5   7
ENDBRANCH   4   5
ENDBRANCH   3   4
TORSDOF 3
ENDMDL
