MODEL 1
REMARK VINA RESULT:      -3.3      0.000      0.000
REMARK  1 active torsions:
REMARK  status: ('A' for Active; 'I' for Inactive)
REMARK    1  A    between atoms: C1_1  and  C2_2 
ROOT
HETATM    1  C1  UNL     1     -34.075   7.601   3.843  1.00 20.00     0.417 C 
HETATM    2  F3  UNL     1     -33.182   7.305   2.867  1.00 20.00    -0.208 F 
HETATM    3  F4  UNL     1     -33.363   7.985   4.929  1.00 20.00    -0.208 F 
ENDROOT
BRANCH   1   4
HETATM    4  C2  UNL     1     -34.885   6.377   4.171  1.00 20.00     0.417 C 
HETATM    5  F5  UNL     1     -36.058   6.409   3.494  1.00 20.00    -0.208 F 
HETATM    6  F6  UNL     1     -34.220   5.270   3.758  1.00 20.00    -0.208 F 
ENDBRANCH   1   4
TORSDOF 1
ENDMDL
MODEL 2
REMARK VINA RESULT:      -3.3      0.011      2.588
REMARK  1 active torsions:
REMARK  status: ('A' for Active; 'I' for Inactive)
REMARK    1  A    between atoms: C1_1  and  C2_2 
ROOT
HETATM    1  C1  UNL     1     -34.890   6.378   4.168  1.00 20.00     0.417 C 
HETATM    2  F3  UNL     1     -34.228   5.266   3.765  1.00 20.00    -0.208 F 
HETATM    3  F4  UNL     1     -36.061   6.410   3.489  1.00 20.00    -0.208 F 
ENDROOT
BRANCH   1   4
HETATM    4  C2  UNL     1     -34.075   7.597   3.835  1.00 20.00     0.417 C 
HETATM    5  F5  UNL     1     -33.357   7.977   4.919  1.00 20.00    -0.208 F 
HETATM    6  F6  UNL     1     -33.186   7.294   2.857  1.00 20.00    -0.208 F 
ENDBRANCH   1   4
TORSDOF 1
ENDMDL
MODEL 3
REMARK VINA RESULT:      -3.2      1.198      2.148
REMARK  1 active torsions:
REMARK  status: ('A' for Active; 'I' for Inactive)
REMARK    1  A    between atoms: C1_1  and  C2_2 
ROOT
HETATM    1  C1  UNL     1     -33.565   5.897   3.322  1.00 20.00     0.417 C 
HETATM    2  F3  UNL     1     -33.354   5.999   1.987  1.00 20.00    -0.208 F 
HETATM    3  F4  UNL     1     -33.815   4.593   3.585  1.00 20.00    -0.208 F 
ENDROOT
BRANCH   1   4
HETATM    4  C2  UNL     1     -34.755   6.731   3.708  1.00 20.00     0.417 C 
HETATM    5  F5  UNL     1     -35.639   5.974   4.402  1.00 20.00    -0.208 F 
HETATM    6  F6  UNL     1     -34.358   7.732   4.533  1.00 20.00    -0.208 F 
ENDBRANCH   1   4
TORSDOF 1
ENDMDL
MODEL 4
REMARK VINA RESULT:      -3.2      1.213      2.255
REMARK  1 active torsions:
REMARK  status: ('A' for Active; 'I' for Inactive)
REMARK    1  A    between atoms: C1_1  and  C2_2 
ROOT
HETATM    1  C1  UNL     1     -34.764   6.711   3.701  1.00 20.00     0.417 C 
HETATM    2  F3  UNL     1     -34.374   7.748   4.483  1.00 20.00    -0.208 F 
HETATM    3  F4  UNL     1     -35.618   5.960   4.435  1.00 20.00    -0.208 F 
ENDROOT
BRANCH   1   4
HETATM    4  C2  UNL     1     -33.564   5.890   3.318  1.00 20.00     0.417 C 
HETATM    5  F5  UNL     1     -33.801   4.583   3.582  1.00 20.00    -0.208 F 
HETATM    6  F6  UNL     1     -33.351   5.993   1.983  1.00 20.00    -0.208 F 
ENDBRANCH   1   4
TORSDOF 1
ENDMDL
MODEL 5
REMARK VINA RESULT:      -3.1      1.149      2.300
REMARK  1 active torsions:
REMARK  status: ('A' for Active; 'I' for Inactive)
REMARK    1  A    between atoms: C1_1  and  C2_2 
ROOT
HETATM    1  C1  UNL     1     -34.363   6.671   3.842  1.00 20.00     0.417 C 
HETATM    2  F3  UNL     1     -35.687   6.456   3.642  1.00 20.00    -0.208 F 
HETATM    3  F4  UNL     1     -34.250   7.825   4.541  1.00 20.00    -0.208 F 
ENDROOT
BRANCH   1   4
HETATM    4  C2  UNL     1     -33.670   6.810   2.515  1.00 20.00     0.417 C 
HETATM    5  F5  UNL     1     -32.680   7.731   2.611  1.00 20.00    -0.208 F 
HETATM    6  F6  UNL     1     -33.084   5.632   2.185  1.00 20.00    -0.208 F 
ENDBRANCH   1   4
TORSDOF 1
ENDMDL
MODEL 6
REMARK VINA RESULT:      -3.1      1.139      1.911
REMARK  1 active torsions:
REMARK  status: ('A' for Active; 'I' for Inactive)
REMARK    1  A    between atoms: C1_1  and  C2_2 
ROOT
HETATM    1  C1  UNL     1     -33.654   6.867   2.517  1.00 20.00     0.417 C 
HETATM    2  F3  UNL     1     -33.088   5.693   2.144  1.00 20.00    -0.208 F 
HETATM    3  F4  UNL     1     -32.652   7.771   2.632  1.00 20.00    -0.208 F 
ENDROOT
BRANCH   1   4
HETATM    4  C2  UNL     1     -34.339   6.695   3.845  1.00 20.00     0.417 C 
HETATM    5  F5  UNL     1     -34.245   7.842   4.560  1.00 20.00    -0.208 F 
HETATM    6  F6  UNL     1     -35.659   6.459   3.646  1.00 20.00    -0.208 F 
ENDBRANCH   1   4
TORSDOF 1
ENDMDL
MODEL 7
REMARK VINA RESULT:      -3.0      0.719      1.853
REMARK  1 active torsions:
REMARK  status: ('A' for Active; 'I' for Inactive)
REMARK    1  A    between atoms: C1_1  and  C2_2 
ROOT
HETATM    1  C1  UNL     1     -33.574   7.176   3.877  1.00 20.00     0.417 C 
HETATM    2  F3  UNL     1     -34.247   8.100   4.605  1.00 20.00    -0.208 F 
HETATM    3  F4  UNL     1     -33.107   7.806   2.772  1.00 20.00    -0.208 F 
ENDROOT
BRANCH   1   4
HETATM    4  C2  UNL     1     -34.512   6.072   3.474  1.00 20.00     0.417 C 
HETATM    5  F5  UNL     1     -33.997   4.875   3.848  1.00 20.00    -0.208 F 
HETATM    6  F6  UNL     1     -35.690   6.217   4.130  1.00 20.00    -0.208 F 
ENDBRANCH   1   4
TORSDOF 1
ENDMDL
MODEL 8
REMARK VINA RESULT:      -3.0      1.166      2.132
REMARK  1 active torsions:
REMARK  status: ('A' for Active; 'I' for Inactive)
REMARK    1  A    between atoms: C1_1  and  C2_2 
ROOT
HETATM    1  C1  UNL     1     -33.077   6.899   2.913  1.00 20.00     0.417 C 
HETATM    2  F3  UNL     1     -32.585   8.034   2.358  1.00 20.00    -0.208 F 
HETATM    3  F4  UNL     1     -33.311   6.032   1.899  1.00 20.00    -0.208 F 
ENDROOT
BRANCH   1   4
HETATM    4  C2  UNL     1     -34.363   7.205   3.628  1.00 20.00     0.417 C 
HETATM    5  F5  UNL     1     -34.965   6.050   4.003  1.00 20.00    -0.208 F 
HETATM    6  F6  UNL     1     -34.097   7.898   4.763  1.00 20.00    -0.208 F 
ENDBRANCH   1   4
TORSDOF 1
ENDMDL
MODEL 9
REMARK VINA RESULT:      -3.0      2.486      3.814
REMARK  1 active torsions:
REMARK  status: ('A' for Active; 'I' for Inactive)
REMARK    1  A    between atoms: C1_1  and  C2_2 
ROOT
HETATM    1  C1  UNL     1     -32.708   6.435   1.503  1.00 20.00     0.417 C 
HETATM    2  F3  UNL     1     -33.510   6.134   2.553  1.00 20.00    -0.208 F 
HETATM    3  F4  UNL     1     -31.863   5.390   1.337  1.00 20.00    -0.208 F 
ENDROOT
BRANCH   1   4
HETATM    4  C2  UNL     1     -31.923   7.681   1.810  1.00 20.00     0.417 C 
HETATM    5  F5  UNL     1     -32.218   8.643   0.902  1.00 20.00    -0.208 F 
HETATM    6  F6  UNL     1     -32.289   8.158   3.026  1.00 20.00    -0.208 F 
ENDBRANCH   1   4
TORSDOF 1
ENDMDL
