MODEL 1
REMARK VINA RESULT:      -3.2      0.000      0.000
REMARK  5 active torsions:
REMARK  status: ('A' for Active; 'I' for Inactive)
REMARK    1  A    between atoms: C1_1  and  C3_3 
REMARK    2  A    between atoms: C3_3  and  C4_4 
REMARK    3  A    between atoms: C4_4  and  C5_5 
REMARK    4  A    between atoms: C5_5  and  C6_6 
REMARK    5  A    between atoms: C6_6  and  C7_7 
ROOT
HETATM    1  C4  UNL     1     -34.031   7.283   3.662  1.00 20.00     0.004 C 
ENDROOT
BRANCH   1   2
HETATM    2  C3  UNL     1     -35.206   6.310   3.777  1.00 20.00     0.028 C 
BRANCH   2   3
HETATM    3  C1  UNL     1     -34.791   5.034   4.449  1.00 20.00    -0.015 C 
HETATM    4  C2  UNL     1     -33.877   4.200   3.945  1.00 20.00     0.080 C 
HETATM    5 CL8  UNL     1     -33.408   2.749   4.724  1.00 20.00    -0.097 Cl
ENDBRANCH   2   3
ENDBRANCH   1   2
BRANCH   1   6
HETATM    6  C5  UNL     1     -33.275   7.088   2.344  1.00 20.00     0.001 C 
BRANCH   6   7
HETATM    7  C6  UNL     1     -32.171   8.136   2.179  1.00 20.00     0.015 C 
BRANCH   7   8
HETATM    8  C7  UNL     1     -31.963   8.572   0.732  1.00 20.00     0.114 C 
HETATM    9 CL9  UNL     1     -32.568  10.218   0.437  1.00 20.00    -0.130 Cl
ENDBRANCH   7   8
ENDBRANCH   6   7
ENDBRANCH   1   6
TORSDOF 5
ENDMDL
MODEL 2
REMARK VINA RESULT:      -2.9      0.940      5.571
REMARK  5 active torsions:
REMARK  status: ('A' for Active; 'I' for Inactive)
REMARK    1  A    between atoms: C1_1  and  C3_3 
REMARK    2  A    between atoms: C3_3  and  C4_4 
REMARK    3  A    between atoms: C4_4  and  C5_5 
REMARK    4  A    between atoms: C5_5  and  C6_6 
REMARK    5  A    between atoms: C6_6  and  C7_7 
ROOT
HETATM    1  C4  UNL     1     -33.240   6.284   2.041  1.00 20.00     0.004 C 
ENDROOT
BRANCH   1   2
HETATM    2  C3  UNL     1     -31.921   6.919   1.596  1.00 20.00     0.028 C 
BRANCH   2   3
HETATM    3  C1  UNL     1     -32.034   8.415   1.528  1.00 20.00    -0.015 C 
HETATM    4  C2  UNL     1     -32.348   9.079   0.413  1.00 20.00     0.080 C 
HETATM    5 CL8  UNL     1     -32.480  10.785   0.349  1.00 20.00    -0.097 Cl
ENDBRANCH   2   3
ENDBRANCH   1   2
BRANCH   1   6
HETATM    6  C5  UNL     1     -33.626   6.735   3.452  1.00 20.00     0.001 C 
BRANCH   6   7
HETATM    7  C6  UNL     1     -35.090   6.403   3.758  1.00 20.00     0.015 C 
BRANCH   7   8
HETATM    8  C7  UNL     1     -35.265   5.104   4.539  1.00 20.00     0.114 C 
HETATM    9 CL9  UNL     1     -33.951   3.949   4.217  1.00 20.00    -0.130 Cl
ENDBRANCH   7   8
ENDBRANCH   6   7
ENDBRANCH   1   6
TORSDOF 5
ENDMDL
MODEL 3
REMARK VINA RESULT:      -2.8      1.671      1.685
REMARK  5 active torsions:
REMARK  status: ('A' for Active; 'I' for Inactive)
REMARK    1  A    between atoms: C1_1  and  C3_3 
REMARK    2  A    between atoms: C3_3  and  C4_4 
REMARK    3  A    between atoms: C4_4  and  C5_5 
REMARK    4  A    between atoms: C5_5  and  C6_6 
REMARK    5  A    between atoms: C6_6  and  C7_7 
ROOT
HETATM    1  C4  UNL     1     -34.580   7.464   4.060  1.00 20.00     0.004 C 
ENDROOT
BRANCH   1   2
HETATM    2  C3  UNL     1     -35.297   6.145   3.763  1.00 20.00     0.028 C 
BRANCH   2   3
HETATM    3  C1  UNL     1     -34.680   5.008   4.524  1.00 20.00    -0.015 C 
HETATM    4  C2  UNL     1     -33.948   4.050   3.950  1.00 20.00     0.080 C 
HETATM    5 CL8  UNL     1     -33.244   2.760   4.831  1.00 20.00    -0.097 Cl
ENDBRANCH   2   3
ENDBRANCH   1   2
BRANCH   1   6
HETATM    6  C5  UNL     1     -33.078   7.355   3.782  1.00 20.00     0.001 C 
BRANCH   6   7
HETATM    7  C6  UNL     1     -32.668   8.240   2.601  1.00 20.00     0.015 C 
BRANCH   7   8
HETATM    8  C7  UNL     1     -31.927   7.479   1.505  1.00 20.00     0.114 C 
HETATM    9 CL9  UNL     1     -32.466   5.789   1.384  1.00 20.00    -0.130 Cl
ENDBRANCH   7   8
ENDBRANCH   6   7
ENDBRANCH   1   6
TORSDOF 5
ENDMDL
MODEL 4
REMARK VINA RESULT:      -2.6      0.849      5.572
REMARK  5 active torsions:
REMARK  status: ('A' for Active; 'I' for Inactive)
REMARK    1  A    between atoms: C1_1  and  C3_3 
REMARK    2  A    between atoms: C3_3  and  C4_4 
REMARK    3  A    between atoms: C4_4  and  C5_5 
REMARK    4  A    between atoms: C5_5  and  C6_6 
REMARK    5  A    between atoms: C6_6  and  C7_7 
ROOT
HETATM    1  C4  UNL     1     -33.070   7.909   3.437  1.00 20.00     0.004 C 
ENDROOT
BRANCH   1   2
HETATM    2  C3  UNL     1     -32.333   7.221   2.286  1.00 20.00     0.028 C 
BRANCH   2   3
HETATM    3  C1  UNL     1     -31.953   8.204   1.218  1.00 20.00    -0.015 C 
HETATM    4  C2  UNL     1     -32.655   9.308   0.951  1.00 20.00     0.080 C 
HETATM    5 CL8  UNL     1     -32.206  10.427  -0.267  1.00 20.00    -0.097 Cl
ENDBRANCH   2   3
ENDBRANCH   1   2
BRANCH   1   6
HETATM    6  C5  UNL     1     -34.329   7.133   3.834  1.00 20.00     0.001 C 
BRANCH   6   7
HETATM    7  C6  UNL     1     -34.262   5.683   3.345  1.00 20.00     0.015 C 
BRANCH   7   8
HETATM    8  C7  UNL     1     -34.663   4.668   4.411  1.00 20.00     0.114 C 
HETATM    9 CL9  UNL     1     -33.539   3.292   4.479  1.00 20.00    -0.130 Cl
ENDBRANCH   7   8
ENDBRANCH   6   7
ENDBRANCH   1   6
TORSDOF 5
ENDMDL
MODEL 5
REMARK VINA RESULT:      -2.5      0.505      5.493
REMARK  5 active torsions:
REMARK  status: ('A' for Active; 'I' for Inactive)
REMARK    1  A    between atoms: C1_1  and  C3_3 
REMARK    2  A    between atoms: C3_3  and  C4_4 
REMARK    3  A    between atoms: C4_4  and  C5_5 
REMARK    4  A    between atoms: C5_5  and  C6_6 
REMARK    5  A    between atoms: C6_6  and  C7_7 
ROOT
HETATM    1  C4  UNL     1     -34.005   7.385   4.057  1.00 20.00     0.004 C 
ENDROOT
BRANCH   1   2
HETATM    2  C3  UNL     1     -32.839   7.367   3.067  1.00 20.00     0.028 C 
BRANCH   2   3
HETATM    3  C1  UNL     1     -32.800   8.625   2.249  1.00 20.00    -0.015 C 
HETATM    4  C2  UNL     1     -32.293   8.685   1.015  1.00 20.00     0.080 C 
HETATM    5 CL8  UNL     1     -32.260  10.125   0.088  1.00 20.00    -0.097 Cl
ENDBRANCH   2   3
ENDBRANCH   1   2
BRANCH   1   6
HETATM    6  C5  UNL     1     -35.078   6.363   3.671  1.00 20.00     0.001 C 
BRANCH   6   7
HETATM    7  C6  UNL     1     -34.905   5.057   4.452  1.00 20.00     0.015 C 
BRANCH   7   8
HETATM    8  C7  UNL     1     -33.942   4.079   3.786  1.00 20.00     0.114 C 
HETATM    9 CL9  UNL     1     -33.164   3.000   4.967  1.00 20.00    -0.130 Cl
ENDBRANCH   7   8
ENDBRANCH   6   7
ENDBRANCH   1   6
TORSDOF 5
ENDMDL
MODEL 6
REMARK VINA RESULT:      -2.3      1.977      5.051
REMARK  5 active torsions:
REMARK  status: ('A' for Active; 'I' for Inactive)
REMARK    1  A    between atoms: C1_1  and  C3_3 
REMARK    2  A    between atoms: C3_3  and  C4_4 
REMARK    3  A    between atoms: C4_4  and  C5_5 
REMARK    4  A    between atoms: C5_5  and  C6_6 
REMARK    5  A    between atoms: C6_6  and  C7_7 
ROOT
HETATM    1  C4  UNL     1     -33.150   6.118   1.691  1.00 20.00     0.004 C 
ENDROOT
BRANCH   1   2
HETATM    2  C3  UNL     1     -31.799   6.833   1.639  1.00 20.00     0.028 C 
BRANCH   2   3
HETATM    3  C1  UNL     1     -31.974   8.323   1.571  1.00 20.00    -0.015 C 
HETATM    4  C2  UNL     1     -32.308   8.974   0.454  1.00 20.00     0.080 C 
HETATM    5 CL8  UNL     1     -32.512  10.673   0.390  1.00 20.00    -0.097 Cl
ENDBRANCH   2   3
ENDBRANCH   1   2
BRANCH   1   6
HETATM    6  C5  UNL     1     -33.412   5.526   3.079  1.00 20.00     0.001 C 
BRANCH   6   7
HETATM    7  C6  UNL     1     -34.692   6.101   3.693  1.00 20.00     0.015 C 
BRANCH   7   8
HETATM    8  C7  UNL     1     -34.596   7.592   4.003  1.00 20.00     0.114 C 
HETATM    9 CL9  UNL     1     -33.157   7.981   4.973  1.00 20.00    -0.130 Cl
ENDBRANCH   7   8
ENDBRANCH   6   7
ENDBRANCH   1   6
TORSDOF 5
ENDMDL
MODEL 7
REMARK VINA RESULT:      -2.3      2.117      4.631
REMARK  5 active torsions:
REMARK  status: ('A' for Active; 'I' for Inactive)
REMARK    1  A    between atoms: C1_1  and  C3_3 
REMARK    2  A    between atoms: C3_3  and  C4_4 
REMARK    3  A    between atoms: C4_4  and  C5_5 
REMARK    4  A    between atoms: C5_5  and  C6_6 
REMARK    5  A    between atoms: C6_6  and  C7_7 
ROOT
HETATM    1  C4  UNL     1     -33.963   7.301   4.100  1.00 20.00     0.004 C 
ENDROOT
BRANCH   1   2
HETATM    2  C3  UNL     1     -33.206   7.727   2.841  1.00 20.00     0.028 C 
BRANCH   2   3
HETATM    3  C1  UNL     1     -33.115   6.600   1.854  1.00 20.00    -0.015 C 
HETATM    4  C2  UNL     1     -31.975   5.969   1.562  1.00 20.00     0.080 C 
HETATM    5 CL8  UNL     1     -31.884   4.679   0.438  1.00 20.00    -0.097 Cl
ENDBRANCH   2   3
ENDBRANCH   1   2
BRANCH   1   6
HETATM    6  C5  UNL     1     -35.099   6.330   3.764  1.00 20.00     0.001 C 
BRANCH   6   7
HETATM    7  C6  UNL     1     -34.949   5.015   4.535  1.00 20.00     0.015 C 
BRANCH   7   8
HETATM    8  C7  UNL     1     -34.010   4.021   3.858  1.00 20.00     0.114 C 
HETATM    9 CL9  UNL     1     -33.147   3.008   5.037  1.00 20.00    -0.130 Cl
ENDBRANCH   7   8
ENDBRANCH   6   7
ENDBRANCH   1   6
TORSDOF 5
ENDMDL
MODEL 8
REMARK VINA RESULT:      -1.7      1.583      2.486
REMARK  5 active torsions:
REMARK  status: ('A' for Active; 'I' for Inactive)
REMARK    1  A    between atoms: C1_1  and  C3_3 
REMARK    2  A    between atoms: C3_3  and  C4_4 
REMARK    3  A    between atoms: C4_4  and  C5_5 
REMARK    4  A    between atoms: C5_5  and  C6_6 
REMARK    5  A    between atoms: C6_6  and  C7_7 
ROOT
HETATM    1  C4  UNL     1     -32.396   7.595   2.067  1.00 20.00     0.004 C 
ENDROOT
BRANCH   1   2
HETATM    2  C3  UNL     1     -32.865   8.267   3.359  1.00 20.00     0.028 C 
BRANCH   2   3
HETATM    3  C1  UNL     1     -33.971   7.486   4.008  1.00 20.00    -0.015 C 
HETATM    4  C2  UNL     1     -34.313   6.249   3.639  1.00 20.00     0.080 C 
HETATM    5 CL8  UNL     1     -35.573   5.366   4.392  1.00 20.00    -0.097 Cl
ENDBRANCH   2   3
ENDBRANCH   1   2
BRANCH   1   6
HETATM    6  C5  UNL     1     -31.550   8.548   1.220  1.00 20.00     0.001 C 
BRANCH   6   7
HETATM    7  C6  UNL     1     -32.151   8.730  -0.177  1.00 20.00     0.015 C 
BRANCH   7   8
HETATM    8  C7  UNL     1     -32.669  10.143  -0.432  1.00 20.00     0.114 C 
HETATM    9 CL9  UNL     1     -32.697  11.122   1.052  1.00 20.00    -0.130 Cl
ENDBRANCH   7   8
ENDBRANCH   6   7
ENDBRANCH   1   6
TORSDOF 5
ENDMDL
MODEL 9
REMARK VINA RESULT:      -1.7      1.733      2.659
REMARK  5 active torsions:
REMARK  status: ('A' for Active; 'I' for Inactive)
REMARK    1  A    between atoms: C1_1  and  C3_3 
REMARK    2  A    between atoms: C3_3  and  C4_4 
REMARK    3  A    between atoms: C4_4  and  C5_5 
REMARK    4  A    between atoms: C5_5  and  C6_6 
REMARK    5  A    between atoms: C6_6  and  C7_7 
ROOT
HETATM    1  C4  UNL     1     -32.081   7.856   2.149  1.00 20.00     0.004 C 
ENDROOT
BRANCH   1   2
HETATM    2  C3  UNL     1     -32.483   6.478   1.621  1.00 20.00     0.028 C 
BRANCH   2   3
HETATM    3  C1  UNL     1     -33.500   5.829   2.514  1.00 20.00    -0.015 C 
HETATM    4  C2  UNL     1     -34.268   6.508   3.370  1.00 20.00     0.080 C 
HETATM    5 CL8  UNL     1     -35.430   5.755   4.379  1.00 20.00    -0.097 Cl
ENDBRANCH   2   3
ENDBRANCH   1   2
BRANCH   1   6
HETATM    6  C5  UNL     1     -31.394   8.689   1.063  1.00 20.00     0.001 C 
BRANCH   6   7
HETATM    7  C6  UNL     1     -32.282   8.820  -0.178  1.00 20.00     0.015 C 
BRANCH   7   8
HETATM    8  C7  UNL     1     -32.783  10.241  -0.416  1.00 20.00     0.114 C 
HETATM    9 CL9  UNL     1     -32.609  11.261   1.031  1.00 20.00    -0.130 Cl
ENDBRANCH   7   8
ENDBRANCH   6   7
ENDBRANCH   1   6
TORSDOF 5
ENDMDL
