MODEL 1
REMARK VINA RESULT:      -0.7      0.000      0.000
REMARK  2 active torsions:
REMARK  status: ('A' for Active; 'I' for Inactive)
REMARK    1  A    between atoms: C4_4  and  C5_5 
REMARK    2  A    between atoms: C5_5  and  N6_6 
ROOT
HETATM    1  C1  UNL     1     -32.981   6.838   2.261  1.00 20.00     0.158 C 
HETATM    2  N6  UNL     1     -33.669   5.961   2.621  1.00 20.00    -0.264 NA
HETATM    3  S7  UNL     1     -32.029   8.007   1.750  1.00 20.00    -0.055 SA
ENDROOT
BRANCH   2   4
HETATM    4  C5  UNL     1     -34.628   6.327   3.675  1.00 20.00     0.060 C 
HETATM    5  C2  UNL     1     -33.984   7.426   4.527  1.00 20.00     0.041 C 
HETATM    6  C3  UNL     1     -35.887   6.874   2.998  1.00 20.00     0.041 C 
BRANCH   4   7
HETATM    7  C4  UNL     1     -34.913   5.097   4.551  1.00 20.00     0.147 C 
HETATM    8 CL8  UNL     1     -33.824   3.724   4.222  1.00 20.00    -0.128 Cl
ENDBRANCH   4   7
ENDBRANCH   2   4
TORSDOF 2
ENDMDL
MODEL 2
REMARK VINA RESULT:      -0.3      2.291      3.154
REMARK  2 active torsions:
REMARK  status: ('A' for Active; 'I' for Inactive)
REMARK    1  A    between atoms: C4_4  and  C5_5 
REMARK    2  A    between atoms: C5_5  and  N6_6 
ROOT
HETATM    1  C1  UNL     1     -32.232   8.538   1.280  1.00 20.00     0.158 C 
HETATM    2  N6  UNL     1     -32.090   7.712   2.098  1.00 20.00    -0.264 NA
HETATM    3  S7  UNL     1     -32.405   9.685   0.189  1.00 20.00    -0.055 SA
ENDROOT
BRANCH   2   4
HETATM    4  C5  UNL     1     -32.787   6.446   1.817  1.00 20.00     0.060 C 
HETATM    5  C2  UNL     1     -33.672   6.668   0.586  1.00 20.00     0.041 C 
HETATM    6  C3  UNL     1     -31.730   5.384   1.506  1.00 20.00     0.041 C 
BRANCH   4   7
HETATM    7  C4  UNL     1     -33.666   6.073   3.021  1.00 20.00     0.147 C 
HETATM    8 CL8  UNL     1     -34.193   7.483   3.979  1.00 20.00    -0.128 Cl
ENDBRANCH   4   7
ENDBRANCH   2   4
TORSDOF 2
ENDMDL
MODEL 3
REMARK VINA RESULT:      -0.2      2.743      3.343
REMARK  2 active torsions:
REMARK  status: ('A' for Active; 'I' for Inactive)
REMARK    1  A    between atoms: C4_4  and  C5_5 
REMARK    2  A    between atoms: C5_5  and  N6_6 
ROOT
HETATM    1  C1  UNL     1     -34.255   4.306   4.456  1.00 20.00     0.158 C 
HETATM    2  N6  UNL     1     -35.014   5.199   4.454  1.00 20.00    -0.264 NA
HETATM    3  S7  UNL     1     -33.246   3.074   4.481  1.00 20.00    -0.055 SA
ENDROOT
BRANCH   2   4
HETATM    4  C5  UNL     1     -34.601   6.351   3.638  1.00 20.00     0.060 C 
HETATM    5  C2  UNL     1     -35.858   6.920   2.970  1.00 20.00     0.041 C 
HETATM    6  C3  UNL     1     -33.997   7.401   4.574  1.00 20.00     0.041 C 
BRANCH   4   7
HETATM    7  C4  UNL     1     -33.614   5.881   2.558  1.00 20.00     0.147 C 
HETATM    8 CL8  UNL     1     -32.549   7.180   1.958  1.00 20.00    -0.128 Cl
ENDBRANCH   4   7
ENDBRANCH   2   4
TORSDOF 2
ENDMDL
MODEL 4
REMARK VINA RESULT:      -0.1      3.396      4.301
REMARK  2 active torsions:
REMARK  status: ('A' for Active; 'I' for Inactive)
REMARK    1  A    between atoms: C4_4  and  C5_5 
REMARK    2  A    between atoms: C5_5  and  N6_6 
ROOT
HETATM    1  C1  UNL     1     -33.849   7.173   3.585  1.00 20.00     0.158 C 
HETATM    2  N6  UNL     1     -32.891   7.801   3.340  1.00 20.00    -0.264 NA
HETATM    3  S7  UNL     1     -35.150   6.332   3.953  1.00 20.00    -0.055 SA
ENDROOT
BRANCH   2   4
HETATM    4  C5  UNL     1     -32.423   7.688   1.949  1.00 20.00     0.060 C 
HETATM    5  C2  UNL     1     -30.927   8.019   1.935  1.00 20.00     0.041 C 
HETATM    6  C3  UNL     1     -32.633   6.241   1.496  1.00 20.00     0.041 C 
BRANCH   4   7
HETATM    7  C4  UNL     1     -33.182   8.698   1.075  1.00 20.00     0.147 C 
HETATM    8 CL8  UNL     1     -32.111   9.720   0.080  1.00 20.00    -0.128 Cl
ENDBRANCH   4   7
ENDBRANCH   2   4
TORSDOF 2
ENDMDL
MODEL 5
REMARK VINA RESULT:       0.1      2.565      3.688
REMARK  2 active torsions:
REMARK  status: ('A' for Active; 'I' for Inactive)
REMARK    1  A    between atoms: C4_4  and  C5_5 
REMARK    2  A    between atoms: C5_5  and  N6_6 
ROOT
HETATM    1  C1  UNL     1     -33.879   7.322   3.556  1.00 20.00     0.158 C 
HETATM    2  N6  UNL     1     -33.037   8.077   3.248  1.00 20.00    -0.264 NA
HETATM    3  S7  UNL     1     -35.027   6.315   4.005  1.00 20.00    -0.055 SA
ENDROOT
BRANCH   2   4
HETATM    4  C5  UNL     1     -32.403   7.792   1.951  1.00 20.00     0.060 C 
HETATM    5  C2  UNL     1     -32.727   8.957   1.011  1.00 20.00     0.041 C 
HETATM    6  C3  UNL     1     -30.890   7.716   2.172  1.00 20.00     0.041 C 
BRANCH   4   7
HETATM    7  C4  UNL     1     -32.984   6.491   1.377  1.00 20.00     0.147 C 
HETATM    8 CL8  UNL     1     -31.776   5.190   1.205  1.00 20.00    -0.128 Cl
ENDBRANCH   4   7
ENDBRANCH   2   4
TORSDOF 2
ENDMDL
MODEL 6
REMARK VINA RESULT:       0.3      3.223      4.140
REMARK  2 active torsions:
REMARK  status: ('A' for Active; 'I' for Inactive)
REMARK    1  A    between atoms: C4_4  and  C5_5 
REMARK    2  A    between atoms: C5_5  and  N6_6 
ROOT
HETATM    1  C1  UNL     1     -33.963   6.839   3.466  1.00 20.00     0.158 C 
HETATM    2  N6  UNL     1     -33.032   7.435   3.079  1.00 20.00    -0.264 NA
HETATM    3  S7  UNL     1     -35.227   6.047   4.024  1.00 20.00    -0.055 SA
ENDROOT
BRANCH   2   4
HETATM    4  C5  UNL     1     -32.556   7.029   1.747  1.00 20.00     0.060 C 
HETATM    5  C2  UNL     1     -31.811   5.700   1.906  1.00 20.00     0.041 C 
HETATM    6  C3  UNL     1     -33.779   6.827   0.849  1.00 20.00     0.041 C 
BRANCH   4   7
HETATM    7  C4  UNL     1     -31.593   8.097   1.205  1.00 20.00     0.147 C 
HETATM    8 CL8  UNL     1     -32.424   9.503   0.487  1.00 20.00    -0.128 Cl
ENDBRANCH   4   7
ENDBRANCH   2   4
TORSDOF 2
ENDMDL
MODEL 7
REMARK VINA RESULT:       0.5      1.682      2.159
REMARK  2 active torsions:
REMARK  status: ('A' for Active; 'I' for Inactive)
REMARK    1  A    between atoms: C4_4  and  C5_5 
REMARK    2  A    between atoms: C5_5  and  N6_6 
ROOT
HETATM    1  C1  UNL     1     -32.082   8.110   1.406  1.00 20.00     0.158 C 
HETATM    2  N6  UNL     1     -31.893   7.112   1.990  1.00 20.00    -0.264 NA
HETATM    3  S7  UNL     1     -32.304   9.475   0.617  1.00 20.00    -0.055 SA
ENDROOT
BRANCH   2   4
HETATM    4  C5  UNL     1     -33.085   6.265   2.157  1.00 20.00     0.060 C 
HETATM    5  C2  UNL     1     -34.067   7.019   3.060  1.00 20.00     0.041 C 
HETATM    6  C3  UNL     1     -33.713   6.056   0.777  1.00 20.00     0.041 C 
BRANCH   4   7
HETATM    7  C4  UNL     1     -32.679   4.944   2.830  1.00 20.00     0.147 C 
HETATM    8 CL8  UNL     1     -33.942   4.273   3.895  1.00 20.00    -0.128 Cl
ENDBRANCH   4   7
ENDBRANCH   2   4
TORSDOF 2
ENDMDL
MODEL 8
REMARK VINA RESULT:       0.6      1.783      2.311
REMARK  2 active torsions:
REMARK  status: ('A' for Active; 'I' for Inactive)
REMARK    1  A    between atoms: C4_4  and  C5_5 
REMARK    2  A    between atoms: C5_5  and  N6_6 
ROOT
HETATM    1  C1  UNL     1     -32.840   6.849   1.910  1.00 20.00     0.158 C 
HETATM    2  N6  UNL     1     -33.546   5.950   2.167  1.00 20.00    -0.264 NA
HETATM    3  S7  UNL     1     -31.875   8.056   1.526  1.00 20.00    -0.055 SA
ENDROOT
BRANCH   2   4
HETATM    4  C5  UNL     1     -34.075   5.961   3.540  1.00 20.00     0.060 C 
HETATM    5  C2  UNL     1     -35.493   6.541   3.486  1.00 20.00     0.041 C 
HETATM    6  C3  UNL     1     -34.131   4.515   4.038  1.00 20.00     0.041 C 
BRANCH   4   7
HETATM    7  C4  UNL     1     -33.187   6.856   4.419  1.00 20.00     0.147 C 
HETATM    8 CL8  UNL     1     -34.013   8.330   4.992  1.00 20.00    -0.128 Cl
ENDBRANCH   4   7
ENDBRANCH   2   4
TORSDOF 2
ENDMDL
MODEL 9
REMARK VINA RESULT:       0.7      1.965      2.142
REMARK  2 active torsions:
REMARK  status: ('A' for Active; 'I' for Inactive)
REMARK    1  A    between atoms: C4_4  and  C5_5 
REMARK    2  A    between atoms: C5_5  and  N6_6 
ROOT
HETATM    1  C1  UNL     1     -32.286   8.535   1.542  1.00 20.00     0.158 C 
HETATM    2  N6  UNL     1     -32.185   7.720   2.377  1.00 20.00    -0.264 NA
HETATM    3  S7  UNL     1     -32.390   9.634   0.394  1.00 20.00    -0.055 SA
ENDROOT
BRANCH   2   4
HETATM    4  C5  UNL     1     -33.326   7.647   3.303  1.00 20.00     0.060 C 
HETATM    5  C2  UNL     1     -32.816   8.022   4.698  1.00 20.00     0.041 C 
HETATM    6  C3  UNL     1     -34.371   8.668   2.847  1.00 20.00     0.041 C 
BRANCH   4   7
HETATM    7  C4  UNL     1     -33.871   6.210   3.324  1.00 20.00     0.147 C 
HETATM    8 CL8  UNL     1     -35.457   6.065   4.128  1.00 20.00    -0.128 Cl
ENDBRANCH   4   7
ENDBRANCH   2   4
TORSDOF 2
ENDMDL
