MODEL 1
REMARK VINA RESULT:      -3.0      0.000      0.000
REMARK  2 active torsions:
REMARK  status: ('A' for Active; 'I' for Inactive)
REMARK    1  A    between atoms: C1_1  and  C2_2 
REMARK    2  A    between atoms: C2_2  and  C3_3 
ROOT
HETATM    1  C2  UNL     1     -32.839   6.349   1.871  1.00 20.00     0.396 C 
HETATM    2  F6  UNL     1     -31.943   5.371   1.583  1.00 20.00    -0.190 F 
HETATM    3  F7  UNL     1     -33.767   6.335   0.880  1.00 20.00    -0.190 F 
ENDROOT
BRANCH   1   4
HETATM    4  C1  UNL     1     -33.512   6.028   3.184  1.00 20.00     0.434 C 
HETATM    5  F4  UNL     1     -33.672   4.684   3.286  1.00 20.00    -0.207 F 
HETATM    6  F5  UNL     1     -34.751   6.574   3.221  1.00 20.00    -0.207 F 
ENDBRANCH   1   4
BRANCH   1   7
HETATM    7  C3  UNL     1     -32.133   7.679   1.861  1.00 20.00     0.460 C 
HETATM    8  F8  UNL     1     -30.822   7.522   1.577  1.00 20.00    -0.165 F 
HETATM    9  F9  UNL     1     -32.222   8.289   3.063  1.00 20.00    -0.165 F 
HETATM   10  F10 UNL     1     -32.657   8.510   0.936  1.00 20.00    -0.165 F 
ENDBRANCH   1   7
TORSDOF 2
ENDMDL
MODEL 2
REMARK VINA RESULT:      -3.0      1.063      3.400
REMARK  2 active torsions:
REMARK  status: ('A' for Active; 'I' for Inactive)
REMARK    1  A    between atoms: C1_1  and  C2_2 
REMARK    2  A    between atoms: C2_2  and  C3_3 
ROOT
HETATM    1  C2  UNL     1     -32.205   7.713   1.826  1.00 20.00     0.396 C 
HETATM    2  F6  UNL     1     -30.913   7.660   2.238  1.00 20.00    -0.190 F 
HETATM    3  F7  UNL     1     -32.921   8.247   2.849  1.00 20.00    -0.190 F 
ENDROOT
BRANCH   1   4
HETATM    4  C1  UNL     1     -32.301   8.624   0.626  1.00 20.00     0.434 C 
HETATM    5  F4  UNL     1     -31.070   8.763   0.072  1.00 20.00    -0.207 F 
HETATM    6  F5  UNL     1     -32.701   9.860   1.007  1.00 20.00    -0.207 F 
ENDBRANCH   1   4
BRANCH   1   7
HETATM    7  C3  UNL     1     -32.694   6.312   1.565  1.00 20.00     0.460 C 
HETATM    8  F8  UNL     1     -33.399   5.848   2.618  1.00 20.00    -0.165 F 
HETATM    9  F9  UNL     1     -31.662   5.466   1.356  1.00 20.00    -0.165 F 
HETATM   10  F10 UNL     1     -33.496   6.264   0.480  1.00 20.00    -0.165 F 
ENDBRANCH   1   7
TORSDOF 2
ENDMDL
MODEL 3
REMARK VINA RESULT:      -3.0      0.027      1.203
REMARK  2 active torsions:
REMARK  status: ('A' for Active; 'I' for Inactive)
REMARK    1  A    between atoms: C1_1  and  C2_2 
REMARK    2  A    between atoms: C2_2  and  C3_3 
ROOT
HETATM    1  C2  UNL     1     -32.849   6.338   1.874  1.00 20.00     0.396 C 
HETATM    2  F6  UNL     1     -31.959   5.359   1.568  1.00 20.00    -0.190 F 
HETATM    3  F7  UNL     1     -33.786   6.335   0.892  1.00 20.00    -0.190 F 
ENDROOT
BRANCH   1   4
HETATM    4  C1  UNL     1     -33.509   6.008   3.190  1.00 20.00     0.434 C 
HETATM    5  F4  UNL     1     -33.672   4.664   3.284  1.00 20.00    -0.207 F 
HETATM    6  F5  UNL     1     -34.746   6.557   3.244  1.00 20.00    -0.207 F 
ENDBRANCH   1   4
BRANCH   1   7
HETATM    7  C3  UNL     1     -32.137   7.666   1.868  1.00 20.00     0.460 C 
HETATM    8  F8  UNL     1     -32.262   8.279   3.065  1.00 20.00    -0.165 F 
HETATM    9  F9  UNL     1     -32.649   8.491   0.929  1.00 20.00    -0.165 F 
HETATM   10  F10 UNL     1     -30.819   7.519   1.618  1.00 20.00    -0.165 F 
ENDBRANCH   1   7
TORSDOF 2
ENDMDL
MODEL 4
REMARK VINA RESULT:      -3.0      1.286      2.502
REMARK  2 active torsions:
REMARK  status: ('A' for Active; 'I' for Inactive)
REMARK    1  A    between atoms: C1_1  and  C2_2 
REMARK    2  A    between atoms: C2_2  and  C3_3 
ROOT
HETATM    1  C2  UNL     1     -33.622   7.590   3.425  1.00 20.00     0.396 C 
HETATM    2  F6  UNL     1     -34.494   8.628   3.365  1.00 20.00    -0.190 F 
HETATM    3  F7  UNL     1     -33.013   7.659   4.637  1.00 20.00    -0.190 F 
ENDROOT
BRANCH   1   4
HETATM    4  C1  UNL     1     -34.390   6.295   3.330  1.00 20.00     0.434 C 
HETATM    5  F4  UNL     1     -35.494   6.372   4.117  1.00 20.00    -0.207 F 
HETATM    6  F5  UNL     1     -33.643   5.270   3.806  1.00 20.00    -0.207 F 
ENDBRANCH   1   4
BRANCH   1   7
HETATM    7  C3  UNL     1     -32.584   7.759   2.346  1.00 20.00     0.460 C 
HETATM    8  F8  UNL     1     -31.397   8.124   2.878  1.00 20.00    -0.165 F 
HETATM    9  F9  UNL     1     -32.949   8.713   1.462  1.00 20.00    -0.165 F 
HETATM   10  F10 UNL     1     -32.392   6.612   1.662  1.00 20.00    -0.165 F 
ENDBRANCH   1   7
TORSDOF 2
ENDMDL
MODEL 5
REMARK VINA RESULT:      -2.9      0.763      3.208
REMARK  2 active torsions:
REMARK  status: ('A' for Active; 'I' for Inactive)
REMARK    1  A    between atoms: C1_1  and  C2_2 
REMARK    2  A    between atoms: C2_2  and  C3_3 
ROOT
HETATM    1  C2  UNL     1     -33.090   6.547   2.024  1.00 20.00     0.396 C 
HETATM    2  F6  UNL     1     -33.875   6.506   0.917  1.00 20.00    -0.190 F 
HETATM    3  F7  UNL     1     -32.286   5.455   1.976  1.00 20.00    -0.190 F 
ENDROOT
BRANCH   1   4
HETATM    4  C1  UNL     1     -32.238   7.793   1.976  1.00 20.00     0.434 C 
HETATM    5  F4  UNL     1     -32.586   8.530   0.891  1.00 20.00    -0.207 F 
HETATM    6  F5  UNL     1     -30.933   7.462   1.823  1.00 20.00    -0.207 F 
ENDBRANCH   1   4
BRANCH   1   7
HETATM    7  C3  UNL     1     -33.964   6.458   3.248  1.00 20.00     0.460 C 
HETATM    8  F8  UNL     1     -33.587   7.368   4.172  1.00 20.00    -0.165 F 
HETATM    9  F9  UNL     1     -33.884   5.236   3.818  1.00 20.00    -0.165 F 
HETATM   10  F10 UNL     1     -35.259   6.690   2.947  1.00 20.00    -0.165 F 
ENDBRANCH   1   7
TORSDOF 2
ENDMDL
MODEL 6
REMARK VINA RESULT:      -2.9      0.765      3.254
REMARK  2 active torsions:
REMARK  status: ('A' for Active; 'I' for Inactive)
REMARK    1  A    between atoms: C1_1  and  C2_2 
REMARK    2  A    between atoms: C2_2  and  C3_3 
ROOT
HETATM    1  C2  UNL     1     -33.093   6.554   2.030  1.00 20.00     0.396 C 
HETATM    2  F6  UNL     1     -33.878   6.510   0.924  1.00 20.00    -0.190 F 
HETATM    3  F7  UNL     1     -32.290   5.460   1.986  1.00 20.00    -0.190 F 
ENDROOT
BRANCH   1   4
HETATM    4  C1  UNL     1     -32.239   7.798   1.978  1.00 20.00     0.434 C 
HETATM    5  F4  UNL     1     -32.582   8.529   0.887  1.00 20.00    -0.207 F 
HETATM    6  F5  UNL     1     -30.934   7.464   1.830  1.00 20.00    -0.207 F 
ENDBRANCH   1   4
BRANCH   1   7
HETATM    7  C3  UNL     1     -33.967   6.471   3.254  1.00 20.00     0.460 C 
HETATM    8  F8  UNL     1     -33.886   5.246   3.817  1.00 20.00    -0.165 F 
HETATM    9  F9  UNL     1     -35.262   6.697   2.947  1.00 20.00    -0.165 F 
HETATM   10  F10 UNL     1     -33.599   7.375   4.187  1.00 20.00    -0.165 F 
ENDBRANCH   1   7
TORSDOF 2
ENDMDL
MODEL 7
REMARK VINA RESULT:      -2.9      0.752      3.294
REMARK  2 active torsions:
REMARK  status: ('A' for Active; 'I' for Inactive)
REMARK    1  A    between atoms: C1_1  and  C2_2 
REMARK    2  A    between atoms: C2_2  and  C3_3 
ROOT
HETATM    1  C2  UNL     1     -33.087   6.550   2.033  1.00 20.00     0.396 C 
HETATM    2  F6  UNL     1     -33.872   6.498   0.927  1.00 20.00    -0.190 F 
HETATM    3  F7  UNL     1     -32.270   5.467   1.985  1.00 20.00    -0.190 F 
ENDROOT
BRANCH   1   4
HETATM    4  C1  UNL     1     -32.250   7.805   1.985  1.00 20.00     0.434 C 
HETATM    5  F4  UNL     1     -32.578   8.517   0.877  1.00 20.00    -0.207 F 
HETATM    6  F5  UNL     1     -30.938   7.489   1.872  1.00 20.00    -0.207 F 
ENDBRANCH   1   4
BRANCH   1   7
HETATM    7  C3  UNL     1     -33.959   6.450   3.257  1.00 20.00     0.460 C 
HETATM    8  F8  UNL     1     -35.253   6.676   2.942  1.00 20.00    -0.165 F 
HETATM    9  F9  UNL     1     -33.599   7.358   4.190  1.00 20.00    -0.165 F 
HETATM   10  F10 UNL     1     -33.882   5.225   3.820  1.00 20.00    -0.165 F 
ENDBRANCH   1   7
TORSDOF 2
ENDMDL
MODEL 8
REMARK VINA RESULT:      -2.8      1.264      2.750
REMARK  2 active torsions:
REMARK  status: ('A' for Active; 'I' for Inactive)
REMARK    1  A    between atoms: C1_1  and  C2_2 
REMARK    2  A    between atoms: C2_2  and  C3_3 
ROOT
HETATM    1  C2  UNL     1     -32.174   7.959   1.776  1.00 20.00     0.396 C 
HETATM    2  F6  UNL     1     -32.959   8.459   2.764  1.00 20.00    -0.190 F 
HETATM    3  F7  UNL     1     -30.920   7.854   2.286  1.00 20.00    -0.190 F 
ENDROOT
BRANCH   1   4
HETATM    4  C1  UNL     1     -32.672   6.584   1.400  1.00 20.00     0.434 C 
HETATM    5  F4  UNL     1     -33.487   6.122   2.382  1.00 20.00    -0.207 F 
HETATM    6  F5  UNL     1     -31.635   5.718   1.313  1.00 20.00    -0.207 F 
ENDBRANCH   1   4
BRANCH   1   7
HETATM    7  C3  UNL     1     -32.154   8.932   0.626  1.00 20.00     0.460 C 
HETATM    8  F8  UNL     1     -33.072   8.590  -0.304  1.00 20.00    -0.165 F 
HETATM    9  F9  UNL     1     -30.946   8.952   0.023  1.00 20.00    -0.165 F 
HETATM   10  F10 UNL     1     -32.434  10.187   1.036  1.00 20.00    -0.165 F 
ENDBRANCH   1   7
TORSDOF 2
ENDMDL
MODEL 9
REMARK VINA RESULT:      -2.8      1.263      2.560
REMARK  2 active torsions:
REMARK  status: ('A' for Active; 'I' for Inactive)
REMARK    1  A    between atoms: C1_1  and  C2_2 
REMARK    2  A    between atoms: C2_2  and  C3_3 
ROOT
HETATM    1  C2  UNL     1     -32.171   7.951   1.772  1.00 20.00     0.396 C 
HETATM    2  F6  UNL     1     -32.961   8.448   2.758  1.00 20.00    -0.190 F 
HETATM    3  F7  UNL     1     -30.918   7.852   2.286  1.00 20.00    -0.190 F 
ENDROOT
BRANCH   1   4
HETATM    4  C1  UNL     1     -32.662   6.575   1.395  1.00 20.00     0.434 C 
HETATM    5  F4  UNL     1     -33.483   6.111   2.372  1.00 20.00    -0.207 F 
HETATM    6  F5  UNL     1     -31.622   5.711   1.316  1.00 20.00    -0.207 F 
ENDBRANCH   1   4
BRANCH   1   7
HETATM    7  C3  UNL     1     -32.153   8.924   0.622  1.00 20.00     0.460 C 
HETATM    8  F8  UNL     1     -30.941   8.936   0.026  1.00 20.00    -0.165 F 
HETATM    9  F9  UNL     1     -32.417  10.181   1.041  1.00 20.00    -0.165 F 
HETATM   10  F10 UNL     1     -33.068   8.598  -0.314  1.00 20.00    -0.165 F 
ENDBRANCH   1   7
TORSDOF 2
ENDMDL
