MODEL 1
REMARK VINA RESULT:      -2.7      0.000      0.000
REMARK  2 active torsions:
REMARK  status: ('A' for Active; 'I' for Inactive)
REMARK    1  A    between atoms: C1_1  and  C2_2 
REMARK    2  A    between atoms: C2_2  and  C3_3 
ROOT
HETATM    1  C2  UNL     1     -33.884   7.286   3.593  1.00 20.00     0.365 C 
HETATM    2  F5  UNL     1     -34.504   8.384   3.074  1.00 20.00    -0.193 F 
HETATM    3  F6  UNL     1     -33.244   7.717   4.716  1.00 20.00    -0.193 F 
ENDROOT
BRANCH   1   4
HETATM    4  C1  UNL     1     -32.842   6.820   2.587  1.00 20.00     0.345 C 
HETATM    5  F4  UNL     1     -33.491   6.135   1.602  1.00 20.00    -0.226 F 
HETATM    6 CL9  UNL     1     -31.950   8.156   1.837  1.00 20.00    -0.083 Cl
ENDBRANCH   1   4
BRANCH   1   7
HETATM    7  C3  UNL     1     -34.954   6.289   4.010  1.00 20.00     0.388 C 
HETATM    8  F7  UNL     1     -36.003   6.395   3.151  1.00 20.00    -0.181 F 
HETATM    9  F8  UNL     1     -35.439   6.597   5.239  1.00 20.00    -0.181 F 
HETATM   10 CL10 UNL     1     -34.375   4.615   4.004  1.00 20.00    -0.042 Cl
ENDBRANCH   1   7
TORSDOF 2
ENDMDL
MODEL 2
REMARK VINA RESULT:      -2.5      2.569      4.335
REMARK  2 active torsions:
REMARK  status: ('A' for Active; 'I' for Inactive)
REMARK    1  A    between atoms: C1_1  and  C2_2 
REMARK    2  A    between atoms: C2_2  and  C3_3 
ROOT
HETATM    1  C2  UNL     1     -32.111   7.938   1.802  1.00 20.00     0.365 C 
HETATM    2  F5  UNL     1     -31.168   6.998   1.510  1.00 20.00    -0.193 F 
HETATM    3  F6  UNL     1     -31.649   8.599   2.900  1.00 20.00    -0.193 F 
ENDROOT
BRANCH   1   4
HETATM    4  C1  UNL     1     -33.394   7.211   2.177  1.00 20.00     0.345 C 
HETATM    5  F4  UNL     1     -33.174   5.874   2.025  1.00 20.00    -0.226 F 
HETATM    6 CL9  UNL     1     -33.896   7.501   3.853  1.00 20.00    -0.083 Cl
ENDBRANCH   1   4
BRANCH   1   7
HETATM    7  C3  UNL     1     -32.174   8.924   0.646  1.00 20.00     0.388 C 
HETATM    8  F7  UNL     1     -33.037   8.442  -0.288  1.00 20.00    -0.181 F 
HETATM    9  F8  UNL     1     -30.967   9.017   0.034  1.00 20.00    -0.181 F 
HETATM   10 CL10 UNL     1     -32.711  10.536   1.145  1.00 20.00    -0.042 Cl
ENDBRANCH   1   7
TORSDOF 2
ENDMDL
MODEL 3
REMARK VINA RESULT:      -2.5      1.823      2.624
REMARK  2 active torsions:
REMARK  status: ('A' for Active; 'I' for Inactive)
REMARK    1  A    between atoms: C1_1  and  C2_2 
REMARK    2  A    between atoms: C2_2  and  C3_3 
ROOT
HETATM    1  C2  UNL     1     -33.109   6.643   2.076  1.00 20.00     0.365 C 
HETATM    2  F5  UNL     1     -32.366   5.502   2.017  1.00 20.00    -0.193 F 
HETATM    3  F6  UNL     1     -33.860   6.657   0.940  1.00 20.00    -0.193 F 
ENDROOT
BRANCH   1   4
HETATM    4  C1  UNL     1     -32.152   7.825   2.041  1.00 20.00     0.345 C 
HETATM    5  F4  UNL     1     -30.911   7.348   1.739  1.00 20.00    -0.226 F 
HETATM    6 CL9  UNL     1     -32.588   9.040   0.825  1.00 20.00    -0.083 Cl
ENDBRANCH   1   4
BRANCH   1   7
HETATM    7  C3  UNL     1     -34.050   6.535   3.266  1.00 20.00     0.388 C 
HETATM    8  F7  UNL     1     -33.912   5.300   3.817  1.00 20.00    -0.181 F 
HETATM    9  F8  UNL     1     -35.341   6.627   2.862  1.00 20.00    -0.181 F 
HETATM   10 CL10 UNL     1     -33.731   7.756   4.509  1.00 20.00    -0.042 Cl
ENDBRANCH   1   7
TORSDOF 2
ENDMDL
MODEL 4
REMARK VINA RESULT:      -2.5      0.983      3.316
REMARK  2 active torsions:
REMARK  status: ('A' for Active; 'I' for Inactive)
REMARK    1  A    between atoms: C1_1  and  C2_2 
REMARK    2  A    between atoms: C2_2  and  C3_3 
ROOT
HETATM    1  C2  UNL     1     -34.402   6.294   3.412  1.00 20.00     0.365 C 
HETATM    2  F5  UNL     1     -35.681   6.570   3.029  1.00 20.00    -0.193 F 
HETATM    3  F6  UNL     1     -33.802   5.731   2.326  1.00 20.00    -0.193 F 
ENDROOT
BRANCH   1   4
HETATM    4  C1  UNL     1     -34.461   5.259   4.525  1.00 20.00     0.345 C 
HETATM    5  F4  UNL     1     -35.774   5.046   4.826  1.00 20.00    -0.226 F 
HETATM    6 CL9  UNL     1     -33.739   3.704   4.072  1.00 20.00    -0.083 Cl
ENDBRANCH   1   4
BRANCH   1   7
HETATM    7  C3  UNL     1     -33.702   7.610   3.712  1.00 20.00     0.388 C 
HETATM    8  F7  UNL     1     -33.177   7.546   4.965  1.00 20.00    -0.181 F 
HETATM    9  F8  UNL     1     -34.594   8.631   3.728  1.00 20.00    -0.181 F 
HETATM   10 CL10 UNL     1     -32.404   7.977   2.565  1.00 20.00    -0.042 Cl
ENDBRANCH   1   7
TORSDOF 2
ENDMDL
MODEL 5
REMARK VINA RESULT:      -2.4      1.531      3.881
REMARK  2 active torsions:
REMARK  status: ('A' for Active; 'I' for Inactive)
REMARK    1  A    between atoms: C1_1  and  C2_2 
REMARK    2  A    between atoms: C2_2  and  C3_3 
ROOT
HETATM    1  C2  UNL     1     -32.942   6.509   2.011  1.00 20.00     0.365 C 
HETATM    2  F5  UNL     1     -33.847   6.578   0.995  1.00 20.00    -0.193 F 
HETATM    3  F6  UNL     1     -32.159   5.428   1.739  1.00 20.00    -0.193 F 
ENDROOT
BRANCH   1   4
HETATM    4  C1  UNL     1     -33.706   6.244   3.299  1.00 20.00     0.345 C 
HETATM    5  F4  UNL     1     -34.947   6.794   3.168  1.00 20.00    -0.226 F 
HETATM    6 CL9  UNL     1     -33.901   4.518   3.653  1.00 20.00    -0.083 Cl
ENDBRANCH   1   4
BRANCH   1   7
HETATM    7  C3  UNL     1     -32.069   7.753   1.954  1.00 20.00     0.388 C 
HETATM    8  F7  UNL     1     -30.816   7.386   1.576  1.00 20.00    -0.181 F 
HETATM    9  F8  UNL     1     -31.946   8.306   3.186  1.00 20.00    -0.181 F 
HETATM   10 CL10 UNL     1     -32.677   8.969   0.818  1.00 20.00    -0.042 Cl
ENDBRANCH   1   7
TORSDOF 2
ENDMDL
MODEL 6
REMARK VINA RESULT:      -2.4      1.712      3.613
REMARK  2 active torsions:
REMARK  status: ('A' for Active; 'I' for Inactive)
REMARK    1  A    between atoms: C1_1  and  C2_2 
REMARK    2  A    between atoms: C2_2  and  C3_3 
ROOT
HETATM    1  C2  UNL     1     -33.350   7.610   3.125  1.00 20.00     0.365 C 
HETATM    2  F5  UNL     1     -32.853   7.679   4.393  1.00 20.00    -0.193 F 
HETATM    3  F6  UNL     1     -34.240   8.636   3.019  1.00 20.00    -0.193 F 
ENDROOT
BRANCH   1   4
HETATM    4  C1  UNL     1     -34.104   6.296   2.990  1.00 20.00     0.345 C 
HETATM    5  F4  UNL     1     -33.238   5.286   3.291  1.00 20.00    -0.226 F 
HETATM    6 CL9  UNL     1     -35.495   6.175   4.083  1.00 20.00    -0.083 Cl
ENDBRANCH   1   4
BRANCH   1   7
HETATM    7  C3  UNL     1     -32.209   7.869   2.154  1.00 20.00     0.388 C 
HETATM    8  F7  UNL     1     -31.904   6.704   1.523  1.00 20.00    -0.181 F 
HETATM    9  F8  UNL     1     -31.090   8.243   2.821  1.00 20.00    -0.181 F 
HETATM   10 CL10 UNL     1     -32.608   9.092   0.935  1.00 20.00    -0.042 Cl
ENDBRANCH   1   7
TORSDOF 2
ENDMDL
MODEL 7
REMARK VINA RESULT:      -2.4      1.329      2.305
REMARK  2 active torsions:
REMARK  status: ('A' for Active; 'I' for Inactive)
REMARK    1  A    between atoms: C1_1  and  C2_2 
REMARK    2  A    between atoms: C2_2  and  C3_3 
ROOT
HETATM    1  C2  UNL     1     -33.086   6.594   2.049  1.00 20.00     0.365 C 
HETATM    2  F5  UNL     1     -32.319   5.475   1.910  1.00 20.00    -0.193 F 
HETATM    3  F6  UNL     1     -33.875   6.644   0.939  1.00 20.00    -0.193 F 
ENDROOT
BRANCH   1   4
HETATM    4  C1  UNL     1     -32.159   7.799   2.041  1.00 20.00     0.345 C 
HETATM    5  F4  UNL     1     -30.899   7.354   1.766  1.00 20.00    -0.226 F 
HETATM    6 CL9  UNL     1     -32.596   9.009   0.820  1.00 20.00    -0.083 Cl
ENDBRANCH   1   4
BRANCH   1   7
HETATM    7  C3  UNL     1     -33.985   6.406   3.261  1.00 20.00     0.388 C 
HETATM    8  F7  UNL     1     -35.256   6.740   2.914  1.00 20.00    -0.181 F 
HETATM    9  F8  UNL     1     -33.628   7.256   4.255  1.00 20.00    -0.181 F 
HETATM   10 CL10 UNL     1     -33.976   4.743   3.873  1.00 20.00    -0.042 Cl
ENDBRANCH   1   7
TORSDOF 2
ENDMDL
MODEL 8
REMARK VINA RESULT:      -2.2      0.693      3.208
REMARK  2 active torsions:
REMARK  status: ('A' for Active; 'I' for Inactive)
REMARK    1  A    between atoms: C1_1  and  C2_2 
REMARK    2  A    between atoms: C2_2  and  C3_3 
ROOT
HETATM    1  C2  UNL     1     -33.883   7.181   3.499  1.00 20.00     0.365 C 
HETATM    2  F5  UNL     1     -32.976   7.529   4.455  1.00 20.00    -0.193 F 
HETATM    3  F6  UNL     1     -34.496   8.340   3.128  1.00 20.00    -0.193 F 
ENDROOT
BRANCH   1   4
HETATM    4  C1  UNL     1     -34.915   6.270   4.146  1.00 20.00     0.345 C 
HETATM    5  F4  UNL     1     -36.081   6.401   3.449  1.00 20.00    -0.226 F 
HETATM    6 CL9  UNL     1     -34.448   4.559   4.124  1.00 20.00    -0.083 Cl
ENDBRANCH   1   4
BRANCH   1   7
HETATM    7  C3  UNL     1     -33.122   6.641   2.298  1.00 20.00     0.388 C 
HETATM    8  F7  UNL     1     -34.009   6.403   1.295  1.00 20.00    -0.181 F 
HETATM    9  F8  UNL     1     -32.554   5.445   2.592  1.00 20.00    -0.181 F 
HETATM   10 CL10 UNL     1     -31.880   7.758   1.711  1.00 20.00    -0.042 Cl
ENDBRANCH   1   7
TORSDOF 2
ENDMDL
MODEL 9
REMARK VINA RESULT:      -2.0      1.211      1.223
REMARK  2 active torsions:
REMARK  status: ('A' for Active; 'I' for Inactive)
REMARK    1  A    between atoms: C1_1  and  C2_2 
REMARK    2  A    between atoms: C2_2  and  C3_3 
ROOT
HETATM    1  C2  UNL     1     -33.871   7.493   3.680  1.00 20.00     0.365 C 
HETATM    2  F5  UNL     1     -34.544   8.670   3.816  1.00 20.00    -0.193 F 
HETATM    3  F6  UNL     1     -32.962   7.465   4.694  1.00 20.00    -0.193 F 
ENDROOT
BRANCH   1   4
HETATM    4  C1  UNL     1     -33.122   7.534   2.357  1.00 20.00     0.345 C 
HETATM    5  F4  UNL     1     -31.912   8.123   2.581  1.00 20.00    -0.226 F 
HETATM    6 CL9  UNL     1     -32.834   5.926   1.667  1.00 20.00    -0.083 Cl
ENDBRANCH   1   4
BRANCH   1   7
HETATM    7  C3  UNL     1     -34.856   6.355   3.895  1.00 20.00     0.388 C 
HETATM    8  F7  UNL     1     -35.799   6.407   2.917  1.00 20.00    -0.181 F 
HETATM    9  F8  UNL     1     -35.519   6.514   5.068  1.00 20.00    -0.181 F 
HETATM   10 CL10 UNL     1     -34.084   4.761   3.863  1.00 20.00    -0.042 Cl
ENDBRANCH   1   7
TORSDOF 2
ENDMDL
