MODEL 1
REMARK VINA RESULT:      -1.3      0.000      0.000
REMARK  0 active torsions:
REMARK  status: ('A' for Active; 'I' for Inactive)
ROOT
HETATM    1  C1  UNL     1     -32.363   6.252   1.316  1.00 20.00    -0.030 A 
HETATM    2  C2  UNL     1     -32.014   7.493   1.672  1.00 20.00    -0.030 A 
HETATM    3  C3  UNL     1     -33.313   5.400   2.101  1.00 20.00     0.036 A 
HETATM    4  C4  UNL     1     -32.532   8.182   2.896  1.00 20.00     0.036 A 
HETATM    5  C5  UNL     1     -34.939   7.218   2.983  1.00 20.00     0.020 A 
HETATM    6  C6  UNL     1     -34.022   6.051   3.277  1.00 20.00    -0.032 A 
HETATM    7  C7  UNL     1     -33.621   7.474   3.684  1.00 20.00    -0.032 A 
HETATM    8  C8  UNL     1     -34.480   5.060   4.319  1.00 20.00     0.016 C 
HETATM    9  C9  UNL     1     -33.684   7.901   5.131  1.00 20.00     0.016 C 
ENDROOT
TORSDOF 0
ENDMDL
MODEL 2
REMARK VINA RESULT:      -0.8      0.981      3.557
REMARK  0 active torsions:
REMARK  status: ('A' for Active; 'I' for Inactive)
ROOT
HETATM    1  C1  UNL     1     -34.427   7.127   4.094  1.00 20.00    -0.030 A 
HETATM    2  C2  UNL     1     -34.531   5.804   3.930  1.00 20.00    -0.030 A 
HETATM    3  C3  UNL     1     -33.506   7.993   3.290  1.00 20.00     0.036 A 
HETATM    4  C4  UNL     1     -33.741   5.028   2.923  1.00 20.00     0.036 A 
HETATM    5  C5  UNL     1     -33.604   6.770   1.006  1.00 20.00     0.020 A 
HETATM    6  C6  UNL     1     -32.770   7.339   2.133  1.00 20.00    -0.032 A 
HETATM    7  C7  UNL     1     -32.890   5.822   1.945  1.00 20.00    -0.032 A 
HETATM    8  C8  UNL     1     -31.497   8.056   1.755  1.00 20.00     0.016 C 
HETATM    9  C9  UNL     1     -31.737   5.029   1.379  1.00 20.00     0.016 C 
ENDROOT
TORSDOF 0
ENDMDL
MODEL 3
REMARK VINA RESULT:      -0.0      0.947      2.773
REMARK  0 active torsions:
REMARK  status: ('A' for Active; 'I' for Inactive)
ROOT
HETATM    1  C1  UNL     1     -32.541   8.451   2.671  1.00 20.00    -0.030 A 
HETATM    2  C2  UNL     1     -33.478   8.197   3.590  1.00 20.00    -0.030 A 
HETATM    3  C3  UNL     1     -31.966   7.408   1.762  1.00 20.00     0.036 A 
HETATM    4  C4  UNL     1     -34.066   6.840   3.823  1.00 20.00     0.036 A 
HETATM    5  C5  UNL     1     -34.054   5.914   1.400  1.00 20.00     0.020 A 
HETATM    6  C6  UNL     1     -32.599   6.027   1.800  1.00 20.00    -0.032 A 
HETATM    7  C7  UNL     1     -33.673   5.736   2.855  1.00 20.00    -0.032 A 
HETATM    8  C8  UNL     1     -31.669   4.933   1.336  1.00 20.00     0.016 C 
HETATM    9  C9  UNL     1     -33.815   4.352   3.439  1.00 20.00     0.016 C 
ENDROOT
TORSDOF 0
ENDMDL
MODEL 4
REMARK VINA RESULT:      -0.0      0.939      3.020
REMARK  0 active torsions:
REMARK  status: ('A' for Active; 'I' for Inactive)
ROOT
HETATM    1  C1  UNL     1     -34.283   6.640   3.936  1.00 20.00    -0.030 A 
HETATM    2  C2  UNL     1     -33.673   7.823   4.066  1.00 20.00    -0.030 A 
HETATM    3  C3  UNL     1     -34.123   5.750   2.742  1.00 20.00     0.036 A 
HETATM    4  C4  UNL     1     -32.757   8.402   3.033  1.00 20.00     0.036 A 
HETATM    5  C5  UNL     1     -31.648   6.234   2.137  1.00 20.00     0.020 A 
HETATM    6  C6  UNL     1     -33.095   6.162   1.701  1.00 20.00    -0.032 A 
HETATM    7  C7  UNL     1     -32.397   7.519   1.849  1.00 20.00    -0.032 A 
HETATM    8  C8  UNL     1     -33.375   5.594   0.331  1.00 20.00     0.016 C 
HETATM    9  C9  UNL     1     -31.979   8.300   0.628  1.00 20.00     0.016 C 
ENDROOT
TORSDOF 0
ENDMDL
MODEL 5
REMARK VINA RESULT:       0.5      0.952      2.651
REMARK  0 active torsions:
REMARK  status: ('A' for Active; 'I' for Inactive)
ROOT
HETATM    1  C1  UNL     1     -32.299   8.510   3.448  1.00 20.00    -0.030 A 
HETATM    2  C2  UNL     1     -31.676   8.154   2.319  1.00 20.00    -0.030 A 
HETATM    3  C3  UNL     1     -33.508   7.808   3.986  1.00 20.00     0.036 A 
HETATM    4  C4  UNL     1     -32.111   7.011   1.456  1.00 20.00     0.036 A 
HETATM    5  C5  UNL     1     -32.979   5.372   3.270  1.00 20.00     0.020 A 
HETATM    6  C6  UNL     1     -33.946   6.536   3.277  1.00 20.00    -0.032 A 
HETATM    7  C7  UNL     1     -33.231   6.129   1.983  1.00 20.00    -0.032 A 
HETATM    8  C8  UNL     1     -35.407   6.219   3.474  1.00 20.00     0.016 C 
HETATM    9  C9  UNL     1     -33.981   5.403   0.893  1.00 20.00     0.016 C 
ENDROOT
TORSDOF 0
ENDMDL
MODEL 6
REMARK VINA RESULT:       0.8      0.784      2.226
REMARK  0 active torsions:
REMARK  status: ('A' for Active; 'I' for Inactive)
ROOT
HETATM    1  C1  UNL     1     -33.757   5.290   2.346  1.00 20.00    -0.030 A 
HETATM    2  C2  UNL     1     -32.796   5.629   1.481  1.00 20.00    -0.030 A 
HETATM    3  C3  UNL     1     -34.156   6.136   3.516  1.00 20.00     0.036 A 
HETATM    4  C4  UNL     1     -32.002   6.895   1.576  1.00 20.00     0.036 A 
HETATM    5  C5  UNL     1     -33.810   8.502   2.512  1.00 20.00     0.020 A 
HETATM    6  C6  UNL     1     -33.527   7.515   3.624  1.00 20.00    -0.032 A 
HETATM    7  C7  UNL     1     -32.425   7.903   2.632  1.00 20.00    -0.032 A 
HETATM    8  C8  UNL     1     -33.508   8.052   5.034  1.00 20.00     0.016 C 
HETATM    9  C9  UNL     1     -31.309   8.828   3.053  1.00 20.00     0.016 C 
ENDROOT
TORSDOF 0
ENDMDL
MODEL 7
REMARK VINA RESULT:       0.8      1.018      2.488
REMARK  0 active torsions:
REMARK  status: ('A' for Active; 'I' for Inactive)
ROOT
HETATM    1  C1  UNL     1     -31.994   6.897   1.427  1.00 20.00    -0.030 A 
HETATM    2  C2  UNL     1     -32.388   5.649   1.702  1.00 20.00    -0.030 A 
HETATM    3  C3  UNL     1     -32.605   8.116   2.047  1.00 20.00     0.036 A 
HETATM    4  C4  UNL     1     -33.486   5.319   2.663  1.00 20.00     0.036 A 
HETATM    5  C5  UNL     1     -33.148   7.204   4.413  1.00 20.00     0.020 A 
HETATM    6  C6  UNL     1     -33.623   7.897   3.154  1.00 20.00    -0.032 A 
HETATM    7  C7  UNL     1     -34.074   6.465   3.469  1.00 20.00    -0.032 A 
HETATM    8  C8  UNL     1     -34.579   9.052   3.322  1.00 20.00     0.016 C 
HETATM    9  C9  UNL     1     -35.478   6.196   3.953  1.00 20.00     0.016 C 
ENDROOT
TORSDOF 0
ENDMDL
MODEL 8
REMARK VINA RESULT:       0.9      1.131      2.846
REMARK  0 active torsions:
REMARK  status: ('A' for Active; 'I' for Inactive)
ROOT
HETATM    1  C1  UNL     1     -32.377   5.403   1.511  1.00 20.00    -0.030 A 
HETATM    2  C2  UNL     1     -33.220   5.187   2.526  1.00 20.00    -0.030 A 
HETATM    3  C3  UNL     1     -31.971   6.768   1.047  1.00 20.00     0.036 A 
HETATM    4  C4  UNL     1     -33.860   6.282   3.321  1.00 20.00     0.036 A 
HETATM    5  C5  UNL     1     -31.948   8.036   3.309  1.00 20.00     0.020 A 
HETATM    6  C6  UNL     1     -32.435   7.953   1.878  1.00 20.00    -0.032 A 
HETATM    7  C7  UNL     1     -33.402   7.704   3.042  1.00 20.00    -0.032 A 
HETATM    8  C8  UNL     1     -32.499   9.241   1.096  1.00 20.00     0.016 C 
HETATM    9  C9  UNL     1     -34.426   8.745   3.419  1.00 20.00     0.016 C 
ENDROOT
TORSDOF 0
ENDMDL
MODEL 9
REMARK VINA RESULT:       1.0      0.812      2.622
REMARK  0 active torsions:
REMARK  status: ('A' for Active; 'I' for Inactive)
ROOT
HETATM    1  C1  UNL     1     -34.180   4.602   3.588  1.00 20.00    -0.030 A 
HETATM    2  C2  UNL     1     -33.466   4.573   2.458  1.00 20.00    -0.030 A 
HETATM    3  C3  UNL     1     -34.395   5.841   4.402  1.00 20.00     0.036 A 
HETATM    4  C4  UNL     1     -32.794   5.774   1.869  1.00 20.00     0.036 A 
HETATM    5  C5  UNL     1     -34.502   7.617   2.515  1.00 20.00     0.020 A 
HETATM    6  C6  UNL     1     -33.892   7.152   3.820  1.00 20.00    -0.032 A 
HETATM    7  C7  UNL     1     -33.073   7.117   2.524  1.00 20.00    -0.032 A 
HETATM    8  C8  UNL     1     -33.619   8.203   4.867  1.00 20.00     0.016 C 
HETATM    9  C9  UNL     1     -31.986   8.136   2.281  1.00 20.00     0.016 C 
ENDROOT
TORSDOF 0
ENDMDL
