MODEL 1
REMARK VINA RESULT:      -1.1      0.000      0.000
REMARK  4 active torsions:
REMARK  status: ('A' for Active; 'I' for Inactive)
REMARK    1  A    between atoms: C2_2  and  C8_8 
REMARK    2  A    between atoms: C3_3  and  C9_9 
REMARK    3  A    between atoms: C8_8  and  C9_9 
REMARK    4  A    between atoms: C9_9  and  C10_10 
ROOT
HETATM    1  C9  UNL     1     -33.291   7.235   2.172  1.00 20.00     0.062 C 
ENDROOT
BRANCH   1   2
HETATM    2  C3  UNL     1     -33.871   7.234   3.590  1.00 20.00     0.127 C 
HETATM    3  C5  UNL     1     -35.064   6.346   3.836  1.00 20.00     0.091 C 
HETATM    4  O11 UNL     1     -33.413   7.937   4.492  1.00 20.00    -0.298 OA
ENDBRANCH   1   2
BRANCH   1   5
HETATM    5  C8  UNL     1     -32.049   8.145   2.079  1.00 20.00     0.045 C 
BRANCH   5   6
HETATM    6  C2  UNL     1     -32.019   9.015   0.838  1.00 20.00    -0.092 C 
HETATM    7  C1  UNL     1     -31.267   8.695  -0.226  1.00 20.00     0.014 C 
HETATM    8  C4  UNL     1     -32.828  10.280   0.866  1.00 20.00     0.042 C 
ENDBRANCH   5   6
ENDBRANCH   1   5
BRANCH   1   9
HETATM    9  C10 UNL     1     -33.044   5.771   1.719  1.00 20.00    -0.011 C 
HETATM   10  C6  UNL     1     -31.546   5.458   1.644  1.00 20.00     0.010 C 
HETATM   11  C7  UNL     1     -33.711   5.413   0.387  1.00 20.00     0.010 C 
ENDBRANCH   1   9
TORSDOF 4
ENDMDL
MODEL 2
REMARK VINA RESULT:      -0.8      1.996      3.609
REMARK  4 active torsions:
REMARK  status: ('A' for Active; 'I' for Inactive)
REMARK    1  A    between atoms: C2_2  and  C8_8 
REMARK    2  A    between atoms: C3_3  and  C9_9 
REMARK    3  A    between atoms: C8_8  and  C9_9 
REMARK    4  A    between atoms: C9_9  and  C10_10 
ROOT
HETATM    1  C9  UNL     1     -33.715   5.702   3.645  1.00 20.00     0.062 C 
ENDROOT
BRANCH   1   2
HETATM    2  C3  UNL     1     -34.246   4.427   4.310  1.00 20.00     0.127 C 
HETATM    3  C5  UNL     1     -33.340   3.222   4.289  1.00 20.00     0.091 C 
HETATM    4  O11 UNL     1     -35.366   4.365   4.819  1.00 20.00    -0.298 OA
ENDBRANCH   1   2
BRANCH   1   5
HETATM    5  C8  UNL     1     -33.690   5.558   2.109  1.00 20.00     0.045 C 
BRANCH   5   6
HETATM    6  C2  UNL     1     -32.359   5.923   1.482  1.00 20.00    -0.092 C 
HETATM    7  C1  UNL     1     -31.554   4.991   0.949  1.00 20.00     0.014 C 
HETATM    8  C4  UNL     1     -31.952   7.369   1.526  1.00 20.00     0.042 C 
ENDBRANCH   5   6
ENDBRANCH   1   5
BRANCH   1   9
HETATM    9  C10 UNL     1     -34.524   6.922   4.158  1.00 20.00    -0.011 C 
HETATM   10  C6  UNL     1     -35.636   7.304   3.176  1.00 20.00     0.010 C 
HETATM   11  C7  UNL     1     -33.663   8.153   4.464  1.00 20.00     0.010 C 
ENDBRANCH   1   9
TORSDOF 4
ENDMDL
MODEL 3
REMARK VINA RESULT:      -0.8      1.613      4.221
REMARK  4 active torsions:
REMARK  status: ('A' for Active; 'I' for Inactive)
REMARK    1  A    between atoms: C2_2  and  C8_8 
REMARK    2  A    between atoms: C3_3  and  C9_9 
REMARK    3  A    between atoms: C8_8  and  C9_9 
REMARK    4  A    between atoms: C9_9  and  C10_10 
ROOT
HETATM    1  C9  UNL     1     -33.002   7.059   1.934  1.00 20.00     0.062 C 
ENDROOT
BRANCH   1   2
HETATM    2  C3  UNL     1     -32.616   5.745   1.246  1.00 20.00     0.127 C 
HETATM    3  C5  UNL     1     -33.632   5.146   0.307  1.00 20.00     0.091 C 
HETATM    4  O11 UNL     1     -31.543   5.179   1.458  1.00 20.00    -0.298 OA
ENDBRANCH   1   2
BRANCH   1   5
HETATM    5  C8  UNL     1     -33.263   6.843   3.439  1.00 20.00     0.045 C 
BRANCH   5   6
HETATM    6  C2  UNL     1     -34.457   5.957   3.732  1.00 20.00    -0.092 C 
HETATM    7  C1  UNL     1     -35.707   6.445   3.747  1.00 20.00     0.014 C 
HETATM    8  C4  UNL     1     -34.181   4.516   4.055  1.00 20.00     0.042 C 
ENDBRANCH   5   6
ENDBRANCH   1   5
BRANCH   1   9
HETATM    9  C10 UNL     1     -31.930   8.136   1.620  1.00 20.00    -0.011 C 
HETATM   10  C6  UNL     1     -31.366   8.749   2.906  1.00 20.00     0.010 C 
HETATM   11  C7  UNL     1     -32.423   9.251   0.693  1.00 20.00     0.010 C 
ENDBRANCH   1   9
TORSDOF 4
ENDMDL
MODEL 4
REMARK VINA RESULT:      -0.4      1.605      4.094
REMARK  4 active torsions:
REMARK  status: ('A' for Active; 'I' for Inactive)
REMARK    1  A    between atoms: C2_2  and  C8_8 
REMARK    2  A    between atoms: C3_3  and  C9_9 
REMARK    3  A    between atoms: C8_8  and  C9_9 
REMARK    4  A    between atoms: C9_9  and  C10_10 
ROOT
HETATM    1  C9  UNL     1     -32.996   7.055   1.932  1.00 20.00     0.062 C 
ENDROOT
BRANCH   1   2
HETATM    2  C3  UNL     1     -32.607   5.739   1.249  1.00 20.00     0.127 C 
HETATM    3  C5  UNL     1     -33.621   5.137   0.309  1.00 20.00     0.091 C 
HETATM    4  O11 UNL     1     -31.534   5.175   1.464  1.00 20.00    -0.298 OA
ENDBRANCH   1   2
BRANCH   1   5
HETATM    5  C8  UNL     1     -33.257   6.843   3.438  1.00 20.00     0.045 C 
BRANCH   5   6
HETATM    6  C2  UNL     1     -34.434   5.934   3.733  1.00 20.00    -0.092 C 
HETATM    7  C1  UNL     1     -34.261   4.640   4.045  1.00 20.00     0.014 C 
HETATM    8  C4  UNL     1     -35.808   6.528   3.614  1.00 20.00     0.042 C 
ENDBRANCH   5   6
ENDBRANCH   1   5
BRANCH   1   9
HETATM    9  C10 UNL     1     -31.926   8.133   1.616  1.00 20.00    -0.011 C 
HETATM   10  C6  UNL     1     -31.358   8.746   2.900  1.00 20.00     0.010 C 
HETATM   11  C7  UNL     1     -32.422   9.248   0.690  1.00 20.00     0.010 C 
ENDBRANCH   1   9
TORSDOF 4
ENDMDL
MODEL 5
REMARK VINA RESULT:      -0.3      1.752      3.038
REMARK  4 active torsions:
REMARK  status: ('A' for Active; 'I' for Inactive)
REMARK    1  A    between atoms: C2_2  and  C8_8 
REMARK    2  A    between atoms: C3_3  and  C9_9 
REMARK    3  A    between atoms: C8_8  and  C9_9 
REMARK    4  A    between atoms: C9_9  and  C10_10 
ROOT
HETATM    1  C9  UNL     1     -33.114   6.157   2.727  1.00 20.00     0.062 C 
ENDROOT
BRANCH   1   2
HETATM    2  C3  UNL     1     -32.641   5.487   1.433  1.00 20.00     0.127 C 
HETATM    3  C5  UNL     1     -33.675   5.289   0.353  1.00 20.00     0.091 C 
HETATM    4  O11 UNL     1     -31.483   5.101   1.274  1.00 20.00    -0.298 OA
ENDBRANCH   1   2
BRANCH   1   5
HETATM    5  C8  UNL     1     -33.377   7.662   2.511  1.00 20.00     0.045 C 
BRANCH   5   6
HETATM    6  C2  UNL     1     -32.195   8.412   1.932  1.00 20.00    -0.092 C 
HETATM    7  C1  UNL     1     -31.006   8.437   2.554  1.00 20.00     0.014 C 
HETATM    8  C4  UNL     1     -32.420   9.172   0.656  1.00 20.00     0.042 C 
ENDBRANCH   5   6
ENDBRANCH   1   5
BRANCH   1   9
HETATM    9  C10 UNL     1     -34.326   5.372   3.296  1.00 20.00    -0.011 C 
HETATM   10  C6  UNL     1     -35.242   6.285   4.118  1.00 20.00     0.010 C 
HETATM   11  C7  UNL     1     -33.937   4.148   4.131  1.00 20.00     0.010 C 
ENDBRANCH   1   9
TORSDOF 4
ENDMDL
MODEL 6
REMARK VINA RESULT:      -0.3      1.264      3.682
REMARK  4 active torsions:
REMARK  status: ('A' for Active; 'I' for Inactive)
REMARK    1  A    between atoms: C2_2  and  C8_8 
REMARK    2  A    between atoms: C3_3  and  C9_9 
REMARK    3  A    between atoms: C8_8  and  C9_9 
REMARK    4  A    between atoms: C9_9  and  C10_10 
ROOT
HETATM    1  C9  UNL     1     -32.600   6.701   2.117  1.00 20.00     0.062 C 
ENDROOT
BRANCH   1   2
HETATM    2  C3  UNL     1     -31.887   8.041   1.907  1.00 20.00     0.127 C 
HETATM    3  C5  UNL     1     -32.213   8.792   0.641  1.00 20.00     0.091 C 
HETATM    4  O11 UNL     1     -31.068   8.487   2.711  1.00 20.00    -0.298 OA
ENDBRANCH   1   2
BRANCH   1   5
HETATM    5  C8  UNL     1     -34.105   6.907   2.385  1.00 20.00     0.045 C 
BRANCH   5   6
HETATM    6  C2  UNL     1     -34.487   6.798   3.848  1.00 20.00    -0.092 C 
HETATM    7  C1  UNL     1     -35.323   5.844   4.287  1.00 20.00     0.014 C 
HETATM    8  C4  UNL     1     -33.929   7.833   4.783  1.00 20.00     0.042 C 
ENDBRANCH   5   6
ENDBRANCH   1   5
BRANCH   1   9
HETATM    9  C10 UNL     1     -32.288   5.762   0.921  1.00 20.00    -0.011 C 
HETATM   10  C6  UNL     1     -33.568   5.137   0.358  1.00 20.00     0.010 C 
HETATM   11  C7  UNL     1     -31.276   4.659   1.246  1.00 20.00     0.010 C 
ENDBRANCH   1   9
TORSDOF 4
ENDMDL
MODEL 7
REMARK VINA RESULT:      -0.3      1.264      3.732
REMARK  4 active torsions:
REMARK  status: ('A' for Active; 'I' for Inactive)
REMARK    1  A    between atoms: C2_2  and  C8_8 
REMARK    2  A    between atoms: C3_3  and  C9_9 
REMARK    3  A    between atoms: C8_8  and  C9_9 
REMARK    4  A    between atoms: C9_9  and  C10_10 
ROOT
HETATM    1  C9  UNL     1     -32.602   6.691   2.112  1.00 20.00     0.062 C 
ENDROOT
BRANCH   1   2
HETATM    2  C3  UNL     1     -31.901   8.038   1.903  1.00 20.00     0.127 C 
HETATM    3  C5  UNL     1     -32.230   8.785   0.636  1.00 20.00     0.091 C 
HETATM    4  O11 UNL     1     -31.088   8.491   2.709  1.00 20.00    -0.298 OA
ENDBRANCH   1   2
BRANCH   1   5
HETATM    5  C8  UNL     1     -34.106   6.884   2.395  1.00 20.00     0.045 C 
BRANCH   5   6
HETATM    6  C2  UNL     1     -34.461   6.851   3.868  1.00 20.00    -0.092 C 
HETATM    7  C1  UNL     1     -33.988   7.769   4.725  1.00 20.00     0.014 C 
HETATM    8  C4  UNL     1     -35.325   5.717   4.341  1.00 20.00     0.042 C 
ENDBRANCH   5   6
ENDBRANCH   1   5
BRANCH   1   9
HETATM    9  C10 UNL     1     -32.294   5.762   0.908  1.00 20.00    -0.011 C 
HETATM   10  C6  UNL     1     -33.575   5.134   0.349  1.00 20.00     0.010 C 
HETATM   11  C7  UNL     1     -31.275   4.660   1.219  1.00 20.00     0.010 C 
ENDBRANCH   1   9
TORSDOF 4
ENDMDL
MODEL 8
REMARK VINA RESULT:      -0.2      2.056      4.449
REMARK  4 active torsions:
REMARK  status: ('A' for Active; 'I' for Inactive)
REMARK    1  A    between atoms: C2_2  and  C8_8 
REMARK    2  A    between atoms: C3_3  and  C9_9 
REMARK    3  A    between atoms: C8_8  and  C9_9 
REMARK    4  A    between atoms: C9_9  and  C10_10 
ROOT
HETATM    1  C9  UNL     1     -33.274   6.024   3.060  1.00 20.00     0.062 C 
ENDROOT
BRANCH   1   2
HETATM    2  C3  UNL     1     -34.330   6.961   3.656  1.00 20.00     0.127 C 
HETATM    3  C5  UNL     1     -33.848   7.974   4.664  1.00 20.00     0.091 C 
HETATM    4  O11 UNL     1     -35.522   6.889   3.356  1.00 20.00    -0.298 OA
ENDBRANCH   1   2
BRANCH   1   5
HETATM    5  C8  UNL     1     -33.791   4.572   2.998  1.00 20.00     0.045 C 
BRANCH   5   6
HETATM    6  C2  UNL     1     -33.985   3.932   4.358  1.00 20.00    -0.092 C 
HETATM    7  C1  UNL     1     -34.985   4.302   5.173  1.00 20.00     0.014 C 
HETATM    8  C4  UNL     1     -32.979   2.900   4.782  1.00 20.00     0.042 C 
ENDBRANCH   5   6
ENDBRANCH   1   5
BRANCH   1   9
HETATM    9  C10 UNL     1     -32.797   6.591   1.697  1.00 20.00    -0.011 C 
HETATM   10  C6  UNL     1     -32.056   5.526   0.882  1.00 20.00     0.010 C 
HETATM   11  C7  UNL     1     -31.925   7.845   1.817  1.00 20.00     0.010 C 
ENDBRANCH   1   9
TORSDOF 4
ENDMDL
MODEL 9
REMARK VINA RESULT:      -0.1      1.763      3.092
REMARK  4 active torsions:
REMARK  status: ('A' for Active; 'I' for Inactive)
REMARK    1  A    between atoms: C2_2  and  C8_8 
REMARK    2  A    between atoms: C3_3  and  C9_9 
REMARK    3  A    between atoms: C8_8  and  C9_9 
REMARK    4  A    between atoms: C9_9  and  C10_10 
ROOT
HETATM    1  C9  UNL     1     -33.126   6.138   2.750  1.00 20.00     0.062 C 
ENDROOT
BRANCH   1   2
HETATM    2  C3  UNL     1     -32.639   5.485   1.451  1.00 20.00     0.127 C 
HETATM    3  C5  UNL     1     -33.669   5.274   0.370  1.00 20.00     0.091 C 
HETATM    4  O11 UNL     1     -31.474   5.121   1.291  1.00 20.00    -0.298 OA
ENDBRANCH   1   2
BRANCH   1   5
HETATM    5  C8  UNL     1     -33.420   7.638   2.541  1.00 20.00     0.045 C 
BRANCH   5   6
HETATM    6  C2  UNL     1     -32.256   8.414   1.959  1.00 20.00    -0.092 C 
HETATM    7  C1  UNL     1     -32.342   9.020   0.764  1.00 20.00     0.014 C 
HETATM    8  C4  UNL     1     -30.980   8.438   2.752  1.00 20.00     0.042 C 
ENDBRANCH   5   6
ENDBRANCH   1   5
BRANCH   1   9
HETATM    9  C10 UNL     1     -34.321   5.326   3.315  1.00 20.00    -0.011 C 
HETATM   10  C6  UNL     1     -35.256   6.216   4.141  1.00 20.00     0.010 C 
HETATM   11  C7  UNL     1     -33.907   4.107   4.144  1.00 20.00     0.010 C 
ENDBRANCH   1   9
TORSDOF 4
ENDMDL
