MODEL 1
REMARK VINA RESULT:      -0.5      0.000      0.000
REMARK  6 active torsions:
REMARK  status: ('A' for Active; 'I' for Inactive)
REMARK    1  A    between atoms: C1_1  and  C10_10 
REMARK    2  A    between atoms: C7_7  and  C8_8 
REMARK    3  A    between atoms: C8_8  and  C12_12 
REMARK    4  A    between atoms: C9_9  and  C10_10 
REMARK    5  A    between atoms: C9_9  and  C12_12 
REMARK    6  A    between atoms: C10_10  and  C11_11 
ROOT
HETATM    1  C10 UNL     1     -33.003   6.880   1.615  1.00 20.00     0.058 C 
ENDROOT
BRANCH   1   2
HETATM    2  C1  UNL     1     -32.076   8.097   1.573  1.00 20.00     0.127 C 
HETATM    3  C2  UNL     1     -32.276   9.066   0.435  1.00 20.00     0.091 C 
HETATM    4  O13 UNL     1     -31.219   8.300   2.432  1.00 20.00    -0.298 OA
ENDBRANCH   1   2
BRANCH   1   5
HETATM    5  C9  UNL     1     -33.077   6.321   3.051  1.00 20.00     0.016 C 
BRANCH   5   6
HETATM    6  C12 UNL     1     -34.497   6.271   3.671  1.00 20.00    -0.018 C 
HETATM    7  C6  UNL     1     -34.657   7.459   4.629  1.00 20.00     0.010 C 
BRANCH   6   8
HETATM    8  C8  UNL     1     -34.765   4.928   4.386  1.00 20.00     0.004 C 
BRANCH   8   9
HETATM    9  C7  UNL     1     -33.905   3.744   3.931  1.00 20.00    -0.004 C 
HETATM   10  C3  UNL     1     -33.139   3.081   5.064  1.00 20.00     0.005 C 
ENDBRANCH   8   9
ENDBRANCH   6   8
ENDBRANCH   5   6
ENDBRANCH   1   5
BRANCH   1  11
HETATM   11  C11 UNL     1     -32.600   5.796   0.579  1.00 20.00    -0.012 C 
HETATM   12  C4  UNL     1     -31.509   4.867   1.127  1.00 20.00     0.010 C 
HETATM   13  C5  UNL     1     -33.761   4.959   0.035  1.00 20.00     0.010 C 
ENDBRANCH   1  11
TORSDOF 6
ENDMDL
MODEL 2
REMARK VINA RESULT:      -0.5      1.990      5.184
REMARK  6 active torsions:
REMARK  status: ('A' for Active; 'I' for Inactive)
REMARK    1  A    between atoms: C1_1  and  C10_10 
REMARK    2  A    between atoms: C7_7  and  C8_8 
REMARK    3  A    between atoms: C8_8  and  C12_12 
REMARK    4  A    between atoms: C9_9  and  C10_10 
REMARK    5  A    between atoms: C9_9  and  C12_12 
REMARK    6  A    between atoms: C10_10  and  C11_11 
ROOT
HETATM    1  C10 UNL     1     -34.269   5.335   3.374  1.00 20.00     0.058 C 
ENDROOT
BRANCH   1   2
HETATM    2  C1  UNL     1     -34.242   4.163   4.358  1.00 20.00     0.127 C 
HETATM    3  C2  UNL     1     -33.100   3.189   4.222  1.00 20.00     0.091 C 
HETATM    4  O13 UNL     1     -35.091   4.023   5.237  1.00 20.00    -0.298 OA
ENDBRANCH   1   2
BRANCH   1   5
HETATM    5  C9  UNL     1     -32.830   5.713   2.962  1.00 20.00     0.016 C 
BRANCH   5   6
HETATM    6  C12 UNL     1     -32.663   6.176   1.492  1.00 20.00    -0.018 C 
HETATM    7  C6  UNL     1     -32.163   4.990   0.657  1.00 20.00     0.010 C 
BRANCH   6   8
HETATM    8  C8  UNL     1     -31.713   7.388   1.377  1.00 20.00     0.004 C 
BRANCH   8   9
HETATM    9  C7  UNL     1     -32.377   8.768   1.437  1.00 20.00    -0.004 C 
HETATM   10  C3  UNL     1     -32.306   9.533   0.125  1.00 20.00     0.005 C 
ENDBRANCH   8   9
ENDBRANCH   6   8
ENDBRANCH   5   6
ENDBRANCH   1   5
BRANCH   1  11
HETATM   11  C11 UNL     1     -35.062   6.551   3.928  1.00 20.00    -0.012 C 
HETATM   12  C4  UNL     1     -34.134   7.717   4.289  1.00 20.00     0.010 C 
HETATM   13  C5  UNL     1     -36.189   7.053   3.020  1.00 20.00     0.010 C 
ENDBRANCH   1  11
TORSDOF 6
ENDMDL
MODEL 3
REMARK VINA RESULT:      -0.2      1.495      4.656
REMARK  6 active torsions:
REMARK  status: ('A' for Active; 'I' for Inactive)
REMARK    1  A    between atoms: C1_1  and  C10_10 
REMARK    2  A    between atoms: C7_7  and  C8_8 
REMARK    3  A    between atoms: C8_8  and  C12_12 
REMARK    4  A    between atoms: C9_9  and  C10_10 
REMARK    5  A    between atoms: C9_9  and  C12_12 
REMARK    6  A    between atoms: C10_10  and  C11_11 
ROOT
HETATM    1  C10 UNL     1     -33.636   6.010   3.300  1.00 20.00     0.058 C 
ENDROOT
BRANCH   1   2
HETATM    2  C1  UNL     1     -34.129   7.292   3.975  1.00 20.00     0.127 C 
HETATM    3  C2  UNL     1     -33.206   7.927   4.984  1.00 20.00     0.091 C 
HETATM    4  O13 UNL     1     -35.214   7.803   3.702  1.00 20.00    -0.298 OA
ENDBRANCH   1   2
BRANCH   1   5
HETATM    5  C9  UNL     1     -33.671   6.174   1.765  1.00 20.00     0.016 C 
BRANCH   5   6
HETATM    6  C12 UNL     1     -32.289   6.352   1.086  1.00 20.00    -0.018 C 
HETATM    7  C6  UNL     1     -31.419   5.132   1.415  1.00 20.00     0.010 C 
BRANCH   6   8
HETATM    8  C8  UNL     1     -31.603   7.667   1.517  1.00 20.00     0.004 C 
BRANCH   8   9
HETATM    9  C7  UNL     1     -32.428   8.945   1.332  1.00 20.00    -0.004 C 
HETATM   10  C3  UNL     1     -32.264   9.580  -0.040  1.00 20.00     0.005 C 
ENDBRANCH   8   9
ENDBRANCH   6   8
ENDBRANCH   5   6
ENDBRANCH   1   5
BRANCH   1  11
HETATM   11  C11 UNL     1     -34.416   4.755   3.777  1.00 20.00    -0.012 C 
HETATM   12  C4  UNL     1     -33.471   3.662   4.290  1.00 20.00     0.010 C 
HETATM   13  C5  UNL     1     -35.501   5.028   4.822  1.00 20.00     0.010 C 
ENDBRANCH   1  11
TORSDOF 6
ENDMDL
MODEL 4
REMARK VINA RESULT:      -0.0      1.075      1.411
REMARK  6 active torsions:
REMARK  status: ('A' for Active; 'I' for Inactive)
REMARK    1  A    between atoms: C1_1  and  C10_10 
REMARK    2  A    between atoms: C7_7  and  C8_8 
REMARK    3  A    between atoms: C8_8  and  C12_12 
REMARK    4  A    between atoms: C9_9  and  C10_10 
REMARK    5  A    between atoms: C9_9  and  C12_12 
REMARK    6  A    between atoms: C10_10  and  C11_11 
ROOT
HETATM    1  C10 UNL     1     -32.844   7.565   1.411  1.00 20.00     0.058 C 
ENDROOT
BRANCH   1   2
HETATM    2  C1  UNL     1     -32.057   8.709   0.767  1.00 20.00     0.127 C 
HETATM    3  C2  UNL     1     -32.759  10.039   0.658  1.00 20.00     0.091 C 
HETATM    4  O13 UNL     1     -30.900   8.572   0.374  1.00 20.00    -0.298 OA
ENDBRANCH   1   2
BRANCH   1   5
HETATM    5  C9  UNL     1     -32.688   7.615   2.946  1.00 20.00     0.016 C 
BRANCH   5   6
HETATM    6  C12 UNL     1     -34.011   7.772   3.741  1.00 20.00    -0.018 C 
HETATM    7  C6  UNL     1     -33.677   7.880   5.234  1.00 20.00     0.010 C 
BRANCH   6   8
HETATM    8  C8  UNL     1     -34.988   6.609   3.463  1.00 20.00     0.004 C 
BRANCH   8   9
HETATM    9  C7  UNL     1     -34.989   5.474   4.493  1.00 20.00    -0.004 C 
HETATM   10  C3  UNL     1     -34.149   4.277   4.076  1.00 20.00     0.005 C 
ENDBRANCH   8   9
ENDBRANCH   6   8
ENDBRANCH   5   6
ENDBRANCH   1   5
BRANCH   1  11
HETATM   11  C11 UNL     1     -32.456   6.180   0.824  1.00 20.00    -0.012 C 
HETATM   12  C4  UNL     1     -31.575   5.381   1.792  1.00 20.00     0.010 C 
HETATM   13  C5  UNL     1     -33.638   5.317   0.373  1.00 20.00     0.010 C 
ENDBRANCH   1  11
TORSDOF 6
ENDMDL
MODEL 5
REMARK VINA RESULT:       0.2      1.941      4.730
REMARK  6 active torsions:
REMARK  status: ('A' for Active; 'I' for Inactive)
REMARK    1  A    between atoms: C1_1  and  C10_10 
REMARK    2  A    between atoms: C7_7  and  C8_8 
REMARK    3  A    between atoms: C8_8  and  C12_12 
REMARK    4  A    between atoms: C9_9  and  C10_10 
REMARK    5  A    between atoms: C9_9  and  C12_12 
REMARK    6  A    between atoms: C10_10  and  C11_11 
ROOT
HETATM    1  C10 UNL     1     -33.077   5.733   2.751  1.00 20.00     0.058 C 
ENDROOT
BRANCH   1   2
HETATM    2  C1  UNL     1     -34.230   5.259   3.638  1.00 20.00     0.127 C 
HETATM    3  C2  UNL     1     -35.309   6.266   3.946  1.00 20.00     0.091 C 
HETATM    4  O13 UNL     1     -34.300   4.108   4.067  1.00 20.00    -0.298 OA
ENDBRANCH   1   2
BRANCH   1   5
HETATM    5  C9  UNL     1     -33.171   7.258   2.531  1.00 20.00     0.016 C 
BRANCH   5   6
HETATM    6  C12 UNL     1     -31.823   7.972   2.255  1.00 20.00    -0.018 C 
HETATM    7  C6  UNL     1     -31.576   9.001   3.365  1.00 20.00     0.010 C 
BRANCH   6   8
HETATM    8  C8  UNL     1     -31.798   8.631   0.858  1.00 20.00     0.004 C 
BRANCH   8   9
HETATM    9  C7  UNL     1     -32.487   9.996   0.749  1.00 20.00    -0.004 C 
HETATM   10  C3  UNL     1     -32.936  10.337  -0.663  1.00 20.00     0.005 C 
ENDBRANCH   8   9
ENDBRANCH   6   8
ENDBRANCH   5   6
ENDBRANCH   1   5
BRANCH   1  11
HETATM   11  C11 UNL     1     -33.000   4.947   1.413  1.00 20.00    -0.012 C 
HETATM   12  C4  UNL     1     -33.863   5.596   0.325  1.00 20.00     0.010 C 
HETATM   13  C5  UNL     1     -31.583   4.719   0.879  1.00 20.00     0.010 C 
ENDBRANCH   1  11
TORSDOF 6
ENDMDL
MODEL 6
REMARK VINA RESULT:       0.2      1.444      4.668
REMARK  6 active torsions:
REMARK  status: ('A' for Active; 'I' for Inactive)
REMARK    1  A    between atoms: C1_1  and  C10_10 
REMARK    2  A    between atoms: C7_7  and  C8_8 
REMARK    3  A    between atoms: C8_8  and  C12_12 
REMARK    4  A    between atoms: C9_9  and  C10_10 
REMARK    5  A    between atoms: C9_9  and  C12_12 
REMARK    6  A    between atoms: C10_10  and  C11_11 
ROOT
HETATM    1  C10 UNL     1     -33.493   6.199   3.592  1.00 20.00     0.058 C 
ENDROOT
BRANCH   1   2
HETATM    2  C1  UNL     1     -33.987   7.558   4.094  1.00 20.00     0.127 C 
HETATM    3  C2  UNL     1     -33.180   8.214   5.186  1.00 20.00     0.091 C 
HETATM    4  O13 UNL     1     -34.978   8.113   3.622  1.00 20.00    -0.298 OA
ENDBRANCH   1   2
BRANCH   1   5
HETATM    5  C9  UNL     1     -33.764   6.065   2.078  1.00 20.00     0.016 C 
BRANCH   5   6
HETATM    6  C12 UNL     1     -32.545   6.340   1.160  1.00 20.00    -0.018 C 
HETATM    7  C6  UNL     1     -31.649   5.095   1.146  1.00 20.00     0.010 C 
BRANCH   6   8
HETATM    8  C8  UNL     1     -31.762   7.594   1.608  1.00 20.00     0.004 C 
BRANCH   8   9
HETATM    9  C7  UNL     1     -32.433   8.942   1.319  1.00 20.00    -0.004 C 
HETATM   10  C3  UNL     1     -32.235   9.423  -0.110  1.00 20.00     0.005 C 
ENDBRANCH   8   9
ENDBRANCH   6   8
ENDBRANCH   5   6
ENDBRANCH   1   5
BRANCH   1  11
HETATM   11  C11 UNL     1     -34.091   5.018   4.405  1.00 20.00    -0.012 C 
HETATM   12  C4  UNL     1     -35.621   5.098   4.479  1.00 20.00     0.010 C 
HETATM   13  C5  UNL     1     -33.671   3.627   3.925  1.00 20.00     0.010 C 
ENDBRANCH   1  11
TORSDOF 6
ENDMDL
MODEL 7
REMARK VINA RESULT:       0.2      1.187      2.416
REMARK  6 active torsions:
REMARK  status: ('A' for Active; 'I' for Inactive)
REMARK    1  A    between atoms: C1_1  and  C10_10 
REMARK    2  A    between atoms: C7_7  and  C8_8 
REMARK    3  A    between atoms: C8_8  and  C12_12 
REMARK    4  A    between atoms: C9_9  and  C10_10 
REMARK    5  A    between atoms: C9_9  and  C12_12 
REMARK    6  A    between atoms: C10_10  and  C11_11 
ROOT
HETATM    1  C10 UNL     1     -32.874   6.711   2.312  1.00 20.00     0.058 C 
ENDROOT
BRANCH   1   2
HETATM    2  C1  UNL     1     -32.418   5.677   1.280  1.00 20.00     0.127 C 
HETATM    3  C2  UNL     1     -33.453   5.199   0.294  1.00 20.00     0.091 C 
HETATM    4  O13 UNL     1     -31.260   5.264   1.230  1.00 20.00    -0.298 OA
ENDBRANCH   1   2
BRANCH   1   5
HETATM    5  C9  UNL     1     -34.409   6.663   2.465  1.00 20.00     0.016 C 
BRANCH   5   6
HETATM    6  C12 UNL     1     -34.929   6.634   3.926  1.00 20.00    -0.018 C 
HETATM    7  C6  UNL     1     -34.005   7.500   4.793  1.00 20.00     0.010 C 
BRANCH   6   8
HETATM    8  C8  UNL     1     -35.028   5.193   4.471  1.00 20.00     0.004 C 
BRANCH   8   9
HETATM    9  C7  UNL     1     -34.094   4.165   3.823  1.00 20.00    -0.004 C 
HETATM   10  C3  UNL     1     -33.391   3.266   4.827  1.00 20.00     0.005 C 
ENDBRANCH   8   9
ENDBRANCH   6   8
ENDBRANCH   5   6
ENDBRANCH   1   5
BRANCH   1  11
HETATM   11  C11 UNL     1     -32.358   8.138   1.984  1.00 20.00    -0.012 C 
HETATM   12  C4  UNL     1     -31.128   8.503   2.824  1.00 20.00     0.010 C 
HETATM   13  C5  UNL     1     -32.063   8.393   0.503  1.00 20.00     0.010 C 
ENDBRANCH   1  11
TORSDOF 6
ENDMDL
MODEL 8
REMARK VINA RESULT:       0.4      1.469      2.840
REMARK  6 active torsions:
REMARK  status: ('A' for Active; 'I' for Inactive)
REMARK    1  A    between atoms: C1_1  and  C10_10 
REMARK    2  A    between atoms: C7_7  and  C8_8 
REMARK    3  A    between atoms: C8_8  and  C12_12 
REMARK    4  A    between atoms: C9_9  and  C10_10 
REMARK    5  A    between atoms: C9_9  and  C12_12 
REMARK    6  A    between atoms: C10_10  and  C11_11 
ROOT
HETATM    1  C10 UNL     1     -32.694   6.730   2.197  1.00 20.00     0.058 C 
ENDROOT
BRANCH   1   2
HETATM    2  C1  UNL     1     -32.572   5.587   1.187  1.00 20.00     0.127 C 
HETATM    3  C2  UNL     1     -31.317   4.753   1.253  1.00 20.00     0.091 C 
HETATM    4  O13 UNL     1     -33.456   5.334   0.370  1.00 20.00    -0.298 OA
ENDBRANCH   1   2
BRANCH   1   5
HETATM    5  C9  UNL     1     -34.180   7.089   2.411  1.00 20.00     0.016 C 
BRANCH   5   6
HETATM    6  C12 UNL     1     -34.675   7.016   3.879  1.00 20.00    -0.018 C 
HETATM    7  C6  UNL     1     -33.593   7.606   4.792  1.00 20.00     0.010 C 
BRANCH   6   8
HETATM    8  C8  UNL     1     -35.036   5.572   4.291  1.00 20.00     0.004 C 
BRANCH   8   9
HETATM    9  C7  UNL     1     -34.171   4.464   3.678  1.00 20.00    -0.004 C 
HETATM   10  C3  UNL     1     -33.586   3.513   4.710  1.00 20.00     0.005 C 
ENDBRANCH   8   9
ENDBRANCH   6   8
ENDBRANCH   5   6
ENDBRANCH   1   5
BRANCH   1  11
HETATM   11  C11 UNL     1     -31.839   7.964   1.797  1.00 20.00    -0.012 C 
HETATM   12  C4  UNL     1     -32.617   8.918   0.883  1.00 20.00     0.010 C 
HETATM   13  C5  UNL     1     -31.247   8.746   2.973  1.00 20.00     0.010 C 
ENDBRANCH   1  11
TORSDOF 6
ENDMDL
MODEL 9
REMARK VINA RESULT:       0.5      1.360      4.786
REMARK  6 active torsions:
REMARK  status: ('A' for Active; 'I' for Inactive)
REMARK    1  A    between atoms: C1_1  and  C10_10 
REMARK    2  A    between atoms: C7_7  and  C8_8 
REMARK    3  A    between atoms: C8_8  and  C12_12 
REMARK    4  A    between atoms: C9_9  and  C10_10 
REMARK    5  A    between atoms: C9_9  and  C12_12 
REMARK    6  A    between atoms: C10_10  and  C11_11 
ROOT
HETATM    1  C10 UNL     1     -33.589   6.073   1.982  1.00 20.00     0.058 C 
ENDROOT
BRANCH   1   2
HETATM    2  C1  UNL     1     -32.492   5.204   1.363  1.00 20.00     0.127 C 
HETATM    3  C2  UNL     1     -32.855   4.432   0.120  1.00 20.00     0.091 C 
HETATM    4  O13 UNL     1     -31.356   5.146   1.833  1.00 20.00    -0.298 OA
ENDBRANCH   1   2
BRANCH   1   5
HETATM    5  C9  UNL     1     -33.279   7.566   1.742  1.00 20.00     0.016 C 
BRANCH   5   6
HETATM    6  C12 UNL     1     -31.775   7.943   1.772  1.00 20.00    -0.018 C 
HETATM    7  C6  UNL     1     -31.478   8.675   3.087  1.00 20.00     0.010 C 
BRANCH   6   8
HETATM    8  C8  UNL     1     -31.373   8.794   0.548  1.00 20.00     0.004 C 
BRANCH   8   9
HETATM    9  C7  UNL     1     -32.510   9.558  -0.140  1.00 20.00    -0.004 C 
HETATM   10  C3  UNL     1     -32.768  10.930   0.461  1.00 20.00     0.005 C 
ENDBRANCH   8   9
ENDBRANCH   6   8
ENDBRANCH   5   6
ENDBRANCH   1   5
BRANCH   1  11
HETATM   11  C11 UNL     1     -33.819   5.751   3.484  1.00 20.00    -0.012 C 
HETATM   12  C4  UNL     1     -34.991   6.553   4.062  1.00 20.00     0.010 C 
HETATM   13  C5  UNL     1     -34.004   4.265   3.805  1.00 20.00     0.010 C 
ENDBRANCH   1  11
TORSDOF 6
ENDMDL
