MODEL 1
REMARK VINA RESULT:      -1.7      0.000      0.000
REMARK  4 active torsions:
REMARK  status: ('A' for Active; 'I' for Inactive)
REMARK    1  A    between atoms: C2_2  and  C8_8 
REMARK    2  A    between atoms: C3_3  and  C9_9 
REMARK    3  A    between atoms: C8_8  and  C9_9 
REMARK    4  A    between atoms: C9_9  and  C10_10 
ROOT
HETATM    1  C1  UNL     1     -32.435   9.586   0.453  1.00 20.00    -0.111 C 
HETATM    2  C2  UNL     1     -32.277   8.738   1.288  1.00 20.00    -0.106 C 
HETATM    3  C4  UNL     1     -32.631  10.619  -0.563  1.00 20.00     0.112 C 
ENDROOT
BRANCH   2   4
HETATM    4  C8  UNL     1     -32.083   7.699   2.310  1.00 20.00     0.106 C 
BRANCH   4   5
HETATM    5  C9  UNL     1     -33.315   6.794   2.506  1.00 20.00     0.069 C 
BRANCH   5   6
HETATM    6  C3  UNL     1     -32.946   5.363   2.098  1.00 20.00     0.128 C 
HETATM    7  C5  UNL     1     -32.265   5.192   0.763  1.00 20.00     0.091 C 
HETATM    8  O11 UNL     1     -33.164   4.393   2.824  1.00 20.00    -0.298 OA
ENDBRANCH   5   6
BRANCH   5   9
HETATM    9  C10 UNL     1     -33.949   6.832   3.924  1.00 20.00    -0.011 C 
HETATM   10  C6  UNL     1     -35.449   6.504   3.861  1.00 20.00     0.010 C 
HETATM   11  C7  UNL     1     -33.775   8.194   4.607  1.00 20.00     0.010 C 
ENDBRANCH   5   9
ENDBRANCH   4   5
ENDBRANCH   2   4
TORSDOF 4
ENDMDL
MODEL 2
REMARK VINA RESULT:      -0.9      1.827      2.926
REMARK  4 active torsions:
REMARK  status: ('A' for Active; 'I' for Inactive)
REMARK    1  A    between atoms: C2_2  and  C8_8 
REMARK    2  A    between atoms: C3_3  and  C9_9 
REMARK    3  A    between atoms: C8_8  and  C9_9 
REMARK    4  A    between atoms: C9_9  and  C10_10 
ROOT
HETATM    1  C1  UNL     1     -32.341   8.163   1.138  1.00 20.00    -0.111 C 
HETATM    2  C2  UNL     1     -32.643   7.059   1.500  1.00 20.00    -0.106 C 
HETATM    3  C4  UNL     1     -31.977   9.509   0.699  1.00 20.00     0.112 C 
ENDROOT
BRANCH   2   4
HETATM    4  C8  UNL     1     -33.012   5.705   1.943  1.00 20.00     0.106 C 
BRANCH   4   5
HETATM    5  C9  UNL     1     -33.453   5.643   3.418  1.00 20.00     0.069 C 
BRANCH   5   6
HETATM    6  C3  UNL     1     -34.353   6.848   3.715  1.00 20.00     0.128 C 
HETATM    7  C5  UNL     1     -33.756   7.953   4.550  1.00 20.00     0.091 C 
HETATM    8  O11 UNL     1     -35.501   6.938   3.278  1.00 20.00    -0.298 OA
ENDBRANCH   5   6
BRANCH   5   9
HETATM    9  C10 UNL     1     -34.127   4.312   3.855  1.00 20.00    -0.011 C 
HETATM   10  C6  UNL     1     -35.267   4.578   4.851  1.00 20.00     0.010 C 
HETATM   11  C7  UNL     1     -33.134   3.338   4.498  1.00 20.00     0.010 C 
ENDBRANCH   5   9
ENDBRANCH   4   5
ENDBRANCH   2   4
TORSDOF 4
ENDMDL
MODEL 3
REMARK VINA RESULT:      -0.7      2.221      5.048
REMARK  4 active torsions:
REMARK  status: ('A' for Active; 'I' for Inactive)
REMARK    1  A    between atoms: C2_2  and  C8_8 
REMARK    2  A    between atoms: C3_3  and  C9_9 
REMARK    3  A    between atoms: C8_8  and  C9_9 
REMARK    4  A    between atoms: C9_9  and  C10_10 
ROOT
HETATM    1  C1  UNL     1     -33.786   3.906   4.361  1.00 20.00    -0.111 C 
HETATM    2  C2  UNL     1     -34.291   4.926   3.980  1.00 20.00    -0.106 C 
HETATM    3  C4  UNL     1     -33.169   2.665   4.827  1.00 20.00     0.112 C 
ENDROOT
BRANCH   2   4
HETATM    4  C8  UNL     1     -34.910   6.175   3.511  1.00 20.00     0.106 C 
BRANCH   4   5
HETATM    5  C9  UNL     1     -33.885   7.249   3.096  1.00 20.00     0.069 C 
BRANCH   5   6
HETATM    6  C3  UNL     1     -33.432   8.008   4.348  1.00 20.00     0.128 C 
HETATM    7  C5  UNL     1     -32.088   8.690   4.279  1.00 20.00     0.091 C 
HETATM    8  O11 UNL     1     -34.130   8.089   5.360  1.00 20.00    -0.298 OA
ENDBRANCH   5   6
BRANCH   5   9
HETATM    9  C10 UNL     1     -32.671   6.728   2.279  1.00 20.00    -0.011 C 
HETATM   10  C6  UNL     1     -31.976   7.880   1.537  1.00 20.00     0.010 C 
HETATM   11  C7  UNL     1     -33.070   5.659   1.255  1.00 20.00     0.010 C 
ENDBRANCH   5   9
ENDBRANCH   4   5
ENDBRANCH   2   4
TORSDOF 4
ENDMDL
MODEL 4
REMARK VINA RESULT:      -0.5      2.014      4.542
REMARK  4 active torsions:
REMARK  status: ('A' for Active; 'I' for Inactive)
REMARK    1  A    between atoms: C2_2  and  C8_8 
REMARK    2  A    between atoms: C3_3  and  C9_9 
REMARK    3  A    between atoms: C8_8  and  C9_9 
REMARK    4  A    between atoms: C9_9  and  C10_10 
ROOT
HETATM    1  C1  UNL     1     -33.284   3.646   3.986  1.00 20.00    -0.111 C 
HETATM    2  C2  UNL     1     -33.260   4.555   3.202  1.00 20.00    -0.106 C 
HETATM    3  C4  UNL     1     -33.316   2.537   4.939  1.00 20.00     0.112 C 
ENDROOT
BRANCH   2   4
HETATM    4  C8  UNL     1     -33.229   5.669   2.242  1.00 20.00     0.106 C 
BRANCH   4   5
HETATM    5  C9  UNL     1     -32.804   7.009   2.872  1.00 20.00     0.069 C 
BRANCH   5   6
HETATM    6  C3  UNL     1     -32.173   7.887   1.785  1.00 20.00     0.128 C 
HETATM    7  C5  UNL     1     -32.856   9.199   1.491  1.00 20.00     0.091 C 
HETATM    8  O11 UNL     1     -31.143   7.563   1.191  1.00 20.00    -0.298 OA
ENDBRANCH   5   6
BRANCH   5   9
HETATM    9  C10 UNL     1     -33.924   7.770   3.636  1.00 20.00    -0.011 C 
HETATM   10  C6  UNL     1     -33.425   8.239   5.011  1.00 20.00     0.010 C 
HETATM   11  C7  UNL     1     -35.180   6.915   3.836  1.00 20.00     0.010 C 
ENDBRANCH   5   9
ENDBRANCH   4   5
ENDBRANCH   2   4
TORSDOF 4
ENDMDL
MODEL 5
REMARK VINA RESULT:      -0.4      1.777      4.761
REMARK  4 active torsions:
REMARK  status: ('A' for Active; 'I' for Inactive)
REMARK    1  A    between atoms: C2_2  and  C8_8 
REMARK    2  A    between atoms: C3_3  and  C9_9 
REMARK    3  A    between atoms: C8_8  and  C9_9 
REMARK    4  A    between atoms: C9_9  and  C10_10 
ROOT
HETATM    1  C1  UNL     1     -33.295   3.907   3.907  1.00 20.00    -0.111 C 
HETATM    2  C2  UNL     1     -33.345   4.667   2.980  1.00 20.00    -0.106 C 
HETATM    3  C4  UNL     1     -33.230   2.982   5.038  1.00 20.00     0.112 C 
ENDROOT
BRANCH   2   4
HETATM    4  C8  UNL     1     -33.408   5.598   1.843  1.00 20.00     0.106 C 
BRANCH   4   5
HETATM    5  C9  UNL     1     -33.627   7.064   2.263  1.00 20.00     0.069 C 
BRANCH   5   6
HETATM    6  C3  UNL     1     -34.240   7.088   3.669  1.00 20.00     0.128 C 
HETATM    7  C5  UNL     1     -33.497   7.875   4.720  1.00 20.00     0.091 C 
HETATM    8  O11 UNL     1     -35.299   6.520   3.936  1.00 20.00    -0.298 OA
ENDBRANCH   5   6
BRANCH   5   9
HETATM    9  C10 UNL     1     -32.372   7.976   2.177  1.00 20.00    -0.011 C 
HETATM   10  C6  UNL     1     -32.652   9.211   1.306  1.00 20.00     0.010 C 
HETATM   11  C7  UNL     1     -31.154   7.242   1.606  1.00 20.00     0.010 C 
ENDBRANCH   5   9
ENDBRANCH   4   5
ENDBRANCH   2   4
TORSDOF 4
ENDMDL
MODEL 6
REMARK VINA RESULT:      -0.3      1.000      2.664
REMARK  4 active torsions:
REMARK  status: ('A' for Active; 'I' for Inactive)
REMARK    1  A    between atoms: C2_2  and  C8_8 
REMARK    2  A    between atoms: C3_3  and  C9_9 
REMARK    3  A    between atoms: C8_8  and  C9_9 
REMARK    4  A    between atoms: C9_9  and  C10_10 
ROOT
HETATM    1  C1  UNL     1     -32.434   9.291   0.743  1.00 20.00    -0.111 C 
HETATM    2  C2  UNL     1     -32.596   8.640   1.739  1.00 20.00    -0.106 C 
HETATM    3  C4  UNL     1     -32.233  10.082  -0.470  1.00 20.00     0.112 C 
ENDROOT
BRANCH   2   4
HETATM    4  C8  UNL     1     -32.796   7.843   2.959  1.00 20.00     0.106 C 
BRANCH   4   5
HETATM    5  C9  UNL     1     -32.703   6.324   2.721  1.00 20.00     0.069 C 
BRANCH   5   6
HETATM    6  C3  UNL     1     -33.896   5.644   3.403  1.00 20.00     0.128 C 
HETATM    7  C5  UNL     1     -35.064   6.526   3.766  1.00 20.00     0.091 C 
HETATM    8  O11 UNL     1     -33.926   4.433   3.626  1.00 20.00    -0.298 OA
ENDBRANCH   5   6
BRANCH   5   9
HETATM    9  C10 UNL     1     -32.579   5.890   1.233  1.00 20.00    -0.011 C 
HETATM   10  C6  UNL     1     -33.935   5.420   0.686  1.00 20.00     0.010 C 
HETATM   11  C7  UNL     1     -31.556   4.766   1.036  1.00 20.00     0.010 C 
ENDBRANCH   5   9
ENDBRANCH   4   5
ENDBRANCH   2   4
TORSDOF 4
ENDMDL
MODEL 7
REMARK VINA RESULT:      -0.3      1.263      4.092
REMARK  4 active torsions:
REMARK  status: ('A' for Active; 'I' for Inactive)
REMARK    1  A    between atoms: C2_2  and  C8_8 
REMARK    2  A    between atoms: C3_3  and  C9_9 
REMARK    3  A    between atoms: C8_8  and  C9_9 
REMARK    4  A    between atoms: C9_9  and  C10_10 
ROOT
HETATM    1  C1  UNL     1     -34.474   6.591   3.847  1.00 20.00    -0.111 C 
HETATM    2  C2  UNL     1     -33.619   7.351   3.483  1.00 20.00    -0.106 C 
HETATM    3  C4  UNL     1     -35.513   5.663   4.291  1.00 20.00     0.112 C 
ENDROOT
BRANCH   2   4
HETATM    4  C8  UNL     1     -32.572   8.283   3.037  1.00 20.00     0.106 C 
BRANCH   4   5
HETATM    5  C9  UNL     1     -31.940   7.892   1.687  1.00 20.00     0.069 C 
BRANCH   5   6
HETATM    6  C3  UNL     1     -32.264   6.422   1.397  1.00 20.00     0.128 C 
HETATM    7  C5  UNL     1     -33.479   6.149   0.546  1.00 20.00     0.091 C 
HETATM    8  O11 UNL     1     -31.562   5.498   1.810  1.00 20.00    -0.298 OA
ENDBRANCH   5   6
BRANCH   5   9
HETATM    9  C10 UNL     1     -32.319   8.803   0.486  1.00 20.00    -0.011 C 
HETATM   10  C6  UNL     1     -31.138   8.944  -0.487  1.00 20.00     0.010 C 
HETATM   11  C7  UNL     1     -32.757  10.203   0.929  1.00 20.00     0.010 C 
ENDBRANCH   5   9
ENDBRANCH   4   5
ENDBRANCH   2   4
TORSDOF 4
ENDMDL
MODEL 8
REMARK VINA RESULT:      -0.3      1.553      2.137
REMARK  4 active torsions:
REMARK  status: ('A' for Active; 'I' for Inactive)
REMARK    1  A    between atoms: C2_2  and  C8_8 
REMARK    2  A    between atoms: C3_3  and  C9_9 
REMARK    3  A    between atoms: C8_8  and  C9_9 
REMARK    4  A    between atoms: C9_9  and  C10_10 
ROOT
HETATM    1  C1  UNL     1     -32.235   8.215   1.179  1.00 20.00    -0.111 C 
HETATM    2  C2  UNL     1     -32.542   7.245   1.816  1.00 20.00    -0.106 C 
HETATM    3  C4  UNL     1     -31.863   9.395   0.400  1.00 20.00     0.112 C 
ENDROOT
BRANCH   2   4
HETATM    4  C8  UNL     1     -32.917   6.056   2.597  1.00 20.00     0.106 C 
BRANCH   4   5
HETATM    5  C9  UNL     1     -34.275   6.197   3.312  1.00 20.00     0.069 C 
BRANCH   5   6
HETATM    6  C3  UNL     1     -34.572   4.896   4.068  1.00 20.00     0.128 C 
HETATM    7  C5  UNL     1     -33.544   3.798   3.959  1.00 20.00     0.091 C 
HETATM    8  O11 UNL     1     -35.583   4.749   4.756  1.00 20.00    -0.298 OA
ENDBRANCH   5   6
BRANCH   5   9
HETATM    9  C10 UNL     1     -34.414   7.436   4.240  1.00 20.00    -0.011 C 
HETATM   10  C6  UNL     1     -34.896   8.661   3.448  1.00 20.00     0.010 C 
HETATM   11  C7  UNL     1     -33.097   7.792   4.939  1.00 20.00     0.010 C 
ENDBRANCH   5   9
ENDBRANCH   4   5
ENDBRANCH   2   4
TORSDOF 4
ENDMDL
MODEL 9
REMARK VINA RESULT:      -0.2      1.635      3.751
REMARK  4 active torsions:
REMARK  status: ('A' for Active; 'I' for Inactive)
REMARK    1  A    between atoms: C2_2  and  C8_8 
REMARK    2  A    between atoms: C3_3  and  C9_9 
REMARK    3  A    between atoms: C8_8  and  C9_9 
REMARK    4  A    between atoms: C9_9  and  C10_10 
ROOT
HETATM    1  C1  UNL     1     -31.608   4.408   0.340  1.00 20.00    -0.111 C 
HETATM    2  C2  UNL     1     -32.445   5.094   0.860  1.00 20.00    -0.106 C 
HETATM    3  C4  UNL     1     -30.588   3.572  -0.290  1.00 20.00     0.112 C 
ENDROOT
BRANCH   2   4
HETATM    4  C8  UNL     1     -33.470   5.935   1.496  1.00 20.00     0.106 C 
BRANCH   4   5
HETATM    5  C9  UNL     1     -32.910   6.856   2.597  1.00 20.00     0.069 C 
BRANCH   5   6
HETATM    6  C3  UNL     1     -32.025   7.924   1.944  1.00 20.00     0.128 C 
HETATM    7  C5  UNL     1     -32.715   8.922   1.047  1.00 20.00     0.091 C 
HETATM    8  O11 UNL     1     -30.813   7.994   2.152  1.00 20.00    -0.298 OA
ENDBRANCH   5   6
BRANCH   5   9
HETATM    9  C10 UNL     1     -33.973   7.497   3.533  1.00 20.00    -0.011 C 
HETATM   10  C6  UNL     1     -33.314   8.069   4.798  1.00 20.00     0.010 C 
HETATM   11  C7  UNL     1     -35.057   6.499   3.956  1.00 20.00     0.010 C 
ENDBRANCH   5   9
ENDBRANCH   4   5
ENDBRANCH   2   4
TORSDOF 4
ENDMDL
