MODEL 1
REMARK VINA RESULT:      -1.2      0.000      0.000
REMARK  6 active torsions:
REMARK  status: ('A' for Active; 'I' for Inactive)
REMARK    1  A    between atoms: C5_5  and  C6_6 
REMARK    2  A    between atoms: C5_5  and  C7_7 
REMARK    3  A    between atoms: C6_6  and  C9_9 
REMARK    4  A    between atoms: C7_7  and  O11_11 
REMARK    5  A    between atoms: C8_8  and  C9_9 
REMARK    6  A    between atoms: C9_9  and  C10_10 
ROOT
HETATM    1  C9  UNL     1     -33.227   6.990   2.092  1.00 20.00     0.007 C 
ENDROOT
BRANCH   1   2
HETATM    2  C6  UNL     1     -33.732   6.961   3.561  1.00 20.00     0.008 C 
BRANCH   2   3
HETATM    3  C5  UNL     1     -35.090   6.265   3.740  1.00 20.00     0.027 C 
BRANCH   3   4
HETATM    4  C7  UNL     1     -34.978   4.998   4.581  1.00 20.00     0.167 C 
BRANCH   4   5
HETATM    5  O11 UNL     1     -34.233   4.015   3.877  1.00 20.00    -0.396 OA
HETATM    6  C4  UNL     1     -33.420   3.246   4.756  1.00 20.00     0.201 C 
ENDBRANCH   4   5
ENDBRANCH   3   4
ENDBRANCH   2   3
ENDBRANCH   1   2
BRANCH   1   7
HETATM    7  C8  UNL     1     -33.000   5.563   1.490  1.00 20.00    -0.017 C 
HETATM    8  C1  UNL     1     -33.812   5.327   0.210  1.00 20.00     0.010 C 
HETATM    9  C2  UNL     1     -31.542   5.168   1.247  1.00 20.00     0.010 C 
ENDBRANCH   1   7
BRANCH   1  10
HETATM   10  C10 UNL     1     -32.044   7.987   1.889  1.00 20.00     0.082 C 
HETATM   11  C3  UNL     1     -31.620   8.672   3.189  1.00 20.00     0.027 C 
HETATM   12 CL12 UNL     1     -32.386   9.256   0.675  1.00 20.00    -0.125 Cl
ENDBRANCH   1  10
TORSDOF 6
ENDMDL
MODEL 2
REMARK VINA RESULT:      -0.9      2.809      5.041
REMARK  6 active torsions:
REMARK  status: ('A' for Active; 'I' for Inactive)
REMARK    1  A    between atoms: C5_5  and  C6_6 
REMARK    2  A    between atoms: C5_5  and  C7_7 
REMARK    3  A    between atoms: C6_6  and  C9_9 
REMARK    4  A    between atoms: C7_7  and  O11_11 
REMARK    5  A    between atoms: C8_8  and  C9_9 
REMARK    6  A    between atoms: C9_9  and  C10_10 
ROOT
HETATM    1  C9  UNL     1     -33.256   6.882   2.264  1.00 20.00     0.007 C 
ENDROOT
BRANCH   1   2
HETATM    2  C6  UNL     1     -31.930   7.691   2.212  1.00 20.00     0.008 C 
BRANCH   2   3
HETATM    3  C5  UNL     1     -32.030   9.004   1.422  1.00 20.00     0.027 C 
BRANCH   3   4
HETATM    4  C7  UNL     1     -32.068   8.765  -0.083  1.00 20.00     0.167 C 
BRANCH   4   5
HETATM    5  O11 UNL     1     -32.809   9.797  -0.718  1.00 20.00    -0.396 OA
HETATM    6  C4  UNL     1     -33.038  10.893   0.159  1.00 20.00     0.201 C 
ENDBRANCH   4   5
ENDBRANCH   3   4
ENDBRANCH   2   3
ENDBRANCH   1   2
BRANCH   1   7
HETATM    7  C8  UNL     1     -33.854   6.770   3.706  1.00 20.00    -0.017 C 
HETATM    8  C1  UNL     1     -33.706   8.071   4.507  1.00 20.00     0.010 C 
HETATM    9  C2  UNL     1     -35.301   6.283   3.789  1.00 20.00     0.010 C 
ENDBRANCH   1   7
BRANCH   1  10
HETATM   10  C10 UNL     1     -33.162   5.535   1.482  1.00 20.00     0.082 C 
HETATM   11  C3  UNL     1     -31.720   5.142   1.154  1.00 20.00     0.027 C 
HETATM   12 CL12 UNL     1     -34.101   5.532  -0.041  1.00 20.00    -0.125 Cl
ENDBRANCH   1  10
TORSDOF 6
ENDMDL
MODEL 3
REMARK VINA RESULT:      -0.8      3.025      4.763
REMARK  6 active torsions:
REMARK  status: ('A' for Active; 'I' for Inactive)
REMARK    1  A    between atoms: C5_5  and  C6_6 
REMARK    2  A    between atoms: C5_5  and  C7_7 
REMARK    3  A    between atoms: C6_6  and  C9_9 
REMARK    4  A    between atoms: C7_7  and  O11_11 
REMARK    5  A    between atoms: C8_8  and  C9_9 
REMARK    6  A    between atoms: C9_9  and  C10_10 
ROOT
HETATM    1  C9  UNL     1     -33.031   6.110   2.605  1.00 20.00     0.007 C 
ENDROOT
BRANCH   1   2
HETATM    2  C6  UNL     1     -33.064   7.656   2.766  1.00 20.00     0.008 C 
BRANCH   2   3
HETATM    3  C5  UNL     1     -31.760   8.354   2.355  1.00 20.00     0.027 C 
BRANCH   3   4
HETATM    4  C7  UNL     1     -31.780   8.792   0.894  1.00 20.00     0.167 C 
BRANCH   4   5
HETATM    5  O11 UNL     1     -32.479  10.022   0.767  1.00 20.00    -0.396 OA
HETATM    6  C4  UNL     1     -32.888  10.255  -0.574  1.00 20.00     0.201 C 
ENDBRANCH   4   5
ENDBRANCH   3   4
ENDBRANCH   2   3
ENDBRANCH   1   2
BRANCH   1   7
HETATM    7  C8  UNL     1     -32.652   5.650   1.158  1.00 20.00    -0.017 C 
HETATM    8  C1  UNL     1     -31.455   4.690   1.141  1.00 20.00     0.010 C 
HETATM    9  C2  UNL     1     -33.792   5.056   0.330  1.00 20.00     0.010 C 
ENDBRANCH   1   7
BRANCH   1  10
HETATM   10  C10 UNL     1     -34.296   5.422   3.206  1.00 20.00     0.082 C 
HETATM   11  C3  UNL     1     -35.132   6.372   4.067  1.00 20.00     0.027 C 
HETATM   12 CL12 UNL     1     -33.918   3.971   4.182  1.00 20.00    -0.125 Cl
ENDBRANCH   1  10
TORSDOF 6
ENDMDL
MODEL 4
REMARK VINA RESULT:      -0.4      3.024      4.645
REMARK  6 active torsions:
REMARK  status: ('A' for Active; 'I' for Inactive)
REMARK    1  A    between atoms: C5_5  and  C6_6 
REMARK    2  A    between atoms: C5_5  and  C7_7 
REMARK    3  A    between atoms: C6_6  and  C9_9 
REMARK    4  A    between atoms: C7_7  and  O11_11 
REMARK    5  A    between atoms: C8_8  and  C9_9 
REMARK    6  A    between atoms: C9_9  and  C10_10 
ROOT
HETATM    1  C9  UNL     1     -33.236   5.805   2.626  1.00 20.00     0.007 C 
ENDROOT
BRANCH   1   2
HETATM    2  C6  UNL     1     -33.351   7.345   2.447  1.00 20.00     0.008 C 
BRANCH   2   3
HETATM    3  C5  UNL     1     -31.998   8.066   2.362  1.00 20.00     0.027 C 
BRANCH   3   4
HETATM    4  C7  UNL     1     -31.739   8.639   0.973  1.00 20.00     0.167 C 
BRANCH   4   5
HETATM    5  O11 UNL     1     -32.450   9.857   0.812  1.00 20.00    -0.396 OA
HETATM    6  C4  UNL     1     -32.775  10.097  -0.551  1.00 20.00     0.201 C 
ENDBRANCH   4   5
ENDBRANCH   3   4
ENDBRANCH   2   3
ENDBRANCH   1   2
BRANCH   1   7
HETATM    7  C8  UNL     1     -32.911   5.052   1.293  1.00 20.00    -0.017 C 
HETATM    8  C1  UNL     1     -33.702   5.603   0.099  1.00 20.00     0.010 C 
HETATM    9  C2  UNL     1     -31.430   4.963   0.924  1.00 20.00     0.010 C 
ENDBRANCH   1   7
BRANCH   1  10
HETATM   10  C10 UNL     1     -34.422   5.212   3.448  1.00 20.00     0.082 C 
HETATM   11  C3  UNL     1     -35.136   6.264   4.298  1.00 20.00     0.027 C 
HETATM   12 CL12 UNL     1     -33.938   3.863   4.520  1.00 20.00    -0.125 Cl
ENDBRANCH   1  10
TORSDOF 6
ENDMDL
MODEL 5
REMARK VINA RESULT:      -0.4      2.931      5.187
REMARK  6 active torsions:
REMARK  status: ('A' for Active; 'I' for Inactive)
REMARK    1  A    between atoms: C5_5  and  C6_6 
REMARK    2  A    between atoms: C5_5  and  C7_7 
REMARK    3  A    between atoms: C6_6  and  C9_9 
REMARK    4  A    between atoms: C7_7  and  O11_11 
REMARK    5  A    between atoms: C8_8  and  C9_9 
REMARK    6  A    between atoms: C9_9  and  C10_10 
ROOT
HETATM    1  C9  UNL     1     -33.408   6.906   2.591  1.00 20.00     0.007 C 
ENDROOT
BRANCH   1   2
HETATM    2  C6  UNL     1     -32.391   8.080   2.558  1.00 20.00     0.008 C 
BRANCH   2   3
HETATM    3  C5  UNL     1     -31.297   7.927   1.491  1.00 20.00     0.027 C 
BRANCH   3   4
HETATM    4  C7  UNL     1     -31.565   8.795   0.267  1.00 20.00     0.167 C 
BRANCH   4   5
HETATM    5  O11 UNL     1     -32.396   9.891   0.622  1.00 20.00    -0.396 OA
HETATM    6  C4  UNL     1     -32.989  10.491  -0.522  1.00 20.00     0.201 C 
ENDBRANCH   4   5
ENDBRANCH   3   4
ENDBRANCH   2   3
ENDBRANCH   1   2
BRANCH   1   7
HETATM    7  C8  UNL     1     -34.146   6.768   3.965  1.00 20.00    -0.017 C 
HETATM    8  C1  UNL     1     -33.971   8.007   4.853  1.00 20.00     0.010 C 
HETATM    9  C2  UNL     1     -35.629   6.402   3.889  1.00 20.00     0.010 C 
ENDBRANCH   1   7
BRANCH   1  10
HETATM   10  C10 UNL     1     -32.806   5.581   2.030  1.00 20.00     0.082 C 
HETATM   11  C3  UNL     1     -33.313   5.249   0.625  1.00 20.00     0.027 C 
HETATM   12 CL12 UNL     1     -33.106   4.163   3.081  1.00 20.00    -0.125 Cl
ENDBRANCH   1  10
TORSDOF 6
ENDMDL
MODEL 6
REMARK VINA RESULT:      -0.4      2.524      4.618
REMARK  6 active torsions:
REMARK  status: ('A' for Active; 'I' for Inactive)
REMARK    1  A    between atoms: C5_5  and  C6_6 
REMARK    2  A    between atoms: C5_5  and  C7_7 
REMARK    3  A    between atoms: C6_6  and  C9_9 
REMARK    4  A    between atoms: C7_7  and  O11_11 
REMARK    5  A    between atoms: C8_8  and  C9_9 
REMARK    6  A    between atoms: C9_9  and  C10_10 
ROOT
HETATM    1  C9  UNL     1     -33.567   6.033   3.488  1.00 20.00     0.007 C 
ENDROOT
BRANCH   1   2
HETATM    2  C6  UNL     1     -33.369   6.278   1.966  1.00 20.00     0.008 C 
BRANCH   2   3
HETATM    3  C5  UNL     1     -31.971   6.795   1.594  1.00 20.00     0.027 C 
BRANCH   3   4
HETATM    4  C7  UNL     1     -31.898   8.318   1.620  1.00 20.00     0.167 C 
BRANCH   4   5
HETATM    5  O11 UNL     1     -32.045   8.832   0.305  1.00 20.00    -0.396 OA
HETATM    6  C4  UNL     1     -32.504  10.178   0.317  1.00 20.00     0.201 C 
ENDBRANCH   4   5
ENDBRANCH   3   4
ENDBRANCH   2   3
ENDBRANCH   1   2
BRANCH   1   7
HETATM    7  C8  UNL     1     -34.367   4.725   3.802  1.00 20.00    -0.017 C 
HETATM    8  C1  UNL     1     -33.460   3.578   4.269  1.00 20.00     0.010 C 
HETATM    9  C2  UNL     1     -35.535   4.878   4.778  1.00 20.00     0.010 C 
ENDBRANCH   1   7
BRANCH   1  10
HETATM   10  C10 UNL     1     -34.066   7.307   4.236  1.00 20.00     0.082 C 
HETATM   11  C3  UNL     1     -34.883   8.237   3.337  1.00 20.00     0.027 C 
HETATM   12 CL12 UNL     1     -32.744   8.262   4.972  1.00 20.00    -0.125 Cl
ENDBRANCH   1  10
TORSDOF 6
ENDMDL
MODEL 7
REMARK VINA RESULT:      -0.2      1.003      1.553
REMARK  6 active torsions:
REMARK  status: ('A' for Active; 'I' for Inactive)
REMARK    1  A    between atoms: C5_5  and  C6_6 
REMARK    2  A    between atoms: C5_5  and  C7_7 
REMARK    3  A    between atoms: C6_6  and  C9_9 
REMARK    4  A    between atoms: C7_7  and  O11_11 
REMARK    5  A    between atoms: C8_8  and  C9_9 
REMARK    6  A    between atoms: C9_9  and  C10_10 
ROOT
HETATM    1  C9  UNL     1     -33.249   7.145   2.022  1.00 20.00     0.007 C 
ENDROOT
BRANCH   1   2
HETATM    2  C6  UNL     1     -33.471   6.650   3.479  1.00 20.00     0.008 C 
BRANCH   2   3
HETATM    3  C5  UNL     1     -34.916   6.230   3.782  1.00 20.00     0.027 C 
BRANCH   3   4
HETATM    4  C7  UNL     1     -34.985   4.873   4.475  1.00 20.00     0.167 C 
BRANCH   4   5
HETATM    5  O11 UNL     1     -34.091   3.964   3.850  1.00 20.00    -0.396 OA
HETATM    6  C4  UNL     1     -33.396   3.173   4.806  1.00 20.00     0.201 C 
ENDBRANCH   4   5
ENDBRANCH   3   4
ENDBRANCH   2   3
ENDBRANCH   1   2
BRANCH   1   7
HETATM    7  C8  UNL     1     -32.658   6.044   1.081  1.00 20.00    -0.017 C 
HETATM    8  C1  UNL     1     -31.575   5.202   1.768  1.00 20.00     0.010 C 
HETATM    9  C2  UNL     1     -33.679   5.117   0.419  1.00 20.00     0.010 C 
ENDBRANCH   1   7
BRANCH   1  10
HETATM   10  C10 UNL     1     -32.519   8.523   1.967  1.00 20.00     0.082 C 
HETATM   11  C3  UNL     1     -31.992   8.856   0.570  1.00 20.00     0.027 C 
HETATM   12 CL12 UNL     1     -31.158   8.652   3.121  1.00 20.00    -0.125 Cl
ENDBRANCH   1  10
TORSDOF 6
ENDMDL
MODEL 8
REMARK VINA RESULT:      -0.1      3.086      4.671
REMARK  6 active torsions:
REMARK  status: ('A' for Active; 'I' for Inactive)
REMARK    1  A    between atoms: C5_5  and  C6_6 
REMARK    2  A    between atoms: C5_5  and  C7_7 
REMARK    3  A    between atoms: C6_6  and  C9_9 
REMARK    4  A    between atoms: C7_7  and  O11_11 
REMARK    5  A    between atoms: C8_8  and  C9_9 
REMARK    6  A    between atoms: C9_9  and  C10_10 
ROOT
HETATM    1  C9  UNL     1     -32.818   6.743   3.008  1.00 20.00     0.007 C 
ENDROOT
BRANCH   1   2
HETATM    2  C6  UNL     1     -31.844   7.629   2.183  1.00 20.00     0.008 C 
BRANCH   2   3
HETATM    3  C5  UNL     1     -32.530   8.782   1.435  1.00 20.00     0.027 C 
BRANCH   3   4
HETATM    4  C7  UNL     1     -32.095   8.858  -0.024  1.00 20.00     0.167 C 
BRANCH   4   5
HETATM    5  O11 UNL     1     -32.622  10.031  -0.626  1.00 20.00    -0.396 OA
HETATM    6  C4  UNL     1     -32.920  11.028   0.343  1.00 20.00     0.201 C 
ENDBRANCH   4   5
ENDBRANCH   3   4
ENDBRANCH   2   3
ENDBRANCH   1   2
BRANCH   1   7
HETATM    7  C8  UNL     1     -33.283   5.460   2.241  1.00 20.00    -0.017 C 
HETATM    8  C1  UNL     1     -32.358   5.109   1.067  1.00 20.00     0.010 C 
HETATM    9  C2  UNL     1     -33.507   4.216   3.101  1.00 20.00     0.010 C 
ENDBRANCH   1   7
BRANCH   1  10
HETATM   10  C10 UNL     1     -33.965   7.572   3.664  1.00 20.00     0.082 C 
HETATM   11  C3  UNL     1     -33.557   8.188   5.004  1.00 20.00     0.027 C 
HETATM   12 CL12 UNL     1     -35.466   6.631   3.916  1.00 20.00    -0.125 Cl
ENDBRANCH   1  10
TORSDOF 6
ENDMDL
MODEL 9
REMARK VINA RESULT:       0.1      1.615      2.761
REMARK  6 active torsions:
REMARK  status: ('A' for Active; 'I' for Inactive)
REMARK    1  A    between atoms: C5_5  and  C6_6 
REMARK    2  A    between atoms: C5_5  and  C7_7 
REMARK    3  A    between atoms: C6_6  and  C9_9 
REMARK    4  A    between atoms: C7_7  and  O11_11 
REMARK    5  A    between atoms: C8_8  and  C9_9 
REMARK    6  A    between atoms: C9_9  and  C10_10 
ROOT
HETATM    1  C9  UNL     1     -32.532   7.532   1.979  1.00 20.00     0.007 C 
ENDROOT
BRANCH   1   2
HETATM    2  C6  UNL     1     -33.480   8.025   3.107  1.00 20.00     0.008 C 
BRANCH   2   3
HETATM    3  C5  UNL     1     -33.868   6.935   4.117  1.00 20.00     0.027 C 
BRANCH   3   4
HETATM    4  C7  UNL     1     -35.259   6.372   3.849  1.00 20.00     0.167 C 
BRANCH   4   5
HETATM    5  O11 UNL     1     -35.394   5.100   4.465  1.00 20.00    -0.396 OA
HETATM    6  C4  UNL     1     -34.234   4.300   4.274  1.00 20.00     0.201 C 
ENDBRANCH   4   5
ENDBRANCH   3   4
ENDBRANCH   2   3
ENDBRANCH   1   2
BRANCH   1   7
HETATM    7  C8  UNL     1     -32.400   8.549   0.797  1.00 20.00    -0.017 C 
HETATM    8  C1  UNL     1     -32.843   9.965   1.187  1.00 20.00     0.010 C 
HETATM    9  C2  UNL     1     -31.028   8.612   0.125  1.00 20.00     0.010 C 
ENDBRANCH   1   7
BRANCH   1  10
HETATM   10  C10 UNL     1     -32.828   6.060   1.554  1.00 20.00     0.082 C 
HETATM   11  C3  UNL     1     -31.554   5.254   1.289  1.00 20.00     0.027 C 
HETATM   12 CL12 UNL     1     -33.878   5.935   0.111  1.00 20.00    -0.125 Cl
ENDBRANCH   1  10
TORSDOF 6
ENDMDL
