MODEL 1
REMARK VINA RESULT:      -0.9      0.000      0.000
REMARK  2 active torsions:
REMARK  status: ('A' for Active; 'I' for Inactive)
REMARK    1  A    between atoms: C3_3  and  C8_8 
REMARK    2  A    between atoms: C4_4  and  C7_7 
ROOT
HETATM    1  C1  UNL     1     -32.377   9.721   0.049  1.00 20.00     0.065 C 
HETATM    2  C8  UNL     1     -31.486   9.057   1.021  1.00 20.00     0.183 C 
HETATM    3  N9  UNL     1     -33.085  10.235  -0.715  1.00 20.00    -0.197 NA
ENDROOT
BRANCH   2   4
HETATM    4  C3  UNL     1     -32.113   7.839   1.572  1.00 20.00     0.055 A 
HETATM    5  C2  UNL     1     -31.905   6.552   1.124  1.00 20.00     0.079 A 
HETATM    6  S11 UNL     1     -32.838   5.459   2.060  1.00 20.00    -0.084 SA
HETATM    7  C4  UNL     1     -33.434   6.785   2.971  1.00 20.00     0.079 A 
HETATM    8  N10 UNL     1     -32.990   7.975   2.631  1.00 20.00    -0.249 NA
BRANCH   7   9
HETATM    9  C7  UNL     1     -34.433   6.593   4.124  1.00 20.00     0.045 A 
HETATM   10  C5  UNL     1     -35.016   5.218   4.353  1.00 20.00     0.012 A 
HETATM   11  C6  UNL     1     -35.877   6.304   3.788  1.00 20.00     0.012 A 
ENDBRANCH   7   9
ENDBRANCH   2   4
TORSDOF 2
ENDMDL
MODEL 2
REMARK VINA RESULT:      -0.8      1.588      4.897
REMARK  2 active torsions:
REMARK  status: ('A' for Active; 'I' for Inactive)
REMARK    1  A    between atoms: C3_3  and  C8_8 
REMARK    2  A    between atoms: C4_4  and  C7_7 
ROOT
HETATM    1  C1  UNL     1     -35.057   5.668   4.416  1.00 20.00     0.065 C 
HETATM    2  C8  UNL     1     -34.621   7.048   4.124  1.00 20.00     0.183 C 
HETATM    3  N9  UNL     1     -35.396   4.580   4.638  1.00 20.00    -0.197 NA
ENDROOT
BRANCH   2   4
HETATM    4  C3  UNL     1     -33.651   7.074   3.010  1.00 20.00     0.055 A 
HETATM    5  C2  UNL     1     -33.054   5.973   2.435  1.00 20.00     0.079 A 
HETATM    6  S11 UNL     1     -32.003   6.479   1.178  1.00 20.00    -0.084 SA
HETATM    7  C4  UNL     1     -32.432   8.107   1.507  1.00 20.00     0.079 A 
HETATM    8  N10 UNL     1     -33.296   8.300   2.479  1.00 20.00    -0.249 NA
BRANCH   7   9
HETATM    9  C7  UNL     1     -31.838   9.279   0.709  1.00 20.00     0.045 A 
HETATM   10  C5  UNL     1     -32.608  10.577   0.648  1.00 20.00     0.012 A 
HETATM   11  C6  UNL     1     -32.525   9.707  -0.567  1.00 20.00     0.012 A 
ENDBRANCH   7   9
ENDBRANCH   2   4
TORSDOF 2
ENDMDL
MODEL 3
REMARK VINA RESULT:      -0.6      1.540      1.961
REMARK  2 active torsions:
REMARK  status: ('A' for Active; 'I' for Inactive)
REMARK    1  A    between atoms: C3_3  and  C8_8 
REMARK    2  A    between atoms: C4_4  and  C7_7 
ROOT
HETATM    1  C1  UNL     1     -32.246   9.337   0.363  1.00 20.00     0.065 C 
HETATM    2  C8  UNL     1     -31.653   8.158   1.023  1.00 20.00     0.183 C 
HETATM    3  N9  UNL     1     -32.722  10.263  -0.152  1.00 20.00    -0.197 NA
ENDROOT
BRANCH   2   4
HETATM    4  C3  UNL     1     -32.530   7.653   2.099  1.00 20.00     0.055 A 
HETATM    5  C2  UNL     1     -33.027   8.395   3.148  1.00 20.00     0.079 A 
HETATM    6  S11 UNL     1     -33.999   7.398   4.149  1.00 20.00    -0.084 SA
HETATM    7  C4  UNL     1     -33.674   6.075   3.106  1.00 20.00     0.079 A 
HETATM    8  N10 UNL     1     -32.899   6.321   2.072  1.00 20.00    -0.249 NA
BRANCH   7   9
HETATM    9  C7  UNL     1     -34.257   4.676   3.365  1.00 20.00     0.045 A 
HETATM   10  C5  UNL     1     -34.647   4.305   4.776  1.00 20.00     0.012 A 
HETATM   11  C6  UNL     1     -33.434   3.685   4.156  1.00 20.00     0.012 A 
ENDBRANCH   7   9
ENDBRANCH   2   4
TORSDOF 2
ENDMDL
MODEL 4
REMARK VINA RESULT:       0.2      2.213      5.313
REMARK  2 active torsions:
REMARK  status: ('A' for Active; 'I' for Inactive)
REMARK    1  A    between atoms: C3_3  and  C8_8 
REMARK    2  A    between atoms: C4_4  and  C7_7 
ROOT
HETATM    1  C1  UNL     1     -33.828   3.644   4.512  1.00 20.00     0.065 C 
HETATM    2  C8  UNL     1     -34.866   4.622   4.130  1.00 20.00     0.183 C 
HETATM    3  N9  UNL     1     -33.004   2.882   4.809  1.00 20.00    -0.197 NA
ENDROOT
BRANCH   2   4
HETATM    4  C3  UNL     1     -34.266   5.925   3.779  1.00 20.00     0.055 A 
HETATM    5  C2  UNL     1     -34.481   7.115   4.439  1.00 20.00     0.079 A 
HETATM    6  S11 UNL     1     -33.579   8.363   3.685  1.00 20.00    -0.084 SA
HETATM    7  C4  UNL     1     -32.987   7.218   2.552  1.00 20.00     0.079 A 
HETATM    8  N10 UNL     1     -33.410   5.982   2.695  1.00 20.00    -0.249 NA
BRANCH   7   9
HETATM    9  C7  UNL     1     -32.015   7.616   1.429  1.00 20.00     0.045 A 
HETATM   10  C5  UNL     1     -31.288   8.936   1.537  1.00 20.00     0.012 A 
HETATM   11  C6  UNL     1     -32.384   8.774   0.530  1.00 20.00     0.012 A 
ENDBRANCH   7   9
ENDBRANCH   2   4
TORSDOF 2
ENDMDL
MODEL 5
REMARK VINA RESULT:       1.7      2.326      4.630
REMARK  2 active torsions:
REMARK  status: ('A' for Active; 'I' for Inactive)
REMARK    1  A    between atoms: C3_3  and  C8_8 
REMARK    2  A    between atoms: C4_4  and  C7_7 
ROOT
HETATM    1  C1  UNL     1     -35.113   5.777   4.421  1.00 20.00     0.065 C 
HETATM    2  C8  UNL     1     -34.741   7.193   4.232  1.00 20.00     0.183 C 
HETATM    3  N9  UNL     1     -35.400   4.660   4.562  1.00 20.00    -0.197 NA
ENDROOT
BRANCH   2   4
HETATM    4  C3  UNL     1     -33.639   7.327   3.257  1.00 20.00     0.055 A 
HETATM    5  C2  UNL     1     -32.810   8.420   3.124  1.00 20.00     0.079 A 
HETATM    6  S11 UNL     1     -31.678   8.135   1.868  1.00 20.00    -0.084 SA
HETATM    7  C4  UNL     1     -32.387   6.593   1.613  1.00 20.00     0.079 A 
HETATM    8  N10 UNL     1     -33.399   6.278   2.391  1.00 20.00    -0.249 NA
BRANCH   7   9
HETATM    9  C7  UNL     1     -31.867   5.631   0.532  1.00 20.00     0.045 A 
HETATM   10  C5  UNL     1     -32.609   4.336   0.299  1.00 20.00     0.012 A 
HETATM   11  C6  UNL     1     -31.268   4.313   0.964  1.00 20.00     0.012 A 
ENDBRANCH   7   9
ENDBRANCH   2   4
TORSDOF 2
ENDMDL
MODEL 6
REMARK VINA RESULT:       1.9      2.293      3.188
REMARK  2 active torsions:
REMARK  status: ('A' for Active; 'I' for Inactive)
REMARK    1  A    between atoms: C3_3  and  C8_8 
REMARK    2  A    between atoms: C4_4  and  C7_7 
ROOT
HETATM    1  C1  UNL     1     -33.058   4.162  -0.250  1.00 20.00     0.065 C 
HETATM    2  C8  UNL     1     -31.869   4.727   0.417  1.00 20.00     0.183 C 
HETATM    3  N9  UNL     1     -34.000   3.723  -0.769  1.00 20.00    -0.197 NA
ENDROOT
BRANCH   2   4
HETATM    4  C3  UNL     1     -32.238   5.852   1.299  1.00 20.00     0.055 A 
HETATM    5  C2  UNL     1     -31.643   7.096   1.312  1.00 20.00     0.079 A 
HETATM    6  S11 UNL     1     -32.396   8.083   2.494  1.00 20.00    -0.084 SA
HETATM    7  C4  UNL     1     -33.440   6.778   2.884  1.00 20.00     0.079 A 
HETATM    8  N10 UNL     1     -33.269   5.668   2.200  1.00 20.00    -0.249 NA
BRANCH   7   9
HETATM    9  C7  UNL     1     -34.518   6.899   3.974  1.00 20.00     0.045 A 
HETATM   10  C5  UNL     1     -35.241   5.650   4.418  1.00 20.00     0.012 A 
HETATM   11  C6  UNL     1     -35.961   6.668   3.592  1.00 20.00     0.012 A 
ENDBRANCH   7   9
ENDBRANCH   2   4
TORSDOF 2
ENDMDL
MODEL 7
REMARK VINA RESULT:       1.9      1.790      2.859
REMARK  2 active torsions:
REMARK  status: ('A' for Active; 'I' for Inactive)
REMARK    1  A    between atoms: C3_3  and  C8_8 
REMARK    2  A    between atoms: C4_4  and  C7_7 
ROOT
HETATM    1  C1  UNL     1     -32.493   9.791   0.291  1.00 20.00     0.065 C 
HETATM    2  C8  UNL     1     -32.029   9.457   1.653  1.00 20.00     0.183 C 
HETATM    3  N9  UNL     1     -32.861  10.044  -0.781  1.00 20.00    -0.197 NA
ENDROOT
BRANCH   2   4
HETATM    4  C3  UNL     1     -32.561   8.151   2.091  1.00 20.00     0.055 A 
HETATM    5  C2  UNL     1     -33.404   7.942   3.161  1.00 20.00     0.079 A 
HETATM    6  S11 UNL     1     -33.762   6.270   3.293  1.00 20.00    -0.084 SA
HETATM    7  C4  UNL     1     -32.770   5.974   1.925  1.00 20.00     0.079 A 
HETATM    8  N10 UNL     1     -32.196   7.023   1.380  1.00 20.00    -0.249 NA
BRANCH   7   9
HETATM    9  C7  UNL     1     -32.563   4.556   1.365  1.00 20.00     0.045 A 
HETATM   10  C5  UNL     1     -31.566   4.359   0.248  1.00 20.00     0.012 A 
HETATM   11  C6  UNL     1     -33.031   4.259  -0.040  1.00 20.00     0.012 A 
ENDBRANCH   7   9
ENDBRANCH   2   4
TORSDOF 2
ENDMDL
MODEL 8
REMARK VINA RESULT:       2.1      2.318      3.486
REMARK  2 active torsions:
REMARK  status: ('A' for Active; 'I' for Inactive)
REMARK    1  A    between atoms: C3_3  and  C8_8 
REMARK    2  A    between atoms: C4_4  and  C7_7 
ROOT
HETATM    1  C1  UNL     1     -32.233   7.958   2.249  1.00 20.00     0.065 C 
HETATM    2  C8  UNL     1     -33.674   7.997   2.571  1.00 20.00     0.183 C 
HETATM    3  N9  UNL     1     -31.099   7.919   2.003  1.00 20.00    -0.197 NA
ENDROOT
BRANCH   2   4
HETATM    4  C3  UNL     1     -34.101   6.757   3.249  1.00 20.00     0.055 A 
HETATM    5  C2  UNL     1     -35.244   6.603   4.004  1.00 20.00     0.079 A 
HETATM    6  S11 UNL     1     -35.333   4.996   4.594  1.00 20.00    -0.084 SA
HETATM    7  C4  UNL     1     -33.853   4.648   3.800  1.00 20.00     0.079 A 
HETATM    8  N10 UNL     1     -33.302   5.636   3.130  1.00 20.00    -0.249 NA
BRANCH   7   9
HETATM    9  C7  UNL     1     -33.205   3.255   3.866  1.00 20.00     0.045 A 
HETATM   10  C5  UNL     1     -33.627   2.314   4.970  1.00 20.00     0.012 A 
HETATM   11  C6  UNL     1     -32.271   2.946   5.013  1.00 20.00     0.012 A 
ENDBRANCH   7   9
ENDBRANCH   2   4
TORSDOF 2
ENDMDL
