MODEL 1
REMARK VINA RESULT:      -0.6      0.000      0.000
REMARK  2 active torsions:
REMARK  status: ('A' for Active; 'I' for Inactive)
REMARK    1  A    between atoms: C5_5  and  C6_6 
REMARK    2  A    between atoms: C5_5  and  C7_7 
ROOT
HETATM    1  C1  UNL     1     -32.166   8.317   1.212  1.00 20.00     0.079 C 
HETATM    2  C6  UNL     1     -32.395   7.109   2.013  1.00 20.00     0.189 C 
HETATM    3  N8  UNL     1     -31.989   9.275   0.580  1.00 20.00    -0.196 NA
HETATM    4 CL9  UNL     1     -31.591   5.769   1.125  1.00 20.00    -0.109 Cl
ENDROOT
BRANCH   2   5
HETATM    5  C5  UNL     1     -33.883   6.771   2.188  1.00 20.00     0.043 C 
BRANCH   5   6
HETATM    6  C7  UNL     1     -34.373   6.410   3.622  1.00 20.00    -0.049 C 
HETATM    7  C2  UNL     1     -35.905   6.420   3.740  1.00 20.00     0.014 C 
HETATM    8  C3  UNL     1     -33.845   5.032   4.056  1.00 20.00     0.014 C 
HETATM    9  C4  UNL     1     -33.812   7.471   4.593  1.00 20.00     0.014 C 
ENDBRANCH   5   6
ENDBRANCH   2   5
TORSDOF 2
ENDMDL
MODEL 2
REMARK VINA RESULT:      -0.6      0.175      1.447
REMARK  2 active torsions:
REMARK  status: ('A' for Active; 'I' for Inactive)
REMARK    1  A    between atoms: C5_5  and  C6_6 
REMARK    2  A    between atoms: C5_5  and  C7_7 
ROOT
HETATM    1  C1  UNL     1     -32.084   8.172   1.285  1.00 20.00     0.079 C 
HETATM    2  C6  UNL     1     -32.339   6.927   2.018  1.00 20.00     0.189 C 
HETATM    3  N8  UNL     1     -31.884   9.159   0.707  1.00 20.00    -0.196 NA
HETATM    4 CL9  UNL     1     -31.560   5.621   1.060  1.00 20.00    -0.109 Cl
ENDROOT
BRANCH   2   5
HETATM    5  C5  UNL     1     -33.835   6.610   2.171  1.00 20.00     0.043 C 
BRANCH   5   6
HETATM    6  C7  UNL     1     -34.384   6.422   3.617  1.00 20.00    -0.049 C 
HETATM    7  C2  UNL     1     -34.008   5.059   4.217  1.00 20.00     0.014 C 
HETATM    8  C3  UNL     1     -33.880   7.538   4.549  1.00 20.00     0.014 C 
HETATM    9  C4  UNL     1     -35.924   6.507   3.550  1.00 20.00     0.014 C 
ENDBRANCH   5   6
ENDBRANCH   2   5
TORSDOF 2
ENDMDL
MODEL 3
REMARK VINA RESULT:      -0.6      0.062      1.441
REMARK  2 active torsions:
REMARK  status: ('A' for Active; 'I' for Inactive)
REMARK    1  A    between atoms: C5_5  and  C6_6 
REMARK    2  A    between atoms: C5_5  and  C7_7 
ROOT
HETATM    1  C1  UNL     1     -32.146   8.251   1.217  1.00 20.00     0.079 C 
HETATM    2  C6  UNL     1     -32.377   7.041   2.014  1.00 20.00     0.189 C 
HETATM    3  N8  UNL     1     -31.967   9.210   0.587  1.00 20.00    -0.196 NA
HETATM    4 CL9  UNL     1     -31.575   5.702   1.123  1.00 20.00    -0.109 Cl
ENDROOT
BRANCH   2   5
HETATM    5  C5  UNL     1     -33.866   6.705   2.187  1.00 20.00     0.043 C 
BRANCH   5   6
HETATM    6  C7  UNL     1     -34.380   6.446   3.635  1.00 20.00    -0.049 C 
HETATM    7  C2  UNL     1     -33.854   7.482   4.640  1.00 20.00     0.014 C 
HETATM    8  C3  UNL     1     -35.918   6.437   3.682  1.00 20.00     0.014 C 
HETATM    9  C4  UNL     1     -33.874   5.055   4.073  1.00 20.00     0.014 C 
ENDBRANCH   5   6
ENDBRANCH   2   5
TORSDOF 2
ENDMDL
MODEL 4
REMARK VINA RESULT:      -0.3      2.665      3.856
REMARK  2 active torsions:
REMARK  status: ('A' for Active; 'I' for Inactive)
REMARK    1  A    between atoms: C5_5  and  C6_6 
REMARK    2  A    between atoms: C5_5  and  C7_7 
ROOT
HETATM    1  C1  UNL     1     -33.936   7.522   4.333  1.00 20.00     0.079 C 
HETATM    2  C6  UNL     1     -34.426   6.469   3.437  1.00 20.00     0.189 C 
HETATM    3  N8  UNL     1     -33.544   8.357   5.040  1.00 20.00    -0.196 NA
HETATM    4 CL9  UNL     1     -35.541   5.462   4.424  1.00 20.00    -0.109 Cl
ENDROOT
BRANCH   2   5
HETATM    5  C5  UNL     1     -33.306   5.577   2.881  1.00 20.00     0.043 C 
BRANCH   5   6
HETATM    6  C7  UNL     1     -32.693   5.971   1.504  1.00 20.00    -0.049 C 
HETATM    7  C2  UNL     1     -33.726   5.932   0.367  1.00 20.00     0.014 C 
HETATM    8  C3  UNL     1     -32.061   7.372   1.560  1.00 20.00     0.014 C 
HETATM    9  C4  UNL     1     -31.581   4.952   1.175  1.00 20.00     0.014 C 
ENDBRANCH   5   6
ENDBRANCH   2   5
TORSDOF 2
ENDMDL
MODEL 5
REMARK VINA RESULT:      -0.3      2.656      3.845
REMARK  2 active torsions:
REMARK  status: ('A' for Active; 'I' for Inactive)
REMARK    1  A    between atoms: C5_5  and  C6_6 
REMARK    2  A    between atoms: C5_5  and  C7_7 
ROOT
HETATM    1  C1  UNL     1     -33.864   7.522   4.312  1.00 20.00     0.079 C 
HETATM    2  C6  UNL     1     -34.397   6.498   3.408  1.00 20.00     0.189 C 
HETATM    3  N8  UNL     1     -33.438   8.334   5.025  1.00 20.00    -0.196 NA
HETATM    4 CL9  UNL     1     -35.561   5.536   4.384  1.00 20.00    -0.109 Cl
ENDROOT
BRANCH   2   5
HETATM    5  C5  UNL     1     -33.316   5.559   2.852  1.00 20.00     0.043 C 
BRANCH   5   6
HETATM    6  C7  UNL     1     -32.645   5.957   1.503  1.00 20.00    -0.049 C 
HETATM    7  C2  UNL     1     -32.054   7.375   1.535  1.00 20.00     0.014 C 
HETATM    8  C3  UNL     1     -31.537   4.960   1.121  1.00 20.00     0.014 C 
HETATM    9  C4  UNL     1     -33.731   5.917   0.406  1.00 20.00     0.014 C 
ENDBRANCH   5   6
ENDBRANCH   2   5
TORSDOF 2
ENDMDL
MODEL 6
REMARK VINA RESULT:      -0.2      2.869      4.339
REMARK  2 active torsions:
REMARK  status: ('A' for Active; 'I' for Inactive)
REMARK    1  A    between atoms: C5_5  and  C6_6 
REMARK    2  A    between atoms: C5_5  and  C7_7 
ROOT
HETATM    1  C1  UNL     1     -34.744   6.437   4.001  1.00 20.00     0.079 C 
HETATM    2  C6  UNL     1     -33.510   7.213   3.835  1.00 20.00     0.189 C 
HETATM    3  N8  UNL     1     -35.721   5.822   4.128  1.00 20.00    -0.196 NA
HETATM    4 CL9  UNL     1     -33.414   8.297   5.266  1.00 20.00    -0.109 Cl
ENDROOT
BRANCH   2   5
HETATM    5  C5  UNL     1     -33.499   8.067   2.559  1.00 20.00     0.043 C 
BRANCH   5   6
HETATM    6  C7  UNL     1     -32.186   8.085   1.719  1.00 20.00    -0.049 C 
HETATM    7  C2  UNL     1     -32.262   9.055   0.530  1.00 20.00     0.014 C 
HETATM    8  C3  UNL     1     -30.976   8.457   2.594  1.00 20.00     0.014 C 
HETATM    9  C4  UNL     1     -31.963   6.663   1.164  1.00 20.00     0.014 C 
ENDBRANCH   5   6
ENDBRANCH   2   5
TORSDOF 2
ENDMDL
MODEL 7
REMARK VINA RESULT:      -0.1      2.965      4.238
REMARK  2 active torsions:
REMARK  status: ('A' for Active; 'I' for Inactive)
REMARK    1  A    between atoms: C5_5  and  C6_6 
REMARK    2  A    between atoms: C5_5  and  C7_7 
ROOT
HETATM    1  C1  UNL     1     -33.873   4.793   3.811  1.00 20.00     0.079 C 
HETATM    2  C6  UNL     1     -33.937   6.233   3.535  1.00 20.00     0.189 C 
HETATM    3  N8  UNL     1     -33.819   3.654   4.029  1.00 20.00    -0.196 NA
HETATM    4 CL9  UNL     1     -35.670   6.686   3.675  1.00 20.00    -0.109 Cl
ENDROOT
BRANCH   2   5
HETATM    5  C5  UNL     1     -33.436   6.602   2.130  1.00 20.00     0.043 C 
BRANCH   5   6
HETATM    6  C7  UNL     1     -32.377   7.740   2.023  1.00 20.00    -0.049 C 
HETATM    7  C2  UNL     1     -32.788   8.833   1.024  1.00 20.00     0.014 C 
HETATM    8  C3  UNL     1     -32.118   8.386   3.395  1.00 20.00     0.014 C 
HETATM    9  C4  UNL     1     -31.058   7.111   1.527  1.00 20.00     0.014 C 
ENDBRANCH   5   6
ENDBRANCH   2   5
TORSDOF 2
ENDMDL
MODEL 8
REMARK VINA RESULT:       0.0      2.967      4.290
REMARK  2 active torsions:
REMARK  status: ('A' for Active; 'I' for Inactive)
REMARK    1  A    between atoms: C5_5  and  C6_6 
REMARK    2  A    between atoms: C5_5  and  C7_7 
ROOT
HETATM    1  C1  UNL     1     -33.881   4.792   3.809  1.00 20.00     0.079 C 
HETATM    2  C6  UNL     1     -33.946   6.232   3.534  1.00 20.00     0.189 C 
HETATM    3  N8  UNL     1     -33.827   3.653   4.025  1.00 20.00    -0.196 NA
HETATM    4 CL9  UNL     1     -35.678   6.686   3.688  1.00 20.00    -0.109 Cl
ENDROOT
BRANCH   2   5
HETATM    5  C5  UNL     1     -33.455   6.602   2.126  1.00 20.00     0.043 C 
BRANCH   5   6
HETATM    6  C7  UNL     1     -32.376   7.721   2.014  1.00 20.00    -0.049 C 
HETATM    7  C2  UNL     1     -31.014   7.180   1.555  1.00 20.00     0.014 C 
HETATM    8  C3  UNL     1     -32.828   8.829   1.047  1.00 20.00     0.014 C 
HETATM    9  C4  UNL     1     -32.197   8.345   3.414  1.00 20.00     0.014 C 
ENDBRANCH   5   6
ENDBRANCH   2   5
TORSDOF 2
ENDMDL
MODEL 9
REMARK VINA RESULT:       0.1      2.966      4.213
REMARK  2 active torsions:
REMARK  status: ('A' for Active; 'I' for Inactive)
REMARK    1  A    between atoms: C5_5  and  C6_6 
REMARK    2  A    between atoms: C5_5  and  C7_7 
ROOT
HETATM    1  C1  UNL     1     -33.878   4.790   3.820  1.00 20.00     0.079 C 
HETATM    2  C6  UNL     1     -33.945   6.230   3.547  1.00 20.00     0.189 C 
HETATM    3  N8  UNL     1     -33.821   3.650   4.035  1.00 20.00    -0.196 NA
HETATM    4 CL9  UNL     1     -35.682   6.675   3.673  1.00 20.00    -0.109 Cl
ENDROOT
BRANCH   2   5
HETATM    5  C5  UNL     1     -33.434   6.605   2.148  1.00 20.00     0.043 C 
BRANCH   5   6
HETATM    6  C7  UNL     1     -32.347   7.719   2.057  1.00 20.00    -0.049 C 
HETATM    7  C2  UNL     1     -32.098   8.411   3.406  1.00 20.00     0.014 C 
HETATM    8  C3  UNL     1     -31.017   7.151   1.531  1.00 20.00     0.014 C 
HETATM    9  C4  UNL     1     -32.847   8.784   1.058  1.00 20.00     0.014 C 
ENDBRANCH   5   6
ENDBRANCH   2   5
TORSDOF 2
ENDMDL
