MODEL 1
REMARK VINA RESULT:      -3.6      0.000      0.000
REMARK  3 active torsions:
REMARK  status: ('A' for Active; 'I' for Inactive)
REMARK    1  A    between atoms: C3_3  and  C4_4 
REMARK    2  A    between atoms: C4_4  and  C5_5 
REMARK    3  A    between atoms: C4_4  and  O6_6 
ROOT
HETATM    1  C1  UNL     1     -32.386   9.742   0.208  1.00 20.00     0.012 C 
HETATM    2  C2  UNL     1     -32.291   8.898   1.056  1.00 20.00    -0.115 C 
HETATM    3  C3  UNL     1     -32.172   7.866   2.099  1.00 20.00     0.133 C 
ENDROOT
BRANCH   3   4
HETATM    4  C4  UNL     1     -33.302   6.839   1.998  1.00 20.00     0.236 C 
BRANCH   4   5
HETATM    5  C5  UNL     1     -33.995   6.637   3.331  1.00 20.00     0.413 C 
HETATM    6  F7  UNL     1     -35.327   6.831   3.220  1.00 20.00    -0.168 F 
HETATM    7  F8  UNL     1     -33.797   5.393   3.813  1.00 20.00    -0.168 F 
HETATM    8  F9  UNL     1     -33.534   7.515   4.250  1.00 20.00    -0.168 F 
ENDBRANCH   4   5
BRANCH   4   9
HETATM    9  O6  UNL     1     -32.751   5.590   1.585  1.00 20.00    -0.386 OA
HETATM   10  H14 UNL     1     -33.095   5.418   0.694  1.00 20.00     0.210 HD
ENDBRANCH   4   9
ENDBRANCH   3   4
TORSDOF 3
ENDMDL
MODEL 2
REMARK VINA RESULT:      -3.6      0.022      1.254
REMARK  3 active torsions:
REMARK  status: ('A' for Active; 'I' for Inactive)
REMARK    1  A    between atoms: C3_3  and  C4_4 
REMARK    2  A    between atoms: C4_4  and  C5_5 
REMARK    3  A    between atoms: C4_4  and  O6_6 
ROOT
HETATM    1  C1  UNL     1     -32.399   9.760   0.233  1.00 20.00     0.012 C 
HETATM    2  C2  UNL     1     -32.301   8.911   1.076  1.00 20.00    -0.115 C 
HETATM    3  C3  UNL     1     -32.178   7.872   2.113  1.00 20.00     0.133 C 
ENDROOT
BRANCH   3   4
HETATM    4  C4  UNL     1     -33.304   6.842   2.006  1.00 20.00     0.236 C 
BRANCH   4   5
HETATM    5  C5  UNL     1     -34.004   6.638   3.335  1.00 20.00     0.413 C 
HETATM    6  F7  UNL     1     -33.554   7.512   4.261  1.00 20.00    -0.168 F 
HETATM    7  F8  UNL     1     -35.339   6.801   3.226  1.00 20.00    -0.168 F 
HETATM    8  F9  UNL     1     -33.777   5.392   3.811  1.00 20.00    -0.168 F 
ENDBRANCH   4   5
BRANCH   4   9
HETATM    9  O6  UNL     1     -32.748   5.595   1.594  1.00 20.00    -0.386 OA
HETATM   10  H14 UNL     1     -33.275   5.295   0.837  1.00 20.00     0.210 HD
ENDBRANCH   4   9
ENDBRANCH   3   4
TORSDOF 3
ENDMDL
MODEL 3
REMARK VINA RESULT:      -3.6      0.023      1.264
REMARK  3 active torsions:
REMARK  status: ('A' for Active; 'I' for Inactive)
REMARK    1  A    between atoms: C3_3  and  C4_4 
REMARK    2  A    between atoms: C4_4  and  C5_5 
REMARK    3  A    between atoms: C4_4  and  O6_6 
ROOT
HETATM    1  C1  UNL     1     -32.399   9.759   0.230  1.00 20.00     0.012 C 
HETATM    2  C2  UNL     1     -32.302   8.911   1.074  1.00 20.00    -0.115 C 
HETATM    3  C3  UNL     1     -32.179   7.873   2.111  1.00 20.00     0.133 C 
ENDROOT
BRANCH   3   4
HETATM    4  C4  UNL     1     -33.306   6.843   2.005  1.00 20.00     0.236 C 
BRANCH   4   5
HETATM    5  C5  UNL     1     -34.006   6.641   3.335  1.00 20.00     0.413 C 
HETATM    6  F7  UNL     1     -33.796   5.394   3.810  1.00 20.00    -0.168 F 
HETATM    7  F8  UNL     1     -33.571   7.516   4.265  1.00 20.00    -0.168 F 
HETATM    8  F9  UNL     1     -35.342   6.805   3.205  1.00 20.00    -0.168 F 
ENDBRANCH   4   5
BRANCH   4   9
HETATM    9  O6  UNL     1     -32.751   5.595   1.595  1.00 20.00    -0.386 OA
HETATM   10  H14 UNL     1     -32.782   5.012   2.369  1.00 20.00     0.210 HD
ENDBRANCH   4   9
ENDBRANCH   3   4
TORSDOF 3
ENDMDL
MODEL 4
REMARK VINA RESULT:      -3.0      2.183      3.498
REMARK  3 active torsions:
REMARK  status: ('A' for Active; 'I' for Inactive)
REMARK    1  A    between atoms: C3_3  and  C4_4 
REMARK    2  A    between atoms: C4_4  and  C5_5 
REMARK    3  A    between atoms: C4_4  and  O6_6 
ROOT
HETATM    1  C1  UNL     1     -35.541   6.321   4.053  1.00 20.00     0.012 C 
HETATM    2  C2  UNL     1     -34.477   6.802   3.774  1.00 20.00    -0.115 C 
HETATM    3  C3  UNL     1     -33.171   7.392   3.436  1.00 20.00     0.133 C 
ENDROOT
BRANCH   3   4
HETATM    4  C4  UNL     1     -32.857   7.234   1.947  1.00 20.00     0.236 C 
BRANCH   4   5
HETATM    5  C5  UNL     1     -32.701   5.777   1.559  1.00 20.00     0.413 C 
HETATM    6  F7  UNL     1     -31.429   5.503   1.198  1.00 20.00    -0.168 F 
HETATM    7  F8  UNL     1     -33.031   4.953   2.575  1.00 20.00    -0.168 F 
HETATM    8  F9  UNL     1     -33.494   5.473   0.506  1.00 20.00    -0.168 F 
ENDBRANCH   4   5
BRANCH   4   9
HETATM    9  O6  UNL     1     -31.633   7.909   1.662  1.00 20.00    -0.386 OA
HETATM   10  H14 UNL     1     -31.598   8.677   2.253  1.00 20.00     0.210 HD
ENDBRANCH   4   9
ENDBRANCH   3   4
TORSDOF 3
ENDMDL
MODEL 5
REMARK VINA RESULT:      -2.8      2.368      3.821
REMARK  3 active torsions:
REMARK  status: ('A' for Active; 'I' for Inactive)
REMARK    1  A    between atoms: C3_3  and  C4_4 
REMARK    2  A    between atoms: C4_4  and  C5_5 
REMARK    3  A    between atoms: C4_4  and  O6_6 
ROOT
HETATM    1  C1  UNL     1     -35.439   5.424   4.402  1.00 20.00     0.012 C 
HETATM    2  C2  UNL     1     -34.810   6.317   3.903  1.00 20.00    -0.115 C 
HETATM    3  C3  UNL     1     -34.043   7.416   3.294  1.00 20.00     0.133 C 
ENDROOT
BRANCH   3   4
HETATM    4  C4  UNL     1     -32.772   6.899   2.617  1.00 20.00     0.236 C 
BRANCH   4   5
HETATM    5  C5  UNL     1     -31.930   8.034   2.066  1.00 20.00     0.413 C 
HETATM    6  F7  UNL     1     -31.031   7.580   1.166  1.00 20.00    -0.168 F 
HETATM    7  F8  UNL     1     -32.691   8.967   1.457  1.00 20.00    -0.168 F 
HETATM    8  F9  UNL     1     -31.240   8.644   3.056  1.00 20.00    -0.168 F 
ENDBRANCH   4   5
BRANCH   4   9
HETATM    9  O6  UNL     1     -33.142   6.048   1.535  1.00 20.00    -0.386 OA
HETATM   10  H14 UNL     1     -32.803   6.465   0.728  1.00 20.00     0.210 HD
ENDBRANCH   4   9
ENDBRANCH   3   4
TORSDOF 3
ENDMDL
MODEL 6
REMARK VINA RESULT:      -2.8      2.362      3.814
REMARK  3 active torsions:
REMARK  status: ('A' for Active; 'I' for Inactive)
REMARK    1  A    between atoms: C3_3  and  C4_4 
REMARK    2  A    between atoms: C4_4  and  C5_5 
REMARK    3  A    between atoms: C4_4  and  O6_6 
ROOT
HETATM    1  C1  UNL     1     -35.421   5.414   4.408  1.00 20.00     0.012 C 
HETATM    2  C2  UNL     1     -34.798   6.310   3.908  1.00 20.00    -0.115 C 
HETATM    3  C3  UNL     1     -34.036   7.413   3.298  1.00 20.00     0.133 C 
ENDROOT
BRANCH   3   4
HETATM    4  C4  UNL     1     -32.780   6.898   2.592  1.00 20.00     0.236 C 
BRANCH   4   5
HETATM    5  C5  UNL     1     -31.944   8.035   2.038  1.00 20.00     0.413 C 
HETATM    6  F7  UNL     1     -31.251   8.651   3.020  1.00 20.00    -0.168 F 
HETATM    7  F8  UNL     1     -31.060   7.600   1.117  1.00 20.00    -0.168 F 
HETATM    8  F9  UNL     1     -32.729   8.967   1.451  1.00 20.00    -0.168 F 
ENDBRANCH   4   5
BRANCH   4   9
HETATM    9  O6  UNL     1     -33.175   6.060   1.506  1.00 20.00    -0.386 OA
HETATM   10  H14 UNL     1     -34.144   6.070   1.490  1.00 20.00     0.210 HD
ENDBRANCH   4   9
ENDBRANCH   3   4
TORSDOF 3
ENDMDL
MODEL 7
REMARK VINA RESULT:      -2.7      2.383      3.981
REMARK  3 active torsions:
REMARK  status: ('A' for Active; 'I' for Inactive)
REMARK    1  A    between atoms: C3_3  and  C4_4 
REMARK    2  A    between atoms: C4_4  and  C5_5 
REMARK    3  A    between atoms: C4_4  and  O6_6 
ROOT
HETATM    1  C1  UNL     1     -33.103   2.736   4.844  1.00 20.00     0.012 C 
HETATM    2  C2  UNL     1     -33.691   3.670   4.371  1.00 20.00    -0.115 C 
HETATM    3  C3  UNL     1     -34.417   4.813   3.794  1.00 20.00     0.133 C 
ENDROOT
BRANCH   3   4
HETATM    4  C4  UNL     1     -33.459   5.938   3.395  1.00 20.00     0.236 C 
BRANCH   4   5
HETATM    5  C5  UNL     1     -34.026   7.302   3.733  1.00 20.00     0.413 C 
HETATM    6  F7  UNL     1     -35.372   7.258   3.835  1.00 20.00    -0.168 F 
HETATM    7  F8  UNL     1     -33.538   7.770   4.901  1.00 20.00    -0.168 F 
HETATM    8  F9  UNL     1     -33.722   8.201   2.769  1.00 20.00    -0.168 F 
ENDBRANCH   4   5
BRANCH   4   9
HETATM    9  O6  UNL     1     -33.241   5.877   1.987  1.00 20.00    -0.386 OA
HETATM   10  H14 UNL     1     -32.314   5.623   1.863  1.00 20.00     0.210 HD
ENDBRANCH   4   9
ENDBRANCH   3   4
TORSDOF 3
ENDMDL
MODEL 8
REMARK VINA RESULT:      -2.5      1.959      2.441
REMARK  3 active torsions:
REMARK  status: ('A' for Active; 'I' for Inactive)
REMARK    1  A    between atoms: C3_3  and  C4_4 
REMARK    2  A    between atoms: C4_4  and  C5_5 
REMARK    3  A    between atoms: C4_4  and  O6_6 
ROOT
HETATM    1  C1  UNL     1     -32.777  10.548   0.436  1.00 20.00     0.012 C 
HETATM    2  C2  UNL     1     -32.265   9.464   0.490  1.00 20.00    -0.115 C 
HETATM    3  C3  UNL     1     -31.634   8.135   0.553  1.00 20.00     0.133 C 
ENDROOT
BRANCH   3   4
HETATM    4  C4  UNL     1     -31.965   7.423   1.866  1.00 20.00     0.236 C 
BRANCH   4   5
HETATM    5  C5  UNL     1     -32.640   6.087   1.624  1.00 20.00     0.413 C 
HETATM    6  F7  UNL     1     -33.321   5.681   2.718  1.00 20.00    -0.168 F 
HETATM    7  F8  UNL     1     -33.509   6.148   0.594  1.00 20.00    -0.168 F 
HETATM    8  F9  UNL     1     -31.727   5.132   1.338  1.00 20.00    -0.168 F 
ENDBRANCH   4   5
BRANCH   4   9
HETATM    9  O6  UNL     1     -32.852   8.245   2.623  1.00 20.00    -0.386 OA
HETATM   10  H14 UNL     1     -32.316   8.968   2.983  1.00 20.00     0.210 HD
ENDBRANCH   4   9
ENDBRANCH   3   4
TORSDOF 3
ENDMDL
MODEL 9
REMARK VINA RESULT:      -2.3      2.630      4.002
REMARK  3 active torsions:
REMARK  status: ('A' for Active; 'I' for Inactive)
REMARK    1  A    between atoms: C3_3  and  C4_4 
REMARK    2  A    between atoms: C4_4  and  C5_5 
REMARK    3  A    between atoms: C4_4  and  O6_6 
ROOT
HETATM    1  C1  UNL     1     -35.464   5.356   4.499  1.00 20.00     0.012 C 
HETATM    2  C2  UNL     1     -34.611   5.669   3.714  1.00 20.00    -0.115 C 
HETATM    3  C3  UNL     1     -33.565   6.049   2.749  1.00 20.00     0.133 C 
ENDROOT
BRANCH   3   4
HETATM    4  C4  UNL     1     -33.342   7.562   2.737  1.00 20.00     0.236 C 
BRANCH   4   5
HETATM    5  C5  UNL     1     -32.062   7.933   2.014  1.00 20.00     0.413 C 
HETATM    6  F7  UNL     1     -32.301   8.822   1.025  1.00 20.00    -0.168 F 
HETATM    7  F8  UNL     1     -31.157   8.480   2.852  1.00 20.00    -0.168 F 
HETATM    8  F9  UNL     1     -31.496   6.842   1.449  1.00 20.00    -0.168 F 
ENDBRANCH   4   5
BRANCH   4   9
HETATM    9  O6  UNL     1     -33.248   8.024   4.083  1.00 20.00    -0.386 OA
HETATM   10  H14 UNL     1     -33.623   7.324   4.640  1.00 20.00     0.210 HD
ENDBRANCH   4   9
ENDBRANCH   3   4
TORSDOF 3
ENDMDL
