MODEL 1
REMARK VINA RESULT:      -1.0      0.000      0.000
REMARK  1 active torsions:
REMARK  status: ('A' for Active; 'I' for Inactive)
REMARK    1  A    between atoms: C8_8  and  N10_10 
ROOT
HETATM    1  C1  UNL     1     -33.858   5.173   3.409  1.00 20.00     0.065 C 
HETATM    2  C4  UNL     1     -33.620   7.632   3.725  1.00 20.00     0.051 C 
HETATM    3  C5  UNL     1     -32.341   8.347   3.306  1.00 20.00     0.274 C 
HETATM    4  C6  UNL     1     -32.549   6.571   1.830  1.00 20.00     0.292 C 
HETATM    5  C7  UNL     1     -33.776   6.475   2.737  1.00 20.00     0.122 C 
HETATM    6  N9  UNL     1     -33.924   4.143   3.938  1.00 20.00    -0.197 NA
HETATM    7  N10 UNL     1     -32.109   7.973   1.905  1.00 20.00     0.094 N 
ENDROOT
BRANCH   7   8
HETATM    8  C8  UNL     1     -32.842   8.850   0.954  1.00 20.00     0.223 A 
HETATM    9  C2  UNL     1     -32.396  10.269   0.728  1.00 20.00     0.038 A 
HETATM   10  C3  UNL     1     -32.219   9.247  -0.356  1.00 20.00     0.038 A 
ENDBRANCH   7   8
TORSDOF 1
ENDMDL
MODEL 2
REMARK VINA RESULT:      -0.4      1.398      4.693
REMARK  1 active torsions:
REMARK  status: ('A' for Active; 'I' for Inactive)
REMARK    1  A    between atoms: C8_8  and  N10_10 
ROOT
HETATM    1  C1  UNL     1     -32.264   8.363   1.517  1.00 20.00     0.065 C 
HETATM    2  C4  UNL     1     -33.459   7.811   3.631  1.00 20.00     0.051 C 
HETATM    3  C5  UNL     1     -34.597   6.797   3.636  1.00 20.00     0.274 C 
HETATM    4  C6  UNL     1     -33.172   6.093   1.948  1.00 20.00     0.292 C 
HETATM    5  C7  UNL     1     -32.502   7.335   2.537  1.00 20.00     0.122 C 
HETATM    6  N9  UNL     1     -32.073   9.175   0.711  1.00 20.00    -0.197 NA
HETATM    7  N10 UNL     1     -34.062   5.585   3.003  1.00 20.00     0.094 N 
ENDROOT
BRANCH   7   8
HETATM    8  C8  UNL     1     -33.353   4.705   3.969  1.00 20.00     0.223 A 
HETATM    9  C2  UNL     1     -34.129   3.822   4.908  1.00 20.00     0.038 A 
HETATM   10  C3  UNL     1     -33.347   3.212   3.783  1.00 20.00     0.038 A 
ENDBRANCH   7   8
TORSDOF 1
ENDMDL
MODEL 3
REMARK VINA RESULT:       1.2      1.504      4.585
REMARK  1 active torsions:
REMARK  status: ('A' for Active; 'I' for Inactive)
REMARK    1  A    between atoms: C8_8  and  N10_10 
ROOT
HETATM    1  C1  UNL     1     -32.398   8.961   0.812  1.00 20.00     0.065 C 
HETATM    2  C4  UNL     1     -32.618   6.481   0.743  1.00 20.00     0.051 C 
HETATM    3  C5  UNL     1     -32.241   5.636   1.953  1.00 20.00     0.274 C 
HETATM    4  C6  UNL     1     -32.988   7.646   2.833  1.00 20.00     0.292 C 
HETATM    5  C7  UNL     1     -33.137   7.800   1.319  1.00 20.00     0.122 C 
HETATM    6  N9  UNL     1     -31.815   9.880   0.411  1.00 20.00    -0.197 NA
HETATM    7  N10 UNL     1     -32.986   6.198   3.087  1.00 20.00     0.094 N 
ENDROOT
BRANCH   7   8
HETATM    8  C8  UNL     1     -34.359   5.638   3.198  1.00 20.00     0.223 A 
HETATM    9  C2  UNL     1     -34.786   4.906   4.441  1.00 20.00     0.038 A 
HETATM   10  C3  UNL     1     -35.364   6.256   4.132  1.00 20.00     0.038 A 
ENDBRANCH   7   8
TORSDOF 1
ENDMDL
MODEL 4
REMARK VINA RESULT:       1.4      1.433      1.755
REMARK  1 active torsions:
REMARK  status: ('A' for Active; 'I' for Inactive)
REMARK    1  A    between atoms: C8_8  and  N10_10 
ROOT
HETATM    1  C1  UNL     1     -31.965   5.177   1.359  1.00 20.00     0.065 C 
HETATM    2  C4  UNL     1     -33.407   6.842   2.523  1.00 20.00     0.051 C 
HETATM    3  C5  UNL     1     -32.810   8.130   3.077  1.00 20.00     0.274 C 
HETATM    4  C6  UNL     1     -31.513   7.614   1.227  1.00 20.00     0.292 C 
HETATM    5  C7  UNL     1     -32.570   6.512   1.286  1.00 20.00     0.122 C 
HETATM    6  N9  UNL     1     -31.488   4.122   1.416  1.00 20.00    -0.197 NA
HETATM    7  N10 UNL     1     -32.084   8.753   1.963  1.00 20.00     0.094 N 
ENDROOT
BRANCH   7   8
HETATM    8  C8  UNL     1     -32.964   9.596   1.111  1.00 20.00     0.223 A 
HETATM    9  C2  UNL     1     -32.507  10.954   0.654  1.00 20.00     0.038 A 
HETATM   10  C3  UNL     1     -32.628   9.833  -0.336  1.00 20.00     0.038 A 
ENDBRANCH   7   8
TORSDOF 1
ENDMDL
MODEL 5
REMARK VINA RESULT:       1.4      1.417      1.844
REMARK  1 active torsions:
REMARK  status: ('A' for Active; 'I' for Inactive)
REMARK    1  A    between atoms: C8_8  and  N10_10 
ROOT
HETATM    1  C1  UNL     1     -33.901   3.839   3.976  1.00 20.00     0.065 C 
HETATM    2  C4  UNL     1     -35.030   6.048   3.753  1.00 20.00     0.051 C 
HETATM    3  C5  UNL     1     -34.296   7.334   4.117  1.00 20.00     0.274 C 
HETATM    4  C6  UNL     1     -32.645   5.891   3.365  1.00 20.00     0.292 C 
HETATM    5  C7  UNL     1     -33.948   5.102   3.231  1.00 20.00     0.122 C 
HETATM    6  N9  UNL     1     -33.864   2.840   4.564  1.00 20.00    -0.197 NA
HETATM    7  N10 UNL     1     -33.037   7.309   3.362  1.00 20.00     0.094 N 
ENDROOT
BRANCH   7   8
HETATM    8  C8  UNL     1     -33.188   7.854   1.987  1.00 20.00     0.223 A 
HETATM    9  C2  UNL     1     -32.030   8.527   1.303  1.00 20.00     0.038 A 
HETATM   10  C3  UNL     1     -32.509   7.189   0.822  1.00 20.00     0.038 A 
ENDBRANCH   7   8
TORSDOF 1
ENDMDL
MODEL 6
REMARK VINA RESULT:       1.8      1.263      2.274
REMARK  1 active torsions:
REMARK  status: ('A' for Active; 'I' for Inactive)
REMARK    1  A    between atoms: C8_8  and  N10_10 
ROOT
HETATM    1  C1  UNL     1     -33.572   4.190   3.916  1.00 20.00     0.065 C 
HETATM    2  C4  UNL     1     -32.436   4.596   1.737  1.00 20.00     0.051 C 
HETATM    3  C5  UNL     1     -33.018   5.583   0.732  1.00 20.00     0.274 C 
HETATM    4  C6  UNL     1     -33.628   6.411   2.810  1.00 20.00     0.292 C 
HETATM    5  C7  UNL     1     -32.813   5.153   3.111  1.00 20.00     0.122 C 
HETATM    6  N9  UNL     1     -34.172   3.429   4.554  1.00 20.00    -0.197 NA
HETATM    7  N10 UNL     1     -33.213   6.841   1.465  1.00 20.00     0.094 N 
ENDROOT
BRANCH   7   8
HETATM    8  C8  UNL     1     -31.986   7.680   1.490  1.00 20.00     0.223 A 
HETATM    9  C2  UNL     1     -32.040   9.121   1.063  1.00 20.00     0.038 A 
HETATM   10  C3  UNL     1     -31.830   8.776   2.508  1.00 20.00     0.038 A 
ENDBRANCH   7   8
TORSDOF 1
ENDMDL
MODEL 7
REMARK VINA RESULT:       2.0      2.233      3.781
REMARK  1 active torsions:
REMARK  status: ('A' for Active; 'I' for Inactive)
REMARK    1  A    between atoms: C8_8  and  N10_10 
ROOT
HETATM    1  C1  UNL     1     -31.416   4.318   0.353  1.00 20.00     0.065 C 
HETATM    2  C4  UNL     1     -31.175   6.436   1.641  1.00 20.00     0.051 C 
HETATM    3  C5  UNL     1     -32.277   7.488   1.617  1.00 20.00     0.274 C 
HETATM    4  C6  UNL     1     -33.374   5.461   1.364  1.00 20.00     0.292 C 
HETATM    5  C7  UNL     1     -31.896   5.095   1.502  1.00 20.00     0.122 C 
HETATM    6  N9  UNL     1     -31.037   3.703  -0.554  1.00 20.00    -0.197 NA
HETATM    7  N10 UNL     1     -33.514   6.787   1.986  1.00 20.00     0.094 N 
ENDROOT
BRANCH   7   8
HETATM    8  C8  UNL     1     -33.703   6.707   3.458  1.00 20.00     0.223 A 
HETATM    9  C2  UNL     1     -34.543   7.729   4.174  1.00 20.00     0.038 A 
HETATM   10  C3  UNL     1     -35.036   6.319   4.038  1.00 20.00     0.038 A 
ENDBRANCH   7   8
TORSDOF 1
ENDMDL
