MODEL 1
REMARK VINA RESULT:      -0.9      0.000      0.000
REMARK  1 active torsions:
REMARK  status: ('A' for Active; 'I' for Inactive)
REMARK    1  A    between atoms: C8_8  and  N10_10 
ROOT
HETATM    1  C1  UNL     1     -34.141   5.324   3.515  1.00 20.00     0.065 C 
HETATM    2  C4  UNL     1     -32.746   5.830   1.515  1.00 20.00     0.051 C 
HETATM    3  C5  UNL     1     -31.635   6.871   1.586  1.00 20.00     0.274 C 
HETATM    4  C6  UNL     1     -33.239   7.598   3.094  1.00 20.00     0.292 C 
HETATM    5  C7  UNL     1     -33.819   6.320   2.488  1.00 20.00     0.122 C 
HETATM    6  N9  UNL     1     -34.396   4.536   4.329  1.00 20.00    -0.197 NA
HETATM    7  N10 UNL     1     -32.258   8.092   2.115  1.00 20.00     0.094 N 
ENDROOT
BRANCH   7   8
HETATM    8  C8  UNL     1     -32.884   8.918   1.049  1.00 20.00     0.223 A 
HETATM    9  C2  UNL     1     -32.548  10.379   0.923  1.00 20.00     0.038 A 
HETATM   10  C3  UNL     1     -32.068   9.407  -0.115  1.00 20.00     0.038 A 
ENDBRANCH   7   8
TORSDOF 1
ENDMDL
MODEL 2
REMARK VINA RESULT:       0.4      1.383      4.565
REMARK  1 active torsions:
REMARK  status: ('A' for Active; 'I' for Inactive)
REMARK    1  A    between atoms: C8_8  and  N10_10 
ROOT
HETATM    1  C1  UNL     1     -32.270   8.796   1.248  1.00 20.00     0.065 C 
HETATM    2  C4  UNL     1     -31.695   6.389   1.526  1.00 20.00     0.051 C 
HETATM    3  C5  UNL     1     -32.768   5.314   1.404  1.00 20.00     0.274 C 
HETATM    4  C6  UNL     1     -33.870   7.176   2.237  1.00 20.00     0.292 C 
HETATM    5  C7  UNL     1     -32.411   7.611   2.101  1.00 20.00     0.122 C 
HETATM    6  N9  UNL     1     -32.159   9.734   0.573  1.00 20.00    -0.197 NA
HETATM    7  N10 UNL     1     -33.841   5.709   2.328  1.00 20.00     0.094 N 
ENDROOT
BRANCH   7   8
HETATM    8  C8  UNL     1     -33.601   5.229   3.715  1.00 20.00     0.223 A 
HETATM    9  C2  UNL     1     -34.742   4.722   4.553  1.00 20.00     0.038 A 
HETATM   10  C3  UNL     1     -33.703   3.766   4.045  1.00 20.00     0.038 A 
ENDBRANCH   7   8
TORSDOF 1
ENDMDL
MODEL 3
REMARK VINA RESULT:       0.9      1.570      4.230
REMARK  1 active torsions:
REMARK  status: ('A' for Active; 'I' for Inactive)
REMARK    1  A    between atoms: C8_8  and  N10_10 
ROOT
HETATM    1  C1  UNL     1     -32.419   9.326   0.509  1.00 20.00     0.065 C 
HETATM    2  C4  UNL     1     -31.381   7.464   1.796  1.00 20.00     0.051 C 
HETATM    3  C5  UNL     1     -31.934   6.047   1.697  1.00 20.00     0.274 C 
HETATM    4  C6  UNL     1     -33.766   7.434   1.385  1.00 20.00     0.292 C 
HETATM    5  C7  UNL     1     -32.591   8.382   1.619  1.00 20.00     0.122 C 
HETATM    6  N9  UNL     1     -32.284  10.073  -0.369  1.00 20.00    -0.197 NA
HETATM    7  N10 UNL     1     -33.371   6.153   1.991  1.00 20.00     0.094 N 
ENDROOT
BRANCH   7   8
HETATM    8  C8  UNL     1     -33.657   6.100   3.449  1.00 20.00     0.223 A 
HETATM    9  C2  UNL     1     -34.218   7.302   4.157  1.00 20.00     0.038 A 
HETATM   10  C3  UNL     1     -35.076   6.088   3.948  1.00 20.00     0.038 A 
ENDBRANCH   7   8
TORSDOF 1
ENDMDL
MODEL 4
REMARK VINA RESULT:       1.6      1.335      2.336
REMARK  1 active torsions:
REMARK  status: ('A' for Active; 'I' for Inactive)
REMARK    1  A    between atoms: C8_8  and  N10_10 
ROOT
HETATM    1  C1  UNL     1     -33.578   3.800   4.212  1.00 20.00     0.065 C 
HETATM    2  C4  UNL     1     -34.506   6.109   4.124  1.00 20.00     0.051 C 
HETATM    3  C5  UNL     1     -34.819   6.771   2.788  1.00 20.00     0.274 C 
HETATM    4  C6  UNL     1     -33.032   5.357   2.358  1.00 20.00     0.292 C 
HETATM    5  C7  UNL     1     -33.310   5.196   3.852  1.00 20.00     0.122 C 
HETATM    6  N9  UNL     1     -33.790   2.694   4.495  1.00 20.00    -0.197 NA
HETATM    7  N10 UNL     1     -33.589   6.668   1.988  1.00 20.00     0.094 N 
ENDROOT
BRANCH   7   8
HETATM    8  C8  UNL     1     -32.644   7.784   2.254  1.00 20.00     0.223 A 
HETATM    9  C2  UNL     1     -31.323   7.849   1.537  1.00 20.00     0.038 A 
HETATM   10  C3  UNL     1     -32.401   8.843   1.214  1.00 20.00     0.038 A 
ENDBRANCH   7   8
TORSDOF 1
ENDMDL
