MODEL 1
REMARK VINA RESULT:      -1.0      0.000      0.000
REMARK  1 active torsions:
REMARK  status: ('A' for Active; 'I' for Inactive)
REMARK    1  A    between atoms: C3_3  and  C7_7 
ROOT
HETATM    1  C1  UNL     1     -31.619   7.364   1.540  1.00 20.00     0.304 C 
HETATM    2  C2  UNL     1     -32.083   5.957   1.868  1.00 20.00     0.148 C 
HETATM    3  C3  UNL     1     -33.691   7.459   2.483  1.00 20.00     0.360 C 
HETATM    4  C4  UNL     1     -31.836   4.962   0.752  1.00 20.00     0.041 C 
HETATM    5  N8  UNL     1     -32.399   8.146   2.491  1.00 20.00     0.115 N 
HETATM    6  O9  UNL     1     -33.493   6.086   2.107  1.00 20.00    -0.350 OA
HETATM    7  H24 UNL     1     -31.974   8.051   3.414  1.00 20.00     0.319 HD
ENDROOT
BRANCH   3   8
HETATM    8  C7  UNL     1     -34.342   7.517   3.853  1.00 20.00     0.036 C 
HETATM    9  C5  UNL     1     -35.025   6.189   4.185  1.00 20.00     0.014 C 
HETATM   10  C6  UNL     1     -33.313   7.868   4.929  1.00 20.00     0.014 C 
ENDBRANCH   3   8
TORSDOF 1
ENDMDL
MODEL 2
REMARK VINA RESULT:      -0.9      2.052      3.610
REMARK  1 active torsions:
REMARK  status: ('A' for Active; 'I' for Inactive)
REMARK    1  A    between atoms: C3_3  and  C7_7 
ROOT
HETATM    1  C1  UNL     1     -35.032   5.120   4.458  1.00 20.00     0.304 C 
HETATM    2  C2  UNL     1     -34.028   4.172   3.830  1.00 20.00     0.148 C 
HETATM    3  C3  UNL     1     -33.475   6.328   3.314  1.00 20.00     0.360 C 
HETATM    4  C4  UNL     1     -33.557   3.080   4.769  1.00 20.00     0.041 C 
HETATM    5  N8  UNL     1     -34.913   6.277   3.579  1.00 20.00     0.115 N 
HETATM    6  O9  UNL     1     -32.922   5.008   3.456  1.00 20.00    -0.350 OA
HETATM    7  H24 UNL     1     -35.408   6.076   2.710  1.00 20.00     0.319 HD
ENDROOT
BRANCH   3   8
HETATM    8  C7  UNL     1     -33.202   6.838   1.910  1.00 20.00     0.036 C 
HETATM    9  C5  UNL     1     -32.184   7.980   1.936  1.00 20.00     0.014 C 
HETATM   10  C6  UNL     1     -32.708   5.707   1.007  1.00 20.00     0.014 C 
ENDBRANCH   3   8
TORSDOF 1
ENDMDL
MODEL 3
REMARK VINA RESULT:      -0.5      1.039      3.636
REMARK  1 active torsions:
REMARK  status: ('A' for Active; 'I' for Inactive)
REMARK    1  A    between atoms: C3_3  and  C7_7 
ROOT
HETATM    1  C1  UNL     1     -34.487   7.423   4.478  1.00 20.00     0.304 C 
HETATM    2  C2  UNL     1     -34.972   6.159   3.793  1.00 20.00     0.148 C 
HETATM    3  C3  UNL     1     -32.923   6.743   2.967  1.00 20.00     0.360 C 
HETATM    4  C4  UNL     1     -35.554   5.138   4.749  1.00 20.00     0.041 C 
HETATM    5  N8  UNL     1     -33.572   7.953   3.475  1.00 20.00     0.115 N 
HETATM    6  O9  UNL     1     -33.804   5.622   3.152  1.00 20.00    -0.350 OA
HETATM    7  H24 UNL     1     -34.121   8.378   2.727  1.00 20.00     0.319 HD
ENDROOT
BRANCH   3   8
HETATM    8  C7  UNL     1     -32.595   6.885   1.492  1.00 20.00     0.036 C 
HETATM    9  C5  UNL     1     -31.708   8.108   1.249  1.00 20.00     0.014 C 
HETATM   10  C6  UNL     1     -31.913   5.622   0.962  1.00 20.00     0.014 C 
ENDBRANCH   3   8
TORSDOF 1
ENDMDL
MODEL 4
REMARK VINA RESULT:      -0.4      1.420      1.938
REMARK  1 active torsions:
REMARK  status: ('A' for Active; 'I' for Inactive)
REMARK    1  A    between atoms: C3_3  and  C7_7 
ROOT
HETATM    1  C1  UNL     1     -32.222   6.501   1.061  1.00 20.00     0.304 C 
HETATM    2  C2  UNL     1     -32.352   8.012   1.096  1.00 20.00     0.148 C 
HETATM    3  C3  UNL     1     -32.933   7.144   3.128  1.00 20.00     0.360 C 
HETATM    4  C4  UNL     1     -31.175   8.735   0.473  1.00 20.00     0.041 C 
HETATM    5  N8  UNL     1     -33.156   6.114   2.112  1.00 20.00     0.115 N 
HETATM    6  O9  UNL     1     -32.444   8.337   2.492  1.00 20.00    -0.350 OA
HETATM    7  H24 UNL     1     -34.106   6.200   1.749  1.00 20.00     0.319 HD
ENDROOT
BRANCH   3   8
HETATM    8  C7  UNL     1     -34.221   7.461   3.867  1.00 20.00     0.036 C 
HETATM    9  C5  UNL     1     -35.074   6.202   4.034  1.00 20.00     0.014 C 
HETATM   10  C6  UNL     1     -33.925   8.086   5.231  1.00 20.00     0.014 C 
ENDBRANCH   3   8
TORSDOF 1
ENDMDL
MODEL 5
REMARK VINA RESULT:      -0.4      1.702      3.340
REMARK  1 active torsions:
REMARK  status: ('A' for Active; 'I' for Inactive)
REMARK    1  A    between atoms: C3_3  and  C7_7 
ROOT
HETATM    1  C1  UNL     1     -33.594   5.136   2.568  1.00 20.00     0.304 C 
HETATM    2  C2  UNL     1     -33.916   6.246   3.552  1.00 20.00     0.148 C 
HETATM    3  C3  UNL     1     -33.002   7.140   1.658  1.00 20.00     0.360 C 
HETATM    4  C4  UNL     1     -35.284   6.111   4.189  1.00 20.00     0.041 C 
HETATM    5  N8  UNL     1     -32.536   5.758   1.781  1.00 20.00     0.115 N 
HETATM    6  O9  UNL     1     -33.854   7.451   2.773  1.00 20.00    -0.350 OA
HETATM    7  H24 UNL     1     -31.674   5.741   2.326  1.00 20.00     0.319 HD
ENDROOT
BRANCH   3   8
HETATM    8  C7  UNL     1     -31.831   8.105   1.636  1.00 20.00     0.036 C 
HETATM    9  C5  UNL     1     -32.098   9.261   0.671  1.00 20.00     0.014 C 
HETATM   10  C6  UNL     1     -31.542   8.641   3.039  1.00 20.00     0.014 C 
ENDBRANCH   3   8
TORSDOF 1
ENDMDL
MODEL 6
REMARK VINA RESULT:      -0.4      1.667      2.352
REMARK  1 active torsions:
REMARK  status: ('A' for Active; 'I' for Inactive)
REMARK    1  A    between atoms: C3_3  and  C7_7 
ROOT
HETATM    1  C1  UNL     1     -31.973   6.499   1.065  1.00 20.00     0.304 C 
HETATM    2  C2  UNL     1     -32.740   7.712   1.559  1.00 20.00     0.148 C 
HETATM    3  C3  UNL     1     -33.073   5.959   2.986  1.00 20.00     0.360 C 
HETATM    4  C4  UNL     1     -31.935   8.995   1.517  1.00 20.00     0.041 C 
HETATM    5  N8  UNL     1     -32.741   5.416   1.668  1.00 20.00     0.115 N 
HETATM    6  O9  UNL     1     -33.087   7.395   2.916  1.00 20.00    -0.350 OA
HETATM    7  H24 UNL     1     -33.599   5.290   1.131  1.00 20.00     0.319 HD
ENDROOT
BRANCH   3   8
HETATM    8  C7  UNL     1     -34.433   5.465   3.446  1.00 20.00     0.036 C 
HETATM    9  C5  UNL     1     -34.285   4.292   4.416  1.00 20.00     0.014 C 
HETATM   10  C6  UNL     1     -35.230   6.596   4.099  1.00 20.00     0.014 C 
ENDBRANCH   3   8
TORSDOF 1
ENDMDL
MODEL 7
REMARK VINA RESULT:      -0.1      2.046      2.824
REMARK  1 active torsions:
REMARK  status: ('A' for Active; 'I' for Inactive)
REMARK    1  A    between atoms: C3_3  and  C7_7 
ROOT
HETATM    1  C1  UNL     1     -31.257   8.507   0.644  1.00 20.00     0.304 C 
HETATM    2  C2  UNL     1     -32.563   9.267   0.498  1.00 20.00     0.148 C 
HETATM    3  C3  UNL     1     -32.612   8.013   2.408  1.00 20.00     0.360 C 
HETATM    4  C4  UNL     1     -32.378  10.719   0.106  1.00 20.00     0.041 C 
HETATM    5  N8  UNL     1     -31.677   7.385   1.474  1.00 20.00     0.115 N 
HETATM    6  O9  UNL     1     -33.179   9.183   1.793  1.00 20.00    -0.350 OA
HETATM    7  H24 UNL     1     -32.182   6.720   0.888  1.00 20.00     0.319 HD
ENDROOT
BRANCH   3   8
HETATM    8  C7  UNL     1     -33.727   7.053   2.782  1.00 20.00     0.036 C 
HETATM    9  C5  UNL     1     -33.265   5.602   2.637  1.00 20.00     0.014 C 
HETATM   10  C6  UNL     1     -34.213   7.315   4.209  1.00 20.00     0.014 C 
ENDBRANCH   3   8
TORSDOF 1
ENDMDL
MODEL 8
REMARK VINA RESULT:       0.5      1.634      2.290
REMARK  1 active torsions:
REMARK  status: ('A' for Active; 'I' for Inactive)
REMARK    1  A    between atoms: C3_3  and  C7_7 
ROOT
HETATM    1  C1  UNL     1     -33.123   8.455   3.068  1.00 20.00     0.304 C 
HETATM    2  C2  UNL     1     -32.305   7.365   2.402  1.00 20.00     0.148 C 
HETATM    3  C3  UNL     1     -34.200   6.461   3.303  1.00 20.00     0.360 C 
HETATM    4  C4  UNL     1     -31.781   7.753   1.034  1.00 20.00     0.041 C 
HETATM    5  N8  UNL     1     -33.880   7.681   4.045  1.00 20.00     0.115 N 
HETATM    6  O9  UNL     1     -33.207   6.254   2.284  1.00 20.00    -0.350 OA
HETATM    7  H24 UNL     1     -33.262   7.449   4.823  1.00 20.00     0.319 HD
ENDROOT
BRANCH   3   8
HETATM    8  C7  UNL     1     -34.227   5.258   4.229  1.00 20.00     0.036 C 
HETATM    9  C5  UNL     1     -35.644   5.004   4.748  1.00 20.00     0.014 C 
HETATM   10  C6  UNL     1     -33.691   4.014   3.520  1.00 20.00     0.014 C 
ENDBRANCH   3   8
TORSDOF 1
ENDMDL
MODEL 9
REMARK VINA RESULT:       0.5      1.670      3.493
REMARK  1 active torsions:
REMARK  status: ('A' for Active; 'I' for Inactive)
REMARK    1  A    between atoms: C3_3  and  C7_7 
ROOT
HETATM    1  C1  UNL     1     -33.132   7.621   3.825  1.00 20.00     0.304 C 
HETATM    2  C2  UNL     1     -33.729   6.672   2.802  1.00 20.00     0.148 C 
HETATM    3  C3  UNL     1     -32.083   7.918   1.824  1.00 20.00     0.360 C 
HETATM    4  C4  UNL     1     -33.917   5.261   3.323  1.00 20.00     0.041 C 
HETATM    5  N8  UNL     1     -32.612   8.673   2.960  1.00 20.00     0.115 N 
HETATM    6  O9  UNL     1     -32.791   6.672   1.715  1.00 20.00    -0.350 OA
HETATM    7  H24 UNL     1     -33.393   9.250   2.647  1.00 20.00     0.319 HD
ENDROOT
BRANCH   3   8
HETATM    8  C7  UNL     1     -32.245   8.702   0.533  1.00 20.00     0.036 C 
HETATM    9  C5  UNL     1     -32.710  10.130   0.821  1.00 20.00     0.014 C 
HETATM   10  C6  UNL     1     -30.937   8.719  -0.259  1.00 20.00     0.014 C 
ENDBRANCH   3   8
TORSDOF 1
ENDMDL
