MODEL 1
REMARK VINA RESULT:      -0.5      0.000      0.000
REMARK  1 active torsions:
REMARK  status: ('A' for Active; 'I' for Inactive)
REMARK    1  A    between atoms: C2_2  and  C7_7 
ROOT
HETATM    1  C1  UNL     1     -31.886   7.367   1.539  1.00 20.00     0.310 C 
HETATM    2  C2  UNL     1     -33.156   7.113   3.405  1.00 20.00     0.356 C 
HETATM    3  C3  UNL     1     -32.627   6.037   1.441  1.00 20.00     0.083 C 
HETATM    4  C4  UNL     1     -31.685   4.882   1.114  1.00 20.00     0.047 C 
HETATM    5  C5  UNL     1     -33.787   6.076   0.441  1.00 20.00     0.047 C 
HETATM    6  N8  UNL     1     -32.719   8.145   2.456  1.00 20.00     0.115 N 
HETATM    7  O9  UNL     1     -33.174   5.833   2.756  1.00 20.00    -0.345 OA
HETATM    8  H24 UNL     1     -32.169   8.862   2.927  1.00 20.00     0.319 HD
ENDROOT
BRANCH   2   9
HETATM    9  C7  UNL     1     -34.536   7.408   3.968  1.00 20.00     0.059 C 
HETATM   10  C6  UNL     1     -35.393   6.181   4.022  1.00 20.00     0.009 C 
ENDBRANCH   2   9
TORSDOF 1
ENDMDL
MODEL 2
REMARK VINA RESULT:      -0.0      1.540      2.457
REMARK  1 active torsions:
REMARK  status: ('A' for Active; 'I' for Inactive)
REMARK    1  A    between atoms: C2_2  and  C7_7 
ROOT
HETATM    1  C1  UNL     1     -32.158   6.643   1.260  1.00 20.00     0.310 C 
HETATM    2  C2  UNL     1     -33.955   6.934   2.619  1.00 20.00     0.356 C 
HETATM    3  C3  UNL     1     -32.159   8.087   1.756  1.00 20.00     0.083 C 
HETATM    4  C4  UNL     1     -32.022   9.083   0.609  1.00 20.00     0.047 C 
HETATM    5  C5  UNL     1     -31.088   8.350   2.819  1.00 20.00     0.047 C 
HETATM    6  N8  UNL     1     -32.928   5.939   2.286  1.00 20.00     0.115 N 
HETATM    7  O9  UNL     1     -33.451   8.255   2.367  1.00 20.00    -0.345 OA
HETATM    8  H24 UNL     1     -33.352   5.094   1.905  1.00 20.00     0.319 HD
ENDROOT
BRANCH   2   9
HETATM    9  C7  UNL     1     -34.392   6.835   4.071  1.00 20.00     0.059 C 
HETATM   10  C6  UNL     1     -35.319   5.682   4.300  1.00 20.00     0.009 C 
ENDBRANCH   2   9
TORSDOF 1
ENDMDL
MODEL 3
REMARK VINA RESULT:       0.5      1.129      3.348
REMARK  1 active torsions:
REMARK  status: ('A' for Active; 'I' for Inactive)
REMARK    1  A    between atoms: C2_2  and  C7_7 
ROOT
HETATM    1  C1  UNL     1     -33.918   7.591   4.419  1.00 20.00     0.310 C 
HETATM    2  C2  UNL     1     -32.940   7.604   2.369  1.00 20.00     0.356 C 
HETATM    3  C3  UNL     1     -34.449   6.401   3.624  1.00 20.00     0.083 C 
HETATM    4  C4  UNL     1     -35.973   6.342   3.634  1.00 20.00     0.047 C 
HETATM    5  C5  UNL     1     -33.862   5.066   4.092  1.00 20.00     0.047 C 
HETATM    6  N8  UNL     1     -32.632   7.872   3.779  1.00 20.00     0.115 N 
HETATM    7  O9  UNL     1     -34.002   6.641   2.277  1.00 20.00    -0.345 OA
HETATM    8  H24 UNL     1     -32.365   8.846   3.913  1.00 20.00     0.319 HD
ENDROOT
BRANCH   2   9
HETATM    9  C7  UNL     1     -31.729   7.085   1.612  1.00 20.00     0.059 C 
HETATM   10  C6  UNL     1     -31.932   5.685   1.120  1.00 20.00     0.009 C 
ENDBRANCH   2   9
TORSDOF 1
ENDMDL
MODEL 4
REMARK VINA RESULT:       0.5      2.119      2.563
REMARK  1 active torsions:
REMARK  status: ('A' for Active; 'I' for Inactive)
REMARK    1  A    between atoms: C2_2  and  C7_7 
ROOT
HETATM    1  C1  UNL     1     -34.130   7.228   2.999  1.00 20.00     0.310 C 
HETATM    2  C2  UNL     1     -33.648   5.244   3.994  1.00 20.00     0.356 C 
HETATM    3  C3  UNL     1     -33.117   6.486   2.132  1.00 20.00     0.083 C 
HETATM    4  C4  UNL     1     -31.919   7.363   1.779  1.00 20.00     0.047 C 
HETATM    5  C5  UNL     1     -33.739   5.900   0.861  1.00 20.00     0.047 C 
HETATM    6  N8  UNL     1     -34.777   6.150   3.749  1.00 20.00     0.115 N 
HETATM    7  O9  UNL     1     -32.668   5.396   2.956  1.00 20.00    -0.345 OA
HETATM    8  H24 UNL     1     -35.160   6.497   4.627  1.00 20.00     0.319 HD
ENDROOT
BRANCH   2   9
HETATM    9  C7  UNL     1     -34.090   3.790   4.054  1.00 20.00     0.059 C 
HETATM   10  C6  UNL     1     -33.096   2.932   4.774  1.00 20.00     0.009 C 
ENDBRANCH   2   9
TORSDOF 1
ENDMDL
MODEL 5
REMARK VINA RESULT:       0.6      1.718      3.491
REMARK  1 active torsions:
REMARK  status: ('A' for Active; 'I' for Inactive)
REMARK    1  A    between atoms: C2_2  and  C7_7 
ROOT
HETATM    1  C1  UNL     1     -33.800   7.485   4.595  1.00 20.00     0.310 C 
HETATM    2  C2  UNL     1     -33.022   7.959   2.514  1.00 20.00     0.356 C 
HETATM    3  C3  UNL     1     -34.283   6.397   3.639  1.00 20.00     0.083 C 
HETATM    4  C4  UNL     1     -35.786   6.165   3.752  1.00 20.00     0.047 C 
HETATM    5  C5  UNL     1     -33.527   5.076   3.814  1.00 20.00     0.047 C 
HETATM    6  N8  UNL     1     -32.613   8.014   3.923  1.00 20.00     0.115 N 
HETATM    7  O9  UNL     1     -33.989   6.913   2.329  1.00 20.00    -0.345 OA
HETATM    8  H24 UNL     1     -32.431   8.974   4.210  1.00 20.00     0.319 HD
ENDROOT
BRANCH   2   9
HETATM    9  C7  UNL     1     -31.841   7.718   1.589  1.00 20.00     0.059 C 
HETATM   10  C6  UNL     1     -31.721   8.782   0.543  1.00 20.00     0.009 C 
ENDBRANCH   2   9
TORSDOF 1
ENDMDL
MODEL 6
REMARK VINA RESULT:       0.7      1.928      3.605
REMARK  1 active torsions:
REMARK  status: ('A' for Active; 'I' for Inactive)
REMARK    1  A    between atoms: C2_2  and  C7_7 
ROOT
HETATM    1  C1  UNL     1     -33.115   6.118   3.007  1.00 20.00     0.310 C 
HETATM    2  C2  UNL     1     -32.034   7.640   1.713  1.00 20.00     0.356 C 
HETATM    3  C3  UNL     1     -33.493   7.516   3.488  1.00 20.00     0.083 C 
HETATM    4  C4  UNL     1     -33.308   7.670   4.995  1.00 20.00     0.047 C 
HETATM    5  C5  UNL     1     -34.915   7.918   3.085  1.00 20.00     0.047 C 
HETATM    6  N8  UNL     1     -32.714   6.342   1.618  1.00 20.00     0.115 N 
HETATM    7  O9  UNL     1     -32.571   8.390   2.815  1.00 20.00    -0.345 OA
HETATM    8  H24 UNL     1     -32.069   5.618   1.304  1.00 20.00     0.319 HD
ENDROOT
BRANCH   2   9
HETATM    9  C7  UNL     1     -32.181   8.453   0.437  1.00 20.00     0.059 C 
HETATM   10  C6  UNL     1     -32.483   9.892   0.720  1.00 20.00     0.009 C 
ENDBRANCH   2   9
TORSDOF 1
ENDMDL
MODEL 7
REMARK VINA RESULT:       1.0      2.599      3.741
REMARK  1 active torsions:
REMARK  status: ('A' for Active; 'I' for Inactive)
REMARK    1  A    between atoms: C2_2  and  C7_7 
ROOT
HETATM    1  C1  UNL     1     -33.792   6.117   2.436  1.00 20.00     0.310 C 
HETATM    2  C2  UNL     1     -34.066   4.302   3.774  1.00 20.00     0.356 C 
HETATM    3  C3  UNL     1     -34.702   6.506   3.598  1.00 20.00     0.083 C 
HETATM    4  C4  UNL     1     -35.984   7.179   3.117  1.00 20.00     0.047 C 
HETATM    5  C5  UNL     1     -33.997   7.386   4.635  1.00 20.00     0.047 C 
HETATM    6  N8  UNL     1     -33.042   4.979   2.969  1.00 20.00     0.115 N 
HETATM    7  O9  UNL     1     -35.040   5.256   4.224  1.00 20.00    -0.345 OA
HETATM    8  H24 UNL     1     -32.714   4.375   2.217  1.00 20.00     0.319 HD
ENDROOT
BRANCH   2   9
HETATM    9  C7  UNL     1     -33.466   3.595   4.979  1.00 20.00     0.059 C 
HETATM   10  C6  UNL     1     -33.079   2.183   4.665  1.00 20.00     0.009 C 
ENDBRANCH   2   9
TORSDOF 1
ENDMDL
MODEL 8
REMARK VINA RESULT:       1.0      1.765      1.970
REMARK  1 active torsions:
REMARK  status: ('A' for Active; 'I' for Inactive)
REMARK    1  A    between atoms: C2_2  and  C7_7 
ROOT
HETATM    1  C1  UNL     1     -31.305   8.498   3.032  1.00 20.00     0.310 C 
HETATM    2  C2  UNL     1     -33.149   7.296   3.590  1.00 20.00     0.356 C 
HETATM    3  C3  UNL     1     -32.096   8.209   1.759  1.00 20.00     0.083 C 
HETATM    4  C4  UNL     1     -31.216   7.611   0.665  1.00 20.00     0.047 C 
HETATM    5  C5  UNL     1     -32.839   9.439   1.229  1.00 20.00     0.047 C 
HETATM    6  N8  UNL     1     -32.319   8.403   4.082  1.00 20.00     0.115 N 
HETATM    7  O9  UNL     1     -33.072   7.231   2.157  1.00 20.00    -0.345 OA
HETATM    8  H24 UNL     1     -31.894   8.166   4.977  1.00 20.00     0.319 HD
ENDROOT
BRANCH   2   9
HETATM    9  C7  UNL     1     -34.604   7.449   4.005  1.00 20.00     0.059 C 
HETATM   10  C6  UNL     1     -35.327   6.139   4.006  1.00 20.00     0.009 C 
ENDBRANCH   2   9
TORSDOF 1
ENDMDL
MODEL 9
REMARK VINA RESULT:       1.1      1.544      3.115
REMARK  1 active torsions:
REMARK  status: ('A' for Active; 'I' for Inactive)
REMARK    1  A    between atoms: C2_2  and  C7_7 
ROOT
HETATM    1  C1  UNL     1     -33.531   5.488   2.037  1.00 20.00     0.310 C 
HETATM    2  C2  UNL     1     -32.358   7.380   2.487  1.00 20.00     0.356 C 
HETATM    3  C3  UNL     1     -34.127   6.141   3.281  1.00 20.00     0.083 C 
HETATM    4  C4  UNL     1     -34.264   5.151   4.434  1.00 20.00     0.047 C 
HETATM    5  C5  UNL     1     -35.470   6.826   3.007  1.00 20.00     0.047 C 
HETATM    6  N8  UNL     1     -32.881   6.607   1.354  1.00 20.00     0.115 N 
HETATM    7  O9  UNL     1     -33.173   7.153   3.648  1.00 20.00    -0.345 OA
HETATM    8  H24 UNL     1     -32.122   6.278   0.759  1.00 20.00     0.319 HD
ENDROOT
BRANCH   2   9
HETATM    9  C7  UNL     1     -32.319   8.870   2.189  1.00 20.00     0.059 C 
HETATM   10  C6  UNL     1     -32.254   9.146   0.719  1.00 20.00     0.009 C 
ENDBRANCH   2   9
TORSDOF 1
ENDMDL
