MODEL 1
REMARK VINA RESULT:       1.7      0.000      0.000
REMARK  0 active torsions:
REMARK  status: ('A' for Active; 'I' for Inactive)
ROOT
HETATM    1  C1  UNL     1     -32.403   9.101   0.939  1.00 20.00     0.107 C 
HETATM    2  C2  UNL     1     -33.912   7.925   2.525  1.00 20.00     0.038 A 
HETATM    3  C3  UNL     1     -32.815   7.963   1.692  1.00 20.00     0.086 A 
HETATM    4  C4  UNL     1     -34.072   6.650   3.145  1.00 20.00    -0.043 A 
HETATM    5  C5  UNL     1     -33.085   5.769   2.748  1.00 20.00    -0.010 A 
HETATM    6  C6  UNL     1     -35.163   6.250   4.090  1.00 20.00     0.040 C 
HETATM    7  C7  UNL     1     -32.945   4.359   3.230  1.00 20.00     0.046 C 
HETATM    8  C8  UNL     1     -34.817   4.958   4.846  1.00 20.00     0.005 C 
HETATM    9  C9  UNL     1     -34.243   3.888   3.906  1.00 20.00     0.005 C 
HETATM   10  N10 UNL     1     -32.067  10.027   0.325  1.00 20.00    -0.191 NA
HETATM   11  S11 UNL     1     -31.980   6.468   1.657  1.00 20.00    -0.083 SA
ENDROOT
TORSDOF 0
ENDMDL
MODEL 2
REMARK VINA RESULT:       2.2      2.725      5.048
REMARK  0 active torsions:
REMARK  status: ('A' for Active; 'I' for Inactive)
ROOT
HETATM    1  C1  UNL     1     -33.837   4.576   3.814  1.00 20.00     0.107 C 
HETATM    2  C2  UNL     1     -32.609   5.786   2.024  1.00 20.00     0.038 A 
HETATM    3  C3  UNL     1     -33.449   5.757   3.116  1.00 20.00     0.086 A 
HETATM    4  C4  UNL     1     -32.403   7.112   1.539  1.00 20.00    -0.043 A 
HETATM    5  C5  UNL     1     -33.107   8.036   2.286  1.00 20.00    -0.010 A 
HETATM    6  C6  UNL     1     -31.568   7.510   0.361  1.00 20.00     0.040 C 
HETATM    7  C7  UNL     1     -33.092   9.516   2.061  1.00 20.00     0.046 C 
HETATM    8  C8  UNL     1     -31.267   9.017   0.359  1.00 20.00     0.005 C 
HETATM    9  C9  UNL     1     -32.522   9.845   0.672  1.00 20.00     0.005 C 
HETATM   10  N10 UNL     1     -34.153   3.616   4.382  1.00 20.00    -0.191 NA
HETATM   11  S11 UNL     1     -33.990   7.321   3.554  1.00 20.00    -0.083 SA
ENDROOT
TORSDOF 0
ENDMDL
MODEL 3
REMARK VINA RESULT:       2.4      1.039      1.930
REMARK  0 active torsions:
REMARK  status: ('A' for Active; 'I' for Inactive)
ROOT
HETATM    1  C1  UNL     1     -32.365   9.011   0.956  1.00 20.00     0.107 C 
HETATM    2  C2  UNL     1     -32.343   6.655   1.745  1.00 20.00     0.038 A 
HETATM    3  C3  UNL     1     -32.854   7.935   1.751  1.00 20.00     0.086 A 
HETATM    4  C4  UNL     1     -33.038   5.794   2.646  1.00 20.00    -0.043 A 
HETATM    5  C5  UNL     1     -34.049   6.466   3.306  1.00 20.00    -0.010 A 
HETATM    6  C6  UNL     1     -32.739   4.350   2.908  1.00 20.00     0.040 C 
HETATM    7  C7  UNL     1     -34.985   5.852   4.300  1.00 20.00     0.046 C 
HETATM    8  C8  UNL     1     -33.900   3.649   3.630  1.00 20.00     0.005 C 
HETATM    9  C9  UNL     1     -34.442   4.500   4.789  1.00 20.00     0.005 C 
HETATM   10  N10 UNL     1     -31.967   9.887   0.307  1.00 20.00    -0.191 NA
HETATM   11  S11 UNL     1     -34.165   8.099   2.840  1.00 20.00    -0.083 SA
ENDROOT
TORSDOF 0
ENDMDL
MODEL 4
REMARK VINA RESULT:       2.8      2.541      4.724
REMARK  0 active torsions:
REMARK  status: ('A' for Active; 'I' for Inactive)
ROOT
HETATM    1  C1  UNL     1     -33.879   4.758   3.772  1.00 20.00     0.107 C 
HETATM    2  C2  UNL     1     -33.703   7.156   3.141  1.00 20.00     0.038 A 
HETATM    3  C3  UNL     1     -33.380   5.827   2.971  1.00 20.00     0.086 A 
HETATM    4  C4  UNL     1     -33.050   7.994   2.189  1.00 20.00    -0.043 A 
HETATM    5  C5  UNL     1     -32.249   7.258   1.337  1.00 20.00    -0.010 A 
HETATM    6  C6  UNL     1     -33.156   9.484   2.093  1.00 20.00     0.040 C 
HETATM    7  C7  UNL     1     -31.446   7.825   0.207  1.00 20.00     0.046 C 
HETATM    8  C8  UNL     1     -32.639  10.007   0.744  1.00 20.00     0.005 C 
HETATM    9  C9  UNL     1     -31.308   9.348   0.355  1.00 20.00     0.005 C 
HETATM   10  N10 UNL     1     -34.285   3.888   4.423  1.00 20.00    -0.191 NA
HETATM   11  S11 UNL     1     -32.292   5.589   1.670  1.00 20.00    -0.083 SA
ENDROOT
TORSDOF 0
ENDMDL
MODEL 5
REMARK VINA RESULT:       3.5      2.514      3.445
REMARK  0 active torsions:
REMARK  status: ('A' for Active; 'I' for Inactive)
ROOT
HETATM    1  C1  UNL     1     -31.376   4.201   0.148  1.00 20.00     0.107 C 
HETATM    2  C2  UNL     1     -33.040   4.553   1.960  1.00 20.00     0.038 A 
HETATM    3  C3  UNL     1     -32.078   5.012   1.087  1.00 20.00     0.086 A 
HETATM    4  C4  UNL     1     -33.566   5.597   2.779  1.00 20.00    -0.043 A 
HETATM    5  C5  UNL     1     -32.970   6.809   2.492  1.00 20.00    -0.010 A 
HETATM    6  C6  UNL     1     -34.607   5.454   3.845  1.00 20.00     0.040 C 
HETATM    7  C7  UNL     1     -33.308   8.112   3.149  1.00 20.00     0.046 C 
HETATM    8  C8  UNL     1     -35.199   6.812   4.250  1.00 20.00     0.005 C 
HETATM    9  C9  UNL     1     -34.104   7.872   4.442  1.00 20.00     0.005 C 
HETATM   10  N10 UNL     1     -30.805   3.542  -0.617  1.00 20.00    -0.191 NA
HETATM   11  S11 UNL     1     -31.807   6.695   1.253  1.00 20.00    -0.083 SA
ENDROOT
TORSDOF 0
ENDMDL
MODEL 6
REMARK VINA RESULT:       4.2      2.711      3.635
REMARK  0 active torsions:
REMARK  status: ('A' for Active; 'I' for Inactive)
ROOT
HETATM    1  C1  UNL     1     -31.413   4.167   0.126  1.00 20.00     0.107 C 
HETATM    2  C2  UNL     1     -31.781   6.287   1.369  1.00 20.00     0.038 A 
HETATM    3  C3  UNL     1     -32.088   4.973   1.087  1.00 20.00     0.086 A 
HETATM    4  C4  UNL     1     -32.630   6.834   2.377  1.00 20.00    -0.043 A 
HETATM    5  C5  UNL     1     -33.554   5.905   2.814  1.00 20.00    -0.010 A 
HETATM    6  C6  UNL     1     -32.591   8.231   2.913  1.00 20.00     0.040 C 
HETATM    7  C7  UNL     1     -34.576   6.145   3.882  1.00 20.00     0.046 C 
HETATM    8  C8  UNL     1     -33.372   8.360   4.229  1.00 20.00     0.005 C 
HETATM    9  C9  UNL     1     -34.732   7.650   4.152  1.00 20.00     0.005 C 
HETATM   10  N10 UNL     1     -30.863   3.509  -0.657  1.00 20.00    -0.191 NA
HETATM   11  S11 UNL     1     -33.396   4.401   2.033  1.00 20.00    -0.083 SA
ENDROOT
TORSDOF 0
ENDMDL
