MODEL 1
REMARK VINA RESULT:      -1.2      0.000      0.000
REMARK  1 active torsions:
REMARK  status: ('A' for Active; 'I' for Inactive)
REMARK    1  A    between atoms: C3_3  and  C5_5 
ROOT
HETATM    1  C1  UNL     1     -33.647   7.841   2.850  1.00 20.00     0.030 A 
HETATM    2  C2  UNL     1     -34.151   6.632   3.371  1.00 20.00    -0.044 A 
HETATM    3  C3  UNL     1     -32.592   7.595   1.985  1.00 20.00     0.043 A 
HETATM    4  C4  UNL     1     -33.478   5.541   2.894  1.00 20.00    -0.010 A 
HETATM    5  C6  UNL     1     -35.230   6.231   4.306  1.00 20.00     0.040 C 
HETATM    6  C7  UNL     1     -33.978   4.248   3.417  1.00 20.00     0.047 C 
HETATM    7  C8  UNL     1     -34.880   4.737   4.592  1.00 20.00     0.010 C 
HETATM    8  S10 UNL     1     -32.245   5.907   1.827  1.00 20.00    -0.091 SA
ENDROOT
BRANCH   3   9
HETATM    9  C5  UNL     1     -31.804   8.530   1.248  1.00 20.00     0.277 C 
HETATM   10  O9  UNL     1     -32.280   9.423   0.516  1.00 20.00    -0.301 OA
ENDBRANCH   3   9
TORSDOF 1
ENDMDL
MODEL 2
REMARK VINA RESULT:      -0.1      1.103      1.768
REMARK  1 active torsions:
REMARK  status: ('A' for Active; 'I' for Inactive)
REMARK    1  A    between atoms: C3_3  and  C5_5 
ROOT
HETATM    1  C1  UNL     1     -32.532   6.297   1.858  1.00 20.00     0.030 A 
HETATM    2  C2  UNL     1     -33.425   5.887   2.869  1.00 20.00    -0.044 A 
HETATM    3  C3  UNL     1     -32.488   7.680   1.780  1.00 20.00     0.043 A 
HETATM    4  C4  UNL     1     -34.009   6.947   3.506  1.00 20.00    -0.010 A 
HETATM    5  C6  UNL     1     -33.897   4.598   3.429  1.00 20.00     0.040 C 
HETATM    6  C7  UNL     1     -34.955   6.560   4.578  1.00 20.00     0.047 C 
HETATM    7  C8  UNL     1     -35.130   5.039   4.279  1.00 20.00     0.010 C 
HETATM    8  S10 UNL     1     -33.527   8.442   2.936  1.00 20.00    -0.091 SA
ENDROOT
BRANCH   3   9
HETATM    9  C5  UNL     1     -31.720   8.501   0.901  1.00 20.00     0.277 C 
HETATM   10  O9  UNL     1     -32.167   9.511   0.317  1.00 20.00    -0.301 OA
ENDBRANCH   3   9
TORSDOF 1
ENDMDL
MODEL 3
REMARK VINA RESULT:       0.2      2.527      4.238
REMARK  1 active torsions:
REMARK  status: ('A' for Active; 'I' for Inactive)
REMARK    1  A    between atoms: C3_3  and  C5_5 
ROOT
HETATM    1  C1  UNL     1     -33.990   7.600   3.722  1.00 20.00     0.030 A 
HETATM    2  C2  UNL     1     -33.002   7.874   2.755  1.00 20.00    -0.044 A 
HETATM    3  C3  UNL     1     -34.396   6.277   3.640  1.00 20.00     0.043 A 
HETATM    4  C4  UNL     1     -32.702   6.778   1.994  1.00 20.00    -0.010 A 
HETATM    5  C6  UNL     1     -32.195   9.048   2.346  1.00 20.00     0.040 C 
HETATM    6  C7  UNL     1     -31.666   7.023   0.964  1.00 20.00     0.047 C 
HETATM    7  C8  UNL     1     -31.603   8.582   0.979  1.00 20.00     0.010 C 
HETATM    8  S10 UNL     1     -33.568   5.406   2.395  1.00 20.00    -0.091 SA
ENDROOT
BRANCH   3   9
HETATM    9  C5  UNL     1     -35.369   5.591   4.427  1.00 20.00     0.277 C 
HETATM   10  O9  UNL     1     -35.277   4.392   4.765  1.00 20.00    -0.301 OA
ENDBRANCH   3   9
TORSDOF 1
ENDMDL
MODEL 4
REMARK VINA RESULT:       0.3      2.666      4.577
REMARK  1 active torsions:
REMARK  status: ('A' for Active; 'I' for Inactive)
REMARK    1  A    between atoms: C3_3  and  C5_5 
ROOT
HETATM    1  C1  UNL     1     -33.045   5.411   2.328  1.00 20.00     0.030 A 
HETATM    2  C2  UNL     1     -32.636   6.674   1.856  1.00 20.00    -0.044 A 
HETATM    3  C3  UNL     1     -33.862   5.548   3.439  1.00 20.00     0.043 A 
HETATM    4  C4  UNL     1     -33.146   7.698   2.607  1.00 20.00    -0.010 A 
HETATM    5  C6  UNL     1     -31.794   7.188   0.749  1.00 20.00     0.040 C 
HETATM    6  C7  UNL     1     -32.741   9.045   2.143  1.00 20.00     0.047 C 
HETATM    7  C8  UNL     1     -31.589   8.681   1.155  1.00 20.00     0.010 C 
HETATM    8  S10 UNL     1     -34.113   7.204   3.877  1.00 20.00    -0.091 SA
ENDROOT
BRANCH   3   9
HETATM    9  C5  UNL     1     -34.488   4.529   4.219  1.00 20.00     0.277 C 
HETATM   10  O9  UNL     1     -33.981   3.411   4.446  1.00 20.00    -0.301 OA
ENDBRANCH   3   9
TORSDOF 1
ENDMDL
MODEL 5
REMARK VINA RESULT:       1.8      2.274      2.862
REMARK  1 active torsions:
REMARK  status: ('A' for Active; 'I' for Inactive)
REMARK    1  A    between atoms: C3_3  and  C5_5 
ROOT
HETATM    1  C1  UNL     1     -33.134   4.796   2.132  1.00 20.00     0.030 A 
HETATM    2  C2  UNL     1     -33.815   5.609   3.060  1.00 20.00    -0.044 A 
HETATM    3  C3  UNL     1     -32.211   5.543   1.417  1.00 20.00     0.043 A 
HETATM    4  C4  UNL     1     -33.394   6.910   3.017  1.00 20.00    -0.010 A 
HETATM    5  C6  UNL     1     -34.874   5.421   4.080  1.00 20.00     0.040 C 
HETATM    6  C7  UNL     1     -34.085   7.799   3.979  1.00 20.00     0.047 C 
HETATM    7  C8  UNL     1     -35.279   6.892   4.412  1.00 20.00     0.010 C 
HETATM    8  S10 UNL     1     -32.195   7.207   1.892  1.00 20.00    -0.091 SA
ENDROOT
BRANCH   3   9
HETATM    9  C5  UNL     1     -31.319   5.114   0.388  1.00 20.00     0.277 C 
HETATM   10  O9  UNL     1     -31.317   3.966  -0.103  1.00 20.00    -0.301 OA
ENDBRANCH   3   9
TORSDOF 1
ENDMDL
