MODEL 1
REMARK VINA RESULT:      -0.4      0.000      0.000
REMARK  2 active torsions:
REMARK  status: ('A' for Active; 'I' for Inactive)
REMARK    1  A    between atoms: C1_1  and  C9_9 
REMARK    2  A    between atoms: C8_8  and  C9_9 
ROOT
HETATM    1  C2  UNL     1     -34.894   5.130   4.417  1.00 20.00     0.005 C 
HETATM    2  C3  UNL     1     -33.784   4.831   3.397  1.00 20.00     0.005 C 
HETATM    3  C4  UNL     1     -35.097   6.631   2.581  1.00 20.00     0.009 C 
HETATM    4  C5  UNL     1     -34.150   7.520   4.574  1.00 20.00     0.010 C 
HETATM    5  C6  UNL     1     -35.276   6.585   4.096  1.00 20.00    -0.014 C 
HETATM    6  C7  UNL     1     -33.639   6.168   2.645  1.00 20.00    -0.010 C 
HETATM    7  C8  UNL     1     -32.993   7.197   3.603  1.00 20.00    -0.004 C 
ENDROOT
BRANCH   7   8
HETATM    8  C9  UNL     1     -32.481   8.438   2.880  1.00 20.00     0.074 C 
BRANCH   8   9
HETATM    9  C1  UNL     1     -31.990   8.133   1.491  1.00 20.00     0.231 C 
HETATM   10  O10 UNL     1     -32.033   8.909   0.543  1.00 20.00    -0.307 OA
ENDBRANCH   8   9
ENDBRANCH   7   8
TORSDOF 2
ENDMDL
MODEL 2
REMARK VINA RESULT:       0.0      1.042      2.073
REMARK  2 active torsions:
REMARK  status: ('A' for Active; 'I' for Inactive)
REMARK    1  A    between atoms: C1_1  and  C9_9 
REMARK    2  A    between atoms: C8_8  and  C9_9 
ROOT
HETATM    1  C2  UNL     1     -35.223   6.169   3.750  1.00 20.00     0.005 C 
HETATM    2  C3  UNL     1     -35.222   7.693   3.552  1.00 20.00     0.005 C 
HETATM    3  C4  UNL     1     -33.117   7.044   4.434  1.00 20.00     0.009 C 
HETATM    4  C5  UNL     1     -33.173   5.952   2.323  1.00 20.00     0.010 C 
HETATM    5  C6  UNL     1     -33.725   5.820   3.753  1.00 20.00    -0.014 C 
HETATM    6  C7  UNL     1     -33.723   8.022   3.425  1.00 20.00    -0.010 C 
HETATM    7  C8  UNL     1     -33.218   7.474   2.069  1.00 20.00    -0.004 C 
ENDROOT
BRANCH   7   8
HETATM    8  C9  UNL     1     -31.857   8.036   1.674  1.00 20.00     0.074 C 
BRANCH   8   9
HETATM    9  C1  UNL     1     -31.953   9.045   0.561  1.00 20.00     0.231 C 
HETATM   10  O10 UNL     1     -32.616  10.076   0.601  1.00 20.00    -0.307 OA
ENDBRANCH   8   9
ENDBRANCH   7   8
TORSDOF 2
ENDMDL
MODEL 3
REMARK VINA RESULT:       0.2      2.652      4.136
REMARK  2 active torsions:
REMARK  status: ('A' for Active; 'I' for Inactive)
REMARK    1  A    between atoms: C1_1  and  C9_9 
REMARK    2  A    between atoms: C8_8  and  C9_9 
ROOT
HETATM    1  C2  UNL     1     -32.673   7.970   2.643  1.00 20.00     0.005 C 
HETATM    2  C3  UNL     1     -33.243   7.880   4.067  1.00 20.00     0.005 C 
HETATM    3  C4  UNL     1     -34.809   6.923   2.563  1.00 20.00     0.009 C 
HETATM    4  C5  UNL     1     -32.922   5.491   2.353  1.00 20.00     0.010 C 
HETATM    5  C6  UNL     1     -33.438   6.867   1.893  1.00 20.00    -0.014 C 
HETATM    6  C7  UNL     1     -34.237   6.707   3.966  1.00 20.00    -0.010 C 
HETATM    7  C8  UNL     1     -33.428   5.397   3.809  1.00 20.00    -0.004 C 
ENDROOT
BRANCH   7   8
HETATM    8  C9  UNL     1     -34.271   4.149   4.050  1.00 20.00     0.074 C 
BRANCH   8   9
HETATM    9  C1  UNL     1     -33.437   2.961   4.447  1.00 20.00     0.231 C 
HETATM   10  O10 UNL     1     -32.644   2.939   5.382  1.00 20.00    -0.307 OA
ENDBRANCH   8   9
ENDBRANCH   7   8
TORSDOF 2
ENDMDL
MODEL 4
REMARK VINA RESULT:       0.3      2.450      3.845
REMARK  2 active torsions:
REMARK  status: ('A' for Active; 'I' for Inactive)
REMARK    1  A    between atoms: C1_1  and  C9_9 
REMARK    2  A    between atoms: C8_8  and  C9_9 
ROOT
HETATM    1  C2  UNL     1     -31.348   6.255   1.365  1.00 20.00     0.005 C 
HETATM    2  C3  UNL     1     -31.609   7.694   1.838  1.00 20.00     0.005 C 
HETATM    3  C4  UNL     1     -33.654   6.767   1.072  1.00 20.00     0.009 C 
HETATM    4  C5  UNL     1     -33.105   5.389   2.931  1.00 20.00     0.010 C 
HETATM    5  C6  UNL     1     -32.739   5.605   1.452  1.00 20.00    -0.014 C 
HETATM    6  C7  UNL     1     -33.111   7.677   2.176  1.00 20.00    -0.010 C 
HETATM    7  C8  UNL     1     -33.313   6.827   3.453  1.00 20.00    -0.004 C 
ENDROOT
BRANCH   7   8
HETATM    8  C9  UNL     1     -34.688   7.021   4.082  1.00 20.00     0.074 C 
BRANCH   8   9
HETATM    9  C1  UNL     1     -35.510   5.760   4.068  1.00 20.00     0.231 C 
HETATM   10  O10 UNL     1     -35.357   4.812   4.831  1.00 20.00    -0.307 OA
ENDBRANCH   8   9
ENDBRANCH   7   8
TORSDOF 2
ENDMDL
MODEL 5
REMARK VINA RESULT:       0.5      1.147      1.437
REMARK  2 active torsions:
REMARK  status: ('A' for Active; 'I' for Inactive)
REMARK    1  A    between atoms: C1_1  and  C9_9 
REMARK    2  A    between atoms: C8_8  and  C9_9 
ROOT
HETATM    1  C2  UNL     1     -33.417   5.151   3.373  1.00 20.00     0.005 C 
HETATM    2  C3  UNL     1     -32.698   5.250   2.018  1.00 20.00     0.005 C 
HETATM    3  C4  UNL     1     -34.512   6.779   2.025  1.00 20.00     0.009 C 
HETATM    4  C5  UNL     1     -33.104   7.610   3.752  1.00 20.00     0.010 C 
HETATM    5  C6  UNL     1     -34.140   6.504   3.480  1.00 20.00    -0.014 C 
HETATM    6  C7  UNL     1     -33.066   6.666   1.536  1.00 20.00    -0.010 C 
HETATM    7  C8  UNL     1     -32.321   7.691   2.424  1.00 20.00    -0.004 C 
ENDROOT
BRANCH   7   8
HETATM    8  C9  UNL     1     -32.324   9.097   1.835  1.00 20.00     0.074 C 
BRANCH   8   9
HETATM    9  C1  UNL     1     -32.132   9.095   0.342  1.00 20.00     0.231 C 
HETATM   10  O10 UNL     1     -32.714   9.836  -0.443  1.00 20.00    -0.307 OA
ENDBRANCH   8   9
ENDBRANCH   7   8
TORSDOF 2
ENDMDL
MODEL 6
REMARK VINA RESULT:       0.6      1.576      2.774
REMARK  2 active torsions:
REMARK  status: ('A' for Active; 'I' for Inactive)
REMARK    1  A    between atoms: C1_1  and  C9_9 
REMARK    2  A    between atoms: C8_8  and  C9_9 
ROOT
HETATM    1  C2  UNL     1     -34.045   6.056   2.952  1.00 20.00     0.005 C 
HETATM    2  C3  UNL     1     -33.468   7.313   3.622  1.00 20.00     0.005 C 
HETATM    3  C4  UNL     1     -31.762   6.297   2.322  1.00 20.00     0.009 C 
HETATM    4  C5  UNL     1     -33.379   6.917   0.692  1.00 20.00     0.010 C 
HETATM    5  C6  UNL     1     -33.103   5.839   1.755  1.00 20.00    -0.014 C 
HETATM    6  C7  UNL     1     -32.290   7.683   2.701  1.00 20.00    -0.010 C 
HETATM    7  C8  UNL     1     -32.865   8.209   1.364  1.00 20.00    -0.004 C 
ENDROOT
BRANCH   7   8
HETATM    8  C9  UNL     1     -31.823   8.928   0.513  1.00 20.00     0.074 C 
BRANCH   8   9
HETATM    9  C1  UNL     1     -32.357  10.194  -0.101  1.00 20.00     0.231 C 
HETATM   10  O10 UNL     1     -33.231  10.246  -0.960  1.00 20.00    -0.307 OA
ENDBRANCH   8   9
ENDBRANCH   7   8
TORSDOF 2
ENDMDL
MODEL 7
REMARK VINA RESULT:       0.6      2.630      3.934
REMARK  2 active torsions:
REMARK  status: ('A' for Active; 'I' for Inactive)
REMARK    1  A    between atoms: C1_1  and  C9_9 
REMARK    2  A    between atoms: C8_8  and  C9_9 
ROOT
HETATM    1  C2  UNL     1     -33.773   8.300   2.420  1.00 20.00     0.005 C 
HETATM    2  C3  UNL     1     -32.888   7.092   2.078  1.00 20.00     0.005 C 
HETATM    3  C4  UNL     1     -33.029   7.282   4.439  1.00 20.00     0.009 C 
HETATM    4  C5  UNL     1     -35.279   6.846   3.802  1.00 20.00     0.010 C 
HETATM    5  C6  UNL     1     -34.248   7.988   3.850  1.00 20.00    -0.014 C 
HETATM    6  C7  UNL     1     -32.999   6.216   3.341  1.00 20.00    -0.010 C 
HETATM    7  C8  UNL     1     -34.427   5.623   3.398  1.00 20.00    -0.004 C 
ENDROOT
BRANCH   7   8
HETATM    8  C9  UNL     1     -34.552   4.476   4.394  1.00 20.00     0.074 C 
BRANCH   8   9
HETATM    9  C1  UNL     1     -33.503   3.417   4.186  1.00 20.00     0.231 C 
HETATM   10  O10 UNL     1     -32.937   2.801   5.083  1.00 20.00    -0.307 OA
ENDBRANCH   8   9
ENDBRANCH   7   8
TORSDOF 2
ENDMDL
MODEL 8
REMARK VINA RESULT:       0.7      2.446      3.967
REMARK  2 active torsions:
REMARK  status: ('A' for Active; 'I' for Inactive)
REMARK    1  A    between atoms: C1_1  and  C9_9 
REMARK    2  A    between atoms: C8_8  and  C9_9 
ROOT
HETATM    1  C2  UNL     1     -32.373   8.356   0.957  1.00 20.00     0.005 C 
HETATM    2  C3  UNL     1     -33.266   7.188   0.509  1.00 20.00     0.005 C 
HETATM    3  C4  UNL     1     -31.745   6.392   2.147  1.00 20.00     0.009 C 
HETATM    4  C5  UNL     1     -33.037   7.988   3.347  1.00 20.00     0.010 C 
HETATM    5  C6  UNL     1     -31.876   7.900   2.340  1.00 20.00    -0.014 C 
HETATM    6  C7  UNL     1     -33.203   6.227   1.711  1.00 20.00    -0.010 C 
HETATM    7  C8  UNL     1     -33.987   6.862   2.884  1.00 20.00    -0.004 C 
ENDROOT
BRANCH   7   8
HETATM    8  C9  UNL     1     -34.293   5.868   3.999  1.00 20.00     0.074 C 
BRANCH   8   9
HETATM    9  C1  UNL     1     -33.991   4.449   3.602  1.00 20.00     0.231 C 
HETATM   10  O10 UNL     1     -33.984   3.490   4.367  1.00 20.00    -0.307 OA
ENDBRANCH   8   9
ENDBRANCH   7   8
TORSDOF 2
ENDMDL
MODEL 9
REMARK VINA RESULT:       0.7      2.405      4.197
REMARK  2 active torsions:
REMARK  status: ('A' for Active; 'I' for Inactive)
REMARK    1  A    between atoms: C1_1  and  C9_9 
REMARK    2  A    between atoms: C8_8  and  C9_9 
ROOT
HETATM    1  C2  UNL     1     -32.110   9.098   1.089  1.00 20.00     0.005 C 
HETATM    2  C3  UNL     1     -32.919   8.038   0.327  1.00 20.00     0.005 C 
HETATM    3  C4  UNL     1     -31.367   6.932   1.740  1.00 20.00     0.009 C 
HETATM    4  C5  UNL     1     -32.774   8.074   3.280  1.00 20.00     0.010 C 
HETATM    5  C6  UNL     1     -31.599   8.326   2.318  1.00 20.00    -0.014 C 
HETATM    6  C7  UNL     1     -32.806   6.799   1.235  1.00 20.00    -0.010 C 
HETATM    7  C8  UNL     1     -33.642   7.054   2.512  1.00 20.00    -0.004 C 
ENDROOT
BRANCH   7   8
HETATM    8  C9  UNL     1     -33.895   5.785   3.318  1.00 20.00     0.074 C 
BRANCH   8   9
HETATM    9  C1  UNL     1     -35.169   5.853   4.114  1.00 20.00     0.231 C 
HETATM   10  O10 UNL     1     -35.664   4.917   4.733  1.00 20.00    -0.307 OA
ENDBRANCH   8   9
ENDBRANCH   7   8
TORSDOF 2
ENDMDL
