MODEL 1
REMARK VINA RESULT:      -1.9      0.000      0.000
REMARK  2 active torsions:
REMARK  status: ('A' for Active; 'I' for Inactive)
REMARK    1  A    between atoms: C1_1  and  C3_3 
REMARK    2  A    between atoms: C3_3  and  C5_5 
ROOT
HETATM    1  C3  UNL     1     -32.650   6.553   1.977  1.00 20.00     0.168 C 
HETATM    2  O6  UNL     1     -31.999   5.640   1.473  1.00 20.00    -0.292 OA
ENDROOT
BRANCH   1   3
HETATM    3  C1  UNL     1     -32.246   7.979   1.804  1.00 20.00     0.063 C 
HETATM    4  C2  UNL     1     -32.657   8.668   0.738  1.00 20.00     0.088 C 
HETATM    5 CL7  UNL     1     -32.229  10.308   0.478  1.00 20.00    -0.097 Cl
ENDBRANCH   1   3
BRANCH   1   6
HETATM    6  C5  UNL     1     -33.878   6.314   2.839  1.00 20.00     0.152 C 
HETATM    7  C4  UNL     1     -33.795   4.960   3.522  1.00 20.00     0.035 C 
HETATM    8 CL8  UNL     1     -33.980   7.611   4.058  1.00 20.00    -0.117 Cl
ENDBRANCH   1   6
TORSDOF 2
ENDMDL
MODEL 2
REMARK VINA RESULT:      -1.9      2.837      4.679
REMARK  2 active torsions:
REMARK  status: ('A' for Active; 'I' for Inactive)
REMARK    1  A    between atoms: C1_1  and  C3_3 
REMARK    2  A    between atoms: C3_3  and  C5_5 
ROOT
HETATM    1  C3  UNL     1     -34.544   6.264   3.641  1.00 20.00     0.168 C 
HETATM    2  O6  UNL     1     -35.745   6.256   3.906  1.00 20.00    -0.292 OA
ENDROOT
BRANCH   1   3
HETATM    3  C1  UNL     1     -33.747   5.003   3.623  1.00 20.00     0.063 C 
HETATM    4  C2  UNL     1     -34.013   4.029   4.495  1.00 20.00     0.088 C 
HETATM    5 CL7  UNL     1     -33.135   2.556   4.529  1.00 20.00    -0.097 Cl
ENDBRANCH   1   3
BRANCH   1   6
HETATM    6  C5  UNL     1     -33.771   7.540   3.352  1.00 20.00     0.152 C 
HETATM    7  C4  UNL     1     -33.136   8.078   4.622  1.00 20.00     0.035 C 
HETATM    8 CL8  UNL     1     -32.514   7.182   2.140  1.00 20.00    -0.117 Cl
ENDBRANCH   1   6
TORSDOF 2
ENDMDL
MODEL 3
REMARK VINA RESULT:      -1.7      1.474      1.556
REMARK  2 active torsions:
REMARK  status: ('A' for Active; 'I' for Inactive)
REMARK    1  A    between atoms: C1_1  and  C3_3 
REMARK    2  A    between atoms: C3_3  and  C5_5 
ROOT
HETATM    1  C3  UNL     1     -33.115   6.339   2.413  1.00 20.00     0.168 C 
HETATM    2  O6  UNL     1     -32.726   5.495   1.608  1.00 20.00    -0.292 OA
ENDROOT
BRANCH   1   3
HETATM    3  C1  UNL     1     -32.888   7.796   2.179  1.00 20.00     0.063 C 
HETATM    4  C2  UNL     1     -32.435   8.222   0.999  1.00 20.00     0.088 C 
HETATM    5 CL7  UNL     1     -32.152   9.880   0.664  1.00 20.00    -0.097 Cl
ENDBRANCH   1   3
BRANCH   1   6
HETATM    6  C5  UNL     1     -33.812   5.979   3.714  1.00 20.00     0.152 C 
HETATM    7  C4  UNL     1     -35.204   6.584   3.759  1.00 20.00     0.035 C 
HETATM    8 CL8  UNL     1     -33.909   4.203   3.836  1.00 20.00    -0.117 Cl
ENDBRANCH   1   6
TORSDOF 2
ENDMDL
MODEL 4
REMARK VINA RESULT:      -1.7      2.754      4.747
REMARK  2 active torsions:
REMARK  status: ('A' for Active; 'I' for Inactive)
REMARK    1  A    between atoms: C1_1  and  C3_3 
REMARK    2  A    between atoms: C3_3  and  C5_5 
ROOT
HETATM    1  C3  UNL     1     -33.771   6.054   3.045  1.00 20.00     0.168 C 
HETATM    2  O6  UNL     1     -34.661   6.609   3.686  1.00 20.00    -0.292 OA
ENDROOT
BRANCH   1   3
HETATM    3  C1  UNL     1     -33.230   4.726   3.459  1.00 20.00     0.063 C 
HETATM    4  C2  UNL     1     -33.908   3.966   4.320  1.00 20.00     0.088 C 
HETATM    5 CL7  UNL     1     -33.343   2.431   4.838  1.00 20.00    -0.097 Cl
ENDBRANCH   1   3
BRANCH   1   6
HETATM    6  C5  UNL     1     -33.125   6.679   1.820  1.00 20.00     0.152 C 
HETATM    7  C4  UNL     1     -32.302   7.894   2.211  1.00 20.00     0.035 C 
HETATM    8 CL8  UNL     1     -32.085   5.458   1.040  1.00 20.00    -0.117 Cl
ENDBRANCH   1   6
TORSDOF 2
ENDMDL
MODEL 5
REMARK VINA RESULT:      -1.4      1.652      1.795
REMARK  2 active torsions:
REMARK  status: ('A' for Active; 'I' for Inactive)
REMARK    1  A    between atoms: C1_1  and  C3_3 
REMARK    2  A    between atoms: C3_3  and  C5_5 
ROOT
HETATM    1  C3  UNL     1     -32.285   7.893   2.115  1.00 20.00     0.168 C 
HETATM    2  O6  UNL     1     -31.863   8.235   3.218  1.00 20.00    -0.292 OA
ENDROOT
BRANCH   1   3
HETATM    3  C1  UNL     1     -31.959   8.674   0.885  1.00 20.00     0.063 C 
HETATM    4  C2  UNL     1     -32.634   9.788   0.600  1.00 20.00     0.088 C 
HETATM    5 CL7  UNL     1     -32.311  10.731  -0.796  1.00 20.00    -0.097 Cl
ENDBRANCH   1   3
BRANCH   1   6
HETATM    6  C5  UNL     1     -33.193   6.692   1.914  1.00 20.00     0.152 C 
HETATM    7  C4  UNL     1     -32.381   5.465   1.538  1.00 20.00     0.035 C 
HETATM    8 CL8  UNL     1     -34.088   6.395   3.427  1.00 20.00    -0.117 Cl
ENDBRANCH   1   6
TORSDOF 2
ENDMDL
MODEL 6
REMARK VINA RESULT:      -1.4      1.554      3.751
REMARK  2 active torsions:
REMARK  status: ('A' for Active; 'I' for Inactive)
REMARK    1  A    between atoms: C1_1  and  C3_3 
REMARK    2  A    between atoms: C3_3  and  C5_5 
ROOT
HETATM    1  C3  UNL     1     -32.571   6.746   1.899  1.00 20.00     0.168 C 
HETATM    2  O6  UNL     1     -32.366   5.733   1.233  1.00 20.00    -0.292 OA
ENDROOT
BRANCH   1   3
HETATM    3  C1  UNL     1     -33.722   6.830   2.845  1.00 20.00     0.063 C 
HETATM    4  C2  UNL     1     -34.232   5.720   3.381  1.00 20.00     0.088 C 
HETATM    5 CL7  UNL     1     -35.554   5.746   4.474  1.00 20.00    -0.097 Cl
ENDBRANCH   1   3
BRANCH   1   6
HETATM    6  C5  UNL     1     -31.711   7.993   1.791  1.00 20.00     0.152 C 
HETATM    7  C4  UNL     1     -32.309   8.969   0.792  1.00 20.00     0.035 C 
HETATM    8 CL8  UNL     1     -31.602   8.752   3.401  1.00 20.00    -0.117 Cl
ENDBRANCH   1   6
TORSDOF 2
ENDMDL
MODEL 7
REMARK VINA RESULT:      -1.4      2.485      2.872
REMARK  2 active torsions:
REMARK  status: ('A' for Active; 'I' for Inactive)
REMARK    1  A    between atoms: C1_1  and  C3_3 
REMARK    2  A    between atoms: C3_3  and  C5_5 
ROOT
HETATM    1  C3  UNL     1     -32.975   7.398   2.602  1.00 20.00     0.168 C 
HETATM    2  O6  UNL     1     -32.140   8.270   2.369  1.00 20.00    -0.292 OA
ENDROOT
BRANCH   1   3
HETATM    3  C1  UNL     1     -32.993   6.118   1.835  1.00 20.00     0.063 C 
HETATM    4  C2  UNL     1     -31.911   5.725   1.162  1.00 20.00     0.088 C 
HETATM    5 CL7  UNL     1     -31.865   4.267   0.260  1.00 20.00    -0.097 Cl
ENDBRANCH   1   3
BRANCH   1   6
HETATM    6  C5  UNL     1     -34.068   7.560   3.645  1.00 20.00     0.152 C 
HETATM    7  C4  UNL     1     -34.803   6.248   3.856  1.00 20.00     0.035 C 
HETATM    8 CL8  UNL     1     -33.323   8.100   5.172  1.00 20.00    -0.117 Cl
ENDBRANCH   1   6
TORSDOF 2
ENDMDL
MODEL 8
REMARK VINA RESULT:      -1.4      2.036      2.108
REMARK  2 active torsions:
REMARK  status: ('A' for Active; 'I' for Inactive)
REMARK    1  A    between atoms: C1_1  and  C3_3 
REMARK    2  A    between atoms: C3_3  and  C5_5 
ROOT
HETATM    1  C3  UNL     1     -32.205   7.964   2.629  1.00 20.00     0.168 C 
HETATM    2  O6  UNL     1     -31.635   8.658   3.468  1.00 20.00    -0.292 OA
ENDROOT
BRANCH   1   3
HETATM    3  C1  UNL     1     -32.232   8.356   1.189  1.00 20.00     0.063 C 
HETATM    4  C2  UNL     1     -32.601   9.588   0.837  1.00 20.00     0.088 C 
HETATM    5 CL7  UNL     1     -32.655  10.103  -0.798  1.00 20.00    -0.097 Cl
ENDBRANCH   1   3
BRANCH   1   6
HETATM    6  C5  UNL     1     -32.953   6.690   2.981  1.00 20.00     0.152 C 
HETATM    7  C4  UNL     1     -34.331   7.014   3.530  1.00 20.00     0.035 C 
HETATM    8 CL8  UNL     1     -33.096   5.688   1.513  1.00 20.00    -0.117 Cl
ENDBRANCH   1   6
TORSDOF 2
ENDMDL
MODEL 9
REMARK VINA RESULT:      -1.2      2.341      4.084
REMARK  2 active torsions:
REMARK  status: ('A' for Active; 'I' for Inactive)
REMARK    1  A    between atoms: C1_1  and  C3_3 
REMARK    2  A    between atoms: C3_3  and  C5_5 
ROOT
HETATM    1  C3  UNL     1     -32.591   8.025   3.067  1.00 20.00     0.168 C 
HETATM    2  O6  UNL     1     -31.683   8.659   3.602  1.00 20.00    -0.292 OA
ENDROOT
BRANCH   1   3
HETATM    3  C1  UNL     1     -33.732   7.484   3.862  1.00 20.00     0.063 C 
HETATM    4  C2  UNL     1     -34.287   6.318   3.530  1.00 20.00     0.088 C 
HETATM    5 CL7  UNL     1     -35.601   5.641   4.400  1.00 20.00    -0.097 Cl
ENDBRANCH   1   3
BRANCH   1   6
HETATM    6  C5  UNL     1     -32.609   7.705   1.582  1.00 20.00     0.152 C 
HETATM    7  C4  UNL     1     -31.884   8.782   0.794  1.00 20.00     0.035 C 
HETATM    8 CL8  UNL     1     -31.823   6.125   1.329  1.00 20.00    -0.117 Cl
ENDBRANCH   1   6
TORSDOF 2
ENDMDL
