MODEL 1
REMARK VINA RESULT:      -2.4      0.000      0.000
REMARK  2 active torsions:
REMARK  status: ('A' for Active; 'I' for Inactive)
REMARK    1  A    between atoms: C4_4  and  C6_6 
REMARK    2  A    between atoms: C6_6  and  N7_7 
ROOT
HETATM    1  C1  UNL     1     -32.092   8.528   1.298  1.00 20.00     0.332 C 
HETATM    2  N7  UNL     1     -31.667   7.758   2.067  1.00 20.00    -0.242 NA
HETATM    3  O8  UNL     1     -32.506   9.311   0.524  1.00 20.00    -0.260 OA
ENDROOT
BRANCH   2   4
HETATM    4  C6  UNL     1     -32.625   6.696   2.438  1.00 20.00     0.112 C 
HETATM    5  C5  UNL     1     -32.833   5.804   1.208  1.00 20.00     0.035 C 
BRANCH   4   6
HETATM    6  C4  UNL     1     -33.892   7.299   2.937  1.00 20.00     0.010 A 
HETATM    7  C2  UNL     1     -34.808   6.509   3.829  1.00 20.00     0.007 A 
HETATM    8  C3  UNL     1     -34.033   7.670   4.387  1.00 20.00     0.007 A 
ENDBRANCH   4   6
ENDBRANCH   2   4
TORSDOF 2
ENDMDL
MODEL 2
REMARK VINA RESULT:      -2.2      3.137      4.269
REMARK  2 active torsions:
REMARK  status: ('A' for Active; 'I' for Inactive)
REMARK    1  A    between atoms: C4_4  and  C6_6 
REMARK    2  A    between atoms: C6_6  and  N7_7 
ROOT
HETATM    1  C1  UNL     1     -34.221   4.382   4.099  1.00 20.00     0.332 C 
HETATM    2  N7  UNL     1     -34.653   5.404   3.732  1.00 20.00    -0.242 NA
HETATM    3  O8  UNL     1     -33.802   3.347   4.469  1.00 20.00    -0.260 OA
ENDROOT
BRANCH   2   4
HETATM    4  C6  UNL     1     -33.624   6.445   3.525  1.00 20.00     0.112 C 
HETATM    5  C5  UNL     1     -34.143   7.745   4.149  1.00 20.00     0.035 C 
BRANCH   4   6
HETATM    6  C4  UNL     1     -33.316   6.580   2.074  1.00 20.00     0.010 A 
HETATM    7  C2  UNL     1     -32.103   7.346   1.625  1.00 20.00     0.007 A 
HETATM    8  C3  UNL     1     -32.145   5.851   1.478  1.00 20.00     0.007 A 
ENDBRANCH   4   6
ENDBRANCH   2   4
TORSDOF 2
ENDMDL
MODEL 3
REMARK VINA RESULT:      -2.1      2.217      3.577
REMARK  2 active torsions:
REMARK  status: ('A' for Active; 'I' for Inactive)
REMARK    1  A    between atoms: C4_4  and  C6_6 
REMARK    2  A    between atoms: C6_6  and  N7_7 
ROOT
HETATM    1  C1  UNL     1     -34.402   6.809   3.735  1.00 20.00     0.332 C 
HETATM    2  N7  UNL     1     -33.412   7.365   3.460  1.00 20.00    -0.242 NA
HETATM    3  O8  UNL     1     -35.397   6.255   4.029  1.00 20.00    -0.260 OA
ENDROOT
BRANCH   2   4
HETATM    4  C6  UNL     1     -33.084   7.318   2.020  1.00 20.00     0.112 C 
HETATM    5  C5  UNL     1     -32.618   5.894   1.693  1.00 20.00     0.035 C 
BRANCH   4   6
HETATM    6  C4  UNL     1     -32.063   8.351   1.692  1.00 20.00     0.010 A 
HETATM    7  C2  UNL     1     -31.500   8.446   0.301  1.00 20.00     0.007 A 
HETATM    8  C3  UNL     1     -32.422   9.517   0.814  1.00 20.00     0.007 A 
ENDBRANCH   4   6
ENDBRANCH   2   4
TORSDOF 2
ENDMDL
MODEL 4
REMARK VINA RESULT:      -1.5      1.221      1.871
REMARK  2 active torsions:
REMARK  status: ('A' for Active; 'I' for Inactive)
REMARK    1  A    between atoms: C4_4  and  C6_6 
REMARK    2  A    between atoms: C6_6  and  N7_7 
ROOT
HETATM    1  C1  UNL     1     -32.253   8.378   1.589  1.00 20.00     0.332 C 
HETATM    2  N7  UNL     1     -32.300   7.643   2.496  1.00 20.00    -0.242 NA
HETATM    3  O8  UNL     1     -32.190   9.112   0.671  1.00 20.00    -0.260 OA
ENDROOT
BRANCH   2   4
HETATM    4  C6  UNL     1     -33.551   7.741   3.277  1.00 20.00     0.112 C 
HETATM    5  C5  UNL     1     -33.169   7.983   4.742  1.00 20.00     0.035 C 
BRANCH   4   6
HETATM    6  C4  UNL     1     -34.372   6.513   3.087  1.00 20.00     0.010 A 
HETATM    7  C2  UNL     1     -34.131   5.302   3.943  1.00 20.00     0.007 A 
HETATM    8  C3  UNL     1     -35.384   6.113   4.124  1.00 20.00     0.007 A 
ENDBRANCH   4   6
ENDBRANCH   2   4
TORSDOF 2
ENDMDL
MODEL 5
REMARK VINA RESULT:      -1.5      0.892      2.484
REMARK  2 active torsions:
REMARK  status: ('A' for Active; 'I' for Inactive)
REMARK    1  A    between atoms: C4_4  and  C6_6 
REMARK    2  A    between atoms: C6_6  and  N7_7 
ROOT
HETATM    1  C1  UNL     1     -32.226   8.924   1.152  1.00 20.00     0.332 C 
HETATM    2  N7  UNL     1     -32.035   8.076   1.934  1.00 20.00    -0.242 NA
HETATM    3  O8  UNL     1     -32.401   9.781   0.366  1.00 20.00    -0.260 OA
ENDROOT
BRANCH   2   4
HETATM    4  C6  UNL     1     -33.250   7.315   2.293  1.00 20.00     0.112 C 
HETATM    5  C5  UNL     1     -33.575   7.619   3.760  1.00 20.00     0.035 C 
BRANCH   4   6
HETATM    6  C4  UNL     1     -33.040   5.863   2.036  1.00 20.00     0.010 A 
HETATM    7  C2  UNL     1     -33.165   5.315   0.642  1.00 20.00     0.007 A 
HETATM    8  C3  UNL     1     -31.816   5.394   1.299  1.00 20.00     0.007 A 
ENDBRANCH   4   6
ENDBRANCH   2   4
TORSDOF 2
ENDMDL
MODEL 6
REMARK VINA RESULT:      -1.4      2.351      3.533
REMARK  2 active torsions:
REMARK  status: ('A' for Active; 'I' for Inactive)
REMARK    1  A    between atoms: C4_4  and  C6_6 
REMARK    2  A    between atoms: C6_6  and  N7_7 
ROOT
HETATM    1  C1  UNL     1     -34.636   6.789   3.847  1.00 20.00     0.332 C 
HETATM    2  N7  UNL     1     -33.877   7.618   3.525  1.00 20.00    -0.242 NA
HETATM    3  O8  UNL     1     -35.410   5.968   4.178  1.00 20.00    -0.260 OA
ENDROOT
BRANCH   2   4
HETATM    4  C6  UNL     1     -32.699   7.096   2.801  1.00 20.00     0.112 C 
HETATM    5  C5  UNL     1     -32.234   8.180   1.823  1.00 20.00     0.035 C 
BRANCH   4   6
HETATM    6  C4  UNL     1     -33.040   5.813   2.124  1.00 20.00     0.010 A 
HETATM    7  C2  UNL     1     -33.219   5.767   0.633  1.00 20.00     0.007 A 
HETATM    8  C3  UNL     1     -32.020   5.117   1.266  1.00 20.00     0.007 A 
ENDBRANCH   4   6
ENDBRANCH   2   4
TORSDOF 2
ENDMDL
MODEL 7
REMARK VINA RESULT:      -1.4      2.040      2.635
REMARK  2 active torsions:
REMARK  status: ('A' for Active; 'I' for Inactive)
REMARK    1  A    between atoms: C4_4  and  C6_6 
REMARK    2  A    between atoms: C6_6  and  N7_7 
ROOT
HETATM    1  C1  UNL     1     -32.753   5.022   0.750  1.00 20.00     0.332 C 
HETATM    2  N7  UNL     1     -32.214   5.681   1.550  1.00 20.00    -0.242 NA
HETATM    3  O8  UNL     1     -33.282   4.347  -0.056  1.00 20.00    -0.260 OA
ENDROOT
BRANCH   2   4
HETATM    4  C6  UNL     1     -33.028   6.819   2.028  1.00 20.00     0.112 C 
HETATM    5  C5  UNL     1     -32.158   8.079   1.952  1.00 20.00     0.035 C 
BRANCH   4   6
HETATM    6  C4  UNL     1     -33.534   6.546   3.402  1.00 20.00     0.010 A 
HETATM    7  C2  UNL     1     -34.154   7.649   4.214  1.00 20.00     0.007 A 
HETATM    8  C3  UNL     1     -35.012   6.538   3.676  1.00 20.00     0.007 A 
ENDBRANCH   4   6
ENDBRANCH   2   4
TORSDOF 2
ENDMDL
MODEL 8
REMARK VINA RESULT:      -1.2      1.571      1.672
REMARK  2 active torsions:
REMARK  status: ('A' for Active; 'I' for Inactive)
REMARK    1  A    between atoms: C4_4  and  C6_6 
REMARK    2  A    between atoms: C6_6  and  N7_7 
ROOT
HETATM    1  C1  UNL     1     -32.157   6.799   1.503  1.00 20.00     0.332 C 
HETATM    2  N7  UNL     1     -32.613   5.747   1.731  1.00 20.00    -0.242 NA
HETATM    3  O8  UNL     1     -31.693   7.852   1.259  1.00 20.00    -0.260 OA
ENDROOT
BRANCH   2   4
HETATM    4  C6  UNL     1     -33.215   5.638   3.077  1.00 20.00     0.112 C 
HETATM    5  C5  UNL     1     -33.661   4.185   3.272  1.00 20.00     0.035 C 
BRANCH   4   6
HETATM    6  C4  UNL     1     -34.332   6.613   3.219  1.00 20.00     0.010 A 
HETATM    7  C2  UNL     1     -35.429   6.366   4.217  1.00 20.00     0.007 A 
HETATM    8  C3  UNL     1     -34.436   7.470   4.450  1.00 20.00     0.007 A 
ENDBRANCH   4   6
ENDBRANCH   2   4
TORSDOF 2
ENDMDL
MODEL 9
REMARK VINA RESULT:      -1.2      2.115      3.715
REMARK  2 active torsions:
REMARK  status: ('A' for Active; 'I' for Inactive)
REMARK    1  A    between atoms: C4_4  and  C6_6 
REMARK    2  A    between atoms: C6_6  and  N7_7 
ROOT
HETATM    1  C1  UNL     1     -33.163   6.458   2.373  1.00 20.00     0.332 C 
HETATM    2  N7  UNL     1     -32.311   6.677   1.604  1.00 20.00    -0.242 NA
HETATM    3  O8  UNL     1     -34.020   6.221   3.142  1.00 20.00    -0.260 OA
ENDROOT
BRANCH   2   4
HETATM    4  C6  UNL     1     -31.843   8.079   1.618  1.00 20.00     0.112 C 
HETATM    5  C5  UNL     1     -31.745   8.524   3.081  1.00 20.00     0.035 C 
BRANCH   4   6
HETATM    6  C4  UNL     1     -32.759   8.934   0.812  1.00 20.00     0.010 A 
HETATM    7  C2  UNL     1     -32.589  10.427   0.802  1.00 20.00     0.007 A 
HETATM    8  C3  UNL     1     -32.256   9.625  -0.425  1.00 20.00     0.007 A 
ENDBRANCH   4   6
ENDBRANCH   2   4
TORSDOF 2
ENDMDL
