MODEL 1
REMARK VINA RESULT:       1.9      0.000      0.000
REMARK  1 active torsions:
REMARK  status: ('A' for Active; 'I' for Inactive)
REMARK    1  A    between atoms: C11_11  and  N13_13 
ROOT
HETATM    1  C1  UNL     1     -34.117   4.082   4.328  1.00 20.00     0.086 C 
HETATM    2  C11 UNL     1     -34.584   5.408   3.934  1.00 20.00     0.357 C 
HETATM    3  N12 UNL     1     -33.750   3.027   4.642  1.00 20.00    -0.196 NA
ENDROOT
BRANCH   2   4
HETATM    4  N13 UNL     1     -33.452   6.182   3.317  1.00 20.00    -0.059 N 
HETATM    5  C8  UNL     1     -33.432   6.036   1.816  1.00 20.00     0.236 C 
HETATM    6  C6  UNL     1     -32.207   6.747   1.249  1.00 20.00     0.037 C 
HETATM    7  C10 UNL     1     -32.112   8.230   1.679  1.00 20.00    -0.037 C 
HETATM    8  C4  UNL     1     -30.801   8.863   1.180  1.00 20.00     0.010 C 
HETATM    9  C5  UNL     1     -33.152   9.113   0.964  1.00 20.00     0.010 C 
HETATM   10  C7  UNL     1     -32.222   8.323   3.210  1.00 20.00     0.037 C 
HETATM   11  C2  UNL     1     -31.056   9.202  -0.287  1.00 20.00     0.001 C 
HETATM   12  C3  UNL     1     -32.566   9.381  -0.422  1.00 20.00     0.001 C 
HETATM   13  C9  UNL     1     -33.462   7.626   3.753  1.00 20.00     0.236 C 
HETATM   14  H32 UNL     1     -32.584   5.761   3.676  1.00 20.00     0.281 HD
ENDBRANCH   2   4
TORSDOF 1
ENDMDL
MODEL 2
REMARK VINA RESULT:       2.0      2.045      5.242
REMARK  1 active torsions:
REMARK  status: ('A' for Active; 'I' for Inactive)
REMARK    1  A    between atoms: C11_11  and  N13_13 
ROOT
HETATM    1  C1  UNL     1     -32.337   9.654   0.078  1.00 20.00     0.086 C 
HETATM    2  C11 UNL     1     -31.250   9.125   0.897  1.00 20.00     0.357 C 
HETATM    3  N12 UNL     1     -33.197  10.078  -0.575  1.00 20.00    -0.196 NA
ENDROOT
BRANCH   2   4
HETATM    4  N13 UNL     1     -31.744   7.950   1.696  1.00 20.00    -0.059 N 
HETATM    5  C8  UNL     1     -32.512   8.392   2.917  1.00 20.00     0.236 C 
HETATM    6  C6  UNL     1     -32.896   7.173   3.749  1.00 20.00     0.037 C 
HETATM    7  C10 UNL     1     -33.674   6.107   2.941  1.00 20.00    -0.037 C 
HETATM    8  C4  UNL     1     -33.931   4.852   3.794  1.00 20.00     0.010 C 
HETATM    9  C5  UNL     1     -35.116   6.547   2.630  1.00 20.00     0.010 C 
HETATM   10  C7  UNL     1     -32.884   5.758   1.669  1.00 20.00     0.037 C 
HETATM   11  C2  UNL     1     -35.130   5.204   4.670  1.00 20.00     0.001 C 
HETATM   12  C3  UNL     1     -35.903   6.282   3.913  1.00 20.00     0.001 C 
HETATM   13  C9  UNL     1     -32.529   6.987   0.842  1.00 20.00     0.236 C 
HETATM   14  H32 UNL     1     -30.905   7.453   2.027  1.00 20.00     0.281 HD
ENDBRANCH   2   4
TORSDOF 1
ENDMDL
MODEL 3
REMARK VINA RESULT:       2.8      1.103      2.107
REMARK  1 active torsions:
REMARK  status: ('A' for Active; 'I' for Inactive)
REMARK    1  A    between atoms: C11_11  and  N13_13 
ROOT
HETATM    1  C1  UNL     1     -33.692   3.534   4.698  1.00 20.00     0.086 C 
HETATM    2  C11 UNL     1     -34.689   4.596   4.602  1.00 20.00     0.357 C 
HETATM    3  N12 UNL     1     -32.901   2.688   4.778  1.00 20.00    -0.196 NA
ENDROOT
BRANCH   2   4
HETATM    4  N13 UNL     1     -34.380   5.477   3.423  1.00 20.00    -0.059 N 
HETATM    5  C8  UNL     1     -34.226   6.920   3.832  1.00 20.00     0.236 C 
HETATM    6  C6  UNL     1     -34.022   7.785   2.593  1.00 20.00     0.037 C 
HETATM    7  C10 UNL     1     -32.842   7.314   1.710  1.00 20.00    -0.037 C 
HETATM    8  C4  UNL     1     -32.757   8.145   0.418  1.00 20.00     0.010 C 
HETATM    9  C5  UNL     1     -31.475   7.626   2.347  1.00 20.00     0.010 C 
HETATM   10  C7  UNL     1     -33.009   5.818   1.395  1.00 20.00     0.037 C 
HETATM   11  C2  UNL     1     -32.063   9.443   0.824  1.00 20.00     0.001 C 
HETATM   12  C3  UNL     1     -31.224   9.105   2.054  1.00 20.00     0.001 C 
HETATM   13  C9  UNL     1     -33.190   4.970   2.647  1.00 20.00     0.236 C 
HETATM   14  H32 UNL     1     -35.197   5.422   2.799  1.00 20.00     0.281 HD
ENDBRANCH   2   4
TORSDOF 1
ENDMDL
MODEL 4
REMARK VINA RESULT:       2.9      1.969      5.416
REMARK  1 active torsions:
REMARK  status: ('A' for Active; 'I' for Inactive)
REMARK    1  A    between atoms: C11_11  and  N13_13 
ROOT
HETATM    1  C1  UNL     1     -32.111   9.714   0.133  1.00 20.00     0.086 C 
HETATM    2  C11 UNL     1     -31.604   8.609   0.941  1.00 20.00     0.357 C 
HETATM    3  N12 UNL     1     -32.509  10.594  -0.511  1.00 20.00    -0.196 NA
ENDROOT
BRANCH   2   4
HETATM    4  N13 UNL     1     -32.723   8.021   1.756  1.00 20.00    -0.059 N 
HETATM    5  C8  UNL     1     -32.989   6.585   1.380  1.00 20.00     0.236 C 
HETATM    6  C6  UNL     1     -34.198   6.070   2.154  1.00 20.00     0.037 C 
HETATM    7  C10 UNL     1     -34.060   6.242   3.685  1.00 20.00    -0.037 C 
HETATM    8  C4  UNL     1     -35.351   5.817   4.405  1.00 20.00     0.010 C 
HETATM    9  C5  UNL     1     -33.049   5.253   4.294  1.00 20.00     0.010 C 
HETATM   10  C7  UNL     1     -33.706   7.704   4.001  1.00 20.00     0.037 C 
HETATM   11  C2  UNL     1     -35.288   4.294   4.471  1.00 20.00     0.001 C 
HETATM   12  C3  UNL     1     -33.806   3.931   4.419  1.00 20.00     0.001 C 
HETATM   13  C9  UNL     1     -32.484   8.193   3.236  1.00 20.00     0.236 C 
HETATM   14  H32 UNL     1     -33.568   8.561   1.519  1.00 20.00     0.281 HD
ENDBRANCH   2   4
TORSDOF 1
ENDMDL
