MODEL 1
REMARK VINA RESULT:      -1.9      0.000      0.000
REMARK  3 active torsions:
REMARK  status: ('A' for Active; 'I' for Inactive)
REMARK    1  A    between atoms: C5_5  and  C7_7 
REMARK    2  A    between atoms: C6_6  and  C7_7 
REMARK    3  A    between atoms: C7_7  and  O8_8 
ROOT
HETATM    1  C1  UNL     1     -32.412   9.709   0.143  1.00 20.00     0.012 C 
HETATM    2  C2  UNL     1     -32.201   8.867   0.971  1.00 20.00    -0.115 C 
HETATM    3  C5  UNL     1     -31.934   7.839   1.991  1.00 20.00     0.130 C 
ENDROOT
BRANCH   3   4
HETATM    4  C7  UNL     1     -32.783   6.563   1.805  1.00 20.00     0.064 C 
HETATM    5  C4  UNL     1     -31.863   5.384   1.458  1.00 20.00     0.046 C 
BRANCH   4   6
HETATM    6  C6  UNL     1     -33.688   6.220   3.007  1.00 20.00     0.034 C 
HETATM    7  C3  UNL     1     -34.127   7.404   3.856  1.00 20.00     0.008 C 
ENDBRANCH   4   6
BRANCH   4   8
HETATM    8  O8  UNL     1     -33.654   6.755   0.679  1.00 20.00    -0.389 OA
HETATM    9  H20 UNL     1     -34.285   6.022   0.705  1.00 20.00     0.210 HD
ENDBRANCH   4   8
ENDBRANCH   3   4
TORSDOF 3
ENDMDL
MODEL 2
REMARK VINA RESULT:      -1.8      2.123      4.541
REMARK  3 active torsions:
REMARK  status: ('A' for Active; 'I' for Inactive)
REMARK    1  A    between atoms: C5_5  and  C7_7 
REMARK    2  A    between atoms: C6_6  and  C7_7 
REMARK    3  A    between atoms: C7_7  and  O8_8 
ROOT
HETATM    1  C1  UNL     1     -33.190   3.096   4.466  1.00 20.00     0.012 C 
HETATM    2  C2  UNL     1     -33.992   3.989   4.459  1.00 20.00    -0.115 C 
HETATM    3  C5  UNL     1     -34.984   5.078   4.454  1.00 20.00     0.130 C 
ENDROOT
BRANCH   3   4
HETATM    4  C7  UNL     1     -34.553   6.289   3.599  1.00 20.00     0.064 C 
HETATM    5  C4  UNL     1     -34.009   7.393   4.517  1.00 20.00     0.046 C 
BRANCH   4   6
HETATM    6  C6  UNL     1     -33.540   5.952   2.484  1.00 20.00     0.034 C 
HETATM    7  C3  UNL     1     -32.637   7.097   2.050  1.00 20.00     0.008 C 
ENDBRANCH   4   6
BRANCH   4   8
HETATM    8  O8  UNL     1     -35.715   6.825   2.948  1.00 20.00    -0.389 OA
HETATM    9  H20 UNL     1     -36.166   7.363   3.613  1.00 20.00     0.210 HD
ENDBRANCH   4   8
ENDBRANCH   3   4
TORSDOF 3
ENDMDL
MODEL 3
REMARK VINA RESULT:      -1.8      1.390      3.378
REMARK  3 active torsions:
REMARK  status: ('A' for Active; 'I' for Inactive)
REMARK    1  A    between atoms: C5_5  and  C7_7 
REMARK    2  A    between atoms: C6_6  and  C7_7 
REMARK    3  A    between atoms: C7_7  and  O8_8 
ROOT
HETATM    1  C1  UNL     1     -34.971   6.532   3.955  1.00 20.00     0.012 C 
HETATM    2  C2  UNL     1     -34.064   7.232   3.597  1.00 20.00    -0.115 C 
HETATM    3  C5  UNL     1     -32.955   8.098   3.164  1.00 20.00     0.130 C 
ENDROOT
BRANCH   3   4
HETATM    4  C7  UNL     1     -32.330   7.661   1.821  1.00 20.00     0.064 C 
HETATM    5  C4  UNL     1     -32.620   6.172   1.585  1.00 20.00     0.046 C 
BRANCH   4   6
HETATM    6  C6  UNL     1     -32.773   8.507   0.608  1.00 20.00     0.034 C 
HETATM    7  C3  UNL     1     -32.369   9.973   0.649  1.00 20.00     0.008 C 
ENDBRANCH   4   6
BRANCH   4   8
HETATM    8  O8  UNL     1     -30.904   7.797   1.915  1.00 20.00    -0.389 OA
HETATM    9  H20 UNL     1     -30.738   8.274   2.741  1.00 20.00     0.210 HD
ENDBRANCH   4   8
ENDBRANCH   3   4
TORSDOF 3
ENDMDL
MODEL 4
REMARK VINA RESULT:      -1.5      1.992      3.039
REMARK  3 active torsions:
REMARK  status: ('A' for Active; 'I' for Inactive)
REMARK    1  A    between atoms: C5_5  and  C7_7 
REMARK    2  A    between atoms: C6_6  and  C7_7 
REMARK    3  A    between atoms: C7_7  and  O8_8 
ROOT
HETATM    1  C1  UNL     1     -31.995   8.125   1.770  1.00 20.00     0.012 C 
HETATM    2  C2  UNL     1     -32.678   7.180   2.053  1.00 20.00    -0.115 C 
HETATM    3  C5  UNL     1     -33.515   6.016   2.391  1.00 20.00     0.130 C 
ENDROOT
BRANCH   3   4
HETATM    4  C7  UNL     1     -34.448   6.267   3.595  1.00 20.00     0.064 C 
HETATM    5  C4  UNL     1     -35.766   6.879   3.100  1.00 20.00     0.046 C 
BRANCH   4   6
HETATM    6  C6  UNL     1     -34.713   5.019   4.465  1.00 20.00     0.034 C 
HETATM    7  C3  UNL     1     -33.798   3.832   4.203  1.00 20.00     0.008 C 
ENDBRANCH   4   6
BRANCH   4   8
HETATM    8  O8  UNL     1     -33.833   7.240   4.453  1.00 20.00    -0.389 OA
HETATM    9  H20 UNL     1     -32.880   7.154   4.311  1.00 20.00     0.210 HD
ENDBRANCH   4   8
ENDBRANCH   3   4
TORSDOF 3
ENDMDL
MODEL 5
REMARK VINA RESULT:      -1.3      1.479      3.240
REMARK  3 active torsions:
REMARK  status: ('A' for Active; 'I' for Inactive)
REMARK    1  A    between atoms: C5_5  and  C7_7 
REMARK    2  A    between atoms: C6_6  and  C7_7 
REMARK    3  A    between atoms: C7_7  and  O8_8 
ROOT
HETATM    1  C1  UNL     1     -35.162   6.421   4.024  1.00 20.00     0.012 C 
HETATM    2  C2  UNL     1     -34.233   7.131   3.755  1.00 20.00    -0.115 C 
HETATM    3  C5  UNL     1     -33.095   8.009   3.433  1.00 20.00     0.130 C 
ENDROOT
BRANCH   3   4
HETATM    4  C7  UNL     1     -32.513   7.758   2.025  1.00 20.00     0.064 C 
HETATM    5  C4  UNL     1     -30.980   7.759   2.099  1.00 20.00     0.046 C 
BRANCH   4   6
HETATM    6  C6  UNL     1     -33.031   6.473   1.343  1.00 20.00     0.034 C 
HETATM    7  C3  UNL     1     -32.041   5.320   1.282  1.00 20.00     0.008 C 
ENDBRANCH   4   6
BRANCH   4   8
HETATM    8  O8  UNL     1     -32.890   8.852   1.175  1.00 20.00    -0.389 OA
HETATM    9  H20 UNL     1     -33.059   9.600   1.765  1.00 20.00     0.210 HD
ENDBRANCH   4   8
ENDBRANCH   3   4
TORSDOF 3
ENDMDL
MODEL 6
REMARK VINA RESULT:      -1.1      1.147      3.136
REMARK  3 active torsions:
REMARK  status: ('A' for Active; 'I' for Inactive)
REMARK    1  A    between atoms: C5_5  and  C7_7 
REMARK    2  A    between atoms: C6_6  and  C7_7 
REMARK    3  A    between atoms: C7_7  and  O8_8 
ROOT
HETATM    1  C1  UNL     1     -34.279   7.835   4.410  1.00 20.00     0.012 C 
HETATM    2  C2  UNL     1     -33.964   6.940   3.676  1.00 20.00    -0.115 C 
HETATM    3  C5  UNL     1     -33.581   5.834   2.782  1.00 20.00     0.130 C 
ENDROOT
BRANCH   3   4
HETATM    4  C7  UNL     1     -32.687   6.284   1.606  1.00 20.00     0.064 C 
HETATM    5  C4  UNL     1     -33.532   6.372   0.328  1.00 20.00     0.046 C 
BRANCH   4   6
HETATM    6  C6  UNL     1     -31.927   7.604   1.856  1.00 20.00     0.034 C 
HETATM    7  C3  UNL     1     -32.272   8.748   0.913  1.00 20.00     0.008 C 
ENDBRANCH   4   6
BRANCH   4   8
HETATM    8  O8  UNL     1     -31.691   5.275   1.378  1.00 20.00    -0.389 OA
HETATM    9  H20 UNL     1     -30.925   5.738   1.013  1.00 20.00     0.210 HD
ENDBRANCH   4   8
ENDBRANCH   3   4
TORSDOF 3
ENDMDL
MODEL 7
REMARK VINA RESULT:      -1.0      1.512      3.569
REMARK  3 active torsions:
REMARK  status: ('A' for Active; 'I' for Inactive)
REMARK    1  A    between atoms: C5_5  and  C7_7 
REMARK    2  A    between atoms: C6_6  and  C7_7 
REMARK    3  A    between atoms: C7_7  and  O8_8 
ROOT
HETATM    1  C1  UNL     1     -34.915   6.597   4.009  1.00 20.00     0.012 C 
HETATM    2  C2  UNL     1     -34.107   6.612   3.122  1.00 20.00    -0.115 C 
HETATM    3  C5  UNL     1     -33.116   6.620   2.032  1.00 20.00     0.130 C 
ENDROOT
BRANCH   3   4
HETATM    4  C7  UNL     1     -32.292   7.924   1.970  1.00 20.00     0.064 C 
HETATM    5  C4  UNL     1     -30.949   7.645   1.280  1.00 20.00     0.046 C 
BRANCH   4   6
HETATM    6  C6  UNL     1     -33.022   9.106   1.297  1.00 20.00     0.034 C 
HETATM    7  C3  UNL     1     -32.274   9.771   0.151  1.00 20.00     0.008 C 
ENDBRANCH   4   6
BRANCH   4   8
HETATM    8  O8  UNL     1     -31.992   8.338   3.311  1.00 20.00    -0.389 OA
HETATM    9  H20 UNL     1     -31.750   7.533   3.789  1.00 20.00     0.210 HD
ENDBRANCH   4   8
ENDBRANCH   3   4
TORSDOF 3
ENDMDL
MODEL 8
REMARK VINA RESULT:      -1.0      0.970      3.368
REMARK  3 active torsions:
REMARK  status: ('A' for Active; 'I' for Inactive)
REMARK    1  A    between atoms: C5_5  and  C7_7 
REMARK    2  A    between atoms: C6_6  and  C7_7 
REMARK    3  A    between atoms: C7_7  and  O8_8 
ROOT
HETATM    1  C1  UNL     1     -35.339   6.123   4.042  1.00 20.00     0.012 C 
HETATM    2  C2  UNL     1     -34.354   6.723   3.711  1.00 20.00    -0.115 C 
HETATM    3  C5  UNL     1     -33.146   7.466   3.313  1.00 20.00     0.130 C 
ENDROOT
BRANCH   3   4
HETATM    4  C7  UNL     1     -32.643   7.095   1.901  1.00 20.00     0.064 C 
HETATM    5  C4  UNL     1     -31.854   8.274   1.315  1.00 20.00     0.046 C 
BRANCH   4   6
HETATM    6  C6  UNL     1     -31.813   5.794   1.843  1.00 20.00     0.034 C 
HETATM    7  C3  UNL     1     -32.195   4.823   0.736  1.00 20.00     0.008 C 
ENDBRANCH   4   6
BRANCH   4   8
HETATM    8  O8  UNL     1     -33.781   6.892   1.050  1.00 20.00    -0.389 OA
HETATM    9  H20 UNL     1     -34.544   7.218   1.547  1.00 20.00     0.210 HD
ENDBRANCH   4   8
ENDBRANCH   3   4
TORSDOF 3
ENDMDL
MODEL 9
REMARK VINA RESULT:      -1.0      2.682      4.566
REMARK  3 active torsions:
REMARK  status: ('A' for Active; 'I' for Inactive)
REMARK    1  A    between atoms: C5_5  and  C7_7 
REMARK    2  A    between atoms: C6_6  and  C7_7 
REMARK    3  A    between atoms: C7_7  and  O8_8 
ROOT
HETATM    1  C1  UNL     1     -33.220   3.128   4.490  1.00 20.00     0.012 C 
HETATM    2  C2  UNL     1     -34.057   3.987   4.518  1.00 20.00    -0.115 C 
HETATM    3  C5  UNL     1     -35.092   5.035   4.555  1.00 20.00     0.130 C 
ENDROOT
BRANCH   3   4
HETATM    4  C7  UNL     1     -34.722   6.284   3.726  1.00 20.00     0.064 C 
HETATM    5  C4  UNL     1     -35.976   6.816   3.019  1.00 20.00     0.046 C 
BRANCH   4   6
HETATM    6  C6  UNL     1     -34.030   7.401   4.535  1.00 20.00     0.034 C 
HETATM    7  C3  UNL     1     -32.846   8.068   3.850  1.00 20.00     0.008 C 
ENDBRANCH   4   6
BRANCH   4   8
HETATM    8  O8  UNL     1     -33.800   5.892   2.698  1.00 20.00    -0.389 OA
HETATM    9  H20 UNL     1     -32.933   6.213   2.983  1.00 20.00     0.210 HD
ENDBRANCH   4   8
ENDBRANCH   3   4
TORSDOF 3
ENDMDL
