MODEL 1
REMARK VINA RESULT:       1.2      0.000      0.000
REMARK  2 active torsions:
REMARK  status: ('A' for Active; 'I' for Inactive)
REMARK    1  A    between atoms: C9_9  and  C10_10 
REMARK    2  A    between atoms: C10_10  and  N12_12 
ROOT
HETATM    1  C1  UNL     1     -33.371   3.366   4.624  1.00 20.00     0.061 C 
HETATM    2  C9  UNL     1     -34.019   4.122   3.542  1.00 20.00     0.159 C 
HETATM    3  N11 UNL     1     -32.860   2.767   5.477  1.00 20.00    -0.197 NA
ENDROOT
BRANCH   2   4
HETATM    4  C10 UNL     1     -34.188   5.603   3.900  1.00 20.00     0.233 C 
HETATM    5  C8  UNL     1     -35.652   5.930   4.181  1.00 20.00     0.044 C 
BRANCH   4   6
HETATM    6  N12 UNL     1     -33.687   6.459   2.837  1.00 20.00     0.102 N 
HETATM    7  C4  UNL     1     -32.586   5.845   2.099  1.00 20.00     0.274 C 
HETATM    8  C2  UNL     1     -32.118   6.993   1.230  1.00 20.00     0.033 C 
HETATM    9  C3  UNL     1     -32.195   8.192   2.163  1.00 20.00     0.043 C 
HETATM   10  C5  UNL     1     -33.264   7.823   3.218  1.00 20.00     0.153 C 
HETATM   11  C6  UNL     1     -34.477   8.757   3.092  1.00 20.00     0.049 C 
HETATM   12  C7  UNL     1     -32.665   7.959   4.630  1.00 20.00     0.049 C 
ENDBRANCH   4   6
ENDBRANCH   2   4
TORSDOF 2
ENDMDL
MODEL 2
REMARK VINA RESULT:       1.9      1.878      4.668
REMARK  2 active torsions:
REMARK  status: ('A' for Active; 'I' for Inactive)
REMARK    1  A    between atoms: C9_9  and  C10_10 
REMARK    2  A    between atoms: C10_10  and  N12_12 
ROOT
HETATM    1  C1  UNL     1     -32.462   9.283   0.066  1.00 20.00     0.061 C 
HETATM    2  C9  UNL     1     -32.104   8.086   0.842  1.00 20.00     0.159 C 
HETATM    3  N11 UNL     1     -32.743  10.226  -0.548  1.00 20.00    -0.197 NA
ENDROOT
BRANCH   2   4
HETATM    4  C10 UNL     1     -32.168   8.343   2.352  1.00 20.00     0.233 C 
HETATM    5  C8  UNL     1     -30.772   8.576   2.923  1.00 20.00     0.044 C 
BRANCH   4   6
HETATM    6  N12 UNL     1     -32.806   7.236   3.046  1.00 20.00     0.102 N 
HETATM    7  C4  UNL     1     -33.164   6.145   2.143  1.00 20.00     0.274 C 
HETATM    8  C2  UNL     1     -33.984   5.251   3.048  1.00 20.00     0.033 C 
HETATM    9  C3  UNL     1     -34.814   6.237   3.856  1.00 20.00     0.043 C 
HETATM   10  C5  UNL     1     -33.999   7.552   3.859  1.00 20.00     0.153 C 
HETATM   11  C6  UNL     1     -33.536   7.884   5.285  1.00 20.00     0.049 C 
HETATM   12  C7  UNL     1     -34.874   8.703   3.330  1.00 20.00     0.049 C 
ENDBRANCH   4   6
ENDBRANCH   2   4
TORSDOF 2
ENDMDL
MODEL 3
REMARK VINA RESULT:       2.1      2.059      5.120
REMARK  2 active torsions:
REMARK  status: ('A' for Active; 'I' for Inactive)
REMARK    1  A    between atoms: C9_9  and  C10_10 
REMARK    2  A    between atoms: C10_10  and  N12_12 
ROOT
HETATM    1  C1  UNL     1     -32.659   9.931   0.255  1.00 20.00     0.061 C 
HETATM    2  C9  UNL     1     -32.304   9.607   1.645  1.00 20.00     0.159 C 
HETATM    3  N11 UNL     1     -32.940  10.190  -0.841  1.00 20.00    -0.197 NA
ENDROOT
BRANCH   2   4
HETATM    4  C10 UNL     1     -31.944   8.126   1.812  1.00 20.00     0.233 C 
HETATM    5  C8  UNL     1     -31.351   7.563   0.523  1.00 20.00     0.044 C 
BRANCH   4   6
HETATM    6  N12 UNL     1     -33.106   7.345   2.203  1.00 20.00     0.102 N 
HETATM    7  C4  UNL     1     -33.453   7.529   3.609  1.00 20.00     0.274 C 
HETATM    8  C2  UNL     1     -34.519   6.472   3.805  1.00 20.00     0.033 C 
HETATM    9  C3  UNL     1     -33.983   5.284   3.021  1.00 20.00     0.043 C 
HETATM   10  C5  UNL     1     -33.056   5.891   1.941  1.00 20.00     0.153 C 
HETATM   11  C6  UNL     1     -33.633   5.633   0.542  1.00 20.00     0.049 C 
HETATM   12  C7  UNL     1     -31.660   5.249   2.039  1.00 20.00     0.049 C 
ENDBRANCH   4   6
ENDBRANCH   2   4
TORSDOF 2
ENDMDL
MODEL 4
REMARK VINA RESULT:       2.1      0.792      2.245
REMARK  2 active torsions:
REMARK  status: ('A' for Active; 'I' for Inactive)
REMARK    1  A    between atoms: C9_9  and  C10_10 
REMARK    2  A    between atoms: C10_10  and  N12_12 
ROOT
HETATM    1  C1  UNL     1     -33.484   3.481   4.382  1.00 20.00     0.061 C 
HETATM    2  C9  UNL     1     -34.113   4.386   3.407  1.00 20.00     0.159 C 
HETATM    3  N11 UNL     1     -32.989   2.765   5.150  1.00 20.00    -0.197 NA
ENDROOT
BRANCH   2   4
HETATM    4  C10 UNL     1     -34.048   5.849   3.860  1.00 20.00     0.233 C 
HETATM    5  C8  UNL     1     -35.377   6.555   3.609  1.00 20.00     0.044 C 
BRANCH   4   6
HETATM    6  N12 UNL     1     -32.975   6.560   3.183  1.00 20.00     0.102 N 
HETATM    7  C4  UNL     1     -33.100   8.009   3.311  1.00 20.00     0.274 C 
HETATM    8  C2  UNL     1     -32.026   8.497   2.362  1.00 20.00     0.033 C 
HETATM    9  C3  UNL     1     -32.150   7.550   1.177  1.00 20.00     0.043 C 
HETATM   10  C5  UNL     1     -32.768   6.254   1.751  1.00 20.00     0.153 C 
HETATM   11  C6  UNL     1     -31.764   5.096   1.647  1.00 20.00     0.049 C 
HETATM   12  C7  UNL     1     -34.039   5.893   0.961  1.00 20.00     0.049 C 
ENDBRANCH   4   6
ENDBRANCH   2   4
TORSDOF 2
ENDMDL
MODEL 5
REMARK VINA RESULT:       2.2      1.748      3.820
REMARK  2 active torsions:
REMARK  status: ('A' for Active; 'I' for Inactive)
REMARK    1  A    between atoms: C9_9  and  C10_10 
REMARK    2  A    between atoms: C10_10  and  N12_12 
ROOT
HETATM    1  C1  UNL     1     -33.462   4.637  -0.006  1.00 20.00     0.061 C 
HETATM    2  C9  UNL     1     -32.490   5.216   0.934  1.00 20.00     0.159 C 
HETATM    3  N11 UNL     1     -34.226   4.179  -0.749  1.00 20.00    -0.197 NA
ENDROOT
BRANCH   2   4
HETATM    4  C10 UNL     1     -33.114   6.325   1.790  1.00 20.00     0.233 C 
HETATM    5  C8  UNL     1     -32.168   7.517   1.908  1.00 20.00     0.044 C 
BRANCH   4   6
HETATM    6  N12 UNL     1     -33.455   5.833   3.116  1.00 20.00     0.102 N 
HETATM    7  C4  UNL     1     -33.635   4.384   3.143  1.00 20.00     0.274 C 
HETATM    8  C2  UNL     1     -34.185   4.167   4.536  1.00 20.00     0.033 C 
HETATM    9  C3  UNL     1     -35.148   5.331   4.718  1.00 20.00     0.043 C 
HETATM   10  C5  UNL     1     -34.630   6.442   3.774  1.00 20.00     0.153 C 
HETATM   11  C6  UNL     1     -34.151   7.651   4.591  1.00 20.00     0.049 C 
HETATM   12  C7  UNL     1     -35.762   6.886   2.829  1.00 20.00     0.049 C 
ENDBRANCH   4   6
ENDBRANCH   2   4
TORSDOF 2
ENDMDL
MODEL 6
REMARK VINA RESULT:       2.3      1.094      1.704
REMARK  2 active torsions:
REMARK  status: ('A' for Active; 'I' for Inactive)
REMARK    1  A    between atoms: C9_9  and  C10_10 
REMARK    2  A    between atoms: C10_10  and  N12_12 
ROOT
HETATM    1  C1  UNL     1     -34.371   4.538   4.227  1.00 20.00     0.061 C 
HETATM    2  C9  UNL     1     -34.933   5.848   3.865  1.00 20.00     0.159 C 
HETATM    3  N11 UNL     1     -33.930   3.503   4.513  1.00 20.00    -0.197 NA
ENDROOT
BRANCH   2   4
HETATM    4  C10 UNL     1     -33.842   6.912   3.701  1.00 20.00     0.233 C 
HETATM    5  C8  UNL     1     -34.394   8.305   3.991  1.00 20.00     0.044 C 
BRANCH   4   6
HETATM    6  N12 UNL     1     -33.272   6.876   2.364  1.00 20.00     0.102 N 
HETATM    7  C4  UNL     1     -32.715   5.568   2.031  1.00 20.00     0.274 C 
HETATM    8  C2  UNL     1     -32.012   5.856   0.722  1.00 20.00     0.033 C 
HETATM    9  C3  UNL     1     -31.377   7.219   0.957  1.00 20.00     0.043 C 
HETATM   10  C5  UNL     1     -32.247   7.893   2.045  1.00 20.00     0.153 C 
HETATM   11  C6  UNL     1     -32.956   9.126   1.466  1.00 20.00     0.049 C 
HETATM   12  C7  UNL     1     -31.357   8.327   3.223  1.00 20.00     0.049 C 
ENDBRANCH   4   6
ENDBRANCH   2   4
TORSDOF 2
ENDMDL
MODEL 7
REMARK VINA RESULT:       2.4      1.914      4.391
REMARK  2 active torsions:
REMARK  status: ('A' for Active; 'I' for Inactive)
REMARK    1  A    between atoms: C9_9  and  C10_10 
REMARK    2  A    between atoms: C10_10  and  N12_12 
ROOT
HETATM    1  C1  UNL     1     -32.042   8.785   0.719  1.00 20.00     0.061 C 
HETATM    2  C9  UNL     1     -31.537   7.549   1.336  1.00 20.00     0.159 C 
HETATM    3  N11 UNL     1     -32.438   9.761   0.232  1.00 20.00    -0.197 NA
ENDROOT
BRANCH   2   4
HETATM    4  C10 UNL     1     -32.676   6.654   1.838  1.00 20.00     0.233 C 
HETATM    5  C8  UNL     1     -33.616   6.279   0.695  1.00 20.00     0.044 C 
BRANCH   4   6
HETATM    6  N12 UNL     1     -33.426   7.306   2.899  1.00 20.00     0.102 N 
HETATM    7  C4  UNL     1     -32.559   7.988   3.856  1.00 20.00     0.274 C 
HETATM    8  C2  UNL     1     -33.541   8.377   4.940  1.00 20.00     0.033 C 
HETATM    9  C3  UNL     1     -34.443   7.157   5.050  1.00 20.00     0.043 C 
HETATM   10  C5  UNL     1     -34.368   6.466   3.668  1.00 20.00     0.153 C 
HETATM   11  C6  UNL     1     -35.738   6.520   2.975  1.00 20.00     0.049 C 
HETATM   12  C7  UNL     1     -33.949   4.996   3.848  1.00 20.00     0.049 C 
ENDBRANCH   4   6
ENDBRANCH   2   4
TORSDOF 2
ENDMDL
MODEL 8
REMARK VINA RESULT:       2.5      1.486      3.464
REMARK  2 active torsions:
REMARK  status: ('A' for Active; 'I' for Inactive)
REMARK    1  A    between atoms: C9_9  and  C10_10 
REMARK    2  A    between atoms: C10_10  and  N12_12 
ROOT
HETATM    1  C1  UNL     1     -36.381   6.598   3.269  1.00 20.00     0.061 C 
HETATM    2  C9  UNL     1     -35.260   6.158   4.114  1.00 20.00     0.159 C 
HETATM    3  N11 UNL     1     -37.266   6.946   2.605  1.00 20.00    -0.197 NA
ENDROOT
BRANCH   2   4
HETATM    4  C10 UNL     1     -34.243   5.324   3.327  1.00 20.00     0.233 C 
HETATM    5  C8  UNL     1     -33.786   4.116   4.139  1.00 20.00     0.044 C 
BRANCH   4   6
HETATM    6  N12 UNL     1     -33.092   6.126   2.945  1.00 20.00     0.102 N 
HETATM    7  C4  UNL     1     -33.248   7.532   3.308  1.00 20.00     0.274 C 
HETATM    8  C2  UNL     1     -32.054   8.162   2.622  1.00 20.00     0.033 C 
HETATM    9  C3  UNL     1     -31.997   7.440   1.284  1.00 20.00     0.043 C 
HETATM   10  C5  UNL     1     -32.679   6.073   1.526  1.00 20.00     0.153 C 
HETATM   11  C6  UNL     1     -31.658   4.937   1.364  1.00 20.00     0.049 C 
HETATM   12  C7  UNL     1     -33.820   5.877   0.512  1.00 20.00     0.049 C 
ENDBRANCH   4   6
ENDBRANCH   2   4
TORSDOF 2
ENDMDL
MODEL 9
REMARK VINA RESULT:       2.5      1.652      4.370
REMARK  2 active torsions:
REMARK  status: ('A' for Active; 'I' for Inactive)
REMARK    1  A    between atoms: C9_9  and  C10_10 
REMARK    2  A    between atoms: C10_10  and  N12_12 
ROOT
HETATM    1  C1  UNL     1     -32.334   8.866   0.967  1.00 20.00     0.061 C 
HETATM    2  C9  UNL     1     -32.343   8.117   2.232  1.00 20.00     0.159 C 
HETATM    3  N11 UNL     1     -32.327   9.460  -0.031  1.00 20.00    -0.197 NA
ENDROOT
BRANCH   2   4
HETATM    4  C10 UNL     1     -32.528   6.612   2.005  1.00 20.00     0.233 C 
HETATM    5  C8  UNL     1     -33.404   6.352   0.783  1.00 20.00     0.044 C 
BRANCH   4   6
HETATM    6  N12 UNL     1     -33.110   5.974   3.174  1.00 20.00     0.102 N 
HETATM    7  C4  UNL     1     -33.351   4.548   2.968  1.00 20.00     0.274 C 
HETATM    8  C2  UNL     1     -34.139   4.185   4.209  1.00 20.00     0.033 C 
HETATM    9  C3  UNL     1     -35.070   5.374   4.393  1.00 20.00     0.043 C 
HETATM   10  C5  UNL     1     -34.354   6.564   3.711  1.00 20.00     0.153 C 
HETATM   11  C6  UNL     1     -33.972   7.622   4.757  1.00 20.00     0.049 C 
HETATM   12  C7  UNL     1     -35.289   7.200   2.667  1.00 20.00     0.049 C 
ENDBRANCH   4   6
ENDBRANCH   2   4
TORSDOF 2
ENDMDL
