MODEL 1
REMARK VINA RESULT:      -1.9      0.000      0.000
REMARK  3 active torsions:
REMARK  status: ('A' for Active; 'I' for Inactive)
REMARK    1  A    between atoms: C4_4  and  C6_6 
REMARK    2  A    between atoms: C4_4  and  C7_7 
REMARK    3  A    between atoms: C5_5  and  C6_6 
ROOT
HETATM    1  C1  UNL     1     -32.340   9.095   0.948  1.00 20.00     0.065 C 
HETATM    2  C6  UNL     1     -32.334   8.056   1.997  1.00 20.00     0.107 C 
HETATM    3  N8  UNL     1     -32.342   9.913   0.125  1.00 20.00    -0.197 NA
ENDROOT
BRANCH   2   4
HETATM    4  C4  UNL     1     -33.768   7.684   2.430  1.00 20.00     0.024 C 
BRANCH   4   5
HETATM    5  C7  UNL     1     -33.885   7.021   3.821  1.00 20.00    -0.021 C 
HETATM    6  C2  UNL     1     -33.694   8.079   4.912  1.00 20.00     0.009 C 
HETATM    7  C3  UNL     1     -35.224   6.312   4.024  1.00 20.00     0.009 C 
ENDBRANCH   4   5
ENDBRANCH   2   4
BRANCH   2   8
HETATM    8  C5  UNL     1     -31.527   6.828   1.540  1.00 20.00     0.133 C 
HETATM    9 CL9  UNL     1     -32.532   5.394   1.202  1.00 20.00    -0.129 Cl
ENDBRANCH   2   8
TORSDOF 3
ENDMDL
MODEL 2
REMARK VINA RESULT:      -1.8      2.371      2.914
REMARK  3 active torsions:
REMARK  status: ('A' for Active; 'I' for Inactive)
REMARK    1  A    between atoms: C4_4  and  C6_6 
REMARK    2  A    between atoms: C4_4  and  C7_7 
REMARK    3  A    between atoms: C5_5  and  C6_6 
ROOT
HETATM    1  C1  UNL     1     -32.144   5.443   0.932  1.00 20.00     0.065 C 
HETATM    2  C6  UNL     1     -32.788   6.564   1.645  1.00 20.00     0.107 C 
HETATM    3  N8  UNL     1     -31.639   4.563   0.369  1.00 20.00    -0.197 NA
ENDROOT
BRANCH   2   4
HETATM    4  C4  UNL     1     -33.295   6.130   3.037  1.00 20.00     0.024 C 
BRANCH   4   5
HETATM    5  C7  UNL     1     -34.386   7.035   3.651  1.00 20.00    -0.021 C 
HETATM    6  C2  UNL     1     -35.524   6.167   4.200  1.00 20.00     0.009 C 
HETATM    7  C3  UNL     1     -33.847   7.934   4.764  1.00 20.00     0.009 C 
ENDBRANCH   4   5
ENDBRANCH   2   4
BRANCH   2   8
HETATM    8  C5  UNL     1     -31.841   7.774   1.721  1.00 20.00     0.133 C 
HETATM    9 CL9  UNL     1     -32.365   9.159   0.727  1.00 20.00    -0.129 Cl
ENDBRANCH   2   8
TORSDOF 3
ENDMDL
MODEL 3
REMARK VINA RESULT:      -1.5      2.466      2.915
REMARK  3 active torsions:
REMARK  status: ('A' for Active; 'I' for Inactive)
REMARK    1  A    between atoms: C4_4  and  C6_6 
REMARK    2  A    between atoms: C4_4  and  C7_7 
REMARK    3  A    between atoms: C5_5  and  C6_6 
ROOT
HETATM    1  C1  UNL     1     -32.179   5.771   1.267  1.00 20.00     0.065 C 
HETATM    2  C6  UNL     1     -32.802   6.994   1.812  1.00 20.00     0.107 C 
HETATM    3  N8  UNL     1     -31.691   4.811   0.836  1.00 20.00    -0.197 NA
ENDROOT
BRANCH   2   4
HETATM    4  C4  UNL     1     -33.315   6.771   3.250  1.00 20.00     0.024 C 
BRANCH   4   5
HETATM    5  C7  UNL     1     -34.442   5.723   3.391  1.00 20.00    -0.021 C 
HETATM    6  C2  UNL     1     -33.876   4.441   4.010  1.00 20.00     0.009 C 
HETATM    7  C3  UNL     1     -35.611   6.226   4.239  1.00 20.00     0.009 C 
ENDBRANCH   4   5
ENDBRANCH   2   4
BRANCH   2   8
HETATM    8  C5  UNL     1     -31.831   8.184   1.719  1.00 20.00     0.133 C 
HETATM    9 CL9  UNL     1     -32.349   9.443   0.566  1.00 20.00    -0.129 Cl
ENDBRANCH   2   8
TORSDOF 3
ENDMDL
MODEL 4
REMARK VINA RESULT:      -1.5      2.309      3.905
REMARK  3 active torsions:
REMARK  status: ('A' for Active; 'I' for Inactive)
REMARK    1  A    between atoms: C4_4  and  C6_6 
REMARK    2  A    between atoms: C4_4  and  C7_7 
REMARK    3  A    between atoms: C5_5  and  C6_6 
ROOT
HETATM    1  C1  UNL     1     -33.856   7.585   4.445  1.00 20.00     0.065 C 
HETATM    2  C6  UNL     1     -34.731   6.750   3.597  1.00 20.00     0.107 C 
HETATM    3  N8  UNL     1     -33.171   8.244   5.111  1.00 20.00    -0.197 NA
ENDROOT
BRANCH   2   4
HETATM    4  C4  UNL     1     -34.072   6.445   2.235  1.00 20.00     0.024 C 
BRANCH   4   5
HETATM    5  C7  UNL     1     -32.535   6.603   2.198  1.00 20.00    -0.021 C 
HETATM    6  C2  UNL     1     -31.921   5.460   1.383  1.00 20.00     0.009 C 
HETATM    7  C3  UNL     1     -32.096   7.944   1.609  1.00 20.00     0.009 C 
ENDBRANCH   4   5
ENDBRANCH   2   4
BRANCH   2   8
HETATM    8  C5  UNL     1     -35.145   5.469   4.343  1.00 20.00     0.133 C 
HETATM    9 CL9  UNL     1     -34.026   4.102   4.096  1.00 20.00    -0.129 Cl
ENDBRANCH   2   8
TORSDOF 3
ENDMDL
MODEL 5
REMARK VINA RESULT:      -1.2      2.536      4.036
REMARK  3 active torsions:
REMARK  status: ('A' for Active; 'I' for Inactive)
REMARK    1  A    between atoms: C4_4  and  C6_6 
REMARK    2  A    between atoms: C4_4  and  C7_7 
REMARK    3  A    between atoms: C5_5  and  C6_6 
ROOT
HETATM    1  C1  UNL     1     -34.166   7.321   4.243  1.00 20.00     0.065 C 
HETATM    2  C6  UNL     1     -34.324   6.067   3.478  1.00 20.00     0.107 C 
HETATM    3  N8  UNL     1     -34.044   8.307   4.842  1.00 20.00    -0.197 NA
ENDROOT
BRANCH   2   4
HETATM    4  C4  UNL     1     -32.992   5.625   2.837  1.00 20.00     0.024 C 
BRANCH   4   5
HETATM    5  C7  UNL     1     -32.733   6.171   1.415  1.00 20.00    -0.021 C 
HETATM    6  C2  UNL     1     -31.955   7.488   1.503  1.00 20.00     0.009 C 
HETATM    7  C3  UNL     1     -31.966   5.182   0.536  1.00 20.00     0.009 C 
ENDBRANCH   4   5
ENDBRANCH   2   4
BRANCH   2   8
HETATM    8  C5  UNL     1     -34.938   4.967   4.362  1.00 20.00     0.133 C 
HETATM    9 CL9  UNL     1     -33.903   3.524   4.533  1.00 20.00    -0.129 Cl
ENDBRANCH   2   8
TORSDOF 3
ENDMDL
MODEL 6
REMARK VINA RESULT:      -1.2      2.269      3.929
REMARK  3 active torsions:
REMARK  status: ('A' for Active; 'I' for Inactive)
REMARK    1  A    between atoms: C4_4  and  C6_6 
REMARK    2  A    between atoms: C4_4  and  C7_7 
REMARK    3  A    between atoms: C5_5  and  C6_6 
ROOT
HETATM    1  C1  UNL     1     -32.878   6.264   1.843  1.00 20.00     0.065 C 
HETATM    2  C6  UNL     1     -32.672   7.316   2.859  1.00 20.00     0.107 C 
HETATM    3  N8  UNL     1     -33.039   5.435   1.047  1.00 20.00    -0.197 NA
ENDROOT
BRANCH   2   4
HETATM    4  C4  UNL     1     -31.927   8.532   2.267  1.00 20.00     0.024 C 
BRANCH   4   5
HETATM    5  C7  UNL     1     -32.337   8.917   0.828  1.00 20.00    -0.021 C 
HETATM    6  C2  UNL     1     -32.789  10.381   0.796  1.00 20.00     0.009 C 
HETATM    7  C3  UNL     1     -31.206   8.710  -0.181  1.00 20.00     0.009 C 
ENDBRANCH   4   5
ENDBRANCH   2   4
BRANCH   2   8
HETATM    8  C5  UNL     1     -34.009   7.712   3.508  1.00 20.00     0.133 C 
HETATM    9 CL9  UNL     1     -35.059   6.322   3.893  1.00 20.00    -0.129 Cl
ENDBRANCH   2   8
TORSDOF 3
ENDMDL
MODEL 7
REMARK VINA RESULT:      -1.2      3.427      4.712
REMARK  3 active torsions:
REMARK  status: ('A' for Active; 'I' for Inactive)
REMARK    1  A    between atoms: C4_4  and  C6_6 
REMARK    2  A    between atoms: C4_4  and  C7_7 
REMARK    3  A    between atoms: C5_5  and  C6_6 
ROOT
HETATM    1  C1  UNL     1     -33.799   4.319   3.976  1.00 20.00     0.065 C 
HETATM    2  C6  UNL     1     -33.695   5.678   3.406  1.00 20.00     0.107 C 
HETATM    3  N8  UNL     1     -33.878   3.252   4.425  1.00 20.00    -0.197 NA
ENDROOT
BRANCH   2   4
HETATM    4  C4  UNL     1     -33.787   5.652   1.866  1.00 20.00     0.024 C 
BRANCH   4   5
HETATM    5  C7  UNL     1     -32.509   6.101   1.122  1.00 20.00    -0.021 C 
HETATM    6  C2  UNL     1     -31.982   7.398   1.745  1.00 20.00     0.009 C 
HETATM    7  C3  UNL     1     -31.410   5.039   1.147  1.00 20.00     0.009 C 
ENDBRANCH   4   5
ENDBRANCH   2   4
BRANCH   2   8
HETATM    8  C5  UNL     1     -34.743   6.611   4.036  1.00 20.00     0.133 C 
HETATM    9 CL9  UNL     1     -34.052   8.104   4.726  1.00 20.00    -0.129 Cl
ENDBRANCH   2   8
TORSDOF 3
ENDMDL
MODEL 8
REMARK VINA RESULT:      -0.9      2.476      3.195
REMARK  3 active torsions:
REMARK  status: ('A' for Active; 'I' for Inactive)
REMARK    1  A    between atoms: C4_4  and  C6_6 
REMARK    2  A    between atoms: C4_4  and  C7_7 
REMARK    3  A    between atoms: C5_5  and  C6_6 
ROOT
HETATM    1  C1  UNL     1     -32.711   7.479   2.132  1.00 20.00     0.065 C 
HETATM    2  C6  UNL     1     -33.700   6.659   2.861  1.00 20.00     0.107 C 
HETATM    3  N8  UNL     1     -31.936   8.123   1.558  1.00 20.00    -0.197 NA
ENDROOT
BRANCH   2   4
HETATM    4  C4  UNL     1     -33.114   5.287   3.255  1.00 20.00     0.024 C 
BRANCH   4   5
HETATM    5  C7  UNL     1     -34.140   4.262   3.789  1.00 20.00    -0.021 C 
HETATM    6  C2  UNL     1     -33.426   3.229   4.666  1.00 20.00     0.009 C 
HETATM    7  C3  UNL     1     -35.266   4.919   4.588  1.00 20.00     0.009 C 
ENDBRANCH   4   5
ENDBRANCH   2   4
BRANCH   2   8
HETATM    8  C5  UNL     1     -34.251   7.427   4.075  1.00 20.00     0.133 C 
HETATM    9 CL9  UNL     1     -32.994   8.262   5.027  1.00 20.00    -0.129 Cl
ENDBRANCH   2   8
TORSDOF 3
ENDMDL
MODEL 9
REMARK VINA RESULT:      -0.8      2.081      3.865
REMARK  3 active torsions:
REMARK  status: ('A' for Active; 'I' for Inactive)
REMARK    1  A    between atoms: C4_4  and  C6_6 
REMARK    2  A    between atoms: C4_4  and  C7_7 
REMARK    3  A    between atoms: C5_5  and  C6_6 
ROOT
HETATM    1  C1  UNL     1     -33.723   7.234   3.196  1.00 20.00     0.065 C 
HETATM    2  C6  UNL     1     -32.980   7.133   1.923  1.00 20.00     0.107 C 
HETATM    3  N8  UNL     1     -34.309   7.312   4.194  1.00 20.00    -0.197 NA
ENDROOT
BRANCH   2   4
HETATM    4  C4  UNL     1     -32.074   8.363   1.701  1.00 20.00     0.024 C 
BRANCH   4   5
HETATM    5  C7  UNL     1     -32.330   9.140   0.390  1.00 20.00    -0.021 C 
HETATM    6  C2  UNL     1     -32.715  10.586   0.716  1.00 20.00     0.009 C 
HETATM    7  C3  UNL     1     -31.119   9.132  -0.544  1.00 20.00     0.009 C 
ENDBRANCH   4   5
ENDBRANCH   2   4
BRANCH   2   8
HETATM    8  C5  UNL     1     -32.195   5.812   1.857  1.00 20.00     0.133 C 
HETATM    9 CL9  UNL     1     -32.672   4.761   0.497  1.00 20.00    -0.129 Cl
ENDBRANCH   2   8
TORSDOF 3
ENDMDL
