MODEL 1
REMARK VINA RESULT:      -2.4      0.000      0.000
REMARK  3 active torsions:
REMARK  status: ('A' for Active; 'I' for Inactive)
REMARK    1  A    between atoms: C6_6  and  N10_10 
REMARK    2  A    between atoms: C7_7  and  C8_8 
REMARK    3  A    between atoms: C8_8  and  N10_10 
ROOT
HETATM    1  C1  UNL     1     -33.310   3.198   4.784  1.00 20.00     0.013 C 
HETATM    2  C2  UNL     1     -33.766   4.098   4.133  1.00 20.00    -0.087 C 
HETATM    3  C6  UNL     1     -34.327   5.194   3.339  1.00 20.00     0.364 C 
ENDROOT
BRANCH   3   4
HETATM    4  N10 UNL     1     -33.447   6.368   3.381  1.00 20.00     0.100 N 
HETATM    5  C5  UNL     1     -34.115   7.465   4.091  1.00 20.00     0.311 C 
BRANCH   4   6
HETATM    6  C8  UNL     1     -33.055   6.772   2.050  1.00 20.00     0.232 C 
HETATM    7  C4  UNL     1     -32.458   5.584   1.300  1.00 20.00     0.044 C 
BRANCH   6   8
HETATM    8  C7  UNL     1     -32.061   7.939   2.101  1.00 20.00     0.159 C 
HETATM    9  C3  UNL     1     -32.273   8.889   0.997  1.00 20.00     0.061 C 
HETATM   10  N9  UNL     1     -32.439   9.640   0.127  1.00 20.00    -0.197 NA
ENDBRANCH   6   8
ENDBRANCH   4   6
ENDBRANCH   3   4
TORSDOF 3
ENDMDL
MODEL 2
REMARK VINA RESULT:      -2.1      1.334      4.834
REMARK  3 active torsions:
REMARK  status: ('A' for Active; 'I' for Inactive)
REMARK    1  A    between atoms: C6_6  and  N10_10 
REMARK    2  A    between atoms: C7_7  and  C8_8 
REMARK    3  A    between atoms: C8_8  and  N10_10 
ROOT
HETATM    1  C1  UNL     1     -32.513   9.889   0.151  1.00 20.00     0.013 C 
HETATM    2  C2  UNL     1     -32.261   9.060   0.982  1.00 20.00    -0.087 C 
HETATM    3  C6  UNL     1     -31.948   8.049   1.996  1.00 20.00     0.364 C 
ENDROOT
BRANCH   3   4
HETATM    4  N10 UNL     1     -33.180   7.479   2.555  1.00 20.00     0.100 N 
HETATM    5  C5  UNL     1     -33.443   8.062   3.877  1.00 20.00     0.311 C 
BRANCH   4   6
HETATM    6  C8  UNL     1     -33.098   6.037   2.631  1.00 20.00     0.232 C 
HETATM    7  C4  UNL     1     -33.049   5.445   1.225  1.00 20.00     0.044 C 
BRANCH   6   8
HETATM    8  C7  UNL     1     -34.276   5.461   3.425  1.00 20.00     0.159 C 
HETATM    9  C3  UNL     1     -33.942   4.168   4.043  1.00 20.00     0.061 C 
HETATM   10  N9  UNL     1     -33.680   3.147   4.531  1.00 20.00    -0.197 NA
ENDBRANCH   6   8
ENDBRANCH   4   6
ENDBRANCH   3   4
TORSDOF 3
ENDMDL
MODEL 3
REMARK VINA RESULT:      -1.7      1.775      4.897
REMARK  3 active torsions:
REMARK  status: ('A' for Active; 'I' for Inactive)
REMARK    1  A    between atoms: C6_6  and  N10_10 
REMARK    2  A    between atoms: C7_7  and  C8_8 
REMARK    3  A    between atoms: C8_8  and  N10_10 
ROOT
HETATM    1  C1  UNL     1     -32.534  10.275  -0.190  1.00 20.00     0.013 C 
HETATM    2  C2  UNL     1     -32.277   9.307   0.472  1.00 20.00    -0.087 C 
HETATM    3  C6  UNL     1     -31.959   8.124   1.276  1.00 20.00     0.364 C 
ENDROOT
BRANCH   3   4
HETATM    4  N10 UNL     1     -32.590   8.213   2.599  1.00 20.00     0.100 N 
HETATM    5  C5  UNL     1     -31.634   8.757   3.571  1.00 20.00     0.311 C 
BRANCH   4   6
HETATM    6  C8  UNL     1     -33.088   6.924   3.025  1.00 20.00     0.232 C 
HETATM    7  C4  UNL     1     -33.145   5.970   1.834  1.00 20.00     0.044 C 
BRANCH   6   8
HETATM    8  C7  UNL     1     -34.466   7.058   3.683  1.00 20.00     0.159 C 
HETATM    9  C3  UNL     1     -34.964   5.765   4.182  1.00 20.00     0.061 C 
HETATM   10  N9  UNL     1     -35.358   4.747   4.576  1.00 20.00    -0.197 NA
ENDBRANCH   6   8
ENDBRANCH   4   6
ENDBRANCH   3   4
TORSDOF 3
ENDMDL
MODEL 4
REMARK VINA RESULT:      -1.7      1.413      1.766
REMARK  3 active torsions:
REMARK  status: ('A' for Active; 'I' for Inactive)
REMARK    1  A    between atoms: C6_6  and  N10_10 
REMARK    2  A    between atoms: C7_7  and  C8_8 
REMARK    3  A    between atoms: C8_8  and  N10_10 
ROOT
HETATM    1  C1  UNL     1     -35.437   5.317   4.375  1.00 20.00     0.013 C 
HETATM    2  C2  UNL     1     -34.927   6.365   4.087  1.00 20.00    -0.087 C 
HETATM    3  C6  UNL     1     -34.308   7.647   3.738  1.00 20.00     0.364 C 
ENDROOT
BRANCH   3   4
HETATM    4  N10 UNL     1     -32.920   7.450   3.302  1.00 20.00     0.100 N 
HETATM    5  C5  UNL     1     -32.076   8.529   3.829  1.00 20.00     0.311 C 
BRANCH   4   6
HETATM    6  C8  UNL     1     -32.833   7.379   1.860  1.00 20.00     0.232 C 
HETATM    7  C4  UNL     1     -32.557   5.941   1.427  1.00 20.00     0.044 C 
BRANCH   6   8
HETATM    8  C7  UNL     1     -31.750   8.326   1.329  1.00 20.00     0.159 C 
HETATM    9  C3  UNL     1     -32.308   9.345   0.426  1.00 20.00     0.061 C 
HETATM   10  N9  UNL     1     -32.747  10.150  -0.286  1.00 20.00    -0.197 NA
ENDBRANCH   6   8
ENDBRANCH   4   6
ENDBRANCH   3   4
TORSDOF 3
ENDMDL
MODEL 5
REMARK VINA RESULT:      -1.6      1.713      2.464
REMARK  3 active torsions:
REMARK  status: ('A' for Active; 'I' for Inactive)
REMARK    1  A    between atoms: C6_6  and  N10_10 
REMARK    2  A    between atoms: C7_7  and  C8_8 
REMARK    3  A    between atoms: C8_8  and  N10_10 
ROOT
HETATM    1  C1  UNL     1     -35.463   5.939   4.134  1.00 20.00     0.013 C 
HETATM    2  C2  UNL     1     -34.550   6.644   3.802  1.00 20.00    -0.087 C 
HETATM    3  C6  UNL     1     -33.435   7.507   3.401  1.00 20.00     0.364 C 
ENDROOT
BRANCH   3   4
HETATM    4  N10 UNL     1     -32.995   7.185   2.038  1.00 20.00     0.100 N 
HETATM    5  C5  UNL     1     -32.964   5.728   1.856  1.00 20.00     0.311 C 
BRANCH   4   6
HETATM    6  C8  UNL     1     -31.704   7.771   1.756  1.00 20.00     0.232 C 
HETATM    7  C4  UNL     1     -31.333   8.763   2.856  1.00 20.00     0.044 C 
BRANCH   6   8
HETATM    8  C7  UNL     1     -31.700   8.453   0.383  1.00 20.00     0.159 C 
HETATM    9  C3  UNL     1     -32.404   9.745   0.409  1.00 20.00     0.061 C 
HETATM   10  N9  UNL     1     -32.960  10.764   0.429  1.00 20.00    -0.197 NA
ENDBRANCH   6   8
ENDBRANCH   4   6
ENDBRANCH   3   4
TORSDOF 3
ENDMDL
MODEL 6
REMARK VINA RESULT:      -1.4      1.574      4.814
REMARK  3 active torsions:
REMARK  status: ('A' for Active; 'I' for Inactive)
REMARK    1  A    between atoms: C6_6  and  N10_10 
REMARK    2  A    between atoms: C7_7  and  C8_8 
REMARK    3  A    between atoms: C8_8  and  N10_10 
ROOT
HETATM    1  C1  UNL     1     -32.387   9.911   0.310  1.00 20.00     0.013 C 
HETATM    2  C2  UNL     1     -32.305   8.981   1.065  1.00 20.00    -0.087 C 
HETATM    3  C6  UNL     1     -32.201   7.844   1.984  1.00 20.00     0.364 C 
ENDROOT
BRANCH   3   4
HETATM    4  N10 UNL     1     -33.326   7.836   2.927  1.00 20.00     0.100 N 
HETATM    5  C5  UNL     1     -32.830   8.032   4.295  1.00 20.00     0.311 C 
BRANCH   4   6
HETATM    6  C8  UNL     1     -34.086   6.611   2.821  1.00 20.00     0.232 C 
HETATM    7  C4  UNL     1     -35.049   6.493   3.999  1.00 20.00     0.044 C 
BRANCH   6   8
HETATM    8  C7  UNL     1     -33.156   5.393   2.753  1.00 20.00     0.159 C 
HETATM    9  C3  UNL     1     -33.583   4.326   3.671  1.00 20.00     0.061 C 
HETATM   10  N9  UNL     1     -33.918   3.482   4.395  1.00 20.00    -0.197 NA
ENDBRANCH   6   8
ENDBRANCH   4   6
ENDBRANCH   3   4
TORSDOF 3
ENDMDL
MODEL 7
REMARK VINA RESULT:      -1.4      1.610      4.804
REMARK  3 active torsions:
REMARK  status: ('A' for Active; 'I' for Inactive)
REMARK    1  A    between atoms: C6_6  and  N10_10 
REMARK    2  A    between atoms: C7_7  and  C8_8 
REMARK    3  A    between atoms: C8_8  and  N10_10 
ROOT
HETATM    1  C1  UNL     1     -32.554   9.515   0.476  1.00 20.00     0.013 C 
HETATM    2  C2  UNL     1     -32.203   8.717   1.301  1.00 20.00    -0.087 C 
HETATM    3  C6  UNL     1     -31.770   7.744   2.308  1.00 20.00     0.364 C 
ENDROOT
BRANCH   3   4
HETATM    4  N10 UNL     1     -32.832   6.765   2.573  1.00 20.00     0.100 N 
HETATM    5  C5  UNL     1     -33.296   6.181   1.309  1.00 20.00     0.311 C 
BRANCH   4   6
HETATM    6  C8  UNL     1     -33.926   7.369   3.299  1.00 20.00     0.232 C 
HETATM    7  C4  UNL     1     -33.413   7.975   4.603  1.00 20.00     0.044 C 
BRANCH   6   8
HETATM    8  C7  UNL     1     -35.034   6.345   3.572  1.00 20.00     0.159 C 
HETATM    9  C3  UNL     1     -34.488   5.052   4.016  1.00 20.00     0.061 C 
HETATM   10  N9  UNL     1     -34.059   4.031   4.365  1.00 20.00    -0.197 NA
ENDBRANCH   6   8
ENDBRANCH   4   6
ENDBRANCH   3   4
TORSDOF 3
ENDMDL
MODEL 8
REMARK VINA RESULT:      -1.2      1.085      1.848
REMARK  3 active torsions:
REMARK  status: ('A' for Active; 'I' for Inactive)
REMARK    1  A    between atoms: C6_6  and  N10_10 
REMARK    2  A    between atoms: C7_7  and  C8_8 
REMARK    3  A    between atoms: C8_8  and  N10_10 
ROOT
HETATM    1  C1  UNL     1     -32.918   2.776   5.168  1.00 20.00     0.013 C 
HETATM    2  C2  UNL     1     -33.480   3.525   4.416  1.00 20.00    -0.087 C 
HETATM    3  C6  UNL     1     -34.167   4.434   3.496  1.00 20.00     0.364 C 
ENDROOT
BRANCH   3   4
HETATM    4  N10 UNL     1     -34.375   5.746   4.122  1.00 20.00     0.100 N 
HETATM    5  C5  UNL     1     -35.733   6.224   3.835  1.00 20.00     0.311 C 
BRANCH   4   6
HETATM    6  C8  UNL     1     -33.383   6.698   3.675  1.00 20.00     0.232 C 
HETATM    7  C4  UNL     1     -33.836   8.117   4.012  1.00 20.00     0.044 C 
BRANCH   6   8
HETATM    8  C7  UNL     1     -33.121   6.553   2.171  1.00 20.00     0.159 C 
HETATM    9  C3  UNL     1     -32.297   7.654   1.649  1.00 20.00     0.061 C 
HETATM   10  N9  UNL     1     -31.646   8.522   1.236  1.00 20.00    -0.197 NA
ENDBRANCH   6   8
ENDBRANCH   4   6
ENDBRANCH   3   4
TORSDOF 3
ENDMDL
MODEL 9
REMARK VINA RESULT:      -0.5      1.627      4.805
REMARK  3 active torsions:
REMARK  status: ('A' for Active; 'I' for Inactive)
REMARK    1  A    between atoms: C6_6  and  N10_10 
REMARK    2  A    between atoms: C7_7  and  C8_8 
REMARK    3  A    between atoms: C8_8  and  N10_10 
ROOT
HETATM    1  C1  UNL     1     -31.938   8.526   0.837  1.00 20.00     0.013 C 
HETATM    2  C2  UNL     1     -32.252   8.036   1.887  1.00 20.00    -0.087 C 
HETATM    3  C6  UNL     1     -32.634   7.441   3.171  1.00 20.00     0.364 C 
ENDROOT
BRANCH   3   4
HETATM    4  N10 UNL     1     -33.191   6.097   2.974  1.00 20.00     0.100 N 
HETATM    5  C5  UNL     1     -33.019   5.688   1.575  1.00 20.00     0.311 C 
BRANCH   4   6
HETATM    6  C8  UNL     1     -34.583   6.050   3.361  1.00 20.00     0.232 C 
HETATM    7  C4  UNL     1     -35.035   7.426   3.845  1.00 20.00     0.044 C 
BRANCH   6   8
HETATM    8  C7  UNL     1     -34.816   4.988   4.443  1.00 20.00     0.159 C 
HETATM    9  C3  UNL     1     -33.864   3.872   4.329  1.00 20.00     0.061 C 
HETATM   10  N9  UNL     1     -33.114   2.990   4.240  1.00 20.00    -0.197 NA
ENDBRANCH   6   8
ENDBRANCH   4   6
ENDBRANCH   3   4
TORSDOF 3
ENDMDL
