MODEL 1
REMARK VINA RESULT:      -2.6      0.000      0.000
REMARK  3 active torsions:
REMARK  status: ('A' for Active; 'I' for Inactive)
REMARK    1  A    between atoms: C3_3  and  C4_4 
REMARK    2  A    between atoms: C4_4  and  C6_6 
REMARK    3  A    between atoms: C5_5  and  C6_6 
ROOT
HETATM    1  C1  UNL     1     -32.779   6.071   1.705  1.00 20.00     0.065 C 
HETATM    2  C6  UNL     1     -33.141   7.416   2.196  1.00 20.00     0.106 C 
HETATM    3  N7  UNL     1     -32.497   5.015   1.318  1.00 20.00    -0.197 NA
ENDROOT
BRANCH   2   4
HETATM    4  C4  UNL     1     -31.992   8.421   1.983  1.00 20.00     0.020 C 
BRANCH   4   5
HETATM    5  C3  UNL     1     -31.874   8.881   0.525  1.00 20.00    -0.003 C 
HETATM    6  C2  UNL     1     -32.588  10.205   0.302  1.00 20.00     0.005 C 
ENDBRANCH   4   5
ENDBRANCH   2   4
BRANCH   2   7
HETATM    7  C5  UNL     1     -33.596   7.353   3.664  1.00 20.00     0.133 C 
HETATM    8 CL8  UNL     1     -35.112   6.442   3.900  1.00 20.00    -0.129 Cl
ENDBRANCH   2   7
TORSDOF 3
ENDMDL
MODEL 2
REMARK VINA RESULT:      -2.2      3.246      4.909
REMARK  3 active torsions:
REMARK  status: ('A' for Active; 'I' for Inactive)
REMARK    1  A    between atoms: C3_3  and  C4_4 
REMARK    2  A    between atoms: C4_4  and  C6_6 
REMARK    3  A    between atoms: C5_5  and  C6_6 
ROOT
HETATM    1  C1  UNL     1     -33.924   7.368   4.215  1.00 20.00     0.065 C 
HETATM    2  C6  UNL     1     -34.294   6.219   3.365  1.00 20.00     0.106 C 
HETATM    3  N7  UNL     1     -33.634   8.272   4.883  1.00 20.00    -0.197 NA
ENDROOT
BRANCH   2   4
HETATM    4  C4  UNL     1     -34.592   4.966   4.211  1.00 20.00     0.020 C 
BRANCH   4   5
HETATM    5  C3  UNL     1     -33.748   3.756   3.791  1.00 20.00    -0.003 C 
HETATM    6  C2  UNL     1     -33.156   3.048   5.000  1.00 20.00     0.005 C 
ENDBRANCH   4   5
ENDBRANCH   2   4
BRANCH   2   7
HETATM    7  C5  UNL     1     -33.214   5.963   2.301  1.00 20.00     0.133 C 
HETATM    8 CL8  UNL     1     -32.311   7.429   1.834  1.00 20.00    -0.129 Cl
ENDBRANCH   2   7
TORSDOF 3
ENDMDL
MODEL 3
REMARK VINA RESULT:      -2.0      2.285      2.592
REMARK  3 active torsions:
REMARK  status: ('A' for Active; 'I' for Inactive)
REMARK    1  A    between atoms: C3_3  and  C4_4 
REMARK    2  A    between atoms: C4_4  and  C6_6 
REMARK    3  A    between atoms: C5_5  and  C6_6 
ROOT
HETATM    1  C1  UNL     1     -33.984   6.802   3.394  1.00 20.00     0.065 C 
HETATM    2  C6  UNL     1     -32.751   6.847   2.582  1.00 20.00     0.106 C 
HETATM    3  N7  UNL     1     -34.951   6.767   4.033  1.00 20.00    -0.197 NA
ENDROOT
BRANCH   2   4
HETATM    4  C4  UNL     1     -32.322   8.298   2.290  1.00 20.00     0.020 C 
BRANCH   4   5
HETATM    5  C3  UNL     1     -31.973   8.525   0.815  1.00 20.00    -0.003 C 
HETATM    6  C2  UNL     1     -32.449   9.888   0.336  1.00 20.00     0.005 C 
ENDBRANCH   4   5
ENDBRANCH   2   4
BRANCH   2   7
HETATM    7  C5  UNL     1     -32.918   6.017   1.298  1.00 20.00     0.133 C 
HETATM    8 CL8  UNL     1     -31.565   4.895   0.995  1.00 20.00    -0.129 Cl
ENDBRANCH   2   7
TORSDOF 3
ENDMDL
MODEL 4
REMARK VINA RESULT:      -2.0      2.095      3.461
REMARK  3 active torsions:
REMARK  status: ('A' for Active; 'I' for Inactive)
REMARK    1  A    between atoms: C3_3  and  C4_4 
REMARK    2  A    between atoms: C4_4  and  C6_6 
REMARK    3  A    between atoms: C5_5  and  C6_6 
ROOT
HETATM    1  C1  UNL     1     -32.386   6.259   1.601  1.00 20.00     0.065 C 
HETATM    2  C6  UNL     1     -32.230   7.627   2.135  1.00 20.00     0.106 C 
HETATM    3  N7  UNL     1     -32.508   5.184   1.183  1.00 20.00    -0.197 NA
ENDROOT
BRANCH   2   4
HETATM    4  C4  UNL     1     -33.554   8.157   2.720  1.00 20.00     0.020 C 
BRANCH   4   5
HETATM    5  C3  UNL     1     -33.915   7.498   4.056  1.00 20.00    -0.003 C 
HETATM    6  C2  UNL     1     -35.074   6.525   3.898  1.00 20.00     0.005 C 
ENDBRANCH   4   5
ENDBRANCH   2   4
BRANCH   2   7
HETATM    7  C5  UNL     1     -31.648   8.564   1.064  1.00 20.00     0.133 C 
HETATM    8 CL8  UNL     1     -32.730   9.916   0.635  1.00 20.00    -0.129 Cl
ENDBRANCH   2   7
TORSDOF 3
ENDMDL
MODEL 5
REMARK VINA RESULT:      -1.9      2.440      3.711
REMARK  3 active torsions:
REMARK  status: ('A' for Active; 'I' for Inactive)
REMARK    1  A    between atoms: C3_3  and  C4_4 
REMARK    2  A    between atoms: C4_4  and  C6_6 
REMARK    3  A    between atoms: C5_5  and  C6_6 
ROOT
HETATM    1  C1  UNL     1     -32.511   8.967   1.089  1.00 20.00     0.065 C 
HETATM    2  C6  UNL     1     -32.722   7.748   1.896  1.00 20.00     0.106 C 
HETATM    3  N7  UNL     1     -32.347   9.925   0.455  1.00 20.00    -0.197 NA
ENDROOT
BRANCH   2   4
HETATM    4  C4  UNL     1     -32.678   8.057   3.405  1.00 20.00     0.020 C 
BRANCH   4   5
HETATM    5  C3  UNL     1     -34.026   7.820   4.095  1.00 20.00    -0.003 C 
HETATM    6  C2  UNL     1     -34.602   6.459   3.734  1.00 20.00     0.005 C 
ENDBRANCH   4   5
ENDBRANCH   2   4
BRANCH   2   7
HETATM    7  C5  UNL     1     -31.721   6.653   1.493  1.00 20.00     0.133 C 
HETATM    8 CL8  UNL     1     -32.489   5.081   1.140  1.00 20.00    -0.129 Cl
ENDBRANCH   2   7
TORSDOF 3
ENDMDL
MODEL 6
REMARK VINA RESULT:      -1.8      2.197      2.697
REMARK  3 active torsions:
REMARK  status: ('A' for Active; 'I' for Inactive)
REMARK    1  A    between atoms: C3_3  and  C4_4 
REMARK    2  A    between atoms: C4_4  and  C6_6 
REMARK    3  A    between atoms: C5_5  and  C6_6 
ROOT
HETATM    1  C1  UNL     1     -33.908   4.144   3.982  1.00 20.00     0.065 C 
HETATM    2  C6  UNL     1     -34.089   5.370   3.178  1.00 20.00     0.106 C 
HETATM    3  N7  UNL     1     -33.767   3.181   4.612  1.00 20.00    -0.197 NA
ENDROOT
BRANCH   2   4
HETATM    4  C4  UNL     1     -32.734   5.951   2.726  1.00 20.00     0.020 C 
BRANCH   4   5
HETATM    5  C3  UNL     1     -32.844   6.762   1.430  1.00 20.00    -0.003 C 
HETATM    6  C2  UNL     1     -32.035   8.048   1.511  1.00 20.00     0.005 C 
ENDBRANCH   4   5
ENDBRANCH   2   4
BRANCH   2   7
HETATM    7  C5  UNL     1     -34.941   6.398   3.941  1.00 20.00     0.133 C 
HETATM    8 CL8  UNL     1     -34.008   7.798   4.532  1.00 20.00    -0.129 Cl
ENDBRANCH   2   7
TORSDOF 3
ENDMDL
MODEL 7
REMARK VINA RESULT:      -1.7      2.533      3.222
REMARK  3 active torsions:
REMARK  status: ('A' for Active; 'I' for Inactive)
REMARK    1  A    between atoms: C3_3  and  C4_4 
REMARK    2  A    between atoms: C4_4  and  C6_6 
REMARK    3  A    between atoms: C5_5  and  C6_6 
ROOT
HETATM    1  C1  UNL     1     -34.115   6.744   3.847  1.00 20.00     0.065 C 
HETATM    2  C6  UNL     1     -33.448   5.533   3.330  1.00 20.00     0.106 C 
HETATM    3  N7  UNL     1     -34.638   7.697   4.254  1.00 20.00    -0.197 NA
ENDROOT
BRANCH   2   4
HETATM    4  C4  UNL     1     -33.266   5.599   1.801  1.00 20.00     0.020 C 
BRANCH   4   5
HETATM    5  C3  UNL     1     -31.919   6.207   1.392  1.00 20.00    -0.003 C 
HETATM    6  C2  UNL     1     -31.924   7.720   1.548  1.00 20.00     0.005 C 
ENDBRANCH   4   5
ENDBRANCH   2   4
BRANCH   2   7
HETATM    7  C5  UNL     1     -34.200   4.268   3.775  1.00 20.00     0.133 C 
HETATM    8 CL8  UNL     1     -33.189   3.128   4.703  1.00 20.00    -0.129 Cl
ENDBRANCH   2   7
TORSDOF 3
ENDMDL
MODEL 8
REMARK VINA RESULT:      -1.7      3.167      3.717
REMARK  3 active torsions:
REMARK  status: ('A' for Active; 'I' for Inactive)
REMARK    1  A    between atoms: C3_3  and  C4_4 
REMARK    2  A    between atoms: C4_4  and  C6_6 
REMARK    3  A    between atoms: C5_5  and  C6_6 
ROOT
HETATM    1  C1  UNL     1     -33.693   4.267   3.933  1.00 20.00     0.065 C 
HETATM    2  C6  UNL     1     -33.554   5.654   3.444  1.00 20.00     0.106 C 
HETATM    3  N7  UNL     1     -33.801   3.178   4.319  1.00 20.00    -0.197 NA
ENDROOT
BRANCH   2   4
HETATM    4  C4  UNL     1     -34.827   6.478   3.721  1.00 20.00     0.020 C 
BRANCH   4   5
HETATM    5  C3  UNL     1     -34.517   7.931   4.101  1.00 20.00    -0.003 C 
HETATM    6  C2  UNL     1     -33.217   8.034   4.886  1.00 20.00     0.005 C 
ENDBRANCH   4   5
ENDBRANCH   2   4
BRANCH   2   7
HETATM    7  C5  UNL     1     -33.161   5.667   1.958  1.00 20.00     0.133 C 
HETATM    8 CL8  UNL     1     -32.132   7.053   1.506  1.00 20.00    -0.129 Cl
ENDBRANCH   2   7
TORSDOF 3
ENDMDL
MODEL 9
REMARK VINA RESULT:      -1.5      2.436      4.012
REMARK  3 active torsions:
REMARK  status: ('A' for Active; 'I' for Inactive)
REMARK    1  A    between atoms: C3_3  and  C4_4 
REMARK    2  A    between atoms: C4_4  and  C6_6 
REMARK    3  A    between atoms: C5_5  and  C6_6 
ROOT
HETATM    1  C1  UNL     1     -32.412   8.058   1.591  1.00 20.00     0.065 C 
HETATM    2  C6  UNL     1     -33.199   6.912   2.090  1.00 20.00     0.106 C 
HETATM    3  N7  UNL     1     -31.795   8.959   1.199  1.00 20.00    -0.197 NA
ENDROOT
BRANCH   2   4
HETATM    4  C4  UNL     1     -33.622   7.116   3.558  1.00 20.00     0.020 C 
BRANCH   4   5
HETATM    5  C3  UNL     1     -35.057   6.650   3.828  1.00 20.00    -0.003 C 
HETATM    6  C2  UNL     1     -35.086   5.226   4.364  1.00 20.00     0.005 C 
ENDBRANCH   4   5
ENDBRANCH   2   4
BRANCH   2   7
HETATM    7  C5  UNL     1     -32.432   5.597   1.879  1.00 20.00     0.133 C 
HETATM    8 CL8  UNL     1     -32.870   4.751   0.370  1.00 20.00    -0.129 Cl
ENDBRANCH   2   7
TORSDOF 3
ENDMDL
