MODEL 1
REMARK VINA RESULT:      -2.5      0.000      0.000
REMARK  0 active torsions:
REMARK  status: ('A' for Active; 'I' for Inactive)
ROOT
HETATM    1  C1  UNL     1     -33.194   6.406   2.327  1.00 20.00     0.006 C 
HETATM    2  C2  UNL     1     -33.266   7.729   3.097  1.00 20.00     0.006 C 
HETATM    3  C3  UNL     1     -34.054   5.414   3.104  1.00 20.00     0.079 C 
HETATM    4  C4  UNL     1     -34.167   7.469   4.301  1.00 20.00     0.079 C 
HETATM    5  C5  UNL     1     -35.018   6.302   3.858  1.00 20.00     0.243 C 
HETATM    6  F6  UNL     1     -35.591   5.666   4.895  1.00 20.00    -0.206 F 
HETATM    7  F7  UNL     1     -36.005   6.726   3.035  1.00 20.00    -0.206 F 
ENDROOT
TORSDOF 0
ENDMDL
MODEL 2
REMARK VINA RESULT:      -2.3      2.240      3.079
REMARK  0 active torsions:
REMARK  status: ('A' for Active; 'I' for Inactive)
ROOT
HETATM    1  C1  UNL     1     -33.856   7.641   3.361  1.00 20.00     0.006 C 
HETATM    2  C2  UNL     1     -34.422   6.251   3.672  1.00 20.00     0.006 C 
HETATM    3  C3  UNL     1     -32.615   7.413   2.504  1.00 20.00     0.079 C 
HETATM    4  C4  UNL     1     -33.494   5.253   2.985  1.00 20.00     0.079 C 
HETATM    5  C5  UNL     1     -32.868   6.062   1.873  1.00 20.00     0.243 C 
HETATM    6  F6  UNL     1     -31.740   5.499   1.406  1.00 20.00    -0.206 F 
HETATM    7  F7  UNL     1     -33.731   6.183   0.838  1.00 20.00    -0.206 F 
ENDROOT
TORSDOF 0
ENDMDL
MODEL 3
REMARK VINA RESULT:      -1.9      2.560      3.486
REMARK  0 active torsions:
REMARK  status: ('A' for Active; 'I' for Inactive)
ROOT
HETATM    1  C1  UNL     1     -33.903   7.662   4.043  1.00 20.00     0.006 C 
HETATM    2  C2  UNL     1     -34.239   6.514   3.085  1.00 20.00     0.006 C 
HETATM    3  C3  UNL     1     -32.502   8.133   3.667  1.00 20.00     0.079 C 
HETATM    4  C4  UNL     1     -33.023   6.349   2.178  1.00 20.00     0.079 C 
HETATM    5  C5  UNL     1     -32.365   7.709   2.222  1.00 20.00     0.243 C 
HETATM    6  F6  UNL     1     -31.082   7.668   1.822  1.00 20.00    -0.206 F 
HETATM    7  F7  UNL     1     -33.023   8.574   1.416  1.00 20.00    -0.206 F 
ENDROOT
TORSDOF 0
ENDMDL
MODEL 4
REMARK VINA RESULT:      -1.8      1.565      1.912
REMARK  0 active torsions:
REMARK  status: ('A' for Active; 'I' for Inactive)
ROOT
HETATM    1  C1  UNL     1     -33.101   6.144   1.832  1.00 20.00     0.006 C 
HETATM    2  C2  UNL     1     -32.259   7.416   1.688  1.00 20.00     0.006 C 
HETATM    3  C3  UNL     1     -33.642   6.152   3.259  1.00 20.00     0.079 C 
HETATM    4  C4  UNL     1     -32.334   8.129   3.035  1.00 20.00     0.079 C 
HETATM    5  C5  UNL     1     -33.625   7.617   3.633  1.00 20.00     0.243 C 
HETATM    6  F6  UNL     1     -33.680   7.804   4.963  1.00 20.00    -0.206 F 
HETATM    7  F7  UNL     1     -34.682   8.254   3.080  1.00 20.00    -0.206 F 
ENDROOT
TORSDOF 0
ENDMDL
MODEL 5
REMARK VINA RESULT:      -1.7      1.516      2.424
REMARK  0 active torsions:
REMARK  status: ('A' for Active; 'I' for Inactive)
ROOT
HETATM    1  C1  UNL     1     -33.425   5.109   3.234  1.00 20.00     0.006 C 
HETATM    2  C2  UNL     1     -34.655   5.000   4.141  1.00 20.00     0.006 C 
HETATM    3  C3  UNL     1     -33.415   6.539   2.701  1.00 20.00     0.079 C 
HETATM    4  C4  UNL     1     -35.327   6.370   4.110  1.00 20.00     0.079 C 
HETATM    5  C5  UNL     1     -34.199   7.306   3.742  1.00 20.00     0.243 C 
HETATM    6  F6  UNL     1     -34.648   8.485   3.274  1.00 20.00    -0.206 F 
HETATM    7  F7  UNL     1     -33.425   7.556   4.822  1.00 20.00    -0.206 F 
ENDROOT
TORSDOF 0
ENDMDL
MODEL 6
REMARK VINA RESULT:      -1.7      2.746      3.588
REMARK  0 active torsions:
REMARK  status: ('A' for Active; 'I' for Inactive)
ROOT
HETATM    1  C1  UNL     1     -34.015   6.561   2.938  1.00 20.00     0.006 C 
HETATM    2  C2  UNL     1     -33.297   5.820   1.805  1.00 20.00     0.006 C 
HETATM    3  C3  UNL     1     -33.046   7.632   3.427  1.00 20.00     0.079 C 
HETATM    4  C4  UNL     1     -31.929   6.482   1.666  1.00 20.00     0.079 C 
HETATM    5  C5  UNL     1     -32.149   7.866   2.232  1.00 20.00     0.243 C 
HETATM    6  F6  UNL     1     -30.994   8.467   2.571  1.00 20.00    -0.206 F 
HETATM    7  F7  UNL     1     -32.774   8.650   1.324  1.00 20.00    -0.206 F 
ENDROOT
TORSDOF 0
ENDMDL
MODEL 7
REMARK VINA RESULT:      -1.6      2.500      3.218
REMARK  0 active torsions:
REMARK  status: ('A' for Active; 'I' for Inactive)
ROOT
HETATM    1  C1  UNL     1     -33.245   7.381   3.561  1.00 20.00     0.006 C 
HETATM    2  C2  UNL     1     -32.237   8.135   2.687  1.00 20.00     0.006 C 
HETATM    3  C3  UNL     1     -33.848   6.296   2.675  1.00 20.00     0.079 C 
HETATM    4  C4  UNL     1     -32.282   7.465   1.316  1.00 20.00     0.079 C 
HETATM    5  C5  UNL     1     -32.788   6.074   1.620  1.00 20.00     0.243 C 
HETATM    6  F6  UNL     1     -33.276   5.459   0.528  1.00 20.00    -0.206 F 
HETATM    7  F7  UNL     1     -31.788   5.309   2.115  1.00 20.00    -0.206 F 
ENDROOT
TORSDOF 0
ENDMDL
MODEL 8
REMARK VINA RESULT:      -1.6      2.893      3.533
REMARK  0 active torsions:
REMARK  status: ('A' for Active; 'I' for Inactive)
ROOT
HETATM    1  C1  UNL     1     -32.973   5.639   2.204  1.00 20.00     0.006 C 
HETATM    2  C2  UNL     1     -33.657   6.476   3.289  1.00 20.00     0.006 C 
HETATM    3  C3  UNL     1     -32.472   6.628   1.156  1.00 20.00     0.079 C 
HETATM    4  C4  UNL     1     -33.534   7.931   2.843  1.00 20.00     0.079 C 
HETATM    5  C5  UNL     1     -32.328   7.918   1.932  1.00 20.00     0.243 C 
HETATM    6  F6  UNL     1     -32.286   8.994   1.127  1.00 20.00    -0.206 F 
HETATM    7  F7  UNL     1     -31.189   7.900   2.662  1.00 20.00    -0.206 F 
ENDROOT
TORSDOF 0
ENDMDL
MODEL 9
REMARK VINA RESULT:      -1.5      0.979      1.988
REMARK  0 active torsions:
REMARK  status: ('A' for Active; 'I' for Inactive)
ROOT
HETATM    1  C1  UNL     1     -32.711   7.968   3.936  1.00 20.00     0.006 C 
HETATM    2  C2  UNL     1     -32.588   7.353   2.538  1.00 20.00     0.006 C 
HETATM    3  C3  UNL     1     -34.139   7.693   4.397  1.00 20.00     0.079 C 
HETATM    4  C4  UNL     1     -33.949   6.736   2.225  1.00 20.00     0.079 C 
HETATM    5  C5  UNL     1     -34.541   6.478   3.592  1.00 20.00     0.243 C 
HETATM    6  F6  UNL     1     -35.875   6.314   3.547  1.00 20.00    -0.206 F 
HETATM    7  F7  UNL     1     -34.003   5.360   4.132  1.00 20.00    -0.206 F 
ENDROOT
TORSDOF 0
ENDMDL
