MODEL 1
REMARK VINA RESULT:      -2.2      0.000      0.000
REMARK  1 active torsions:
REMARK  status: ('A' for Active; 'I' for Inactive)
REMARK    1  A    between atoms: C2_2  and  C3_3 
ROOT
HETATM    1  C1  UNL     1     -34.139   7.508   4.436  1.00 20.00     0.071 C 
HETATM    2  C3  UNL     1     -34.708   6.323   3.668  1.00 20.00     0.187 C 
HETATM    3  F4  UNL     1     -35.882   6.708   3.094  1.00 20.00    -0.225 F 
HETATM    4 CL6  UNL     1     -33.574   5.887   2.352  1.00 20.00    -0.082 Cl
ENDROOT
BRANCH   2   5
HETATM    5  C2  UNL     1     -34.964   5.086   4.525  1.00 20.00     0.174 C 
HETATM    6 CL5  UNL     1     -33.820   3.768   4.163  1.00 20.00    -0.126 Cl
ENDBRANCH   2   5
TORSDOF 1
ENDMDL
MODEL 2
REMARK VINA RESULT:      -1.9      3.290      3.817
REMARK  1 active torsions:
REMARK  status: ('A' for Active; 'I' for Inactive)
REMARK    1  A    between atoms: C2_2  and  C3_3 
ROOT
HETATM    1  C1  UNL     1     -32.615   6.413   1.324  1.00 20.00     0.071 C 
HETATM    2  C3  UNL     1     -32.253   7.734   1.989  1.00 20.00     0.187 C 
HETATM    3  F4  UNL     1     -30.921   7.721   2.272  1.00 20.00    -0.225 F 
HETATM    4 CL6  UNL     1     -32.553   9.067   0.832  1.00 20.00    -0.082 Cl
ENDROOT
BRANCH   2   5
HETATM    5  C2  UNL     1     -33.024   8.018   3.276  1.00 20.00     0.174 C 
HETATM    6 CL5  UNL     1     -34.275   6.789   3.597  1.00 20.00    -0.126 Cl
ENDBRANCH   2   5
TORSDOF 1
ENDMDL
MODEL 3
REMARK VINA RESULT:      -1.8      1.932      2.696
REMARK  1 active torsions:
REMARK  status: ('A' for Active; 'I' for Inactive)
REMARK    1  A    between atoms: C2_2  and  C3_3 
ROOT
HETATM    1  C1  UNL     1     -34.825   5.152   4.370  1.00 20.00     0.071 C 
HETATM    2  C3  UNL     1     -34.547   6.420   3.575  1.00 20.00     0.187 C 
HETATM    3  F4  UNL     1     -35.718   6.847   3.025  1.00 20.00    -0.225 F 
HETATM    4 CL6  UNL     1     -33.974   7.693   4.696  1.00 20.00    -0.082 Cl
ENDROOT
BRANCH   2   5
HETATM    5  C2  UNL     1     -33.517   6.247   2.462  1.00 20.00     0.174 C 
HETATM    6 CL5  UNL     1     -32.511   7.702   2.243  1.00 20.00    -0.126 Cl
ENDBRANCH   2   5
TORSDOF 1
ENDMDL
MODEL 4
REMARK VINA RESULT:      -1.8      2.605      2.953
REMARK  1 active torsions:
REMARK  status: ('A' for Active; 'I' for Inactive)
REMARK    1  A    between atoms: C2_2  and  C3_3 
ROOT
HETATM    1  C1  UNL     1     -32.158   7.713   1.802  1.00 20.00     0.071 C 
HETATM    2  C3  UNL     1     -32.856   6.361   1.741  1.00 20.00     0.187 C 
HETATM    3  F4  UNL     1     -33.728   6.376   0.695  1.00 20.00    -0.225 F 
HETATM    4 CL6  UNL     1     -31.635   5.092   1.417  1.00 20.00    -0.082 Cl
ENDROOT
BRANCH   2   5
HETATM    5  C2  UNL     1     -33.620   5.993   3.011  1.00 20.00     0.174 C 
HETATM    6 CL5  UNL     1     -34.137   7.432   3.927  1.00 20.00    -0.126 Cl
ENDBRANCH   2   5
TORSDOF 1
ENDMDL
MODEL 5
REMARK VINA RESULT:      -1.5      1.806      2.878
REMARK  1 active torsions:
REMARK  status: ('A' for Active; 'I' for Inactive)
REMARK    1  A    between atoms: C2_2  and  C3_3 
ROOT
HETATM    1  C1  UNL     1     -35.518   6.578   3.499  1.00 20.00     0.071 C 
HETATM    2  C3  UNL     1     -34.033   6.248   3.453  1.00 20.00     0.187 C 
HETATM    3  F4  UNL     1     -33.382   7.074   4.318  1.00 20.00    -0.225 F 
HETATM    4 CL6  UNL     1     -33.795   4.566   4.020  1.00 20.00    -0.082 Cl
ENDROOT
BRANCH   2   5
HETATM    5  C2  UNL     1     -33.402   6.392   2.070  1.00 20.00     0.174 C 
HETATM    6 CL5  UNL     1     -32.227   7.731   2.001  1.00 20.00    -0.126 Cl
ENDBRANCH   2   5
TORSDOF 1
ENDMDL
MODEL 6
REMARK VINA RESULT:      -1.5      3.101      4.141
REMARK  1 active torsions:
REMARK  status: ('A' for Active; 'I' for Inactive)
REMARK    1  A    between atoms: C2_2  and  C3_3 
ROOT
HETATM    1  C1  UNL     1     -31.984   5.350   1.605  1.00 20.00     0.071 C 
HETATM    2  C3  UNL     1     -32.810   6.618   1.772  1.00 20.00     0.187 C 
HETATM    3  F4  UNL     1     -33.602   6.762   0.673  1.00 20.00    -0.225 F 
HETATM    4 CL6  UNL     1     -33.881   6.429   3.195  1.00 20.00    -0.082 Cl
ENDROOT
BRANCH   2   5
HETATM    5  C2  UNL     1     -31.980   7.887   1.948  1.00 20.00     0.174 C 
HETATM    6 CL5  UNL     1     -32.333   9.102   0.692  1.00 20.00    -0.126 Cl
ENDBRANCH   2   5
TORSDOF 1
ENDMDL
MODEL 7
REMARK VINA RESULT:      -1.4      3.663      3.875
REMARK  1 active torsions:
REMARK  status: ('A' for Active; 'I' for Inactive)
REMARK    1  A    between atoms: C2_2  and  C3_3 
ROOT
HETATM    1  C1  UNL     1     -32.523   9.088   1.079  1.00 20.00     0.071 C 
HETATM    2  C3  UNL     1     -32.176   8.008   2.095  1.00 20.00     0.187 C 
HETATM    3  F4  UNL     1     -31.178   8.476   2.895  1.00 20.00    -0.225 F 
HETATM    4 CL6  UNL     1     -33.606   7.702   3.128  1.00 20.00    -0.082 Cl
ENDROOT
BRANCH   2   5
HETATM    5  C2  UNL     1     -31.727   6.687   1.475  1.00 20.00     0.174 C 
HETATM    6 CL5  UNL     1     -33.012   5.452   1.519  1.00 20.00    -0.126 Cl
ENDBRANCH   2   5
TORSDOF 1
ENDMDL
MODEL 8
REMARK VINA RESULT:      -1.4      2.261      2.828
REMARK  1 active torsions:
REMARK  status: ('A' for Active; 'I' for Inactive)
REMARK    1  A    between atoms: C2_2  and  C3_3 
ROOT
HETATM    1  C1  UNL     1     -33.744   7.671   4.435  1.00 20.00     0.071 C 
HETATM    2  C3  UNL     1     -34.160   6.548   3.495  1.00 20.00     0.187 C 
HETATM    3  F4  UNL     1     -33.926   5.359   4.118  1.00 20.00    -0.225 F 
HETATM    4 CL6  UNL     1     -35.920   6.667   3.191  1.00 20.00    -0.082 Cl
ENDROOT
BRANCH   2   5
HETATM    5  C2  UNL     1     -33.429   6.551   2.154  1.00 20.00     0.174 C 
HETATM    6 CL5  UNL     1     -32.227   7.863   2.046  1.00 20.00    -0.126 Cl
ENDBRANCH   2   5
TORSDOF 1
ENDMDL
MODEL 9
REMARK VINA RESULT:      -1.4      2.994      3.476
REMARK  1 active torsions:
REMARK  status: ('A' for Active; 'I' for Inactive)
REMARK    1  A    between atoms: C2_2  and  C3_3 
ROOT
HETATM    1  C1  UNL     1     -33.532   5.848   0.446  1.00 20.00     0.071 C 
HETATM    2  C3  UNL     1     -32.753   6.094   1.731  1.00 20.00     0.187 C 
HETATM    3  F4  UNL     1     -31.670   5.268   1.741  1.00 20.00    -0.225 F 
HETATM    4 CL6  UNL     1     -32.152   7.781   1.730  1.00 20.00    -0.082 Cl
ENDROOT
BRANCH   2   5
HETATM    5  C2  UNL     1     -33.559   5.861   3.007  1.00 20.00     0.174 C 
HETATM    6 CL5  UNL     1     -34.030   7.389   3.794  1.00 20.00    -0.126 Cl
ENDBRANCH   2   5
TORSDOF 1
ENDMDL
