MODEL 1
REMARK VINA RESULT:      -2.8      0.000      0.000
REMARK  0 active torsions:
REMARK  status: ('A' for Active; 'I' for Inactive)
ROOT
HETATM    1  C1  UNL     1     -34.082   7.085   3.699  1.00 20.00     0.219 C 
HETATM    2  C2  UNL     1     -33.205   7.000   2.690  1.00 20.00     0.153 C 
HETATM    3  F3  UNL     1     -34.071   8.182   4.491  1.00 20.00    -0.190 F 
HETATM    4 CL4  UNL     1     -35.245   5.861   4.058  1.00 20.00    -0.049 Cl
HETATM    5 CL5  UNL     1     -33.195   5.607   1.660  1.00 20.00    -0.067 Cl
HETATM    6 CL6  UNL     1     -32.041   8.229   2.333  1.00 20.00    -0.067 Cl
ENDROOT
TORSDOF 0
ENDMDL
MODEL 2
REMARK VINA RESULT:      -2.7      2.259      3.532
REMARK  0 active torsions:
REMARK  status: ('A' for Active; 'I' for Inactive)
ROOT
HETATM    1  C1  UNL     1     -32.859   6.437   2.151  1.00 20.00     0.219 C 
HETATM    2  C2  UNL     1     -33.666   6.290   3.210  1.00 20.00     0.153 C 
HETATM    3  F3  UNL     1     -32.505   5.344   1.435  1.00 20.00    -0.190 F 
HETATM    4 CL4  UNL     1     -32.233   7.960   1.633  1.00 20.00    -0.049 Cl
HETATM    5 CL5  UNL     1     -34.135   7.670   4.145  1.00 20.00    -0.067 Cl
HETATM    6 CL6  UNL     1     -34.292   4.762   3.725  1.00 20.00    -0.067 Cl
ENDROOT
TORSDOF 0
ENDMDL
MODEL 3
REMARK VINA RESULT:      -2.7      1.706      2.373
REMARK  0 active torsions:
REMARK  status: ('A' for Active; 'I' for Inactive)
ROOT
HETATM    1  C1  UNL     1     -33.642   6.470   3.217  1.00 20.00     0.219 C 
HETATM    2  C2  UNL     1     -32.831   6.580   2.157  1.00 20.00     0.153 C 
HETATM    3  F3  UNL     1     -34.138   5.254   3.545  1.00 20.00    -0.190 F 
HETATM    4 CL4  UNL     1     -34.101   7.806   4.211  1.00 20.00    -0.049 Cl
HETATM    5 CL5  UNL     1     -32.181   8.123   1.715  1.00 20.00    -0.067 Cl
HETATM    6 CL6  UNL     1     -32.373   5.239   1.165  1.00 20.00    -0.067 Cl
ENDROOT
TORSDOF 0
ENDMDL
MODEL 4
REMARK VINA RESULT:      -2.3      1.966      2.775
REMARK  0 active torsions:
REMARK  status: ('A' for Active; 'I' for Inactive)
ROOT
HETATM    1  C1  UNL     1     -32.901   6.553   2.175  1.00 20.00     0.219 C 
HETATM    2  C2  UNL     1     -33.691   6.390   3.244  1.00 20.00     0.153 C 
HETATM    3  F3  UNL     1     -32.507   7.802   1.832  1.00 20.00    -0.190 F 
HETATM    4 CL4  UNL     1     -32.344   5.249   1.191  1.00 20.00    -0.049 Cl
HETATM    5 CL5  UNL     1     -34.211   4.803   3.707  1.00 20.00    -0.067 Cl
HETATM    6 CL6  UNL     1     -34.246   7.700   4.228  1.00 20.00    -0.067 Cl
ENDROOT
TORSDOF 0
ENDMDL
MODEL 5
REMARK VINA RESULT:      -2.2      0.640      2.584
REMARK  0 active torsions:
REMARK  status: ('A' for Active; 'I' for Inactive)
ROOT
HETATM    1  C1  UNL     1     -33.468   7.553   3.667  1.00 20.00     0.219 C 
HETATM    2  C2  UNL     1     -34.002   6.373   3.326  1.00 20.00     0.153 C 
HETATM    3  F3  UNL     1     -33.955   8.211   4.745  1.00 20.00    -0.190 F 
HETATM    4 CL4  UNL     1     -32.173   8.300   2.803  1.00 20.00    -0.049 Cl
HETATM    5 CL5  UNL     1     -33.399   5.509   1.951  1.00 20.00    -0.067 Cl
HETATM    6 CL6  UNL     1     -35.299   5.628   4.196  1.00 20.00    -0.067 Cl
ENDROOT
TORSDOF 0
ENDMDL
MODEL 6
REMARK VINA RESULT:      -2.1      2.188      2.487
REMARK  0 active torsions:
REMARK  status: ('A' for Active; 'I' for Inactive)
ROOT
HETATM    1  C1  UNL     1     -33.323   5.829   2.657  1.00 20.00     0.219 C 
HETATM    2  C2  UNL     1     -33.170   7.140   2.889  1.00 20.00     0.153 C 
HETATM    3  F3  UNL     1     -32.733   5.279   1.569  1.00 20.00    -0.190 F 
HETATM    4 CL4  UNL     1     -34.239   4.779   3.677  1.00 20.00    -0.049 Cl
HETATM    5 CL5  UNL     1     -33.913   7.870   4.273  1.00 20.00    -0.067 Cl
HETATM    6 CL6  UNL     1     -32.251   8.188   1.865  1.00 20.00    -0.067 Cl
ENDROOT
TORSDOF 0
ENDMDL
MODEL 7
REMARK VINA RESULT:      -2.1      1.899      2.938
REMARK  0 active torsions:
REMARK  status: ('A' for Active; 'I' for Inactive)
ROOT
HETATM    1  C1  UNL     1     -33.033   5.829   2.372  1.00 20.00     0.219 C 
HETATM    2  C2  UNL     1     -33.087   7.124   2.712  1.00 20.00     0.153 C 
HETATM    3  F3  UNL     1     -33.739   4.928   3.095  1.00 20.00    -0.190 F 
HETATM    4 CL4  UNL     1     -32.105   5.228   1.046  1.00 20.00    -0.049 Cl
HETATM    5 CL5  UNL     1     -32.194   8.299   1.806  1.00 20.00    -0.067 Cl
HETATM    6 CL6  UNL     1     -34.019   7.722   4.041  1.00 20.00    -0.067 Cl
ENDROOT
TORSDOF 0
ENDMDL
MODEL 8
REMARK VINA RESULT:      -1.9      1.841      2.235
REMARK  0 active torsions:
REMARK  status: ('A' for Active; 'I' for Inactive)
ROOT
HETATM    1  C1  UNL     1     -33.270   7.252   3.037  1.00 20.00     0.219 C 
HETATM    2  C2  UNL     1     -33.291   5.964   2.670  1.00 20.00     0.153 C 
HETATM    3  F3  UNL     1     -32.618   8.148   2.259  1.00 20.00    -0.190 F 
HETATM    4 CL4  UNL     1     -34.036   7.853   4.463  1.00 20.00    -0.049 Cl
HETATM    5 CL5  UNL     1     -34.118   4.796   3.647  1.00 20.00    -0.067 Cl
HETATM    6 CL6  UNL     1     -32.522   5.367   1.241  1.00 20.00    -0.067 Cl
ENDROOT
TORSDOF 0
ENDMDL
MODEL 9
REMARK VINA RESULT:      -1.9      0.912      2.626
REMARK  0 active torsions:
REMARK  status: ('A' for Active; 'I' for Inactive)
ROOT
HETATM    1  C1  UNL     1     -33.114   7.316   2.893  1.00 20.00     0.219 C 
HETATM    2  C2  UNL     1     -33.306   6.006   2.691  1.00 20.00     0.153 C 
HETATM    3  F3  UNL     1     -33.681   7.907   3.971  1.00 20.00    -0.190 F 
HETATM    4 CL4  UNL     1     -32.171   8.315   1.847  1.00 20.00    -0.049 Cl
HETATM    5 CL5  UNL     1     -32.593   5.223   1.320  1.00 20.00    -0.067 Cl
HETATM    6 CL6  UNL     1     -34.251   5.008   3.742  1.00 20.00    -0.067 Cl
ENDROOT
TORSDOF 0
ENDMDL
