MODEL 1
REMARK VINA RESULT:      -2.5      0.000      0.000
REMARK  1 active torsions:
REMARK  status: ('A' for Active; 'I' for Inactive)
REMARK    1  A    between atoms: C1_1  and  C2_2 
ROOT
HETATM    1  C2  UNL     1     -34.357   6.417   3.478  1.00 20.00     0.299 C 
HETATM    2  F4  UNL     1     -35.673   6.642   3.212  1.00 20.00    -0.203 F 
HETATM    3 CL6  UNL     1     -33.812   7.641   4.657  1.00 20.00    -0.061 Cl
HETATM    4 CL7  UNL     1     -34.185   4.798   4.205  1.00 20.00    -0.061 Cl
ENDROOT
BRANCH   1   5
HETATM    5  C1  UNL     1     -33.558   6.546   2.187  1.00 20.00     0.336 C 
HETATM    6  F3  UNL     1     -32.897   5.377   1.957  1.00 20.00    -0.227 F 
HETATM    7 CL5  UNL     1     -32.343   7.846   2.276  1.00 20.00    -0.083 Cl
ENDBRANCH   1   5
TORSDOF 1
ENDMDL
MODEL 2
REMARK VINA RESULT:      -2.3      2.402      3.516
REMARK  1 active torsions:
REMARK  status: ('A' for Active; 'I' for Inactive)
REMARK    1  A    between atoms: C1_1  and  C2_2 
ROOT
HETATM    1  C2  UNL     1     -32.290   7.782   2.131  1.00 20.00     0.299 C 
HETATM    2  F4  UNL     1     -31.016   7.933   2.588  1.00 20.00    -0.203 F 
HETATM    3 CL6  UNL     1     -32.587   9.033   0.893  1.00 20.00    -0.061 Cl
HETATM    4 CL7  UNL     1     -32.444   6.175   1.375  1.00 20.00    -0.061 Cl
ENDROOT
BRANCH   1   5
HETATM    5  C1  UNL     1     -33.261   7.958   3.292  1.00 20.00     0.336 C 
HETATM    6  F3  UNL     1     -32.550   8.132   4.441  1.00 20.00    -0.227 F 
HETATM    7 CL5  UNL     1     -34.307   6.532   3.513  1.00 20.00    -0.083 Cl
ENDBRANCH   1   5
TORSDOF 1
ENDMDL
MODEL 3
REMARK VINA RESULT:      -2.2      1.387      1.804
REMARK  1 active torsions:
REMARK  status: ('A' for Active; 'I' for Inactive)
REMARK    1  A    between atoms: C1_1  and  C2_2 
ROOT
HETATM    1  C2  UNL     1     -34.034   6.502   3.437  1.00 20.00     0.299 C 
HETATM    2  F4  UNL     1     -33.734   5.279   3.956  1.00 20.00    -0.203 F 
HETATM    3 CL6  UNL     1     -35.810   6.630   3.310  1.00 20.00    -0.061 Cl
HETATM    4 CL7  UNL     1     -33.443   7.761   4.551  1.00 20.00    -0.061 Cl
ENDROOT
BRANCH   1   5
HETATM    5  C1  UNL     1     -33.404   6.626   2.056  1.00 20.00     0.336 C 
HETATM    6  F3  UNL     1     -32.812   5.443   1.731  1.00 20.00    -0.227 F 
HETATM    7 CL5  UNL     1     -32.151   7.892   2.001  1.00 20.00    -0.083 Cl
ENDBRANCH   1   5
TORSDOF 1
ENDMDL
MODEL 4
REMARK VINA RESULT:      -2.2      1.394      1.824
REMARK  1 active torsions:
REMARK  status: ('A' for Active; 'I' for Inactive)
REMARK    1  A    between atoms: C1_1  and  C2_2 
ROOT
HETATM    1  C2  UNL     1     -34.005   6.354   3.380  1.00 20.00     0.299 C 
HETATM    2  F4  UNL     1     -33.397   7.174   4.281  1.00 20.00    -0.203 F 
HETATM    3 CL6  UNL     1     -33.776   4.669   3.921  1.00 20.00    -0.061 Cl
HETATM    4 CL7  UNL     1     -35.750   6.719   3.353  1.00 20.00    -0.061 Cl
ENDROOT
BRANCH   1   5
HETATM    5  C1  UNL     1     -33.364   6.553   2.012  1.00 20.00     0.336 C 
HETATM    6  F3  UNL     1     -32.710   5.412   1.660  1.00 20.00    -0.227 F 
HETATM    7 CL5  UNL     1     -32.174   7.880   2.015  1.00 20.00    -0.083 Cl
ENDBRANCH   1   5
TORSDOF 1
ENDMDL
MODEL 5
REMARK VINA RESULT:      -2.0      1.730      3.151
REMARK  1 active torsions:
REMARK  status: ('A' for Active; 'I' for Inactive)
REMARK    1  A    between atoms: C1_1  and  C2_2 
ROOT
HETATM    1  C2  UNL     1     -32.843   6.259   1.828  1.00 20.00     0.299 C 
HETATM    2  F4  UNL     1     -33.884   6.219   0.952  1.00 20.00    -0.203 F 
HETATM    3 CL6  UNL     1     -31.621   5.072   1.292  1.00 20.00    -0.061 Cl
HETATM    4 CL7  UNL     1     -32.120   7.888   1.791  1.00 20.00    -0.061 Cl
ENDROOT
BRANCH   1   5
HETATM    5  C1  UNL     1     -33.347   5.894   3.219  1.00 20.00     0.336 C 
HETATM    6  F3  UNL     1     -33.640   4.564   3.249  1.00 20.00    -0.227 F 
HETATM    7 CL5  UNL     1     -34.827   6.785   3.652  1.00 20.00    -0.083 Cl
ENDBRANCH   1   5
TORSDOF 1
ENDMDL
MODEL 6
REMARK VINA RESULT:      -2.0      2.132      3.556
REMARK  1 active torsions:
REMARK  status: ('A' for Active; 'I' for Inactive)
REMARK    1  A    between atoms: C1_1  and  C2_2 
ROOT
HETATM    1  C2  UNL     1     -32.088   7.949   1.872  1.00 20.00     0.299 C 
HETATM    2  F4  UNL     1     -30.878   7.420   1.542  1.00 20.00    -0.203 F 
HETATM    3 CL6  UNL     1     -31.979   8.589   3.535  1.00 20.00    -0.061 Cl
HETATM    4 CL7  UNL     1     -32.452   9.293   0.758  1.00 20.00    -0.061 Cl
ENDROOT
BRANCH   1   5
HETATM    5  C1  UNL     1     -33.146   6.854   1.803  1.00 20.00     0.336 C 
HETATM    6  F3  UNL     1     -33.691   6.688   3.041  1.00 20.00    -0.227 F 
HETATM    7 CL5  UNL     1     -32.461   5.289   1.297  1.00 20.00    -0.083 Cl
ENDBRANCH   1   5
TORSDOF 1
ENDMDL
MODEL 7
REMARK VINA RESULT:      -2.0      1.885      1.885
REMARK  1 active torsions:
REMARK  status: ('A' for Active; 'I' for Inactive)
REMARK    1  A    between atoms: C1_1  and  C2_2 
ROOT
HETATM    1  C2  UNL     1     -33.800   7.548   3.642  1.00 20.00     0.299 C 
HETATM    2  F4  UNL     1     -34.608   8.524   3.145  1.00 20.00    -0.203 F 
HETATM    3 CL6  UNL     1     -33.172   8.097   5.220  1.00 20.00    -0.061 Cl
HETATM    4 CL7  UNL     1     -34.766   6.070   3.887  1.00 20.00    -0.061 Cl
ENDROOT
BRANCH   1   5
HETATM    5  C1  UNL     1     -32.645   7.315   2.675  1.00 20.00     0.336 C 
HETATM    6  F3  UNL     1     -32.501   8.416   1.885  1.00 20.00    -0.227 F 
HETATM    7 CL5  UNL     1     -32.933   5.917   1.609  1.00 20.00    -0.083 Cl
ENDBRANCH   1   5
TORSDOF 1
ENDMDL
MODEL 8
REMARK VINA RESULT:      -1.9      2.297      2.760
REMARK  1 active torsions:
REMARK  status: ('A' for Active; 'I' for Inactive)
REMARK    1  A    between atoms: C1_1  and  C2_2 
ROOT
HETATM    1  C2  UNL     1     -32.769   6.613   1.675  1.00 20.00     0.299 C 
HETATM    2  F4  UNL     1     -33.614   6.766   0.619  1.00 20.00    -0.203 F 
HETATM    3 CL6  UNL     1     -33.753   6.473   3.158  1.00 20.00    -0.061 Cl
HETATM    4 CL7  UNL     1     -31.838   5.108   1.456  1.00 20.00    -0.061 Cl
ENDROOT
BRANCH   1   5
HETATM    5  C1  UNL     1     -31.860   7.833   1.767  1.00 20.00     0.336 C 
HETATM    6  F3  UNL     1     -31.895   8.315   3.041  1.00 20.00    -0.227 F 
HETATM    7 CL5  UNL     1     -32.381   9.142   0.677  1.00 20.00    -0.083 Cl
ENDBRANCH   1   5
TORSDOF 1
ENDMDL
MODEL 9
REMARK VINA RESULT:      -1.8      1.325      2.653
REMARK  1 active torsions:
REMARK  status: ('A' for Active; 'I' for Inactive)
REMARK    1  A    between atoms: C1_1  and  C2_2 
ROOT
HETATM    1  C2  UNL     1     -33.469   7.690   3.532  1.00 20.00     0.299 C 
HETATM    2  F4  UNL     1     -34.600   8.392   3.245  1.00 20.00    -0.203 F 
HETATM    3 CL6  UNL     1     -32.272   8.020   2.249  1.00 20.00    -0.061 Cl
HETATM    4 CL7  UNL     1     -32.817   8.260   5.090  1.00 20.00    -0.061 Cl
ENDROOT
BRANCH   1   5
HETATM    5  C1  UNL     1     -33.800   6.204   3.565  1.00 20.00     0.336 C 
HETATM    6  F3  UNL     1     -33.636   5.685   2.316  1.00 20.00    -0.227 F 
HETATM    7 CL5  UNL     1     -35.484   5.901   4.061  1.00 20.00    -0.083 Cl
ENDBRANCH   1   5
TORSDOF 1
ENDMDL
