MODEL 1
REMARK VINA RESULT:       0.2      0.000      0.000
REMARK  1 active torsions:
REMARK  status: ('A' for Active; 'I' for Inactive)
REMARK    1  A    between atoms: C2_2  and  C4_4 
ROOT
HETATM    1  C3  UNL     1     -33.069   5.774   2.978  1.00 20.00     0.102 C 
HETATM    2  C4  UNL     1     -33.370   7.289   3.162  1.00 20.00     0.035 C 
HETATM    3  C5  UNL     1     -32.659   6.071   1.519  1.00 20.00     0.295 C 
HETATM    4  C6  UNL     1     -32.363   7.538   1.967  1.00 20.00     0.254 C 
HETATM    5  C7  UNL     1     -34.841   7.646   2.928  1.00 20.00     0.025 C 
HETATM    6  F8  UNL     1     -33.640   5.915   0.601  1.00 20.00    -0.201 F 
HETATM    7  F9  UNL     1     -31.590   5.381   1.063  1.00 20.00    -0.201 F 
HETATM    8  F10 UNL     1     -31.069   7.710   2.354  1.00 20.00    -0.218 F 
HETATM    9 CL11 UNL     1     -32.760   8.818   0.784  1.00 20.00    -0.075 Cl
ENDROOT
BRANCH   2  10
HETATM   10  C2  UNL     1     -32.892   7.826   4.467  1.00 20.00    -0.023 C 
HETATM   11  C1  UNL     1     -33.694   8.357   5.397  1.00 20.00     0.008 C 
ENDBRANCH   2  10
TORSDOF 1
ENDMDL
MODEL 2
REMARK VINA RESULT:       0.6      2.483      3.450
REMARK  1 active torsions:
REMARK  status: ('A' for Active; 'I' for Inactive)
REMARK    1  A    between atoms: C2_2  and  C4_4 
ROOT
HETATM    1  C3  UNL     1     -33.734   6.628   1.689  1.00 20.00     0.102 C 
HETATM    2  C4  UNL     1     -32.771   7.775   2.108  1.00 20.00     0.035 C 
HETATM    3  C5  UNL     1     -34.012   6.365   3.186  1.00 20.00     0.295 C 
HETATM    4  C6  UNL     1     -33.593   7.845   3.459  1.00 20.00     0.254 C 
HETATM    5  C7  UNL     1     -31.307   7.332   2.197  1.00 20.00     0.025 C 
HETATM    6  F8  UNL     1     -33.240   5.412   3.757  1.00 20.00    -0.201 F 
HETATM    7  F9  UNL     1     -35.292   6.062   3.495  1.00 20.00    -0.201 F 
HETATM    8  F10 UNL     1     -34.654   8.698   3.423  1.00 20.00    -0.218 F 
HETATM    9 CL11 UNL     1     -32.696   8.142   4.976  1.00 20.00    -0.075 Cl
ENDROOT
BRANCH   2  10
HETATM   10  C2  UNL     1     -32.909   8.993   1.261  1.00 20.00    -0.023 C 
HETATM   11  C1  UNL     1     -32.038   9.346   0.309  1.00 20.00     0.008 C 
ENDBRANCH   2  10
TORSDOF 1
ENDMDL
MODEL 3
REMARK VINA RESULT:       0.9      1.669      2.856
REMARK  1 active torsions:
REMARK  status: ('A' for Active; 'I' for Inactive)
REMARK    1  A    between atoms: C2_2  and  C4_4 
ROOT
HETATM    1  C3  UNL     1     -33.393   8.674   2.513  1.00 20.00     0.102 C 
HETATM    2  C4  UNL     1     -33.582   7.288   3.191  1.00 20.00     0.035 C 
HETATM    3  C5  UNL     1     -32.220   8.076   1.704  1.00 20.00     0.295 C 
HETATM    4  C6  UNL     1     -32.871   6.673   1.918  1.00 20.00     0.254 C 
HETATM    5  C7  UNL     1     -32.852   7.166   4.532  1.00 20.00     0.025 C 
HETATM    6  F8  UNL     1     -30.994   8.254   2.248  1.00 20.00    -0.201 F 
HETATM    7  F9  UNL     1     -32.135   8.482   0.418  1.00 20.00    -0.201 F 
HETATM    8  F10 UNL     1     -33.723   6.338   0.909  1.00 20.00    -0.218 F 
HETATM    9 CL11 UNL     1     -31.741   5.309   2.161  1.00 20.00    -0.075 Cl
ENDROOT
BRANCH   2  10
HETATM   10  C2  UNL     1     -35.013   6.893   3.324  1.00 20.00    -0.023 C 
HETATM   11  C1  UNL     1     -35.453   5.943   4.156  1.00 20.00     0.008 C 
ENDBRANCH   2  10
TORSDOF 1
ENDMDL
MODEL 4
REMARK VINA RESULT:       0.9      2.913      3.985
REMARK  1 active torsions:
REMARK  status: ('A' for Active; 'I' for Inactive)
REMARK    1  A    between atoms: C2_2  and  C4_4 
ROOT
HETATM    1  C3  UNL     1     -33.022   6.323   4.200  1.00 20.00     0.102 C 
HETATM    2  C4  UNL     1     -33.957   5.458   3.308  1.00 20.00     0.035 C 
HETATM    3  C5  UNL     1     -34.070   7.456   4.135  1.00 20.00     0.295 C 
HETATM    4  C6  UNL     1     -35.143   6.361   3.840  1.00 20.00     0.254 C 
HETATM    5  C7  UNL     1     -33.621   5.546   1.816  1.00 20.00     0.025 C 
HETATM    6  F8  UNL     1     -33.869   8.372   3.160  1.00 20.00    -0.201 F 
HETATM    7  F9  UNL     1     -34.251   8.147   5.282  1.00 20.00    -0.201 F 
HETATM    8  F10 UNL     1     -35.734   5.895   4.975  1.00 20.00    -0.218 F 
HETATM    9 CL11 UNL     1     -36.436   6.815   2.692  1.00 20.00    -0.075 Cl
ENDROOT
BRANCH   2  10
HETATM   10  C2  UNL     1     -34.042   4.038   3.754  1.00 20.00    -0.023 C 
HETATM   11  C1  UNL     1     -33.263   3.504   4.701  1.00 20.00     0.008 C 
ENDBRANCH   2  10
TORSDOF 1
ENDMDL
MODEL 5
REMARK VINA RESULT:       0.9      2.088      3.167
REMARK  1 active torsions:
REMARK  status: ('A' for Active; 'I' for Inactive)
REMARK    1  A    between atoms: C2_2  and  C4_4 
ROOT
HETATM    1  C3  UNL     1     -31.320   7.039   0.783  1.00 20.00     0.102 C 
HETATM    2  C4  UNL     1     -32.218   7.871   1.743  1.00 20.00     0.035 C 
HETATM    3  C5  UNL     1     -31.986   5.758   1.331  1.00 20.00     0.295 C 
HETATM    4  C6  UNL     1     -33.212   6.640   1.728  1.00 20.00     0.254 C 
HETATM    5  C7  UNL     1     -31.533   8.206   3.072  1.00 20.00     0.025 C 
HETATM    6  F8  UNL     1     -31.329   5.157   2.350  1.00 20.00    -0.201 F 
HETATM    7  F9  UNL     1     -32.239   4.797   0.416  1.00 20.00    -0.201 F 
HETATM    8  F10 UNL     1     -34.152   6.693   0.744  1.00 20.00    -0.218 F 
HETATM    9 CL11 UNL     1     -34.036   6.204   3.254  1.00 20.00    -0.075 Cl
ENDROOT
BRANCH   2  10
HETATM   10  C2  UNL     1     -32.776   9.097   1.106  1.00 20.00    -0.023 C 
HETATM   11  C1  UNL     1     -32.300   9.638  -0.020  1.00 20.00     0.008 C 
ENDBRANCH   2  10
TORSDOF 1
ENDMDL
MODEL 6
REMARK VINA RESULT:       1.3      2.039      3.156
REMARK  1 active torsions:
REMARK  status: ('A' for Active; 'I' for Inactive)
REMARK    1  A    between atoms: C2_2  and  C4_4 
ROOT
HETATM    1  C3  UNL     1     -33.168   7.592   0.600  1.00 20.00     0.102 C 
HETATM    2  C4  UNL     1     -32.944   7.043   2.038  1.00 20.00     0.035 C 
HETATM    3  C5  UNL     1     -32.461   8.897   1.030  1.00 20.00     0.295 C 
HETATM    4  C6  UNL     1     -31.743   8.069   2.142  1.00 20.00     0.254 C 
HETATM    5  C7  UNL     1     -34.142   7.267   2.965  1.00 20.00     0.025 C 
HETATM    6  F8  UNL     1     -33.283   9.883   1.458  1.00 20.00    -0.201 F 
HETATM    7  F9  UNL     1     -31.646   9.448   0.104  1.00 20.00    -0.201 F 
HETATM    8  F10 UNL     1     -30.546   7.571   1.724  1.00 20.00    -0.218 F 
HETATM    9 CL11 UNL     1     -31.481   8.903   3.700  1.00 20.00    -0.075 Cl
ENDROOT
BRANCH   2  10
HETATM   10  C2  UNL     1     -32.513   5.616   2.058  1.00 20.00    -0.023 C 
HETATM   11  C1  UNL     1     -32.189   4.917   0.965  1.00 20.00     0.008 C 
ENDBRANCH   2  10
TORSDOF 1
ENDMDL
MODEL 7
REMARK VINA RESULT:       1.7      2.018      2.840
REMARK  1 active torsions:
REMARK  status: ('A' for Active; 'I' for Inactive)
REMARK    1  A    between atoms: C2_2  and  C4_4 
ROOT
HETATM    1  C3  UNL     1     -31.729   6.495   1.874  1.00 20.00     0.102 C 
HETATM    2  C4  UNL     1     -33.170   6.052   2.256  1.00 20.00     0.035 C 
HETATM    3  C5  UNL     1     -32.137   7.953   2.178  1.00 20.00     0.295 C 
HETATM    4  C6  UNL     1     -33.251   7.380   3.111  1.00 20.00     0.254 C 
HETATM    5  C7  UNL     1     -34.105   5.934   1.049  1.00 20.00     0.025 C 
HETATM    6  F8  UNL     1     -32.563   8.667   1.111  1.00 20.00    -0.201 F 
HETATM    7  F9  UNL     1     -31.198   8.703   2.795  1.00 20.00    -0.201 F 
HETATM    8  F10 UNL     1     -32.828   7.243   4.398  1.00 20.00    -0.218 F 
HETATM    9 CL11 UNL     1     -34.798   8.275   3.132  1.00 20.00    -0.075 Cl
ENDROOT
BRANCH   2  10
HETATM   10  C2  UNL     1     -33.201   4.809   3.079  1.00 20.00    -0.023 C 
HETATM   11  C1  UNL     1     -34.211   4.473   3.888  1.00 20.00     0.008 C 
ENDBRANCH   2  10
TORSDOF 1
ENDMDL
MODEL 8
REMARK VINA RESULT:       1.8      2.613      3.798
REMARK  1 active torsions:
REMARK  status: ('A' for Active; 'I' for Inactive)
REMARK    1  A    between atoms: C2_2  and  C4_4 
ROOT
HETATM    1  C3  UNL     1     -32.390   7.489   2.789  1.00 20.00     0.102 C 
HETATM    2  C4  UNL     1     -33.255   6.375   2.134  1.00 20.00     0.035 C 
HETATM    3  C5  UNL     1     -33.562   7.781   3.752  1.00 20.00     0.295 C 
HETATM    4  C6  UNL     1     -34.049   6.318   3.502  1.00 20.00     0.254 C 
HETATM    5  C7  UNL     1     -34.019   6.853   0.896  1.00 20.00     0.025 C 
HETATM    6  F8  UNL     1     -34.401   8.765   3.356  1.00 20.00    -0.201 F 
HETATM    7  F9  UNL     1     -33.211   8.062   5.026  1.00 20.00    -0.201 F 
HETATM    8  F10 UNL     1     -33.538   5.440   4.409  1.00 20.00    -0.218 F 
HETATM    9 CL11 UNL     1     -35.819   6.078   3.438  1.00 20.00    -0.075 Cl
ENDROOT
BRANCH   2  10
HETATM   10  C2  UNL     1     -32.485   5.133   1.840  1.00 20.00    -0.023 C 
HETATM   11  C1  UNL     1     -31.729   4.962   0.749  1.00 20.00     0.008 C 
ENDBRANCH   2  10
TORSDOF 1
ENDMDL
MODEL 9
REMARK VINA RESULT:       2.0      2.240      3.367
REMARK  1 active torsions:
REMARK  status: ('A' for Active; 'I' for Inactive)
REMARK    1  A    between atoms: C2_2  and  C4_4 
ROOT
HETATM    1  C3  UNL     1     -33.079   7.202   0.367  1.00 20.00     0.102 C 
HETATM    2  C4  UNL     1     -32.280   8.503   0.664  1.00 20.00     0.035 C 
HETATM    3  C5  UNL     1     -32.532   6.610   1.685  1.00 20.00     0.295 C 
HETATM    4  C6  UNL     1     -32.332   8.075   2.187  1.00 20.00     0.254 C 
HETATM    5  C7  UNL     1     -30.906   8.536  -0.011  1.00 20.00     0.025 C 
HETATM    6  F8  UNL     1     -31.410   5.865   1.559  1.00 20.00    -0.201 F 
HETATM    7  F9  UNL     1     -33.409   5.870   2.398  1.00 20.00    -0.201 F 
HETATM    8  F10 UNL     1     -33.418   8.544   2.862  1.00 20.00    -0.218 F 
HETATM    9 CL11 UNL     1     -30.886   8.372   3.195  1.00 20.00    -0.075 Cl
ENDROOT
BRANCH   2  10
HETATM   10  C2  UNL     1     -33.051   9.744   0.366  1.00 20.00    -0.023 C 
HETATM   11  C1  UNL     1     -32.519  10.971   0.356  1.00 20.00     0.008 C 
ENDBRANCH   2  10
TORSDOF 1
ENDMDL
