MODEL 1
REMARK VINA RESULT:      -3.0      0.000      0.000
REMARK  2 active torsions:
REMARK  status: ('A' for Active; 'I' for Inactive)
REMARK    1  A    between atoms: C1_1  and  C3_3 
REMARK    2  A    between atoms: C3_3  and  C4_4 
ROOT
HETATM    1  C1  UNL     1     -33.338   7.024   2.854  1.00 20.00     0.162 C 
HETATM    2  C2  UNL     1     -34.224   7.027   3.854  1.00 20.00     0.301 C 
HETATM    3  F5  UNL     1     -33.382   5.998   1.973  1.00 20.00    -0.205 F 
HETATM    4  F6  UNL     1     -35.119   6.025   3.983  1.00 20.00    -0.170 F 
HETATM    5  F7  UNL     1     -34.226   8.042   4.743  1.00 20.00    -0.170 F 
ENDROOT
BRANCH   1   6
HETATM    6  C3  UNL     1     -32.308   8.092   2.633  1.00 20.00     0.086 C 
BRANCH   6   7
HETATM    7  C4  UNL     1     -31.823   8.095   1.183  1.00 20.00     0.086 C 
HETATM    8  I8  UNL     1     -32.456   9.874   0.179  1.00 20.00    -0.090 I 
ENDBRANCH   6   7
ENDBRANCH   1   6
TORSDOF 2
ENDMDL
MODEL 2
REMARK VINA RESULT:      -2.2      1.099      1.854
REMARK  2 active torsions:
REMARK  status: ('A' for Active; 'I' for Inactive)
REMARK    1  A    between atoms: C1_1  and  C3_3 
REMARK    2  A    between atoms: C3_3  and  C4_4 
ROOT
HETATM    1  C1  UNL     1     -33.900   6.870   3.123  1.00 20.00     0.162 C 
HETATM    2  C2  UNL     1     -34.404   5.786   3.720  1.00 20.00     0.301 C 
HETATM    3  F5  UNL     1     -34.406   8.076   3.473  1.00 20.00    -0.205 F 
HETATM    4  F6  UNL     1     -35.396   5.898   4.628  1.00 20.00    -0.170 F 
HETATM    5  F7  UNL     1     -33.913   4.567   3.414  1.00 20.00    -0.170 F 
ENDROOT
BRANCH   1   6
HETATM    6  C3  UNL     1     -32.800   6.843   2.105  1.00 20.00     0.086 C 
BRANCH   6   7
HETATM    7  C4  UNL     1     -31.962   8.120   2.167  1.00 20.00     0.086 C 
HETATM    8  I8  UNL     1     -32.320   9.342   0.448  1.00 20.00    -0.090 I 
ENDBRANCH   6   7
ENDBRANCH   1   6
TORSDOF 2
ENDMDL
MODEL 3
REMARK VINA RESULT:      -2.1      1.044      1.726
REMARK  2 active torsions:
REMARK  status: ('A' for Active; 'I' for Inactive)
REMARK    1  A    between atoms: C1_1  and  C3_3 
REMARK    2  A    between atoms: C3_3  and  C4_4 
ROOT
HETATM    1  C1  UNL     1     -33.042   7.671   3.283  1.00 20.00     0.162 C 
HETATM    2  C2  UNL     1     -34.144   7.413   3.993  1.00 20.00     0.301 C 
HETATM    3  F5  UNL     1     -32.070   8.407   3.870  1.00 20.00    -0.205 F 
HETATM    4  F6  UNL     1     -34.282   7.890   5.248  1.00 20.00    -0.170 F 
HETATM    5  F7  UNL     1     -35.129   6.667   3.451  1.00 20.00    -0.170 F 
ENDROOT
BRANCH   1   6
HETATM    6  C3  UNL     1     -32.803   7.184   1.885  1.00 20.00     0.086 C 
BRANCH   6   7
HETATM    7  C4  UNL     1     -31.687   7.981   1.210  1.00 20.00     0.086 C 
HETATM    8  I8  UNL     1     -32.473   9.740   0.278  1.00 20.00    -0.090 I 
ENDBRANCH   6   7
ENDBRANCH   1   6
TORSDOF 2
ENDMDL
MODEL 4
REMARK VINA RESULT:      -2.0      1.066      1.186
REMARK  2 active torsions:
REMARK  status: ('A' for Active; 'I' for Inactive)
REMARK    1  A    between atoms: C1_1  and  C3_3 
REMARK    2  A    between atoms: C3_3  and  C4_4 
ROOT
HETATM    1  C1  UNL     1     -33.597   6.058   2.871  1.00 20.00     0.162 C 
HETATM    2  C2  UNL     1     -34.396   6.813   3.631  1.00 20.00     0.301 C 
HETATM    3  F5  UNL     1     -33.548   4.731   3.130  1.00 20.00    -0.205 F 
HETATM    4  F6  UNL     1     -35.113   6.263   4.634  1.00 20.00    -0.170 F 
HETATM    5  F7  UNL     1     -34.489   8.138   3.393  1.00 20.00    -0.170 F 
ENDROOT
BRANCH   1   6
HETATM    6  C3  UNL     1     -32.765   6.581   1.738  1.00 20.00     0.086 C 
BRANCH   6   7
HETATM    7  C4  UNL     1     -32.068   7.885   2.124  1.00 20.00     0.086 C 
HETATM    8  I8  UNL     1     -32.244   9.329   0.555  1.00 20.00    -0.090 I 
ENDBRANCH   6   7
ENDBRANCH   1   6
TORSDOF 2
ENDMDL
MODEL 5
REMARK VINA RESULT:      -2.0      3.498      4.309
REMARK  2 active torsions:
REMARK  status: ('A' for Active; 'I' for Inactive)
REMARK    1  A    between atoms: C1_1  and  C3_3 
REMARK    2  A    between atoms: C3_3  and  C4_4 
ROOT
HETATM    1  C1  UNL     1     -31.846   8.948   0.733  1.00 20.00     0.162 C 
HETATM    2  C2  UNL     1     -32.584   9.989   0.335  1.00 20.00     0.301 C 
HETATM    3  F5  UNL     1     -30.900   8.484  -0.115  1.00 20.00    -0.205 F 
HETATM    4  F6  UNL     1     -32.396  10.540  -0.882  1.00 20.00    -0.170 F 
HETATM    5  F7  UNL     1     -33.525  10.495   1.159  1.00 20.00    -0.170 F 
ENDROOT
BRANCH   1   6
HETATM    6  C3  UNL     1     -31.985   8.273   2.065  1.00 20.00     0.086 C 
BRANCH   6   7
HETATM    7  C4  UNL     1     -32.844   7.014   1.955  1.00 20.00     0.086 C 
HETATM    8  I8  UNL     1     -34.240   6.910   3.573  1.00 20.00    -0.090 I 
ENDBRANCH   6   7
ENDBRANCH   1   6
TORSDOF 2
ENDMDL
MODEL 6
REMARK VINA RESULT:      -1.9      2.284      3.272
REMARK  2 active torsions:
REMARK  status: ('A' for Active; 'I' for Inactive)
REMARK    1  A    between atoms: C1_1  and  C3_3 
REMARK    2  A    between atoms: C3_3  and  C4_4 
ROOT
HETATM    1  C1  UNL     1     -34.806   5.296   4.129  1.00 20.00     0.162 C 
HETATM    2  C2  UNL     1     -33.920   4.358   3.779  1.00 20.00     0.301 C 
HETATM    3  F5  UNL     1     -35.668   5.007   5.132  1.00 20.00    -0.205 F 
HETATM    4  F6  UNL     1     -33.905   3.160   4.398  1.00 20.00    -0.170 F 
HETATM    5  F7  UNL     1     -33.031   4.613   2.797  1.00 20.00    -0.170 F 
ENDROOT
BRANCH   1   6
HETATM    6  C3  UNL     1     -34.897   6.653   3.498  1.00 20.00     0.086 C 
BRANCH   6   7
HETATM    7  C4  UNL     1     -33.696   7.518   3.881  1.00 20.00     0.086 C 
HETATM    8  I8  UNL     1     -32.447   7.869   2.180  1.00 20.00    -0.090 I 
ENDBRANCH   6   7
ENDBRANCH   1   6
TORSDOF 2
ENDMDL
MODEL 7
REMARK VINA RESULT:      -1.8      2.088      2.631
REMARK  2 active torsions:
REMARK  status: ('A' for Active; 'I' for Inactive)
REMARK    1  A    between atoms: C1_1  and  C3_3 
REMARK    2  A    between atoms: C3_3  and  C4_4 
ROOT
HETATM    1  C1  UNL     1     -33.907   5.358   3.367  1.00 20.00     0.162 C 
HETATM    2  C2  UNL     1     -34.371   4.388   4.160  1.00 20.00     0.301 C 
HETATM    3  F5  UNL     1     -32.938   5.038   2.478  1.00 20.00    -0.205 F 
HETATM    4  F6  UNL     1     -33.872   3.137   4.082  1.00 20.00    -0.170 F 
HETATM    5  F7  UNL     1     -35.351   4.661   5.046  1.00 20.00    -0.170 F 
ENDROOT
BRANCH   1   6
HETATM    6  C3  UNL     1     -34.401   6.774   3.383  1.00 20.00     0.086 C 
BRANCH   6   7
HETATM    7  C4  UNL     1     -33.253   7.752   3.634  1.00 20.00     0.086 C 
HETATM    8  I8  UNL     1     -32.144   8.090   1.835  1.00 20.00    -0.090 I 
ENDBRANCH   6   7
ENDBRANCH   1   6
TORSDOF 2
ENDMDL
MODEL 8
REMARK VINA RESULT:      -1.8      2.965      4.219
REMARK  2 active torsions:
REMARK  status: ('A' for Active; 'I' for Inactive)
REMARK    1  A    between atoms: C1_1  and  C3_3 
REMARK    2  A    between atoms: C3_3  and  C4_4 
ROOT
HETATM    1  C1  UNL     1     -33.908   7.288   3.690  1.00 20.00     0.162 C 
HETATM    2  C2  UNL     1     -32.893   7.433   2.832  1.00 20.00     0.301 C 
HETATM    3  F5  UNL     1     -33.895   8.039   4.816  1.00 20.00    -0.205 F 
HETATM    4  F6  UNL     1     -31.885   8.290   3.097  1.00 20.00    -0.170 F 
HETATM    5  F7  UNL     1     -32.878   6.718   1.689  1.00 20.00    -0.170 F 
ENDROOT
BRANCH   1   6
HETATM    6  C3  UNL     1     -35.069   6.363   3.480  1.00 20.00     0.086 C 
BRANCH   6   7
HETATM    7  C4  UNL     1     -35.133   5.304   4.580  1.00 20.00     0.086 C 
HETATM    8  I8  UNL     1     -33.623   3.817   4.285  1.00 20.00    -0.090 I 
ENDBRANCH   6   7
ENDBRANCH   1   6
TORSDOF 2
ENDMDL
MODEL 9
REMARK VINA RESULT:      -1.6      2.975      3.864
REMARK  2 active torsions:
REMARK  status: ('A' for Active; 'I' for Inactive)
REMARK    1  A    between atoms: C1_1  and  C3_3 
REMARK    2  A    between atoms: C3_3  and  C4_4 
ROOT
HETATM    1  C1  UNL     1     -33.126   7.168   2.542  1.00 20.00     0.162 C 
HETATM    2  C2  UNL     1     -32.004   7.863   2.334  1.00 20.00     0.301 C 
HETATM    3  F5  UNL     1     -33.519   6.301   1.581  1.00 20.00    -0.205 F 
HETATM    4  F6  UNL     1     -31.302   7.710   1.192  1.00 20.00    -0.170 F 
HETATM    5  F7  UNL     1     -31.567   8.724   3.276  1.00 20.00    -0.170 F 
ENDROOT
BRANCH   1   6
HETATM    6  C3  UNL     1     -33.970   7.272   3.778  1.00 20.00     0.086 C 
BRANCH   6   7
HETATM    7  C4  UNL     1     -34.989   6.135   3.844  1.00 20.00     0.086 C 
HETATM    8  I8  UNL     1     -34.019   4.277   4.270  1.00 20.00    -0.090 I 
ENDBRANCH   6   7
ENDBRANCH   1   6
TORSDOF 2
ENDMDL
