MODEL 1
REMARK VINA RESULT:      -3.3      0.000      0.000
REMARK  3 active torsions:
REMARK  status: ('A' for Active; 'I' for Inactive)
REMARK    1  A    between atoms: C2_2  and  C3_3 
REMARK    2  A    between atoms: C2_2  and  C4_4 
REMARK    3  A    between atoms: C3_3  and  N5_5 
ROOT
HETATM    1  C1  UNL     1     -32.158   8.659   1.117  1.00 20.00     0.332 C 
HETATM    2  N5  UNL     1     -31.999   7.737   1.827  1.00 20.00    -0.247 NA
HETATM    3  O6  UNL     1     -32.315   9.583   0.406  1.00 20.00    -0.260 OA
ENDROOT
BRANCH   2   4
HETATM    4  C3  UNL     1     -32.932   7.673   2.952  1.00 20.00     0.162 C 
BRANCH   4   5
HETATM    5  C2  UNL     1     -33.799   6.429   2.803  1.00 20.00     0.139 C 
BRANCH   5   6
HETATM    6  C4  UNL     1     -34.909   6.389   3.830  1.00 20.00     0.389 C 
HETATM    7  F7  UNL     1     -36.110   6.635   3.264  1.00 20.00    -0.171 F 
HETATM    8  F8  UNL     1     -34.972   5.172   4.412  1.00 20.00    -0.171 F 
HETATM    9  F9  UNL     1     -34.711   7.301   4.804  1.00 20.00    -0.171 F 
ENDBRANCH   5   6
ENDBRANCH   4   5
ENDBRANCH   2   4
TORSDOF 3
ENDMDL
MODEL 2
REMARK VINA RESULT:      -3.2      0.034      1.257
REMARK  3 active torsions:
REMARK  status: ('A' for Active; 'I' for Inactive)
REMARK    1  A    between atoms: C2_2  and  C3_3 
REMARK    2  A    between atoms: C2_2  and  C4_4 
REMARK    3  A    between atoms: C3_3  and  N5_5 
ROOT
HETATM    1  C1  UNL     1     -32.144   8.669   1.116  1.00 20.00     0.332 C 
HETATM    2  N5  UNL     1     -31.970   7.750   1.826  1.00 20.00    -0.247 NA
HETATM    3  O6  UNL     1     -32.316   9.588   0.403  1.00 20.00    -0.260 OA
ENDROOT
BRANCH   2   4
HETATM    4  C3  UNL     1     -32.900   7.673   2.953  1.00 20.00     0.162 C 
BRANCH   4   5
HETATM    5  C2  UNL     1     -33.800   6.459   2.768  1.00 20.00     0.139 C 
BRANCH   5   6
HETATM    6  C4  UNL     1     -34.887   6.396   3.818  1.00 20.00     0.389 C 
HETATM    7  F7  UNL     1     -34.938   5.178   4.400  1.00 20.00    -0.171 F 
HETATM    8  F8  UNL     1     -34.659   7.306   4.791  1.00 20.00    -0.171 F 
HETATM    9  F9  UNL     1     -36.099   6.658   3.287  1.00 20.00    -0.171 F 
ENDBRANCH   5   6
ENDBRANCH   4   5
ENDBRANCH   2   4
TORSDOF 3
ENDMDL
MODEL 3
REMARK VINA RESULT:      -3.1      3.780      4.452
REMARK  3 active torsions:
REMARK  status: ('A' for Active; 'I' for Inactive)
REMARK    1  A    between atoms: C2_2  and  C3_3 
REMARK    2  A    between atoms: C2_2  and  C4_4 
REMARK    3  A    between atoms: C3_3  and  N5_5 
ROOT
HETATM    1  C1  UNL     1     -34.873   5.371   4.154  1.00 20.00     0.332 C 
HETATM    2  N5  UNL     1     -35.132   6.499   3.957  1.00 20.00    -0.247 NA
HETATM    3  O6  UNL     1     -34.617   4.240   4.352  1.00 20.00    -0.260 OA
ENDROOT
BRANCH   2   4
HETATM    4  C3  UNL     1     -33.967   7.353   3.723  1.00 20.00     0.162 C 
BRANCH   4   5
HETATM    5  C2  UNL     1     -33.367   7.008   2.366  1.00 20.00     0.139 C 
BRANCH   5   6
HETATM    6  C4  UNL     1     -32.160   7.862   2.048  1.00 20.00     0.389 C 
HETATM    7  F7  UNL     1     -31.645   8.419   3.165  1.00 20.00    -0.171 F 
HETATM    8  F8  UNL     1     -31.189   7.116   1.477  1.00 20.00    -0.171 F 
HETATM    9  F9  UNL     1     -32.472   8.855   1.191  1.00 20.00    -0.171 F 
ENDBRANCH   5   6
ENDBRANCH   4   5
ENDBRANCH   2   4
TORSDOF 3
ENDMDL
MODEL 4
REMARK VINA RESULT:      -3.1      3.789      4.450
REMARK  3 active torsions:
REMARK  status: ('A' for Active; 'I' for Inactive)
REMARK    1  A    between atoms: C2_2  and  C3_3 
REMARK    2  A    between atoms: C2_2  and  C4_4 
REMARK    3  A    between atoms: C3_3  and  N5_5 
ROOT
HETATM    1  C1  UNL     1     -34.890   5.372   4.172  1.00 20.00     0.332 C 
HETATM    2  N5  UNL     1     -35.121   6.503   3.955  1.00 20.00    -0.247 NA
HETATM    3  O6  UNL     1     -34.662   4.239   4.390  1.00 20.00    -0.260 OA
ENDROOT
BRANCH   2   4
HETATM    4  C3  UNL     1     -33.934   7.332   3.744  1.00 20.00     0.162 C 
BRANCH   4   5
HETATM    5  C2  UNL     1     -33.393   7.072   2.344  1.00 20.00     0.139 C 
BRANCH   5   6
HETATM    6  C4  UNL     1     -32.158   7.896   2.054  1.00 20.00     0.389 C 
HETATM    7  F7  UNL     1     -32.432   8.909   1.204  1.00 20.00    -0.171 F 
HETATM    8  F8  UNL     1     -31.670   8.436   3.192  1.00 20.00    -0.171 F 
HETATM    9  F9  UNL     1     -31.182   7.143   1.505  1.00 20.00    -0.171 F 
ENDBRANCH   5   6
ENDBRANCH   4   5
ENDBRANCH   2   4
TORSDOF 3
ENDMDL
MODEL 5
REMARK VINA RESULT:      -3.1      3.761      4.447
REMARK  3 active torsions:
REMARK  status: ('A' for Active; 'I' for Inactive)
REMARK    1  A    between atoms: C2_2  and  C3_3 
REMARK    2  A    between atoms: C2_2  and  C4_4 
REMARK    3  A    between atoms: C3_3  and  N5_5 
ROOT
HETATM    1  C1  UNL     1     -34.807   5.257   4.156  1.00 20.00     0.332 C 
HETATM    2  N5  UNL     1     -35.145   6.369   3.984  1.00 20.00    -0.247 NA
HETATM    3  O6  UNL     1     -34.472   4.143   4.329  1.00 20.00    -0.260 OA
ENDROOT
BRANCH   2   4
HETATM    4  C3  UNL     1     -34.045   7.303   3.742  1.00 20.00     0.162 C 
BRANCH   4   5
HETATM    5  C2  UNL     1     -33.422   6.992   2.388  1.00 20.00     0.139 C 
BRANCH   5   6
HETATM    6  C4  UNL     1     -32.205   7.848   2.117  1.00 20.00     0.389 C 
HETATM    7  F7  UNL     1     -31.229   7.137   1.512  1.00 20.00    -0.171 F 
HETATM    8  F8  UNL     1     -32.523   8.880   1.305  1.00 20.00    -0.171 F 
HETATM    9  F9  UNL     1     -31.702   8.363   3.257  1.00 20.00    -0.171 F 
ENDBRANCH   5   6
ENDBRANCH   4   5
ENDBRANCH   2   4
TORSDOF 3
ENDMDL
MODEL 6
REMARK VINA RESULT:      -2.8      2.423      2.915
REMARK  3 active torsions:
REMARK  status: ('A' for Active; 'I' for Inactive)
REMARK    1  A    between atoms: C2_2  and  C3_3 
REMARK    2  A    between atoms: C2_2  and  C4_4 
REMARK    3  A    between atoms: C3_3  and  N5_5 
ROOT
HETATM    1  C1  UNL     1     -32.570   9.696   0.152  1.00 20.00     0.332 C 
HETATM    2  N5  UNL     1     -32.211   9.448   1.243  1.00 20.00    -0.247 NA
HETATM    3  O6  UNL     1     -32.930   9.946  -0.939  1.00 20.00    -0.260 OA
ENDROOT
BRANCH   2   4
HETATM    4  C3  UNL     1     -31.697   8.089   1.415  1.00 20.00     0.162 C 
BRANCH   4   5
HETATM    5  C2  UNL     1     -32.720   7.269   2.189  1.00 20.00     0.139 C 
BRANCH   5   6
HETATM    6  C4  UNL     1     -32.805   5.847   1.680  1.00 20.00     0.389 C 
HETATM    7  F7  UNL     1     -31.586   5.371   1.347  1.00 20.00    -0.171 F 
HETATM    8  F8  UNL     1     -33.317   5.033   2.630  1.00 20.00    -0.171 F 
HETATM    9  F9  UNL     1     -33.599   5.760   0.593  1.00 20.00    -0.171 F 
ENDBRANCH   5   6
ENDBRANCH   4   5
ENDBRANCH   2   4
TORSDOF 3
ENDMDL
MODEL 7
REMARK VINA RESULT:      -2.8      2.435      2.805
REMARK  3 active torsions:
REMARK  status: ('A' for Active; 'I' for Inactive)
REMARK    1  A    between atoms: C2_2  and  C3_3 
REMARK    2  A    between atoms: C2_2  and  C4_4 
REMARK    3  A    between atoms: C3_3  and  N5_5 
ROOT
HETATM    1  C1  UNL     1     -32.554   9.680   0.149  1.00 20.00     0.332 C 
HETATM    2  N5  UNL     1     -32.162   9.445   1.231  1.00 20.00    -0.247 NA
HETATM    3  O6  UNL     1     -32.948   9.918  -0.933  1.00 20.00    -0.260 OA
ENDROOT
BRANCH   2   4
HETATM    4  C3  UNL     1     -31.694   8.071   1.418  1.00 20.00     0.162 C 
BRANCH   4   5
HETATM    5  C2  UNL     1     -32.780   7.273   2.128  1.00 20.00     0.139 C 
BRANCH   5   6
HETATM    6  C4  UNL     1     -32.814   5.833   1.668  1.00 20.00     0.389 C 
HETATM    7  F7  UNL     1     -33.593   5.684   0.575  1.00 20.00    -0.171 F 
HETATM    8  F8  UNL     1     -31.572   5.408   1.347  1.00 20.00    -0.171 F 
HETATM    9  F9  UNL     1     -33.289   5.019   2.634  1.00 20.00    -0.171 F 
ENDBRANCH   5   6
ENDBRANCH   4   5
ENDBRANCH   2   4
TORSDOF 3
ENDMDL
MODEL 8
REMARK VINA RESULT:      -2.8      4.145      4.840
REMARK  3 active torsions:
REMARK  status: ('A' for Active; 'I' for Inactive)
REMARK    1  A    between atoms: C2_2  and  C3_3 
REMARK    2  A    between atoms: C2_2  and  C4_4 
REMARK    3  A    between atoms: C3_3  and  N5_5 
ROOT
HETATM    1  C1  UNL     1     -33.501   6.504   2.703  1.00 20.00     0.332 C 
HETATM    2  N5  UNL     1     -32.753   6.502   1.798  1.00 20.00    -0.247 NA
HETATM    3  O6  UNL     1     -34.252   6.503   3.609  1.00 20.00    -0.260 OA
ENDROOT
BRANCH   2   4
HETATM    4  C3  UNL     1     -31.892   7.683   1.724  1.00 20.00     0.162 C 
BRANCH   4   5
HETATM    5  C2  UNL     1     -32.751   8.901   1.414  1.00 20.00     0.139 C 
BRANCH   5   6
HETATM    6  C4  UNL     1     -32.242   9.659   0.208  1.00 20.00     0.389 C 
HETATM    7  F7  UNL     1     -33.081   9.531  -0.842  1.00 20.00    -0.171 F 
HETATM    8  F8  UNL     1     -32.133  10.977   0.488  1.00 20.00    -0.171 F 
HETATM    9  F9  UNL     1     -31.025   9.218  -0.172  1.00 20.00    -0.171 F 
ENDBRANCH   5   6
ENDBRANCH   4   5
ENDBRANCH   2   4
TORSDOF 3
ENDMDL
MODEL 9
REMARK VINA RESULT:      -2.8      4.121      4.820
REMARK  3 active torsions:
REMARK  status: ('A' for Active; 'I' for Inactive)
REMARK    1  A    between atoms: C2_2  and  C3_3 
REMARK    2  A    between atoms: C2_2  and  C4_4 
REMARK    3  A    between atoms: C3_3  and  N5_5 
ROOT
HETATM    1  C1  UNL     1     -33.500   6.476   2.677  1.00 20.00     0.332 C 
HETATM    2  N5  UNL     1     -32.765   6.462   1.762  1.00 20.00    -0.247 NA
HETATM    3  O6  UNL     1     -34.239   6.488   3.592  1.00 20.00    -0.260 OA
ENDROOT
BRANCH   2   4
HETATM    4  C3  UNL     1     -31.878   7.623   1.683  1.00 20.00     0.162 C 
BRANCH   4   5
HETATM    5  C2  UNL     1     -32.719   8.870   1.442  1.00 20.00     0.139 C 
BRANCH   5   6
HETATM    6  C4  UNL     1     -32.243   9.647   0.234  1.00 20.00     0.389 C 
HETATM    7  F7  UNL     1     -31.028   9.224  -0.175  1.00 20.00    -0.171 F 
HETATM    8  F8  UNL     1     -33.100   9.489  -0.798  1.00 20.00    -0.171 F 
HETATM    9  F9  UNL     1     -32.159  10.967   0.501  1.00 20.00    -0.171 F 
ENDBRANCH   5   6
ENDBRANCH   4   5
ENDBRANCH   2   4
TORSDOF 3
ENDMDL
