MODEL 1
REMARK VINA RESULT:      -1.4      0.000      0.000
REMARK  0 active torsions:
REMARK  status: ('A' for Active; 'I' for Inactive)
ROOT
HETATM    1  C1  UNL     1     -33.050   7.512   4.013  1.00 20.00     0.059 C 
HETATM    2  C2  UNL     1     -32.192   8.223   3.265  1.00 20.00     0.059 C 
HETATM    3  C3  UNL     1     -33.845   6.583   3.156  1.00 20.00     0.332 C 
HETATM    4  C4  UNL     1     -32.320   7.847   1.824  1.00 20.00     0.332 C 
HETATM    5  C5  UNL     1     -32.941   6.470   1.945  1.00 20.00     0.379 C 
HETATM    6  F6  UNL     1     -34.091   5.375   3.701  1.00 20.00    -0.195 F 
HETATM    7  F7  UNL     1     -35.034   7.136   2.814  1.00 20.00    -0.195 F 
HETATM    8  F8  UNL     1     -33.156   8.692   1.175  1.00 20.00    -0.195 F 
HETATM    9  F9  UNL     1     -31.159   7.805   1.141  1.00 20.00    -0.195 F 
HETATM   10  F10 UNL     1     -33.583   6.076   0.835  1.00 20.00    -0.192 F 
HETATM   11  F11 UNL     1     -31.965   5.559   2.197  1.00 20.00    -0.192 F 
ENDROOT
TORSDOF 0
ENDMDL
MODEL 2
REMARK VINA RESULT:      -1.4      1.326      2.974
REMARK  0 active torsions:
REMARK  status: ('A' for Active; 'I' for Inactive)
ROOT
HETATM    1  C1  UNL     1     -33.144   5.111   2.891  1.00 20.00     0.059 C 
HETATM    2  C2  UNL     1     -33.969   5.551   3.853  1.00 20.00     0.059 C 
HETATM    3  C3  UNL     1     -32.874   6.194   1.898  1.00 20.00     0.332 C 
HETATM    4  C4  UNL     1     -34.341   6.977   3.609  1.00 20.00     0.332 C 
HETATM    5  C5  UNL     1     -33.195   7.423   2.725  1.00 20.00     0.379 C 
HETATM    6  F6  UNL     1     -31.611   6.233   1.427  1.00 20.00    -0.195 F 
HETATM    7  F7  UNL     1     -33.712   6.099   0.838  1.00 20.00    -0.195 F 
HETATM    8  F8  UNL     1     -35.519   7.064   2.944  1.00 20.00    -0.195 F 
HETATM    9  F9  UNL     1     -34.434   7.739   4.717  1.00 20.00    -0.195 F 
HETATM   10  F10 UNL     1     -33.483   8.503   1.983  1.00 20.00    -0.192 F 
HETATM   11  F11 UNL     1     -32.124   7.734   3.501  1.00 20.00    -0.192 F 
ENDROOT
TORSDOF 0
ENDMDL
MODEL 3
REMARK VINA RESULT:      -1.0      1.544      3.469
REMARK  0 active torsions:
REMARK  status: ('A' for Active; 'I' for Inactive)
ROOT
HETATM    1  C1  UNL     1     -32.881   5.953   2.641  1.00 20.00     0.059 C 
HETATM    2  C2  UNL     1     -33.950   5.422   3.254  1.00 20.00     0.059 C 
HETATM    3  C3  UNL     1     -32.968   7.444   2.636  1.00 20.00     0.332 C 
HETATM    4  C4  UNL     1     -34.870   6.501   3.727  1.00 20.00     0.332 C 
HETATM    5  C5  UNL     1     -33.916   7.677   3.795  1.00 20.00     0.379 C 
HETATM    6  F6  UNL     1     -31.795   8.083   2.822  1.00 20.00    -0.195 F 
HETATM    7  F7  UNL     1     -33.508   7.894   1.478  1.00 20.00    -0.195 F 
HETATM    8  F8  UNL     1     -35.850   6.734   2.821  1.00 20.00    -0.195 F 
HETATM    9  F9  UNL     1     -35.453   6.271   4.919  1.00 20.00    -0.195 F 
HETATM   10  F10 UNL     1     -34.533   8.867   3.746  1.00 20.00    -0.192 F 
HETATM   11  F11 UNL     1     -33.221   7.624   4.961  1.00 20.00    -0.192 F 
ENDROOT
TORSDOF 0
ENDMDL
MODEL 4
REMARK VINA RESULT:      -0.7      1.367      2.109
REMARK  0 active torsions:
REMARK  status: ('A' for Active; 'I' for Inactive)
ROOT
HETATM    1  C1  UNL     1     -32.251   8.073   2.901  1.00 20.00     0.059 C 
HETATM    2  C2  UNL     1     -31.986   7.223   1.897  1.00 20.00     0.059 C 
HETATM    3  C3  UNL     1     -33.575   7.758   3.516  1.00 20.00     0.332 C 
HETATM    4  C4  UNL     1     -33.105   6.247   1.730  1.00 20.00     0.332 C 
HETATM    5  C5  UNL     1     -33.744   6.310   3.102  1.00 20.00     0.379 C 
HETATM    6  F6  UNL     1     -33.629   7.896   4.856  1.00 20.00    -0.195 F 
HETATM    7  F7  UNL     1     -34.554   8.525   2.978  1.00 20.00    -0.195 F 
HETATM    8  F8  UNL     1     -33.974   6.665   0.778  1.00 20.00    -0.195 F 
HETATM    9  F9  UNL     1     -32.724   4.992   1.420  1.00 20.00    -0.195 F 
HETATM   10  F10 UNL     1     -35.020   5.897   3.115  1.00 20.00    -0.192 F 
HETATM   11  F11 UNL     1     -33.049   5.515   3.957  1.00 20.00    -0.192 F 
ENDROOT
TORSDOF 0
ENDMDL
MODEL 5
REMARK VINA RESULT:      -0.5      1.370      2.937
REMARK  0 active torsions:
REMARK  status: ('A' for Active; 'I' for Inactive)
ROOT
HETATM    1  C1  UNL     1     -32.488   7.494   1.504  1.00 20.00     0.059 C 
HETATM    2  C2  UNL     1     -32.847   8.306   2.511  1.00 20.00     0.059 C 
HETATM    3  C3  UNL     1     -32.775   6.071   1.853  1.00 20.00     0.332 C 
HETATM    4  C4  UNL     1     -33.413   7.513   3.644  1.00 20.00     0.332 C 
HETATM    5  C5  UNL     1     -33.833   6.248   2.923  1.00 20.00     0.379 C 
HETATM    6  F6  UNL     1     -33.228   5.314   0.833  1.00 20.00    -0.195 F 
HETATM    7  F7  UNL     1     -31.676   5.466   2.363  1.00 20.00    -0.195 F 
HETATM    8  F8  UNL     1     -32.461   7.242   4.569  1.00 20.00    -0.195 F 
HETATM    9  F9  UNL     1     -34.455   8.088   4.277  1.00 20.00    -0.195 F 
HETATM   10  F10 UNL     1     -33.953   5.187   3.735  1.00 20.00    -0.192 F 
HETATM   11  F11 UNL     1     -35.040   6.448   2.332  1.00 20.00    -0.192 F 
ENDROOT
TORSDOF 0
ENDMDL
MODEL 6
REMARK VINA RESULT:      -0.3      1.433      2.567
REMARK  0 active torsions:
REMARK  status: ('A' for Active; 'I' for Inactive)
ROOT
HETATM    1  C1  UNL     1     -33.847   5.775   1.846  1.00 20.00     0.059 C 
HETATM    2  C2  UNL     1     -33.075   6.659   1.194  1.00 20.00     0.059 C 
HETATM    3  C3  UNL     1     -33.838   6.057   3.313  1.00 20.00     0.332 C 
HETATM    4  C4  UNL     1     -32.466   7.628   2.155  1.00 20.00     0.332 C 
HETATM    5  C5  UNL     1     -33.427   7.515   3.320  1.00 20.00     0.379 C 
HETATM    6  F6  UNL     1     -35.021   5.875   3.935  1.00 20.00    -0.195 F 
HETATM    7  F7  UNL     1     -32.913   5.296   3.947  1.00 20.00    -0.195 F 
HETATM    8  F8  UNL     1     -31.223   7.231   2.521  1.00 20.00    -0.195 F 
HETATM    9  F9  UNL     1     -32.381   8.896   1.707  1.00 20.00    -0.195 F 
HETATM   10  F10 UNL     1     -32.898   7.914   4.487  1.00 20.00    -0.192 F 
HETATM   11  F11 UNL     1     -34.516   8.290   3.080  1.00 20.00    -0.192 F 
ENDROOT
TORSDOF 0
ENDMDL
MODEL 7
REMARK VINA RESULT:      -0.0      2.248      3.195
REMARK  0 active torsions:
REMARK  status: ('A' for Active; 'I' for Inactive)
ROOT
HETATM    1  C1  UNL     1     -33.130   5.940   2.498  1.00 20.00     0.059 C 
HETATM    2  C2  UNL     1     -33.179   7.271   2.664  1.00 20.00     0.059 C 
HETATM    3  C3  UNL     1     -33.958   5.253   3.534  1.00 20.00     0.332 C 
HETATM    4  C4  UNL     1     -34.046   7.619   3.831  1.00 20.00     0.332 C 
HETATM    5  C5  UNL     1     -34.899   6.372   3.933  1.00 20.00     0.379 C 
HETATM    6  F6  UNL     1     -34.635   4.172   3.098  1.00 20.00    -0.195 F 
HETATM    7  F7  UNL     1     -33.197   4.871   4.588  1.00 20.00    -0.195 F 
HETATM    8  F8  UNL     1     -33.305   7.784   4.953  1.00 20.00    -0.195 F 
HETATM    9  F9  UNL     1     -34.803   8.722   3.668  1.00 20.00    -0.195 F 
HETATM   10  F10 UNL     1     -35.448   6.200   5.145  1.00 20.00    -0.192 F 
HETATM   11  F11 UNL     1     -35.913   6.447   3.033  1.00 20.00    -0.192 F 
ENDROOT
TORSDOF 0
ENDMDL
MODEL 8
REMARK VINA RESULT:       0.0      1.494      2.121
REMARK  0 active torsions:
REMARK  status: ('A' for Active; 'I' for Inactive)
ROOT
HETATM    1  C1  UNL     1     -33.627   5.946   2.681  1.00 20.00     0.059 C 
HETATM    2  C2  UNL     1     -33.415   7.040   3.429  1.00 20.00     0.059 C 
HETATM    3  C3  UNL     1     -32.971   6.089   1.347  1.00 20.00     0.332 C 
HETATM    4  C4  UNL     1     -32.594   8.035   2.676  1.00 20.00     0.332 C 
HETATM    5  C5  UNL     1     -31.921   7.137   1.658  1.00 20.00     0.379 C 
HETATM    6  F6  UNL     1     -32.414   4.962   0.862  1.00 20.00    -0.195 F 
HETATM    7  F7  UNL     1     -33.848   6.551   0.423  1.00 20.00    -0.195 F 
HETATM    8  F8  UNL     1     -33.383   8.947   2.059  1.00 20.00    -0.195 F 
HETATM    9  F9  UNL     1     -31.689   8.704   3.417  1.00 20.00    -0.195 F 
HETATM   10  F10 UNL     1     -31.486   7.794   0.573  1.00 20.00    -0.192 F 
HETATM   11  F11 UNL     1     -30.845   6.537   2.231  1.00 20.00    -0.192 F 
ENDROOT
TORSDOF 0
ENDMDL
MODEL 9
REMARK VINA RESULT:       0.0      1.221      3.087
REMARK  0 active torsions:
REMARK  status: ('A' for Active; 'I' for Inactive)
ROOT
HETATM    1  C1  UNL     1     -33.721   7.881   2.988  1.00 20.00     0.059 C 
HETATM    2  C2  UNL     1     -34.233   6.752   3.503  1.00 20.00     0.059 C 
HETATM    3  C3  UNL     1     -32.551   7.573   2.112  1.00 20.00     0.332 C 
HETATM    4  C4  UNL     1     -33.461   5.565   3.027  1.00 20.00     0.332 C 
HETATM    5  C5  UNL     1     -32.829   6.123   1.768  1.00 20.00     0.379 C 
HETATM    6  F6  UNL     1     -32.454   8.332   1.002  1.00 20.00    -0.195 F 
HETATM    7  F7  UNL     1     -31.389   7.687   2.798  1.00 20.00    -0.195 F 
HETATM    8  F8  UNL     1     -32.508   5.215   3.925  1.00 20.00    -0.195 F 
HETATM    9  F9  UNL     1     -34.203   4.471   2.762  1.00 20.00    -0.195 F 
HETATM   10  F10 UNL     1     -31.736   5.450   1.377  1.00 20.00    -0.192 F 
HETATM   11  F11 UNL     1     -33.728   6.067   0.752  1.00 20.00    -0.192 F 
ENDROOT
TORSDOF 0
ENDMDL
