MODEL 1
REMARK VINA RESULT:      -2.5      0.000      0.000
REMARK  1 active torsions:
REMARK  status: ('A' for Active; 'I' for Inactive)
REMARK    1  A    between atoms: C1_1  and  C2_2 
ROOT
HETATM    1  C2  UNL     1     -34.952   6.253   4.157  1.00 20.00     0.294 C 
HETATM    2  F4  UNL     1     -36.102   6.426   3.455  1.00 20.00    -0.230 F 
HETATM    3 CL5  UNL     1     -33.992   7.741   4.082  1.00 20.00    -0.087 Cl
ENDROOT
BRANCH   1   4
HETATM    4  C1  UNL     1     -34.195   5.082   3.571  1.00 20.00     0.275 C 
HETATM    5  F3  UNL     1     -34.361   3.993   4.369  1.00 20.00    -0.251 F 
ENDBRANCH   1   4
TORSDOF 1
ENDMDL
MODEL 2
REMARK VINA RESULT:      -2.4      1.773      1.908
REMARK  1 active torsions:
REMARK  status: ('A' for Active; 'I' for Inactive)
REMARK    1  A    between atoms: C1_1  and  C2_2 
ROOT
HETATM    1  C2  UNL     1     -34.063   6.767   3.788  1.00 20.00     0.294 C 
HETATM    2  F4  UNL     1     -34.191   8.117   3.869  1.00 20.00    -0.230 F 
HETATM    3 CL5  UNL     1     -33.308   6.344   2.240  1.00 20.00    -0.087 Cl
ENDROOT
BRANCH   1   4
HETATM    4  C1  UNL     1     -35.433   6.139   3.919  1.00 20.00     0.275 C 
HETATM    5  F3  UNL     1     -35.310   4.902   4.472  1.00 20.00    -0.251 F 
ENDBRANCH   1   4
TORSDOF 1
ENDMDL
MODEL 3
REMARK VINA RESULT:      -2.4      2.775      3.000
REMARK  1 active torsions:
REMARK  status: ('A' for Active; 'I' for Inactive)
REMARK    1  A    between atoms: C1_1  and  C2_2 
ROOT
HETATM    1  C2  UNL     1     -34.248   7.381   3.688  1.00 20.00     0.294 C 
HETATM    2  F4  UNL     1     -33.637   7.861   4.803  1.00 20.00    -0.230 F 
HETATM    3 CL5  UNL     1     -35.366   6.085   4.147  1.00 20.00    -0.087 Cl
ENDROOT
BRANCH   1   4
HETATM    4  C1  UNL     1     -33.190   6.880   2.731  1.00 20.00     0.275 C 
HETATM    5  F3  UNL     1     -32.445   7.930   2.292  1.00 20.00    -0.251 F 
ENDBRANCH   1   4
TORSDOF 1
ENDMDL
MODEL 4
REMARK VINA RESULT:      -2.4      2.142      2.572
REMARK  1 active torsions:
REMARK  status: ('A' for Active; 'I' for Inactive)
REMARK    1  A    between atoms: C1_1  and  C2_2 
ROOT
HETATM    1  C2  UNL     1     -34.753   5.962   3.605  1.00 20.00     0.294 C 
HETATM    2  F4  UNL     1     -35.713   6.149   4.549  1.00 20.00    -0.230 F 
HETATM    3 CL5  UNL     1     -33.923   4.426   3.915  1.00 20.00    -0.087 Cl
ENDROOT
BRANCH   1   4
HETATM    4  C1  UNL     1     -33.789   7.125   3.653  1.00 20.00     0.275 C 
HETATM    5  F3  UNL     1     -34.136   7.956   4.673  1.00 20.00    -0.251 F 
ENDBRANCH   1   4
TORSDOF 1
ENDMDL
MODEL 5
REMARK VINA RESULT:      -2.4      2.720      3.205
REMARK  1 active torsions:
REMARK  status: ('A' for Active; 'I' for Inactive)
REMARK    1  A    between atoms: C1_1  and  C2_2 
ROOT
HETATM    1  C2  UNL     1     -33.103   6.525   1.844  1.00 20.00     0.294 C 
HETATM    2  F4  UNL     1     -32.412   5.396   1.537  1.00 20.00    -0.230 F 
HETATM    3 CL5  UNL     1     -31.990   7.905   1.853  1.00 20.00    -0.087 Cl
ENDROOT
BRANCH   1   4
HETATM    4  C1  UNL     1     -33.760   6.342   3.194  1.00 20.00     0.275 C 
HETATM    5  F3  UNL     1     -33.946   7.559   3.772  1.00 20.00    -0.251 F 
ENDBRANCH   1   4
TORSDOF 1
ENDMDL
MODEL 6
REMARK VINA RESULT:      -2.3      4.017      4.054
REMARK  1 active torsions:
REMARK  status: ('A' for Active; 'I' for Inactive)
REMARK    1  A    between atoms: C1_1  and  C2_2 
ROOT
HETATM    1  C2  UNL     1     -31.813   7.863   1.743  1.00 20.00     0.294 C 
HETATM    2  F4  UNL     1     -31.731   8.340   3.013  1.00 20.00    -0.230 F 
HETATM    3 CL5  UNL     1     -32.350   9.164   0.665  1.00 20.00    -0.087 Cl
ENDROOT
BRANCH   1   4
HETATM    4  C1  UNL     1     -32.778   6.699   1.721  1.00 20.00     0.275 C 
HETATM    5  F3  UNL     1     -32.110   5.567   1.371  1.00 20.00    -0.251 F 
ENDBRANCH   1   4
TORSDOF 1
ENDMDL
MODEL 7
REMARK VINA RESULT:      -2.2      3.432      3.432
REMARK  1 active torsions:
REMARK  status: ('A' for Active; 'I' for Inactive)
REMARK    1  A    between atoms: C1_1  and  C2_2 
ROOT
HETATM    1  C2  UNL     1     -32.902   7.282   2.073  1.00 20.00     0.294 C 
HETATM    2  F4  UNL     1     -31.628   7.752   2.121  1.00 20.00    -0.230 F 
HETATM    3 CL5  UNL     1     -33.657   7.479   3.665  1.00 20.00    -0.087 Cl
ENDROOT
BRANCH   1   4
HETATM    4  C1  UNL     1     -32.870   5.829   1.657  1.00 20.00     0.275 C 
HETATM    5  F3  UNL     1     -31.606   5.497   1.278  1.00 20.00    -0.251 F 
ENDBRANCH   1   4
TORSDOF 1
ENDMDL
MODEL 8
REMARK VINA RESULT:      -2.2      1.392      1.489
REMARK  1 active torsions:
REMARK  status: ('A' for Active; 'I' for Inactive)
REMARK    1  A    between atoms: C1_1  and  C2_2 
ROOT
HETATM    1  C2  UNL     1     -34.530   6.867   3.542  1.00 20.00     0.294 C 
HETATM    2  F4  UNL     1     -33.640   6.218   2.747  1.00 20.00    -0.230 F 
HETATM    3 CL5  UNL     1     -33.649   7.884   4.697  1.00 20.00    -0.087 Cl
ENDROOT
BRANCH   1   4
HETATM    4  C1  UNL     1     -35.384   5.842   4.255  1.00 20.00     0.275 C 
HETATM    5  F3  UNL     1     -34.715   4.658   4.309  1.00 20.00    -0.251 F 
ENDBRANCH   1   4
TORSDOF 1
ENDMDL
MODEL 9
REMARK VINA RESULT:      -2.2      2.402      2.901
REMARK  1 active torsions:
REMARK  status: ('A' for Active; 'I' for Inactive)
REMARK    1  A    between atoms: C1_1  and  C2_2 
ROOT
HETATM    1  C2  UNL     1     -33.686   5.717   3.545  1.00 20.00     0.294 C 
HETATM    2  F4  UNL     1     -33.449   5.767   2.208  1.00 20.00    -0.230 F 
HETATM    3 CL5  UNL     1     -34.009   4.039   4.017  1.00 20.00    -0.087 Cl
ENDROOT
BRANCH   1   4
HETATM    4  C1  UNL     1     -34.862   6.612   3.865  1.00 20.00     0.275 C 
HETATM    5  F3  UNL     1     -34.411   7.760   4.439  1.00 20.00    -0.251 F 
ENDBRANCH   1   4
TORSDOF 1
ENDMDL
