MODEL 1
REMARK VINA RESULT:       0.9      0.000      0.000
REMARK  0 active torsions:
REMARK  status: ('A' for Active; 'I' for Inactive)
ROOT
HETATM    1  C1  UNL     1     -31.895   6.821   1.361  1.00 20.00     0.101 C 
HETATM    2  C2  UNL     1     -33.026   7.690   3.151  1.00 20.00     0.055 C 
HETATM    3  C3  UNL     1     -33.404   5.351   2.732  1.00 20.00     0.145 C 
HETATM    4  C4  UNL     1     -32.839   8.460   4.236  1.00 20.00     0.112 C 
HETATM    5  C5  UNL     1     -32.379   5.417   1.622  1.00 20.00     0.092 C 
HETATM    6  C6  UNL     1     -34.128   6.654   3.029  1.00 20.00     0.105 C 
HETATM    7  C7  UNL     1     -32.974   4.842   0.343  1.00 20.00     0.023 C 
HETATM    8  C8  UNL     1     -35.076   6.502   4.219  1.00 20.00     0.025 C 
HETATM    9  N9  UNL     1     -32.194   7.869   2.065  1.00 20.00    -0.267 NA
HETATM   10  O10 UNL     1     -33.672   4.289   3.292  1.00 20.00    -0.296 OA
HETATM   11 CL11 UNL     1     -33.830   8.365   5.622  1.00 20.00    -0.095 Cl
ENDROOT
TORSDOF 0
ENDMDL
MODEL 2
REMARK VINA RESULT:       1.4      2.343      3.639
REMARK  0 active torsions:
REMARK  status: ('A' for Active; 'I' for Inactive)
ROOT
HETATM    1  C1  UNL     1     -32.672   8.291   2.883  1.00 20.00     0.101 C 
HETATM    2  C2  UNL     1     -32.734   6.258   1.835  1.00 20.00     0.055 C 
HETATM    3  C3  UNL     1     -34.275   6.519   3.666  1.00 20.00     0.145 C 
HETATM    4  C4  UNL     1     -32.775   5.712   0.608  1.00 20.00     0.112 C 
HETATM    5  C5  UNL     1     -33.827   7.958   3.794  1.00 20.00     0.092 C 
HETATM    6  C6  UNL     1     -33.242   5.565   3.086  1.00 20.00     0.105 C 
HETATM    7  C7  UNL     1     -33.431   8.243   5.237  1.00 20.00     0.023 C 
HETATM    8  C8  UNL     1     -33.820   4.160   2.918  1.00 20.00     0.025 C 
HETATM    9  N9  UNL     1     -32.168   7.507   1.981  1.00 20.00    -0.267 NA
HETATM   10  O10 UNL     1     -35.374   6.153   4.077  1.00 20.00    -0.296 OA
HETATM   11 CL11 UNL     1     -33.408   4.156   0.307  1.00 20.00    -0.095 Cl
ENDROOT
TORSDOF 0
ENDMDL
MODEL 3
REMARK VINA RESULT:       1.5      2.187      3.169
REMARK  0 active torsions:
REMARK  status: ('A' for Active; 'I' for Inactive)
ROOT
HETATM    1  C1  UNL     1     -34.378   6.808   3.930  1.00 20.00     0.101 C 
HETATM    2  C2  UNL     1     -33.100   8.166   2.602  1.00 20.00     0.055 C 
HETATM    3  C3  UNL     1     -33.173   5.853   1.941  1.00 20.00     0.145 C 
HETATM    4  C4  UNL     1     -33.137   9.353   1.974  1.00 20.00     0.112 C 
HETATM    5  C5  UNL     1     -34.168   5.600   3.051  1.00 20.00     0.092 C 
HETATM    6  C6  UNL     1     -32.215   7.010   2.176  1.00 20.00     0.105 C 
HETATM    7  C7  UNL     1     -33.695   4.431   3.905  1.00 20.00     0.023 C 
HETATM    8  C8  UNL     1     -31.311   7.235   0.964  1.00 20.00     0.025 C 
HETATM    9  N9  UNL     1     -33.885   7.990   3.723  1.00 20.00    -0.267 NA
HETATM   10  O10 UNL     1     -33.110   5.115   0.959  1.00 20.00    -0.296 OA
HETATM   11 CL11 UNL     1     -32.180   9.707   0.606  1.00 20.00    -0.095 Cl
ENDROOT
TORSDOF 0
ENDMDL
MODEL 4
REMARK VINA RESULT:       1.6      2.403      3.376
REMARK  0 active torsions:
REMARK  status: ('A' for Active; 'I' for Inactive)
ROOT
HETATM    1  C1  UNL     1     -33.536   8.465   3.286  1.00 20.00     0.101 C 
HETATM    2  C2  UNL     1     -33.913   6.208   3.334  1.00 20.00     0.055 C 
HETATM    3  C3  UNL     1     -32.148   6.925   1.863  1.00 20.00     0.145 C 
HETATM    4  C4  UNL     1     -34.101   5.194   4.195  1.00 20.00     0.112 C 
HETATM    5  C5  UNL     1     -32.349   8.338   2.365  1.00 20.00     0.092 C 
HETATM    6  C6  UNL     1     -33.377   6.032   1.925  1.00 20.00     0.105 C 
HETATM    7  C7  UNL     1     -32.526   9.281   1.181  1.00 20.00     0.023 C 
HETATM    8  C8  UNL     1     -33.048   4.608   1.478  1.00 20.00     0.025 C 
HETATM    9  N9  UNL     1     -34.257   7.483   3.732  1.00 20.00    -0.267 NA
HETATM   10  O10 UNL     1     -31.079   6.567   1.373  1.00 20.00    -0.296 OA
HETATM   11 CL11 UNL     1     -33.757   3.569   3.804  1.00 20.00    -0.095 Cl
ENDROOT
TORSDOF 0
ENDMDL
MODEL 5
REMARK VINA RESULT:       3.1      2.468      3.453
REMARK  0 active torsions:
REMARK  status: ('A' for Active; 'I' for Inactive)
ROOT
HETATM    1  C1  UNL     1     -33.631   5.019   2.869  1.00 20.00     0.101 C 
HETATM    2  C2  UNL     1     -32.687   6.778   1.750  1.00 20.00     0.055 C 
HETATM    3  C3  UNL     1     -33.813   7.348   3.800  1.00 20.00     0.145 C 
HETATM    4  C4  UNL     1     -31.546   7.142   1.140  1.00 20.00     0.112 C 
HETATM    5  C5  UNL     1     -34.060   5.874   4.036  1.00 20.00     0.092 C 
HETATM    6  C6  UNL     1     -33.680   7.761   2.342  1.00 20.00     0.105 C 
HETATM    7  C7  UNL     1     -35.539   5.642   4.314  1.00 20.00     0.023 C 
HETATM    8  C8  UNL     1     -33.348   9.247   2.217  1.00 20.00     0.025 C 
HETATM    9  N9  UNL     1     -32.999   5.436   1.816  1.00 20.00    -0.267 NA
HETATM   10  O10 UNL     1     -33.799   8.150   4.731  1.00 20.00    -0.296 OA
HETATM   11 CL11 UNL     1     -31.073   8.771   0.956  1.00 20.00    -0.095 Cl
ENDROOT
TORSDOF 0
ENDMDL
MODEL 6
REMARK VINA RESULT:       3.3      2.240      2.973
REMARK  0 active torsions:
REMARK  status: ('A' for Active; 'I' for Inactive)
ROOT
HETATM    1  C1  UNL     1     -31.990   6.149   1.236  1.00 20.00     0.101 C 
HETATM    2  C2  UNL     1     -33.386   5.801   3.016  1.00 20.00     0.055 C 
HETATM    3  C3  UNL     1     -33.142   8.096   2.333  1.00 20.00     0.145 C 
HETATM    4  C4  UNL     1     -34.399   5.015   3.416  1.00 20.00     0.112 C 
HETATM    5  C5  UNL     1     -32.283   7.628   1.179  1.00 20.00     0.092 C 
HETATM    6  C6  UNL     1     -33.133   7.196   3.559  1.00 20.00     0.105 C 
HETATM    7  C7  UNL     1     -30.972   8.402   1.170  1.00 20.00     0.023 C 
HETATM    8  C8  UNL     1     -34.094   7.711   4.629  1.00 20.00     0.025 C 
HETATM    9  N9  UNL     1     -32.498   5.308   2.083  1.00 20.00    -0.267 NA
HETATM   10  O10 UNL     1     -33.736   9.172   2.291  1.00 20.00    -0.296 OA
HETATM   11 CL11 UNL     1     -35.535   5.494   4.596  1.00 20.00    -0.095 Cl
ENDROOT
TORSDOF 0
ENDMDL
MODEL 7
REMARK VINA RESULT:       3.6      2.790      4.259
REMARK  0 active torsions:
REMARK  status: ('A' for Active; 'I' for Inactive)
ROOT
HETATM    1  C1  UNL     1     -34.455   6.440   3.968  1.00 20.00     0.101 C 
HETATM    2  C2  UNL     1     -33.221   5.935   2.107  1.00 20.00     0.055 C 
HETATM    3  C3  UNL     1     -32.533   7.914   3.292  1.00 20.00     0.145 C 
HETATM    4  C4  UNL     1     -32.604   4.903   1.507  1.00 20.00     0.112 C 
HETATM    5  C5  UNL     1     -33.578   7.610   4.342  1.00 20.00     0.092 C 
HETATM    6  C6  UNL     1     -32.838   7.388   1.898  1.00 20.00     0.105 C 
HETATM    7  C7  UNL     1     -34.448   8.839   4.569  1.00 20.00     0.023 C 
HETATM    8  C8  UNL     1     -31.685   7.672   0.935  1.00 20.00     0.025 C 
HETATM    9  N9  UNL     1     -34.290   5.669   2.938  1.00 20.00    -0.267 NA
HETATM   10  O10 UNL     1     -31.549   8.605   3.551  1.00 20.00    -0.296 OA
HETATM   11 CL11 UNL     1     -31.301   5.106   0.425  1.00 20.00    -0.095 Cl
ENDROOT
TORSDOF 0
ENDMDL
