MODEL 1
REMARK VINA RESULT:      -0.1      0.000      0.000
REMARK  0 active torsions:
REMARK  status: ('A' for Active; 'I' for Inactive)
ROOT
HETATM    1  C1  UNL     1     -33.112   8.110   3.502  1.00 20.00    -0.011 C 
HETATM    2  C2  UNL     1     -32.732   7.669   2.295  1.00 20.00    -0.015 C 
HETATM    3  C3  UNL     1     -34.002   7.324   4.424  1.00 20.00     0.036 C 
HETATM    4  C4  UNL     1     -33.139   6.331   1.744  1.00 20.00     0.047 C 
HETATM    5  C5  UNL     1     -33.775   5.413   2.797  1.00 20.00     0.014 C 
HETATM    6  C6  UNL     1     -34.749   6.153   3.738  1.00 20.00    -0.044 C 
HETATM    7  C7  UNL     1     -35.260   5.178   4.814  1.00 20.00     0.015 C 
HETATM    8  C8  UNL     1     -35.968   6.680   2.952  1.00 20.00     0.015 C 
HETATM    9 BR9  UNL     1     -31.637   8.687   1.173  1.00 20.00    -0.056 Br
ENDROOT
TORSDOF 0
ENDMDL
MODEL 2
REMARK VINA RESULT:       0.0      2.345      3.804
REMARK  0 active torsions:
REMARK  status: ('A' for Active; 'I' for Inactive)
ROOT
HETATM    1  C1  UNL     1     -34.050   6.872   3.543  1.00 20.00    -0.011 C 
HETATM    2  C2  UNL     1     -33.573   5.667   3.200  1.00 20.00    -0.015 C 
HETATM    3  C3  UNL     1     -33.700   8.136   2.809  1.00 20.00     0.036 C 
HETATM    4  C4  UNL     1     -32.652   5.451   2.031  1.00 20.00     0.047 C 
HETATM    5  C5  UNL     1     -32.552   6.673   1.108  1.00 20.00     0.014 C 
HETATM    6  C6  UNL     1     -32.469   8.009   1.878  1.00 20.00    -0.044 C 
HETATM    7  C7  UNL     1     -32.468   9.177   0.876  1.00 20.00     0.015 C 
HETATM    8  C8  UNL     1     -31.164   8.082   2.699  1.00 20.00     0.015 C 
HETATM    9 BR9  UNL     1     -34.020   4.121   4.151  1.00 20.00    -0.056 Br
ENDROOT
TORSDOF 0
ENDMDL
MODEL 3
REMARK VINA RESULT:       0.7      2.267      4.073
REMARK  0 active torsions:
REMARK  status: ('A' for Active; 'I' for Inactive)
ROOT
HETATM    1  C1  UNL     1     -33.415   5.915   2.248  1.00 20.00    -0.011 C 
HETATM    2  C2  UNL     1     -33.977   6.517   3.306  1.00 20.00    -0.015 C 
HETATM    3  C3  UNL     1     -32.274   6.509   1.472  1.00 20.00     0.036 C 
HETATM    4  C4  UNL     1     -33.510   7.843   3.839  1.00 20.00     0.047 C 
HETATM    5  C5  UNL     1     -32.164   8.289   3.252  1.00 20.00     0.014 C 
HETATM    6  C6  UNL     1     -32.044   8.017   1.737  1.00 20.00    -0.044 C 
HETATM    7  C7  UNL     1     -30.634   8.407   1.258  1.00 20.00     0.015 C 
HETATM    8  C8  UNL     1     -33.067   8.864   0.950  1.00 20.00     0.015 C 
HETATM    9 BR9  UNL     1     -35.407   5.750   4.234  1.00 20.00    -0.056 Br
ENDROOT
TORSDOF 0
ENDMDL
MODEL 4
REMARK VINA RESULT:       1.2      2.572      3.559
REMARK  0 active torsions:
REMARK  status: ('A' for Active; 'I' for Inactive)
ROOT
HETATM    1  C1  UNL     1     -34.933   4.948   4.471  1.00 20.00    -0.011 C 
HETATM    2  C2  UNL     1     -33.796   4.413   4.005  1.00 20.00    -0.015 C 
HETATM    3  C3  UNL     1     -35.345   6.368   4.206  1.00 20.00     0.036 C 
HETATM    4  C4  UNL     1     -32.823   5.174   3.147  1.00 20.00     0.047 C 
HETATM    5  C5  UNL     1     -33.388   6.500   2.622  1.00 20.00     0.014 C 
HETATM    6  C6  UNL     1     -34.203   7.274   3.683  1.00 20.00    -0.044 C 
HETATM    7  C7  UNL     1     -34.807   8.535   3.041  1.00 20.00     0.015 C 
HETATM    8  C8  UNL     1     -33.293   7.718   4.847  1.00 20.00     0.015 C 
HETATM    9 BR9  UNL     1     -33.312   2.646   4.374  1.00 20.00    -0.056 Br
ENDROOT
TORSDOF 0
ENDMDL
MODEL 5
REMARK VINA RESULT:       2.1      1.961      3.367
REMARK  0 active torsions:
REMARK  status: ('A' for Active; 'I' for Inactive)
ROOT
HETATM    1  C1  UNL     1     -33.726   5.887   3.483  1.00 20.00    -0.011 C 
HETATM    2  C2  UNL     1     -33.420   7.192   3.458  1.00 20.00    -0.015 C 
HETATM    3  C3  UNL     1     -33.236   4.906   2.456  1.00 20.00     0.036 C 
HETATM    4  C4  UNL     1     -32.535   7.807   2.410  1.00 20.00     0.047 C 
HETATM    5  C5  UNL     1     -31.791   6.767   1.561  1.00 20.00     0.014 C 
HETATM    6  C6  UNL     1     -32.673   5.561   1.171  1.00 20.00    -0.044 C 
HETATM    7  C7  UNL     1     -31.821   4.531   0.408  1.00 20.00     0.015 C 
HETATM    8  C8  UNL     1     -33.825   6.008   0.246  1.00 20.00     0.015 C 
HETATM    9 BR9  UNL     1     -34.066   8.382   4.747  1.00 20.00    -0.056 Br
ENDROOT
TORSDOF 0
ENDMDL
MODEL 6
REMARK VINA RESULT:       2.1      1.733      2.356
REMARK  0 active torsions:
REMARK  status: ('A' for Active; 'I' for Inactive)
ROOT
HETATM    1  C1  UNL     1     -32.421   6.912   1.729  1.00 20.00    -0.011 C 
HETATM    2  C2  UNL     1     -32.709   5.603   1.703  1.00 20.00    -0.015 C 
HETATM    3  C3  UNL     1     -32.844   7.828   2.843  1.00 20.00     0.036 C 
HETATM    4  C4  UNL     1     -33.470   4.909   2.799  1.00 20.00     0.047 C 
HETATM    5  C5  UNL     1     -33.622   5.765   4.064  1.00 20.00     0.014 C 
HETATM    6  C6  UNL     1     -33.947   7.244   3.760  1.00 20.00    -0.044 C 
HETATM    7  C7  UNL     1     -33.986   8.039   5.077  1.00 20.00     0.015 C 
HETATM    8  C8  UNL     1     -35.329   7.369   3.085  1.00 20.00     0.015 C 
HETATM    9 BR9  UNL     1     -32.178   4.503   0.289  1.00 20.00    -0.056 Br
ENDROOT
TORSDOF 0
ENDMDL
MODEL 7
REMARK VINA RESULT:       2.4      0.797      2.102
REMARK  0 active torsions:
REMARK  status: ('A' for Active; 'I' for Inactive)
ROOT
HETATM    1  C1  UNL     1     -33.133   6.538   1.445  1.00 20.00    -0.011 C 
HETATM    2  C2  UNL     1     -32.502   7.569   2.025  1.00 20.00    -0.015 C 
HETATM    3  C3  UNL     1     -34.189   5.723   2.136  1.00 20.00     0.036 C 
HETATM    4  C4  UNL     1     -32.802   8.031   3.424  1.00 20.00     0.047 C 
HETATM    5  C5  UNL     1     -34.080   7.412   4.004  1.00 20.00     0.014 C 
HETATM    6  C6  UNL     1     -34.231   5.911   3.672  1.00 20.00    -0.044 C 
HETATM    7  C7  UNL     1     -35.580   5.402   4.210  1.00 20.00     0.015 C 
HETATM    8  C8  UNL     1     -33.109   5.091   4.344  1.00 20.00     0.015 C 
HETATM    9 BR9  UNL     1     -31.181   8.546   1.135  1.00 20.00    -0.056 Br
ENDROOT
TORSDOF 0
ENDMDL
MODEL 8
REMARK VINA RESULT:       2.6      1.082      2.193
REMARK  0 active torsions:
REMARK  status: ('A' for Active; 'I' for Inactive)
ROOT
HETATM    1  C1  UNL     1     -32.315   6.771   1.765  1.00 20.00    -0.011 C 
HETATM    2  C2  UNL     1     -32.363   8.089   1.527  1.00 20.00    -0.015 C 
HETATM    3  C3  UNL     1     -33.256   6.067   2.701  1.00 20.00     0.036 C 
HETATM    4  C4  UNL     1     -33.379   9.000   2.159  1.00 20.00     0.047 C 
HETATM    5  C5  UNL     1     -34.518   8.243   2.855  1.00 20.00     0.014 C 
HETATM    6  C6  UNL     1     -34.030   7.013   3.652  1.00 20.00    -0.044 C 
HETATM    7  C7  UNL     1     -35.245   6.267   4.232  1.00 20.00     0.015 C 
HETATM    8  C8  UNL     1     -33.130   7.449   4.827  1.00 20.00     0.015 C 
HETATM    9 BR9  UNL     1     -31.162   8.928   0.367  1.00 20.00    -0.056 Br
ENDROOT
TORSDOF 0
ENDMDL
MODEL 9
REMARK VINA RESULT:       2.6      2.517      3.965
REMARK  0 active torsions:
REMARK  status: ('A' for Active; 'I' for Inactive)
ROOT
HETATM    1  C1  UNL     1     -32.230   4.808   2.571  1.00 20.00    -0.011 C 
HETATM    2  C2  UNL     1     -33.278   4.899   3.401  1.00 20.00    -0.015 C 
HETATM    3  C3  UNL     1     -31.755   5.948   1.715  1.00 20.00     0.036 C 
HETATM    4  C4  UNL     1     -34.077   6.160   3.578  1.00 20.00     0.047 C 
HETATM    5  C5  UNL     1     -33.409   7.392   2.954  1.00 20.00     0.014 C 
HETATM    6  C6  UNL     1     -32.776   7.104   1.574  1.00 20.00    -0.044 C 
HETATM    7  C7  UNL     1     -32.050   8.365   1.073  1.00 20.00     0.015 C 
HETATM    8  C8  UNL     1     -33.865   6.737   0.544  1.00 20.00     0.015 C 
HETATM    9 BR9  UNL     1     -33.846   3.450   4.436  1.00 20.00    -0.056 Br
ENDROOT
TORSDOF 0
ENDMDL
