MODEL 1
REMARK VINA RESULT:       6.1      0.000      0.000
REMARK  0 active torsions:
REMARK  status: ('A' for Active; 'I' for Inactive)
ROOT
HETATM    1  C1  UNL     1     -31.224   6.122   1.681  1.00 20.00     0.009 C 
HETATM    2  C2  UNL     1     -33.512   5.963   0.655  1.00 20.00     0.009 C 
HETATM    3  C3  UNL     1     -33.232   5.776   3.140  1.00 20.00     0.013 C 
HETATM    4  C4  UNL     1     -32.014   7.972   3.168  1.00 20.00     0.014 C 
HETATM    5  C5  UNL     1     -34.308   7.813   2.140  1.00 20.00     0.014 C 
HETATM    6  C6  UNL     1     -32.599   5.441   1.779  1.00 20.00    -0.013 C 
HETATM    7  C7  UNL     1     -31.378   7.652   1.800  1.00 20.00    -0.009 C 
HETATM    8  C8  UNL     1     -33.674   7.493   0.772  1.00 20.00    -0.009 C 
HETATM    9  C9  UNL     1     -32.277   8.146   0.641  1.00 20.00    -0.010 C 
HETATM   10  C10 UNL     1     -33.405   7.306   3.289  1.00 20.00    -0.043 C 
HETATM   11  C11 UNL     1     -32.342   9.672   0.552  1.00 20.00     0.010 C 
HETATM   12  C12 UNL     1     -34.035   7.638   4.644  1.00 20.00     0.015 C 
ENDROOT
TORSDOF 0
ENDMDL
MODEL 2
REMARK VINA RESULT:       6.4      1.497      3.373
REMARK  0 active torsions:
REMARK  status: ('A' for Active; 'I' for Inactive)
ROOT
HETATM    1  C1  UNL     1     -35.479   6.761   2.346  1.00 20.00     0.009 C 
HETATM    2  C2  UNL     1     -34.514   7.649   4.489  1.00 20.00     0.009 C 
HETATM    3  C3  UNL     1     -35.146   5.230   4.302  1.00 20.00     0.013 C 
HETATM    4  C4  UNL     1     -33.697   5.009   2.264  1.00 20.00     0.014 C 
HETATM    5  C5  UNL     1     -32.729   5.898   4.412  1.00 20.00     0.014 C 
HETATM    6  C6  UNL     1     -35.524   6.660   3.880  1.00 20.00    -0.013 C 
HETATM    7  C7  UNL     1     -34.060   6.443   1.833  1.00 20.00    -0.009 C 
HETATM    8  C8  UNL     1     -33.092   7.333   3.983  1.00 20.00    -0.009 C 
HETATM    9  C9  UNL     1     -33.078   7.472   2.441  1.00 20.00    -0.010 C 
HETATM   10  C10 UNL     1     -33.723   4.881   3.805  1.00 20.00    -0.043 C 
HETATM   11  C11 UNL     1     -31.670   7.367   1.850  1.00 20.00     0.010 C 
HETATM   12  C12 UNL     1     -33.350   3.458   4.226  1.00 20.00     0.015 C 
ENDROOT
TORSDOF 0
ENDMDL
MODEL 3
REMARK VINA RESULT:       6.7      0.797      2.965
REMARK  0 active torsions:
REMARK  status: ('A' for Active; 'I' for Inactive)
ROOT
HETATM    1  C1  UNL     1     -34.483   7.924   2.872  1.00 20.00     0.009 C 
HETATM    2  C2  UNL     1     -32.151   8.109   3.789  1.00 20.00     0.009 C 
HETATM    3  C3  UNL     1     -33.049   5.878   3.079  1.00 20.00     0.013 C 
HETATM    4  C4  UNL     1     -33.589   6.817   0.814  1.00 20.00     0.014 C 
HETATM    5  C5  UNL     1     -31.252   7.003   1.733  1.00 20.00     0.014 C 
HETATM    6  C6  UNL     1     -33.410   7.227   3.725  1.00 20.00    -0.013 C 
HETATM    7  C7  UNL     1     -33.948   8.176   1.447  1.00 20.00    -0.009 C 
HETATM    8  C8  UNL     1     -31.609   8.361   2.367  1.00 20.00    -0.009 C 
HETATM    9  C9  UNL     1     -32.702   9.088   1.547  1.00 20.00    -0.010 C 
HETATM   10  C10 UNL     1     -32.503   6.098   1.648  1.00 20.00    -0.043 C 
HETATM   11  C11 UNL     1     -32.201   9.558   0.179  1.00 20.00     0.010 C 
HETATM   12  C12 UNL     1     -32.144   4.755   1.007  1.00 20.00     0.015 C 
ENDROOT
TORSDOF 0
ENDMDL
MODEL 4
REMARK VINA RESULT:       6.8      1.006      3.372
REMARK  0 active torsions:
REMARK  status: ('A' for Active; 'I' for Inactive)
ROOT
HETATM    1  C1  UNL     1     -31.564   6.206   1.551  1.00 20.00     0.009 C 
HETATM    2  C2  UNL     1     -31.142   8.114   3.130  1.00 20.00     0.009 C 
HETATM    3  C3  UNL     1     -31.171   8.513   0.655  1.00 20.00     0.013 C 
HETATM    4  C4  UNL     1     -33.453   7.476   0.515  1.00 20.00     0.014 C 
HETATM    5  C5  UNL     1     -33.030   9.389   2.097  1.00 20.00     0.014 C 
HETATM    6  C6  UNL     1     -30.784   7.514   1.759  1.00 20.00    -0.013 C 
HETATM    7  C7  UNL     1     -33.080   6.474   1.625  1.00 20.00    -0.009 C 
HETATM    8  C8  UNL     1     -32.657   8.388   3.208  1.00 20.00    -0.009 C 
HETATM    9  C9  UNL     1     -33.409   7.048   3.024  1.00 20.00    -0.010 C 
HETATM   10  C10 UNL     1     -32.689   8.807   0.706  1.00 20.00    -0.043 C 
HETATM   11  C11 UNL     1     -34.913   7.173   3.274  1.00 20.00     0.010 C 
HETATM   12  C12 UNL     1     -33.072   9.801  -0.393  1.00 20.00     0.015 C 
ENDROOT
TORSDOF 0
ENDMDL
MODEL 5
REMARK VINA RESULT:       6.9      1.043      2.920
REMARK  0 active torsions:
REMARK  status: ('A' for Active; 'I' for Inactive)
ROOT
HETATM    1  C1  UNL     1     -32.882   8.123   0.878  1.00 20.00     0.009 C 
HETATM    2  C2  UNL     1     -31.182   6.814   2.185  1.00 20.00     0.009 C 
HETATM    3  C3  UNL     1     -33.175   7.798   3.346  1.00 20.00     0.013 C 
HETATM    4  C4  UNL     1     -34.695   6.625   1.729  1.00 20.00     0.014 C 
HETATM    5  C5  UNL     1     -32.992   5.313   3.039  1.00 20.00     0.014 C 
HETATM    6  C6  UNL     1     -32.145   8.013   2.224  1.00 20.00    -0.013 C 
HETATM    7  C7  UNL     1     -33.669   6.828   0.596  1.00 20.00    -0.009 C 
HETATM    8  C8  UNL     1     -31.965   5.514   1.908  1.00 20.00    -0.009 C 
HETATM    9  C9  UNL     1     -32.669   5.649   0.536  1.00 20.00    -0.010 C 
HETATM   10  C10 UNL     1     -33.980   6.501   3.094  1.00 20.00    -0.043 C 
HETATM   11  C11 UNL     1     -33.319   4.343   0.073  1.00 20.00     0.010 C 
HETATM   12  C12 UNL     1     -35.004   6.288   4.213  1.00 20.00     0.015 C 
ENDROOT
TORSDOF 0
ENDMDL
MODEL 6
REMARK VINA RESULT:       7.3      1.012      3.207
REMARK  0 active torsions:
REMARK  status: ('A' for Active; 'I' for Inactive)
ROOT
HETATM    1  C1  UNL     1     -31.390   8.126   3.232  1.00 20.00     0.009 C 
HETATM    2  C2  UNL     1     -33.779   7.400   2.962  1.00 20.00     0.009 C 
HETATM    3  C3  UNL     1     -32.989   9.537   1.915  1.00 20.00     0.013 C 
HETATM    4  C4  UNL     1     -31.153   8.285   0.746  1.00 20.00     0.014 C 
HETATM    5  C5  UNL     1     -33.549   7.557   0.476  1.00 20.00     0.014 C 
HETATM    6  C6  UNL     1     -32.846   8.611   3.135  1.00 20.00    -0.013 C 
HETATM    7  C7  UNL     1     -31.004   7.345   1.959  1.00 20.00    -0.009 C 
HETATM    8  C8  UNL     1     -33.401   6.617   1.688  1.00 20.00    -0.009 C 
HETATM    9  C9  UNL     1     -31.942   6.121   1.832  1.00 20.00    -0.010 C 
HETATM   10  C10 UNL     1     -32.613   8.780   0.619  1.00 20.00    -0.043 C 
HETATM   11  C11 UNL     1     -31.526   5.170   0.708  1.00 20.00     0.010 C 
HETATM   12  C12 UNL     1     -32.756   9.703  -0.594  1.00 20.00     0.015 C 
ENDROOT
TORSDOF 0
ENDMDL
MODEL 7
REMARK VINA RESULT:       7.7      1.053      3.315
REMARK  0 active torsions:
REMARK  status: ('A' for Active; 'I' for Inactive)
ROOT
HETATM    1  C1  UNL     1     -31.995   7.950   3.705  1.00 20.00     0.009 C 
HETATM    2  C2  UNL     1     -33.403   8.758   1.789  1.00 20.00     0.009 C 
HETATM    3  C3  UNL     1     -31.566   7.101   1.387  1.00 20.00     0.013 C 
HETATM    4  C4  UNL     1     -32.555   5.582   3.123  1.00 20.00     0.014 C 
HETATM    5  C5  UNL     1     -33.967   6.393   1.202  1.00 20.00     0.014 C 
HETATM    6  C6  UNL     1     -31.990   8.326   2.215  1.00 20.00    -0.013 C 
HETATM    7  C7  UNL     1     -32.993   6.801   3.960  1.00 20.00    -0.009 C 
HETATM    8  C8  UNL     1     -34.405   7.612   2.036  1.00 20.00    -0.009 C 
HETATM    9  C9  UNL     1     -34.406   7.279   3.548  1.00 20.00    -0.010 C 
HETATM   10  C10 UNL     1     -32.551   5.931   1.617  1.00 20.00    -0.043 C 
HETATM   11  C11 UNL     1     -35.503   6.285   3.935  1.00 20.00     0.010 C 
HETATM   12  C12 UNL     1     -32.127   4.713   0.792  1.00 20.00     0.015 C 
ENDROOT
TORSDOF 0
ENDMDL
MODEL 8
REMARK VINA RESULT:       8.2      1.524      2.945
REMARK  0 active torsions:
REMARK  status: ('A' for Active; 'I' for Inactive)
ROOT
HETATM    1  C1  UNL     1     -34.805   5.041   4.048  1.00 20.00     0.009 C 
HETATM    2  C2  UNL     1     -35.495   6.755   2.346  1.00 20.00     0.009 C 
HETATM    3  C3  UNL     1     -34.666   7.483   4.597  1.00 20.00     0.013 C 
HETATM    4  C4  UNL     1     -32.570   6.144   4.258  1.00 20.00     0.014 C 
HETATM    5  C5  UNL     1     -33.261   7.862   2.551  1.00 20.00     0.014 C 
HETATM    6  C6  UNL     1     -35.474   6.411   3.845  1.00 20.00    -0.013 C 
HETATM    7  C7  UNL     1     -33.365   5.066   3.496  1.00 20.00    -0.009 C 
HETATM    8  C8  UNL     1     -34.057   6.785   1.789  1.00 20.00    -0.009 C 
HETATM    9  C9  UNL     1     -33.426   5.386   1.983  1.00 20.00    -0.010 C 
HETATM   10  C10 UNL     1     -33.216   7.536   4.062  1.00 20.00    -0.043 C 
HETATM   11  C11 UNL     1     -32.066   5.248   1.294  1.00 20.00     0.010 C 
HETATM   12  C12 UNL     1     -32.414   8.603   4.812  1.00 20.00     0.015 C 
ENDROOT
TORSDOF 0
ENDMDL
MODEL 9
REMARK VINA RESULT:       8.2      1.034      3.213
REMARK  0 active torsions:
REMARK  status: ('A' for Active; 'I' for Inactive)
ROOT
HETATM    1  C1  UNL     1     -34.242   6.476   2.273  1.00 20.00     0.009 C 
HETATM    2  C2  UNL     1     -31.771   6.087   2.043  1.00 20.00     0.009 C 
HETATM    3  C3  UNL     1     -32.990   7.464   0.340  1.00 20.00     0.013 C 
HETATM    4  C4  UNL     1     -33.867   8.946   2.167  1.00 20.00     0.014 C 
HETATM    5  C5  UNL     1     -31.390   8.557   1.937  1.00 20.00     0.014 C 
HETATM    6  C6  UNL     1     -33.095   6.248   1.276  1.00 20.00    -0.013 C 
HETATM    7  C7  UNL     1     -33.970   7.737   3.118  1.00 20.00    -0.009 C 
HETATM    8  C8  UNL     1     -31.491   7.347   2.886  1.00 20.00    -0.009 C 
HETATM    9  C9  UNL     1     -32.649   7.529   3.897  1.00 20.00    -0.010 C 
HETATM   10  C10 UNL     1     -32.712   8.748   1.158  1.00 20.00    -0.043 C 
HETATM   11  C11 UNL     1     -32.379   8.642   4.912  1.00 20.00     0.010 C 
HETATM   12  C12 UNL     1     -32.608   9.957   0.225  1.00 20.00     0.015 C 
ENDROOT
TORSDOF 0
ENDMDL
