MODEL 1
REMARK VINA RESULT:       0.1      0.000      0.000
REMARK  1 active torsions:
REMARK  status: ('A' for Active; 'I' for Inactive)
REMARK    1  A    between atoms: C5_5  and  N7_7 
ROOT
HETATM    1  C1  UNL     1     -34.273   4.215   4.492  1.00 20.00     0.160 C 
HETATM    2  N7  UNL     1     -35.096   5.049   4.508  1.00 20.00    -0.237 NA
HETATM    3  S9  UNL     1     -33.176   3.061   4.495  1.00 20.00    -0.055 SA
ENDROOT
BRANCH   2   4
HETATM    4  C5  UNL     1     -34.812   6.204   3.645  1.00 20.00     0.152 C 
HETATM    5  C3  UNL     1     -34.116   7.281   4.480  1.00 20.00     0.065 C 
HETATM    6  C2  UNL     1     -33.240   7.982   3.474  1.00 20.00     0.031 C 
HETATM    7  C4  UNL     1     -32.822   6.839   2.581  1.00 20.00     0.171 C 
HETATM    8  O8  UNL     1     -33.941   5.945   2.522  1.00 20.00    -0.359 OA
HETATM    9  C6  UNL     1     -36.144   6.694   3.072  1.00 20.00     0.073 C 
ENDBRANCH   2   4
TORSDOF 1
ENDMDL
MODEL 2
REMARK VINA RESULT:       0.6      3.153      4.030
REMARK  1 active torsions:
REMARK  status: ('A' for Active; 'I' for Inactive)
REMARK    1  A    between atoms: C5_5  and  N7_7 
ROOT
HETATM    1  C1  UNL     1     -32.104   8.087   1.512  1.00 20.00     0.160 C 
HETATM    2  N7  UNL     1     -31.999   7.123   2.169  1.00 20.00    -0.237 NA
HETATM    3  S9  UNL     1     -32.211   9.405   0.625  1.00 20.00    -0.055 SA
ENDROOT
BRANCH   2   4
HETATM    4  C5  UNL     1     -33.226   6.322   2.279  1.00 20.00     0.152 C 
HETATM    5  C3  UNL     1     -32.986   5.193   3.284  1.00 20.00     0.065 C 
HETATM    6  C2  UNL     1     -34.354   4.963   3.874  1.00 20.00     0.031 C 
HETATM    7  C4  UNL     1     -34.915   6.364   3.903  1.00 20.00     0.171 C 
HETATM    8  O8  UNL     1     -34.395   7.030   2.745  1.00 20.00    -0.359 OA
HETATM    9  C6  UNL     1     -33.556   5.785   0.884  1.00 20.00     0.073 C 
ENDBRANCH   2   4
TORSDOF 1
ENDMDL
MODEL 3
REMARK VINA RESULT:       0.8      2.489      3.510
REMARK  1 active torsions:
REMARK  status: ('A' for Active; 'I' for Inactive)
REMARK    1  A    between atoms: C5_5  and  N7_7 
ROOT
HETATM    1  C1  UNL     1     -32.793   7.493   1.906  1.00 20.00     0.160 C 
HETATM    2  N7  UNL     1     -33.851   7.042   2.128  1.00 20.00    -0.237 NA
HETATM    3  S9  UNL     1     -31.365   8.114   1.569  1.00 20.00    -0.055 SA
ENDROOT
BRANCH   2   4
HETATM    4  C5  UNL     1     -34.016   6.513   3.489  1.00 20.00     0.152 C 
HETATM    5  C3  UNL     1     -35.497   6.200   3.716  1.00 20.00     0.065 C 
HETATM    6  C2  UNL     1     -35.459   5.051   4.691  1.00 20.00     0.031 C 
HETATM    7  C4  UNL     1     -34.231   4.301   4.232  1.00 20.00     0.171 C 
HETATM    8  O8  UNL     1     -33.301   5.292   3.776  1.00 20.00    -0.359 OA
HETATM    9  C6  UNL     1     -33.498   7.573   4.464  1.00 20.00     0.073 C 
ENDBRANCH   2   4
TORSDOF 1
ENDMDL
MODEL 4
REMARK VINA RESULT:       0.9      2.942      3.860
REMARK  1 active torsions:
REMARK  status: ('A' for Active; 'I' for Inactive)
REMARK    1  A    between atoms: C5_5  and  N7_7 
ROOT
HETATM    1  C1  UNL     1     -32.524   7.883   1.469  1.00 20.00     0.160 C 
HETATM    2  N7  UNL     1     -32.713   6.800   1.876  1.00 20.00    -0.237 NA
HETATM    3  S9  UNL     1     -32.250   9.339   0.885  1.00 20.00    -0.055 SA
ENDROOT
BRANCH   2   4
HETATM    4  C5  UNL     1     -33.417   6.746   3.164  1.00 20.00     0.152 C 
HETATM    5  C3  UNL     1     -34.907   6.996   2.919  1.00 20.00     0.065 C 
HETATM    6  C2  UNL     1     -35.572   6.208   4.019  1.00 20.00     0.031 C 
HETATM    7  C4  UNL     1     -34.658   5.011   4.134  1.00 20.00     0.171 C 
HETATM    8  O8  UNL     1     -33.333   5.489   3.870  1.00 20.00    -0.359 OA
HETATM    9  C6  UNL     1     -32.800   7.811   4.074  1.00 20.00     0.073 C 
ENDBRANCH   2   4
TORSDOF 1
ENDMDL
MODEL 5
REMARK VINA RESULT:       1.0      3.172      4.127
REMARK  1 active torsions:
REMARK  status: ('A' for Active; 'I' for Inactive)
REMARK    1  A    between atoms: C5_5  and  N7_7 
ROOT
HETATM    1  C1  UNL     1     -33.572   6.752   2.702  1.00 20.00     0.160 C 
HETATM    2  N7  UNL     1     -32.795   6.811   1.826  1.00 20.00    -0.237 NA
HETATM    3  S9  UNL     1     -34.635   6.636   3.882  1.00 20.00    -0.055 SA
ENDROOT
BRANCH   2   4
HETATM    4  C5  UNL     1     -32.165   8.128   1.657  1.00 20.00     0.152 C 
HETATM    5  C3  UNL     1     -31.329   8.109   0.376  1.00 20.00     0.065 C 
HETATM    6  C2  UNL     1     -31.387   9.541  -0.093  1.00 20.00     0.031 C 
HETATM    7  C4  UNL     1     -32.790   9.935   0.302  1.00 20.00     0.171 C 
HETATM    8  O8  UNL     1     -33.074   9.243   1.524  1.00 20.00    -0.359 OA
HETATM    9  C6  UNL     1     -31.309   8.396   2.896  1.00 20.00     0.073 C 
ENDBRANCH   2   4
TORSDOF 1
ENDMDL
MODEL 6
REMARK VINA RESULT:       1.0      2.402      3.464
REMARK  1 active torsions:
REMARK  status: ('A' for Active; 'I' for Inactive)
REMARK    1  A    between atoms: C5_5  and  N7_7 
ROOT
HETATM    1  C1  UNL     1     -34.047   6.879   3.558  1.00 20.00     0.160 C 
HETATM    2  N7  UNL     1     -33.126   7.479   3.152  1.00 20.00    -0.237 NA
HETATM    3  S9  UNL     1     -35.299   6.086   4.141  1.00 20.00    -0.055 SA
ENDROOT
BRANCH   2   4
HETATM    4  C5  UNL     1     -32.631   7.026   1.845  1.00 20.00     0.152 C 
HETATM    5  C3  UNL     1     -31.745   5.796   2.056  1.00 20.00     0.065 C 
HETATM    6  C2  UNL     1     -31.934   5.015   0.780  1.00 20.00     0.031 C 
HETATM    7  C4  UNL     1     -33.385   5.288   0.466  1.00 20.00     0.171 C 
HETATM    8  O8  UNL     1     -33.645   6.630   0.896  1.00 20.00    -0.359 OA
HETATM    9  C6  UNL     1     -31.858   8.187   1.214  1.00 20.00     0.073 C 
ENDBRANCH   2   4
TORSDOF 1
ENDMDL
MODEL 7
REMARK VINA RESULT:       1.0      2.842      3.522
REMARK  1 active torsions:
REMARK  status: ('A' for Active; 'I' for Inactive)
REMARK    1  A    between atoms: C5_5  and  N7_7 
ROOT
HETATM    1  C1  UNL     1     -33.903   7.118   3.623  1.00 20.00     0.160 C 
HETATM    2  N7  UNL     1     -32.926   7.714   3.369  1.00 20.00    -0.237 NA
HETATM    3  S9  UNL     1     -35.226   6.318   4.004  1.00 20.00    -0.055 SA
ENDROOT
BRANCH   2   4
HETATM    4  C5  UNL     1     -32.534   7.669   1.954  1.00 20.00     0.152 C 
HETATM    5  C3  UNL     1     -33.237   8.810   1.215  1.00 20.00     0.065 C 
HETATM    6  C2  UNL     1     -32.270   9.150   0.110  1.00 20.00     0.031 C 
HETATM    7  C4  UNL     1     -30.939   8.932   0.790  1.00 20.00     0.171 C 
HETATM    8  O8  UNL     1     -31.123   7.833   1.691  1.00 20.00    -0.359 OA
HETATM    9  C6  UNL     1     -32.933   6.298   1.405  1.00 20.00     0.073 C 
ENDBRANCH   2   4
TORSDOF 1
ENDMDL
MODEL 8
REMARK VINA RESULT:       1.2      3.990      4.924
REMARK  1 active torsions:
REMARK  status: ('A' for Active; 'I' for Inactive)
REMARK    1  A    between atoms: C5_5  and  N7_7 
ROOT
HETATM    1  C1  UNL     1     -32.331   9.449   0.481  1.00 20.00     0.160 C 
HETATM    2  N7  UNL     1     -31.992   8.328   0.487  1.00 20.00    -0.237 NA
HETATM    3  S9  UNL     1     -32.783  10.976   0.437  1.00 20.00    -0.055 SA
ENDROOT
BRANCH   2   4
HETATM    4  C5  UNL     1     -32.122   7.657   1.788  1.00 20.00     0.152 C 
HETATM    5  C3  UNL     1     -33.537   7.893   2.321  1.00 20.00     0.065 C 
HETATM    6  C2  UNL     1     -33.806   6.655   3.137  1.00 20.00     0.031 C 
HETATM    7  C4  UNL     1     -33.094   5.595   2.331  1.00 20.00     0.171 C 
HETATM    8  O8  UNL     1     -31.933   6.226   1.774  1.00 20.00    -0.359 OA
HETATM    9  C6  UNL     1     -31.055   8.239   2.718  1.00 20.00     0.073 C 
ENDBRANCH   2   4
TORSDOF 1
ENDMDL
MODEL 9
REMARK VINA RESULT:       1.3      1.769      2.586
REMARK  1 active torsions:
REMARK  status: ('A' for Active; 'I' for Inactive)
REMARK    1  A    between atoms: C5_5  and  N7_7 
ROOT
HETATM    1  C1  UNL     1     -34.426   5.801   3.709  1.00 20.00     0.160 C 
HETATM    2  N7  UNL     1     -34.581   6.892   3.308  1.00 20.00    -0.237 NA
HETATM    3  S9  UNL     1     -34.252   4.315   4.254  1.00 20.00    -0.055 SA
ENDROOT
BRANCH   2   4
HETATM    4  C5  UNL     1     -33.339   7.640   3.076  1.00 20.00     0.152 C 
HETATM    5  C3  UNL     1     -32.374   6.754   2.285  1.00 20.00     0.065 C 
HETATM    6  C2  UNL     1     -31.571   7.749   1.486  1.00 20.00     0.031 C 
HETATM    7  C4  UNL     1     -32.609   8.800   1.175  1.00 20.00     0.171 C 
HETATM    8  O8  UNL     1     -33.476   8.859   2.315  1.00 20.00    -0.359 OA
HETATM    9  C6  UNL     1     -32.770   8.030   4.443  1.00 20.00     0.073 C 
ENDBRANCH   2   4
TORSDOF 1
ENDMDL
