MODEL 1
REMARK VINA RESULT:      -0.6      0.000      0.000
REMARK  2 active torsions:
REMARK  status: ('A' for Active; 'I' for Inactive)
REMARK    1  A    between atoms: C1_1  and  C5_5 
REMARK    2  A    between atoms: C5_5  and  C7_7 
ROOT
HETATM    1  C2  UNL     1     -32.763   4.864   0.635  1.00 20.00     0.002 C 
HETATM    2  C3  UNL     1     -33.480   6.225   0.620  1.00 20.00     0.020 C 
HETATM    3  C4  UNL     1     -31.708   5.484   1.566  1.00 20.00     0.020 C 
HETATM    4  C5  UNL     1     -32.747   6.585   1.950  1.00 20.00     0.048 C 
ENDROOT
BRANCH   4   5
HETATM    5  C1  UNL     1     -32.183   8.032   2.026  1.00 20.00     0.181 C 
HETATM    6  O8  UNL     1     -32.387   8.744   1.004  1.00 20.00    -0.647 OA
HETATM    7  O9  UNL     1     -31.590   8.313   3.105  1.00 20.00    -0.647 OA
ENDBRANCH   4   5
BRANCH   4   8
HETATM    8  C7  UNL     1     -33.557   6.247   3.204  1.00 20.00     0.016 C 
HETATM    9  C6  UNL     1     -34.298   7.437   3.722  1.00 20.00     0.006 C 
ENDBRANCH   4   8
TORSDOF 2
ENDMDL
MODEL 2
REMARK VINA RESULT:      -0.6      0.018      1.079
REMARK  2 active torsions:
REMARK  status: ('A' for Active; 'I' for Inactive)
REMARK    1  A    between atoms: C1_1  and  C5_5 
REMARK    2  A    between atoms: C5_5  and  C7_7 
ROOT
HETATM    1  C2  UNL     1     -32.751   4.854   0.640  1.00 20.00     0.002 C 
HETATM    2  C3  UNL     1     -33.463   6.218   0.619  1.00 20.00     0.020 C 
HETATM    3  C4  UNL     1     -31.702   5.472   1.580  1.00 20.00     0.020 C 
HETATM    4  C5  UNL     1     -32.742   6.576   1.956  1.00 20.00     0.048 C 
ENDROOT
BRANCH   4   5
HETATM    5  C1  UNL     1     -32.174   8.020   2.037  1.00 20.00     0.181 C 
HETATM    6  O8  UNL     1     -31.592   8.311   3.119  1.00 20.00    -0.647 OA
HETATM    7  O9  UNL     1     -32.366   8.723   1.005  1.00 20.00    -0.647 OA
ENDBRANCH   4   5
BRANCH   4   8
HETATM    8  C7  UNL     1     -33.564   6.239   3.202  1.00 20.00     0.016 C 
HETATM    9  C6  UNL     1     -34.307   7.431   3.713  1.00 20.00     0.006 C 
ENDBRANCH   4   8
TORSDOF 2
ENDMDL
MODEL 3
REMARK VINA RESULT:      -0.4      1.553      2.510
REMARK  2 active torsions:
REMARK  status: ('A' for Active; 'I' for Inactive)
REMARK    1  A    between atoms: C1_1  and  C5_5 
REMARK    2  A    between atoms: C5_5  and  C7_7 
ROOT
HETATM    1  C2  UNL     1     -32.479   5.171   0.670  1.00 20.00     0.002 C 
HETATM    2  C3  UNL     1     -32.124   5.312   2.161  1.00 20.00     0.020 C 
HETATM    3  C4  UNL     1     -33.574   6.231   0.881  1.00 20.00     0.020 C 
HETATM    4  C5  UNL     1     -32.811   6.714   2.156  1.00 20.00     0.048 C 
ENDROOT
BRANCH   4   5
HETATM    5  C1  UNL     1     -33.706   7.018   3.389  1.00 20.00     0.181 C 
HETATM    6  O8  UNL     1     -34.767   6.339   3.466  1.00 20.00    -0.647 OA
HETATM    7  O9  UNL     1     -33.255   7.908   4.163  1.00 20.00    -0.647 OA
ENDBRANCH   4   5
BRANCH   4   8
HETATM    8  C7  UNL     1     -31.841   7.866   1.885  1.00 20.00     0.016 C 
HETATM    9  C6  UNL     1     -32.462   8.923   1.029  1.00 20.00     0.006 C 
ENDBRANCH   4   8
TORSDOF 2
ENDMDL
MODEL 4
REMARK VINA RESULT:      -0.2      1.402      3.102
REMARK  2 active torsions:
REMARK  status: ('A' for Active; 'I' for Inactive)
REMARK    1  A    between atoms: C1_1  and  C5_5 
REMARK    2  A    between atoms: C5_5  and  C7_7 
ROOT
HETATM    1  C2  UNL     1     -35.174   5.106   4.192  1.00 20.00     0.002 C 
HETATM    2  C3  UNL     1     -33.644   5.266   4.172  1.00 20.00     0.020 C 
HETATM    3  C4  UNL     1     -35.284   6.565   3.716  1.00 20.00     0.020 C 
HETATM    4  C5  UNL     1     -33.817   6.464   3.187  1.00 20.00     0.048 C 
ENDROOT
BRANCH   4   5
HETATM    5  C1  UNL     1     -32.920   7.699   3.480  1.00 20.00     0.181 C 
HETATM    6  O8  UNL     1     -32.902   8.079   4.684  1.00 20.00    -0.647 OA
HETATM    7  O9  UNL     1     -32.319   8.168   2.473  1.00 20.00    -0.647 OA
ENDBRANCH   4   5
BRANCH   4   8
HETATM    8  C7  UNL     1     -33.728   6.060   1.713  1.00 20.00     0.016 C 
HETATM    9  C6  UNL     1     -32.404   5.450   1.385  1.00 20.00     0.006 C 
ENDBRANCH   4   8
TORSDOF 2
ENDMDL
MODEL 5
REMARK VINA RESULT:      -0.2      1.591      2.974
REMARK  2 active torsions:
REMARK  status: ('A' for Active; 'I' for Inactive)
REMARK    1  A    between atoms: C1_1  and  C5_5 
REMARK    2  A    between atoms: C5_5  and  C7_7 
ROOT
HETATM    1  C2  UNL     1     -31.627   8.787   0.994  1.00 20.00     0.002 C 
HETATM    2  C3  UNL     1     -33.119   8.717   1.360  1.00 20.00     0.020 C 
HETATM    3  C4  UNL     1     -31.340   7.866   2.193  1.00 20.00     0.020 C 
HETATM    4  C5  UNL     1     -32.830   7.398   2.142  1.00 20.00     0.048 C 
ENDROOT
BRANCH   4   5
HETATM    5  C1  UNL     1     -33.534   7.278   3.523  1.00 20.00     0.181 C 
HETATM    6  O8  UNL     1     -33.092   8.045   4.422  1.00 20.00    -0.647 OA
HETATM    7  O9  UNL     1     -34.464   6.426   3.570  1.00 20.00    -0.647 OA
ENDBRANCH   4   5
BRANCH   4   8
HETATM    8  C7  UNL     1     -33.044   6.134   1.307  1.00 20.00     0.016 C 
HETATM    9  C6  UNL     1     -31.936   5.149   1.498  1.00 20.00     0.006 C 
ENDBRANCH   4   8
TORSDOF 2
ENDMDL
MODEL 6
REMARK VINA RESULT:      -0.2      2.798      4.063
REMARK  2 active torsions:
REMARK  status: ('A' for Active; 'I' for Inactive)
REMARK    1  A    between atoms: C1_1  and  C5_5 
REMARK    2  A    between atoms: C5_5  and  C7_7 
ROOT
HETATM    1  C2  UNL     1     -34.216   8.090   3.738  1.00 20.00     0.002 C 
HETATM    2  C3  UNL     1     -35.257   6.981   3.511  1.00 20.00     0.020 C 
HETATM    3  C4  UNL     1     -33.210   6.997   4.137  1.00 20.00     0.020 C 
HETATM    4  C5  UNL     1     -34.085   5.960   3.364  1.00 20.00     0.048 C 
ENDROOT
BRANCH   4   5
HETATM    5  C1  UNL     1     -34.296   4.600   4.087  1.00 20.00     0.181 C 
HETATM    6  O8  UNL     1     -33.374   3.754   3.922  1.00 20.00    -0.647 OA
HETATM    7  O9  UNL     1     -35.366   4.515   4.752  1.00 20.00    -0.647 OA
ENDBRANCH   4   5
BRANCH   4   8
HETATM    8  C7  UNL     1     -33.640   5.747   1.915  1.00 20.00     0.016 C 
HETATM    9  C6  UNL     1     -32.159   5.878   1.765  1.00 20.00     0.006 C 
ENDBRANCH   4   8
TORSDOF 2
ENDMDL
MODEL 7
REMARK VINA RESULT:      -0.1      1.876      2.981
REMARK  2 active torsions:
REMARK  status: ('A' for Active; 'I' for Inactive)
REMARK    1  A    between atoms: C1_1  and  C5_5 
REMARK    2  A    between atoms: C5_5  and  C7_7 
ROOT
HETATM    1  C2  UNL     1     -35.102   6.382   4.076  1.00 20.00     0.002 C 
HETATM    2  C3  UNL     1     -35.010   6.808   2.600  1.00 20.00     0.020 C 
HETATM    3  C4  UNL     1     -33.810   5.572   3.872  1.00 20.00     0.020 C 
HETATM    4  C5  UNL     1     -33.487   6.468   2.634  1.00 20.00     0.048 C 
ENDROOT
BRANCH   4   5
HETATM    5  C1  UNL     1     -32.949   5.709   1.389  1.00 20.00     0.181 C 
HETATM    6  O8  UNL     1     -33.757   5.613   0.425  1.00 20.00    -0.647 OA
HETATM    7  O9  UNL     1     -31.764   5.284   1.499  1.00 20.00    -0.647 OA
ENDBRANCH   4   5
BRANCH   4   8
HETATM    8  C7  UNL     1     -32.601   7.671   2.968  1.00 20.00     0.016 C 
HETATM    9  C6  UNL     1     -32.041   8.306   1.736  1.00 20.00     0.006 C 
ENDBRANCH   4   8
TORSDOF 2
ENDMDL
MODEL 8
REMARK VINA RESULT:      -0.0      0.807      2.696
REMARK  2 active torsions:
REMARK  status: ('A' for Active; 'I' for Inactive)
REMARK    1  A    between atoms: C1_1  and  C5_5 
REMARK    2  A    between atoms: C5_5  and  C7_7 
ROOT
HETATM    1  C2  UNL     1     -34.923   6.467   3.979  1.00 20.00     0.002 C 
HETATM    2  C3  UNL     1     -33.387   6.447   4.060  1.00 20.00     0.020 C 
HETATM    3  C4  UNL     1     -34.800   7.469   2.818  1.00 20.00     0.020 C 
HETATM    4  C5  UNL     1     -33.337   6.969   2.590  1.00 20.00     0.048 C 
ENDROOT
BRANCH   4   5
HETATM    5  C1  UNL     1     -32.291   8.086   2.318  1.00 20.00     0.181 C 
HETATM    6  O8  UNL     1     -32.263   8.521   1.133  1.00 20.00    -0.647 OA
HETATM    7  O9  UNL     1     -31.598   8.418   3.320  1.00 20.00    -0.647 OA
ENDBRANCH   4   5
BRANCH   4   8
HETATM    8  C7  UNL     1     -33.230   5.852   1.550  1.00 20.00     0.016 C 
HETATM    9  C6  UNL     1     -31.814   5.424   1.340  1.00 20.00     0.006 C 
ENDBRANCH   4   8
TORSDOF 2
ENDMDL
MODEL 9
REMARK VINA RESULT:      -0.0      1.700      2.708
REMARK  2 active torsions:
REMARK  status: ('A' for Active; 'I' for Inactive)
REMARK    1  A    between atoms: C1_1  and  C5_5 
REMARK    2  A    between atoms: C5_5  and  C7_7 
ROOT
HETATM    1  C2  UNL     1     -35.364   5.413   4.309  1.00 20.00     0.002 C 
HETATM    2  C3  UNL     1     -35.261   6.613   3.352  1.00 20.00     0.020 C 
HETATM    3  C4  UNL     1     -33.954   4.996   3.859  1.00 20.00     0.020 C 
HETATM    4  C5  UNL     1     -33.708   6.465   3.390  1.00 20.00     0.048 C 
ENDROOT
BRANCH   4   5
HETATM    5  C1  UNL     1     -32.994   6.612   2.017  1.00 20.00     0.181 C 
HETATM    6  O8  UNL     1     -33.116   5.627   1.238  1.00 20.00    -0.647 OA
HETATM    7  O9  UNL     1     -32.381   7.704   1.854  1.00 20.00    -0.647 OA
ENDBRANCH   4   5
BRANCH   4   8
HETATM    8  C7  UNL     1     -33.038   7.340   4.453  1.00 20.00     0.016 C 
HETATM    9  C6  UNL     1     -33.889   8.511   4.823  1.00 20.00     0.006 C 
ENDBRANCH   4   8
TORSDOF 2
ENDMDL
