MODEL 1
REMARK VINA RESULT:      -2.0      0.000      0.000
REMARK  1 active torsions:
REMARK  status: ('A' for Active; 'I' for Inactive)
REMARK    1  A    between atoms: C3_3  and  C4_4 
ROOT
HETATM    1  C1  UNL     1     -32.836   6.018   1.881  1.00 20.00     0.175 C 
HETATM    2  C2  UNL     1     -32.096   7.928   2.120  1.00 20.00     0.175 C 
HETATM    3  C3  UNL     1     -33.473   7.313   2.398  1.00 20.00     0.047 C 
HETATM    4  O5  UNL     1     -31.660   6.733   1.426  1.00 20.00    -0.390 OA
ENDROOT
BRANCH   3   5
HETATM    5  C4  UNL     1     -33.939   7.314   3.837  1.00 20.00     0.123 C 
HETATM    6 CL6  UNL     1     -35.332   6.229   4.041  1.00 20.00    -0.130 Cl
ENDBRANCH   3   5
TORSDOF 1
ENDMDL
MODEL 2
REMARK VINA RESULT:      -1.9      1.983      2.404
REMARK  1 active torsions:
REMARK  status: ('A' for Active; 'I' for Inactive)
REMARK    1  A    between atoms: C3_3  and  C4_4 
ROOT
HETATM    1  C1  UNL     1     -33.552   6.277   2.723  1.00 20.00     0.175 C 
HETATM    2  C2  UNL     1     -34.183   7.549   4.218  1.00 20.00     0.175 C 
HETATM    3  C3  UNL     1     -34.830   6.321   3.568  1.00 20.00     0.047 C 
HETATM    4  O5  UNL     1     -33.134   7.573   3.218  1.00 20.00    -0.390 OA
ENDROOT
BRANCH   3   5
HETATM    5  C4  UNL     1     -35.091   5.134   4.469  1.00 20.00     0.123 C 
HETATM    6 CL6  UNL     1     -33.889   3.857   4.180  1.00 20.00    -0.130 Cl
ENDBRANCH   3   5
TORSDOF 1
ENDMDL
MODEL 3
REMARK VINA RESULT:      -1.7      2.936      3.414
REMARK  1 active torsions:
REMARK  status: ('A' for Active; 'I' for Inactive)
REMARK    1  A    between atoms: C3_3  and  C4_4 
ROOT
HETATM    1  C1  UNL     1     -35.413   6.148   4.182  1.00 20.00     0.175 C 
HETATM    2  C2  UNL     1     -33.847   4.895   3.706  1.00 20.00     0.175 C 
HETATM    3  C3  UNL     1     -34.235   6.293   3.211  1.00 20.00     0.047 C 
HETATM    4  O5  UNL     1     -35.108   4.749   4.403  1.00 20.00    -0.390 OA
ENDROOT
BRANCH   3   5
HETATM    5  C4  UNL     1     -33.255   7.410   3.494  1.00 20.00     0.123 C 
HETATM    6 CL6  UNL     1     -32.282   7.765   2.049  1.00 20.00    -0.130 Cl
ENDBRANCH   3   5
TORSDOF 1
ENDMDL
MODEL 4
REMARK VINA RESULT:      -1.6      0.541      1.306
REMARK  1 active torsions:
REMARK  status: ('A' for Active; 'I' for Inactive)
REMARK    1  A    between atoms: C3_3  and  C4_4 
ROOT
HETATM    1  C1  UNL     1     -32.267   8.045   2.337  1.00 20.00     0.175 C 
HETATM    2  C2  UNL     1     -33.049   6.171   1.981  1.00 20.00     0.175 C 
HETATM    3  C3  UNL     1     -32.995   7.043   3.241  1.00 20.00     0.047 C 
HETATM    4  O5  UNL     1     -32.150   7.063   1.278  1.00 20.00    -0.390 OA
ENDROOT
BRANCH   3   5
HETATM    5  C4  UNL     1     -34.322   7.486   3.818  1.00 20.00     0.123 C 
HETATM    6 CL6  UNL     1     -35.388   6.087   4.074  1.00 20.00    -0.130 Cl
ENDBRANCH   3   5
TORSDOF 1
ENDMDL
MODEL 5
REMARK VINA RESULT:      -1.6      2.921      3.385
REMARK  1 active torsions:
REMARK  status: ('A' for Active; 'I' for Inactive)
REMARK    1  A    between atoms: C3_3  and  C4_4 
ROOT
HETATM    1  C1  UNL     1     -34.268   4.861   3.817  1.00 20.00     0.175 C 
HETATM    2  C2  UNL     1     -34.964   6.801   3.754  1.00 20.00     0.175 C 
HETATM    3  C3  UNL     1     -33.605   6.182   3.406  1.00 20.00     0.047 C 
HETATM    4  O5  UNL     1     -35.421   5.561   4.347  1.00 20.00    -0.390 OA
ENDROOT
BRANCH   3   5
HETATM    5  C4  UNL     1     -33.155   6.297   1.966  1.00 20.00     0.123 C 
HETATM    6 CL6  UNL     1     -32.080   7.698   1.760  1.00 20.00    -0.130 Cl
ENDBRANCH   3   5
TORSDOF 1
ENDMDL
MODEL 6
REMARK VINA RESULT:      -1.4      2.642      3.180
REMARK  1 active torsions:
REMARK  status: ('A' for Active; 'I' for Inactive)
REMARK    1  A    between atoms: C3_3  and  C4_4 
ROOT
HETATM    1  C1  UNL     1     -33.750   7.257   3.507  1.00 20.00     0.175 C 
HETATM    2  C2  UNL     1     -33.168   5.783   2.189  1.00 20.00     0.175 C 
HETATM    3  C3  UNL     1     -33.246   7.308   2.060  1.00 20.00     0.047 C 
HETATM    4  O5  UNL     1     -33.875   5.815   3.452  1.00 20.00    -0.390 OA
ENDROOT
BRANCH   3   5
HETATM    5  C4  UNL     1     -31.941   8.038   1.821  1.00 20.00     0.123 C 
HETATM    6 CL6  UNL     1     -32.166   9.342   0.635  1.00 20.00    -0.130 Cl
ENDBRANCH   3   5
TORSDOF 1
ENDMDL
MODEL 7
REMARK VINA RESULT:      -1.4      2.756      3.186
REMARK  1 active torsions:
REMARK  status: ('A' for Active; 'I' for Inactive)
REMARK    1  A    between atoms: C3_3  and  C4_4 
ROOT
HETATM    1  C1  UNL     1     -34.856   6.006   3.517  1.00 20.00     0.175 C 
HETATM    2  C2  UNL     1     -33.683   7.649   3.937  1.00 20.00     0.175 C 
HETATM    3  C3  UNL     1     -33.381   6.318   3.240  1.00 20.00     0.047 C 
HETATM    4  O5  UNL     1     -34.982   7.172   4.367  1.00 20.00    -0.390 OA
ENDROOT
BRANCH   3   5
HETATM    5  C4  UNL     1     -32.963   6.392   1.787  1.00 20.00     0.123 C 
HETATM    6 CL6  UNL     1     -31.890   7.782   1.517  1.00 20.00    -0.130 Cl
ENDBRANCH   3   5
TORSDOF 1
ENDMDL
MODEL 8
REMARK VINA RESULT:      -1.2      2.658      3.142
REMARK  1 active torsions:
REMARK  status: ('A' for Active; 'I' for Inactive)
REMARK    1  A    between atoms: C3_3  and  C4_4 
ROOT
HETATM    1  C1  UNL     1     -32.698   6.323   1.711  1.00 20.00     0.175 C 
HETATM    2  C2  UNL     1     -33.051   8.042   2.793  1.00 20.00     0.175 C 
HETATM    3  C3  UNL     1     -31.947   7.656   1.801  1.00 20.00     0.047 C 
HETATM    4  O5  UNL     1     -33.547   6.682   2.829  1.00 20.00    -0.390 OA
ENDROOT
BRANCH   3   5
HETATM    5  C4  UNL     1     -31.858   8.474   0.531  1.00 20.00     0.123 C 
HETATM    6 CL6  UNL     1     -32.627  10.061   0.757  1.00 20.00    -0.130 Cl
ENDBRANCH   3   5
TORSDOF 1
ENDMDL
MODEL 9
REMARK VINA RESULT:      -1.2      2.371      3.009
REMARK  1 active torsions:
REMARK  status: ('A' for Active; 'I' for Inactive)
REMARK    1  A    between atoms: C3_3  and  C4_4 
ROOT
HETATM    1  C1  UNL     1     -33.336   7.408   3.548  1.00 20.00     0.175 C 
HETATM    2  C2  UNL     1     -35.072   6.410   4.040  1.00 20.00     0.175 C 
HETATM    3  C3  UNL     1     -34.028   6.182   2.941  1.00 20.00     0.047 C 
HETATM    4  O5  UNL     1     -34.485   7.689   4.386  1.00 20.00    -0.390 OA
ENDROOT
BRANCH   3   5
HETATM    5  C4  UNL     1     -33.264   4.876   2.991  1.00 20.00     0.123 C 
HETATM    6 CL6  UNL     1     -33.914   3.822   4.266  1.00 20.00    -0.130 Cl
ENDBRANCH   3   5
TORSDOF 1
ENDMDL
