MODEL 1
REMARK VINA RESULT:      -2.9      0.000      0.000
REMARK  0 active torsions:
REMARK  status: ('A' for Active; 'I' for Inactive)
ROOT
HETATM    1  C1  UNL     1     -33.161   6.918   2.570  1.00 20.00    -0.054 C 
HETATM    2  C2  UNL     1     -34.058   7.025   3.570  1.00 20.00     0.091 C 
HETATM    3  C3  UNL     1     -32.168   8.014   2.290  1.00 20.00     0.046 C 
HETATM    4  C4  UNL     1     -33.058   5.741   1.640  1.00 20.00     0.046 C 
HETATM    5  C5  UNL     1     -35.063   5.994   3.969  1.00 20.00     0.082 C 
HETATM    6  F6  UNL     1     -34.044   8.160   4.313  1.00 20.00    -0.211 F 
ENDROOT
TORSDOF 0
ENDMDL
MODEL 2
REMARK VINA RESULT:      -2.8      1.465      2.093
REMARK  0 active torsions:
REMARK  status: ('A' for Active; 'I' for Inactive)
ROOT
HETATM    1  C1  UNL     1     -32.818   6.715   2.178  1.00 20.00    -0.054 C 
HETATM    2  C2  UNL     1     -33.640   6.599   3.240  1.00 20.00     0.091 C 
HETATM    3  C3  UNL     1     -32.490   5.529   1.310  1.00 20.00     0.046 C 
HETATM    4  C4  UNL     1     -32.144   7.991   1.757  1.00 20.00     0.046 C 
HETATM    5  C5  UNL     1     -34.071   7.704   4.148  1.00 20.00     0.082 C 
HETATM    6  F6  UNL     1     -34.157   5.374   3.508  1.00 20.00    -0.211 F 
ENDROOT
TORSDOF 0
ENDMDL
MODEL 3
REMARK VINA RESULT:      -2.7      1.706      3.236
REMARK  0 active torsions:
REMARK  status: ('A' for Active; 'I' for Inactive)
ROOT
HETATM    1  C1  UNL     1     -33.768   6.840   3.373  1.00 20.00    -0.054 C 
HETATM    2  C2  UNL     1     -32.990   6.796   2.273  1.00 20.00     0.091 C 
HETATM    3  C3  UNL     1     -34.656   5.684   3.749  1.00 20.00     0.046 C 
HETATM    4  C4  UNL     1     -33.851   8.011   4.312  1.00 20.00     0.046 C 
HETATM    5  C5  UNL     1     -32.042   7.857   1.819  1.00 20.00     0.082 C 
HETATM    6  F6  UNL     1     -33.039   5.677   1.509  1.00 20.00    -0.211 F 
ENDROOT
TORSDOF 0
ENDMDL
MODEL 4
REMARK VINA RESULT:      -2.5      1.299      2.520
REMARK  0 active torsions:
REMARK  status: ('A' for Active; 'I' for Inactive)
ROOT
HETATM    1  C1  UNL     1     -33.871   6.988   3.510  1.00 20.00    -0.054 C 
HETATM    2  C2  UNL     1     -33.003   6.884   2.484  1.00 20.00     0.091 C 
HETATM    3  C3  UNL     1     -33.832   8.165   4.450  1.00 20.00     0.046 C 
HETATM    4  C4  UNL     1     -34.932   5.974   3.837  1.00 20.00     0.046 C 
HETATM    5  C5  UNL     1     -32.967   5.790   1.466  1.00 20.00     0.082 C 
HETATM    6  F6  UNL     1     -32.086   7.870   2.329  1.00 20.00    -0.211 F 
ENDROOT
TORSDOF 0
ENDMDL
MODEL 5
REMARK VINA RESULT:      -2.0      2.190      2.736
REMARK  0 active torsions:
REMARK  status: ('A' for Active; 'I' for Inactive)
ROOT
HETATM    1  C1  UNL     1     -34.180   5.797   3.482  1.00 20.00    -0.054 C 
HETATM    2  C2  UNL     1     -34.394   4.662   4.177  1.00 20.00     0.091 C 
HETATM    3  C3  UNL     1     -35.053   7.009   3.678  1.00 20.00     0.046 C 
HETATM    4  C4  UNL     1     -33.097   5.978   2.456  1.00 20.00     0.046 C 
HETATM    5  C5  UNL     1     -33.577   3.413   4.101  1.00 20.00     0.082 C 
HETATM    6  F6  UNL     1     -35.427   4.643   5.055  1.00 20.00    -0.211 F 
ENDROOT
TORSDOF 0
ENDMDL
MODEL 6
REMARK VINA RESULT:      -2.0      1.702      2.703
REMARK  0 active torsions:
REMARK  status: ('A' for Active; 'I' for Inactive)
ROOT
HETATM    1  C1  UNL     1     -32.985   7.201   2.651  1.00 20.00    -0.054 C 
HETATM    2  C2  UNL     1     -33.023   5.904   2.286  1.00 20.00     0.091 C 
HETATM    3  C3  UNL     1     -33.744   7.697   3.853  1.00 20.00     0.046 C 
HETATM    4  C4  UNL     1     -32.223   8.271   1.920  1.00 20.00     0.046 C 
HETATM    5  C5  UNL     1     -32.286   5.287   1.142  1.00 20.00     0.082 C 
HETATM    6  F6  UNL     1     -33.774   5.058   3.033  1.00 20.00    -0.211 F 
ENDROOT
TORSDOF 0
ENDMDL
MODEL 7
REMARK VINA RESULT:      -1.9      0.753      2.371
REMARK  0 active torsions:
REMARK  status: ('A' for Active; 'I' for Inactive)
ROOT
HETATM    1  C1  UNL     1     -34.020   6.409   3.327  1.00 20.00    -0.054 C 
HETATM    2  C2  UNL     1     -33.462   7.586   3.674  1.00 20.00     0.091 C 
HETATM    3  C3  UNL     1     -35.184   5.840   4.094  1.00 20.00     0.046 C 
HETATM    4  C4  UNL     1     -33.554   5.547   2.187  1.00 20.00     0.046 C 
HETATM    5  C5  UNL     1     -32.335   8.270   2.971  1.00 20.00     0.082 C 
HETATM    6  F6  UNL     1     -33.980   8.241   4.743  1.00 20.00    -0.211 F 
ENDROOT
TORSDOF 0
ENDMDL
MODEL 8
REMARK VINA RESULT:      -1.8      1.883      2.342
REMARK  0 active torsions:
REMARK  status: ('A' for Active; 'I' for Inactive)
ROOT
HETATM    1  C1  UNL     1     -33.224   7.179   2.997  1.00 20.00    -0.054 C 
HETATM    2  C2  UNL     1     -33.403   5.860   2.785  1.00 20.00     0.091 C 
HETATM    3  C3  UNL     1     -32.383   8.013   2.068  1.00 20.00     0.046 C 
HETATM    4  C4  UNL     1     -33.809   7.944   4.152  1.00 20.00     0.046 C 
HETATM    5  C5  UNL     1     -34.242   4.938   3.609  1.00 20.00     0.082 C 
HETATM    6  F6  UNL     1     -32.791   5.304   1.709  1.00 20.00    -0.211 F 
ENDROOT
TORSDOF 0
ENDMDL
MODEL 9
REMARK VINA RESULT:      -1.7      1.063      2.464
REMARK  0 active torsions:
REMARK  status: ('A' for Active; 'I' for Inactive)
ROOT
HETATM    1  C1  UNL     1     -33.141   6.171   2.357  1.00 20.00    -0.054 C 
HETATM    2  C2  UNL     1     -32.807   7.462   2.554  1.00 20.00     0.091 C 
HETATM    3  C3  UNL     1     -34.050   5.444   3.313  1.00 20.00     0.046 C 
HETATM    4  C4  UNL     1     -32.652   5.329   1.211  1.00 20.00     0.046 C 
HETATM    5  C5  UNL     1     -31.950   8.299   1.661  1.00 20.00     0.082 C 
HETATM    6  F6  UNL     1     -33.310   8.085   3.649  1.00 20.00    -0.211 F 
ENDROOT
TORSDOF 0
ENDMDL
