MODEL 1
REMARK VINA RESULT:       0.4      0.000      0.000
REMARK  2 active torsions:
REMARK  status: ('A' for Active; 'I' for Inactive)
REMARK    1  A    between atoms: C1_1  and  C3_3 
REMARK    2  A    between atoms: C4_4  and  O10_10 
ROOT
HETATM    1  C3  UNL     1     -33.150   5.394   3.562  1.00 20.00     0.048 A 
HETATM    2  C4  UNL     1     -33.571   6.148   2.324  1.00 20.00     0.135 A 
HETATM    3  C5  UNL     1     -34.248   6.442   3.647  1.00 20.00    -0.012 A 
HETATM    4  C8  UNL     1     -33.919   7.722   4.376  1.00 20.00     0.018 C 
HETATM    5  C9  UNL     1     -35.692   6.029   3.789  1.00 20.00     0.018 C 
ENDROOT
BRANCH   1   6
HETATM    6  C1  UNL     1     -33.461   3.975   3.662  1.00 20.00    -0.017 C 
HETATM    7  C2  UNL     1     -33.135   3.128   4.657  1.00 20.00    -0.091 C 
HETATM    8  C6  UNL     1     -33.537   1.680   4.609  1.00 20.00     0.042 C 
HETATM    9  C7  UNL     1     -32.360   3.533   5.879  1.00 20.00     0.042 C 
ENDBRANCH   1   6
BRANCH   2  10
HETATM   10  O10 UNL     1     -32.631   7.120   1.834  1.00 20.00    -0.394 OA
HETATM   11  H26 UNL     1     -32.238   7.524   2.619  1.00 20.00     0.210 HD
ENDBRANCH   2  10
TORSDOF 2
ENDMDL
MODEL 2
REMARK VINA RESULT:       0.7      3.067      5.660
REMARK  2 active torsions:
REMARK  status: ('A' for Active; 'I' for Inactive)
REMARK    1  A    between atoms: C1_1  and  C3_3 
REMARK    2  A    between atoms: C4_4  and  O10_10 
ROOT
HETATM    1  C3  UNL     1     -33.218   7.910   1.807  1.00 20.00     0.048 A 
HETATM    2  C4  UNL     1     -32.222   6.850   2.210  1.00 20.00     0.135 A 
HETATM    3  C5  UNL     1     -33.309   7.264   3.180  1.00 20.00    -0.012 A 
HETATM    4  C8  UNL     1     -34.472   6.334   3.426  1.00 20.00     0.018 C 
HETATM    5  C9  UNL     1     -32.879   8.022   4.412  1.00 20.00     0.018 C 
ENDROOT
BRANCH   1   6
HETATM    6  C1  UNL     1     -32.762   9.284   1.654  1.00 20.00    -0.017 C 
HETATM    7  C2  UNL     1     -32.508   9.945   0.509  1.00 20.00    -0.091 C 
HETATM    8  C6  UNL     1     -32.041  11.374   0.524  1.00 20.00     0.042 C 
HETATM    9  C7  UNL     1     -32.663   9.341  -0.857  1.00 20.00     0.042 C 
ENDBRANCH   1   6
BRANCH   2  10
HETATM   10  O10 UNL     1     -32.369   5.575   1.561  1.00 20.00    -0.394 OA
HETATM   11  H26 UNL     1     -33.301   5.338   1.653  1.00 20.00     0.210 HD
ENDBRANCH   2  10
TORSDOF 2
ENDMDL
MODEL 3
REMARK VINA RESULT:       1.2      2.192      4.431
REMARK  2 active torsions:
REMARK  status: ('A' for Active; 'I' for Inactive)
REMARK    1  A    between atoms: C1_1  and  C3_3 
REMARK    2  A    between atoms: C4_4  and  O10_10 
ROOT
HETATM    1  C3  UNL     1     -33.488   6.088   2.474  1.00 20.00     0.048 A 
HETATM    2  C4  UNL     1     -33.496   5.305   3.764  1.00 20.00     0.135 A 
HETATM    3  C5  UNL     1     -34.251   6.616   3.679  1.00 20.00    -0.012 A 
HETATM    4  C8  UNL     1     -35.757   6.596   3.600  1.00 20.00     0.018 C 
HETATM    5  C9  UNL     1     -33.709   7.774   4.480  1.00 20.00     0.018 C 
ENDROOT
BRANCH   1   6
HETATM    6  C1  UNL     1     -32.248   6.716   2.040  1.00 20.00    -0.017 C 
HETATM    7  C2  UNL     1     -32.096   7.912   1.441  1.00 20.00    -0.091 C 
HETATM    8  C6  UNL     1     -30.736   8.421   1.054  1.00 20.00     0.042 C 
HETATM    9  C7  UNL     1     -33.237   8.833   1.110  1.00 20.00     0.042 C 
ENDBRANCH   1   6
BRANCH   2  10
HETATM   10  O10 UNL     1     -34.274   4.095   3.756  1.00 20.00    -0.394 OA
HETATM   11  H26 UNL     1     -35.157   4.348   4.054  1.00 20.00     0.210 HD
ENDBRANCH   2  10
TORSDOF 2
ENDMDL
MODEL 4
REMARK VINA RESULT:       1.2      2.356      4.616
REMARK  2 active torsions:
REMARK  status: ('A' for Active; 'I' for Inactive)
REMARK    1  A    between atoms: C1_1  and  C3_3 
REMARK    2  A    between atoms: C4_4  and  O10_10 
ROOT
HETATM    1  C3  UNL     1     -33.698   6.999   3.426  1.00 20.00     0.048 A 
HETATM    2  C4  UNL     1     -35.036   6.304   3.357  1.00 20.00     0.135 A 
HETATM    3  C5  UNL     1     -33.790   5.580   2.889  1.00 20.00    -0.012 A 
HETATM    4  C8  UNL     1     -33.208   4.483   3.745  1.00 20.00     0.018 C 
HETATM    5  C9  UNL     1     -33.666   5.313   1.408  1.00 20.00     0.018 C 
ENDROOT
BRANCH   1   6
HETATM    6  C1  UNL     1     -33.442   8.122   2.535  1.00 20.00    -0.017 C 
HETATM    7  C2  UNL     1     -32.349   8.341   1.780  1.00 20.00    -0.091 C 
HETATM    8  C6  UNL     1     -32.240   9.559   0.905  1.00 20.00     0.042 C 
HETATM    9  C7  UNL     1     -31.164   7.418   1.736  1.00 20.00     0.042 C 
ENDBRANCH   1   6
BRANCH   2  10
HETATM   10  O10 UNL     1     -35.597   5.901   4.619  1.00 20.00    -0.394 OA
HETATM   11  H26 UNL     1     -35.249   5.016   4.791  1.00 20.00     0.210 HD
ENDBRANCH   2  10
TORSDOF 2
ENDMDL
MODEL 5
REMARK VINA RESULT:       1.4      2.853      5.395
REMARK  2 active torsions:
REMARK  status: ('A' for Active; 'I' for Inactive)
REMARK    1  A    between atoms: C1_1  and  C3_3 
REMARK    2  A    between atoms: C4_4  and  O10_10 
ROOT
HETATM    1  C3  UNL     1     -32.335   7.424   2.216  1.00 20.00     0.048 A 
HETATM    2  C4  UNL     1     -33.804   7.372   2.557  1.00 20.00     0.135 A 
HETATM    3  C5  UNL     1     -33.086   6.104   2.142  1.00 20.00    -0.012 A 
HETATM    4  C8  UNL     1     -32.756   5.067   3.187  1.00 20.00     0.018 C 
HETATM    5  C9  UNL     1     -33.457   5.509   0.805  1.00 20.00     0.018 C 
ENDROOT
BRANCH   1   6
HETATM    6  C1  UNL     1     -31.917   8.116   1.005  1.00 20.00    -0.017 C 
HETATM    7  C2  UNL     1     -32.213   9.375   0.632  1.00 20.00    -0.091 C 
HETATM    8  C6  UNL     1     -31.697   9.946  -0.659  1.00 20.00     0.042 C 
HETATM    9  C7  UNL     1     -33.065  10.309   1.445  1.00 20.00     0.042 C 
ENDBRANCH   1   6
BRANCH   2  10
HETATM   10  O10 UNL     1     -34.128   7.519   3.950  1.00 20.00    -0.394 OA
HETATM   11  H26 UNL     1     -33.777   8.380   4.212  1.00 20.00     0.210 HD
ENDBRANCH   2  10
TORSDOF 2
ENDMDL
MODEL 6
REMARK VINA RESULT:       1.4      2.423      3.691
REMARK  2 active torsions:
REMARK  status: ('A' for Active; 'I' for Inactive)
REMARK    1  A    between atoms: C1_1  and  C3_3 
REMARK    2  A    between atoms: C4_4  and  O10_10 
ROOT
HETATM    1  C3  UNL     1     -33.174   7.804   3.121  1.00 20.00     0.048 A 
HETATM    2  C4  UNL     1     -31.681   8.021   3.164  1.00 20.00     0.135 A 
HETATM    3  C5  UNL     1     -32.347   7.654   1.854  1.00 20.00    -0.012 A 
HETATM    4  C8  UNL     1     -32.521   8.713   0.792  1.00 20.00     0.018 C 
HETATM    5  C9  UNL     1     -32.051   6.286   1.291  1.00 20.00     0.018 C 
ENDROOT
BRANCH   1   6
HETATM    6  C1  UNL     1     -33.736   6.639   3.790  1.00 20.00    -0.017 C 
HETATM    7  C2  UNL     1     -35.022   6.241   3.810  1.00 20.00    -0.091 C 
HETATM    8  C6  UNL     1     -35.442   5.003   4.552  1.00 20.00     0.042 C 
HETATM    9  C7  UNL     1     -36.134   6.971   3.112  1.00 20.00     0.042 C 
ENDBRANCH   1   6
BRANCH   2  10
HETATM   10  O10 UNL     1     -31.252   9.384   3.326  1.00 20.00    -0.394 OA
HETATM   11  H26 UNL     1     -31.273   9.773   2.443  1.00 20.00     0.210 HD
ENDBRANCH   2  10
TORSDOF 2
ENDMDL
MODEL 7
REMARK VINA RESULT:       1.6      2.624      4.912
REMARK  2 active torsions:
REMARK  status: ('A' for Active; 'I' for Inactive)
REMARK    1  A    between atoms: C1_1  and  C3_3 
REMARK    2  A    between atoms: C4_4  and  O10_10 
ROOT
HETATM    1  C3  UNL     1     -33.131   7.615   3.068  1.00 20.00     0.048 A 
HETATM    2  C4  UNL     1     -33.705   8.021   4.404  1.00 20.00     0.135 A 
HETATM    3  C5  UNL     1     -34.326   6.869   3.640  1.00 20.00    -0.012 A 
HETATM    4  C8  UNL     1     -34.089   5.456   4.116  1.00 20.00     0.018 C 
HETATM    5  C9  UNL     1     -35.707   7.085   3.072  1.00 20.00     0.018 C 
ENDROOT
BRANCH   1   6
HETATM    6  C1  UNL     1     -33.284   8.514   1.933  1.00 20.00    -0.017 C 
HETATM    7  C2  UNL     1     -32.368   8.820   0.995  1.00 20.00    -0.091 C 
HETATM    8  C6  UNL     1     -32.687   9.774  -0.122  1.00 20.00     0.042 C 
HETATM    9  C7  UNL     1     -30.976   8.255   0.971  1.00 20.00     0.042 C 
ENDBRANCH   1   6
BRANCH   2  10
HETATM   10  O10 UNL     1     -32.905   7.695   5.553  1.00 20.00    -0.394 OA
HETATM   11  H26 UNL     1     -33.498   7.759   6.313  1.00 20.00     0.210 HD
ENDBRANCH   2  10
TORSDOF 2
ENDMDL
MODEL 8
REMARK VINA RESULT:       1.6      1.876      3.153
REMARK  2 active torsions:
REMARK  status: ('A' for Active; 'I' for Inactive)
REMARK    1  A    between atoms: C1_1  and  C3_3 
REMARK    2  A    between atoms: C4_4  and  O10_10 
ROOT
HETATM    1  C3  UNL     1     -32.615   6.403   2.619  1.00 20.00     0.048 A 
HETATM    2  C4  UNL     1     -32.572   6.100   1.141  1.00 20.00     0.135 A 
HETATM    3  C5  UNL     1     -32.193   7.481   1.634  1.00 20.00    -0.012 A 
HETATM    4  C8  UNL     1     -30.740   7.889   1.644  1.00 20.00     0.018 C 
HETATM    5  C9  UNL     1     -33.130   8.615   1.292  1.00 20.00     0.018 C 
ENDROOT
BRANCH   1   6
HETATM    6  C1  UNL     1     -33.907   6.464   3.287  1.00 20.00    -0.017 C 
HETATM    7  C2  UNL     1     -34.540   5.476   3.948  1.00 20.00    -0.091 C 
HETATM    8  C6  UNL     1     -35.880   5.704   4.590  1.00 20.00     0.042 C 
HETATM    9  C7  UNL     1     -33.988   4.088   4.106  1.00 20.00     0.042 C 
ENDBRANCH   1   6
BRANCH   2  10
HETATM   10  O10 UNL     1     -31.503   5.238   0.710  1.00 20.00    -0.394 OA
HETATM   11  H26 UNL     1     -31.188   5.608  -0.124  1.00 20.00     0.210 HD
ENDBRANCH   2  10
TORSDOF 2
ENDMDL
MODEL 9
REMARK VINA RESULT:       1.7      1.820      2.865
REMARK  2 active torsions:
REMARK  status: ('A' for Active; 'I' for Inactive)
REMARK    1  A    between atoms: C1_1  and  C3_3 
REMARK    2  A    between atoms: C4_4  and  O10_10 
ROOT
HETATM    1  C3  UNL     1     -33.643   6.712   2.517  1.00 20.00     0.048 A 
HETATM    2  C4  UNL     1     -33.307   7.867   3.430  1.00 20.00     0.135 A 
HETATM    3  C5  UNL     1     -32.557   7.701   2.124  1.00 20.00    -0.012 A 
HETATM    4  C8  UNL     1     -32.860   8.632   0.975  1.00 20.00     0.018 C 
HETATM    5  C9  UNL     1     -31.101   7.312   2.211  1.00 20.00     0.018 C 
ENDROOT
BRANCH   1   6
HETATM    6  C1  UNL     1     -33.308   5.360   2.940  1.00 20.00    -0.017 C 
HETATM    7  C2  UNL     1     -33.963   4.588   3.827  1.00 20.00    -0.091 C 
HETATM    8  C6  UNL     1     -33.483   3.201   4.154  1.00 20.00     0.042 C 
HETATM    9  C7  UNL     1     -35.202   5.021   4.558  1.00 20.00     0.042 C 
ENDBRANCH   1   6
BRANCH   2  10
HETATM   10  O10 UNL     1     -34.288   8.917   3.497  1.00 20.00    -0.394 OA
HETATM   11  H26 UNL     1     -34.970   8.681   2.855  1.00 20.00     0.210 HD
ENDBRANCH   2  10
TORSDOF 2
ENDMDL
