MODEL 1
REMARK VINA RESULT:      -3.8      0.000      0.000
REMARK  1 active torsions:
REMARK  status: ('A' for Active; 'I' for Inactive)
REMARK    1  A    between atoms: C2_2  and  C4_4 
ROOT
HETATM    1  C1  UNL     1     -34.054   7.101   3.553  1.00 20.00     0.116 C 
HETATM    2  C2  UNL     1     -33.158   6.976   2.559  1.00 20.00     0.151 C 
HETATM    3  C3  UNL     1     -35.102   6.109   3.950  1.00 20.00     0.084 C 
HETATM    4  F5  UNL     1     -34.023   8.240   4.287  1.00 20.00    -0.209 F 
HETATM    5 CL9  UNL     1     -33.094   5.567   1.547  1.00 20.00    -0.076 Cl
ENDROOT
BRANCH   2   6
HETATM    6  C4  UNL     1     -32.131   8.004   2.208  1.00 20.00     0.430 C 
HETATM    7  F6  UNL     1     -31.134   7.481   1.447  1.00 20.00    -0.165 F 
HETATM    8  F7  UNL     1     -32.633   9.055   1.509  1.00 20.00    -0.165 F 
HETATM    9  F8  UNL     1     -31.544   8.527   3.316  1.00 20.00    -0.165 F 
ENDBRANCH   2   6
TORSDOF 1
ENDMDL
MODEL 2
REMARK VINA RESULT:      -3.0      2.009      3.692
REMARK  1 active torsions:
REMARK  status: ('A' for Active; 'I' for Inactive)
REMARK    1  A    between atoms: C2_2  and  C4_4 
ROOT
HETATM    1  C1  UNL     1     -33.110   6.121   2.282  1.00 20.00     0.116 C 
HETATM    2  C2  UNL     1     -33.926   5.639   3.236  1.00 20.00     0.151 C 
HETATM    3  C3  UNL     1     -32.036   5.374   1.555  1.00 20.00     0.084 C 
HETATM    4  F5  UNL     1     -33.261   7.420   1.923  1.00 20.00    -0.209 F 
HETATM    5 CL9  UNL     1     -33.833   3.994   3.784  1.00 20.00    -0.076 Cl
ENDROOT
BRANCH   2   6
HETATM    6  C4  UNL     1     -34.985   6.436   3.929  1.00 20.00     0.430 C 
HETATM    7  F6  UNL     1     -35.609   5.711   4.894  1.00 20.00    -0.165 F 
HETATM    8  F7  UNL     1     -34.512   7.554   4.537  1.00 20.00    -0.165 F 
HETATM    9  F8  UNL     1     -35.948   6.849   3.064  1.00 20.00    -0.165 F 
ENDBRANCH   2   6
TORSDOF 1
ENDMDL
MODEL 3
REMARK VINA RESULT:      -2.9      2.432      3.961
REMARK  1 active torsions:
REMARK  status: ('A' for Active; 'I' for Inactive)
REMARK    1  A    between atoms: C2_2  and  C4_4 
ROOT
HETATM    1  C1  UNL     1     -33.072   7.064   2.430  1.00 20.00     0.116 C 
HETATM    2  C2  UNL     1     -33.772   7.162   3.573  1.00 20.00     0.151 C 
HETATM    3  C3  UNL     1     -31.895   7.893   2.022  1.00 20.00     0.084 C 
HETATM    4  F5  UNL     1     -33.455   6.119   1.537  1.00 20.00    -0.209 F 
HETATM    5 CL9  UNL     1     -33.383   8.332   4.796  1.00 20.00    -0.076 Cl
ENDROOT
BRANCH   2   6
HETATM    6  C4  UNL     1     -34.944   6.303   3.927  1.00 20.00     0.430 C 
HETATM    7  F6  UNL     1     -35.406   6.572   5.176  1.00 20.00    -0.165 F 
HETATM    8  F7  UNL     1     -36.000   6.454   3.088  1.00 20.00    -0.165 F 
HETATM    9  F8  UNL     1     -34.623   4.983   3.903  1.00 20.00    -0.165 F 
ENDBRANCH   2   6
TORSDOF 1
ENDMDL
MODEL 4
REMARK VINA RESULT:      -2.9      2.430      3.958
REMARK  1 active torsions:
REMARK  status: ('A' for Active; 'I' for Inactive)
REMARK    1  A    between atoms: C2_2  and  C4_4 
ROOT
HETATM    1  C1  UNL     1     -33.070   7.063   2.424  1.00 20.00     0.116 C 
HETATM    2  C2  UNL     1     -33.769   7.159   3.568  1.00 20.00     0.151 C 
HETATM    3  C3  UNL     1     -31.893   7.893   2.017  1.00 20.00     0.084 C 
HETATM    4  F5  UNL     1     -33.454   6.119   1.530  1.00 20.00    -0.209 F 
HETATM    5 CL9  UNL     1     -33.378   8.326   4.793  1.00 20.00    -0.076 Cl
ENDROOT
BRANCH   2   6
HETATM    6  C4  UNL     1     -34.939   6.299   3.922  1.00 20.00     0.430 C 
HETATM    7  F6  UNL     1     -35.975   6.481   3.061  1.00 20.00    -0.165 F 
HETATM    8  F7  UNL     1     -34.660   4.970   3.907  1.00 20.00    -0.165 F 
HETATM    9  F8  UNL     1     -35.410   6.577   5.165  1.00 20.00    -0.165 F 
ENDBRANCH   2   6
TORSDOF 1
ENDMDL
MODEL 5
REMARK VINA RESULT:      -2.7      2.377      2.738
REMARK  1 active torsions:
REMARK  status: ('A' for Active; 'I' for Inactive)
REMARK    1  A    between atoms: C2_2  and  C4_4 
ROOT
HETATM    1  C1  UNL     1     -33.835   6.952   3.501  1.00 20.00     0.116 C 
HETATM    2  C2  UNL     1     -32.990   6.855   2.459  1.00 20.00     0.151 C 
HETATM    3  C3  UNL     1     -34.057   8.149   4.371  1.00 20.00     0.084 C 
HETATM    4  F5  UNL     1     -34.577   5.861   3.812  1.00 20.00    -0.209 F 
HETATM    5 CL9  UNL     1     -31.986   8.180   1.961  1.00 20.00    -0.076 Cl
ENDROOT
BRANCH   2   6
HETATM    6  C4  UNL     1     -32.812   5.629   1.623  1.00 20.00     0.430 C 
HETATM    7  F6  UNL     1     -33.088   4.498   2.324  1.00 20.00    -0.165 F 
HETATM    8  F7  UNL     1     -33.609   5.600   0.525  1.00 20.00    -0.165 F 
HETATM    9  F8  UNL     1     -31.536   5.509   1.174  1.00 20.00    -0.165 F 
ENDBRANCH   2   6
TORSDOF 1
ENDMDL
MODEL 6
REMARK VINA RESULT:      -2.5      1.878      2.255
REMARK  1 active torsions:
REMARK  status: ('A' for Active; 'I' for Inactive)
REMARK    1  A    between atoms: C2_2  and  C4_4 
ROOT
HETATM    1  C1  UNL     1     -34.010   6.436   3.110  1.00 20.00     0.116 C 
HETATM    2  C2  UNL     1     -33.178   7.466   3.344  1.00 20.00     0.151 C 
HETATM    3  C3  UNL     1     -35.076   5.914   4.022  1.00 20.00     0.084 C 
HETATM    4  F5  UNL     1     -33.889   5.786   1.926  1.00 20.00    -0.209 F 
HETATM    5 CL9  UNL     1     -33.232   8.377   4.821  1.00 20.00    -0.076 Cl
ENDROOT
BRANCH   2   6
HETATM    6  C4  UNL     1     -32.130   7.943   2.392  1.00 20.00     0.430 C 
HETATM    7  F6  UNL     1     -31.112   8.570   3.037  1.00 20.00    -0.165 F 
HETATM    8  F7  UNL     1     -31.564   6.946   1.664  1.00 20.00    -0.165 F 
HETATM    9  F8  UNL     1     -32.632   8.832   1.496  1.00 20.00    -0.165 F 
ENDBRANCH   2   6
TORSDOF 1
ENDMDL
MODEL 7
REMARK VINA RESULT:      -2.5      1.876      1.908
REMARK  1 active torsions:
REMARK  status: ('A' for Active; 'I' for Inactive)
REMARK    1  A    between atoms: C2_2  and  C4_4 
ROOT
HETATM    1  C1  UNL     1     -33.994   6.416   3.108  1.00 20.00     0.116 C 
HETATM    2  C2  UNL     1     -33.173   7.456   3.336  1.00 20.00     0.151 C 
HETATM    3  C3  UNL     1     -35.050   5.885   4.024  1.00 20.00     0.084 C 
HETATM    4  F5  UNL     1     -33.868   5.764   1.926  1.00 20.00    -0.209 F 
HETATM    5 CL9  UNL     1     -33.234   8.372   4.810  1.00 20.00    -0.076 Cl
ENDROOT
BRANCH   2   6
HETATM    6  C4  UNL     1     -32.133   7.942   2.379  1.00 20.00     0.430 C 
HETATM    7  F6  UNL     1     -31.579   6.919   1.676  1.00 20.00    -0.165 F 
HETATM    8  F7  UNL     1     -32.609   8.822   1.461  1.00 20.00    -0.165 F 
HETATM    9  F8  UNL     1     -31.115   8.572   3.021  1.00 20.00    -0.165 F 
ENDBRANCH   2   6
TORSDOF 1
ENDMDL
MODEL 8
REMARK VINA RESULT:      -2.4      2.224      3.184
REMARK  1 active torsions:
REMARK  status: ('A' for Active; 'I' for Inactive)
REMARK    1  A    between atoms: C2_2  and  C4_4 
ROOT
HETATM    1  C1  UNL     1     -32.973   5.788   2.252  1.00 20.00     0.116 C 
HETATM    2  C2  UNL     1     -33.106   7.072   2.627  1.00 20.00     0.151 C 
HETATM    3  C3  UNL     1     -32.152   5.263   1.118  1.00 20.00     0.084 C 
HETATM    4  F5  UNL     1     -33.647   4.852   2.966  1.00 20.00    -0.209 F 
HETATM    5 CL9  UNL     1     -32.297   8.364   1.796  1.00 20.00    -0.076 Cl
ENDROOT
BRANCH   2   6
HETATM    6  C4  UNL     1     -33.944   7.539   3.774  1.00 20.00     0.430 C 
HETATM    7  F6  UNL     1     -34.635   8.667   3.466  1.00 20.00    -0.165 F 
HETATM    8  F7  UNL     1     -34.865   6.627   4.180  1.00 20.00    -0.165 F 
HETATM    9  F8  UNL     1     -33.187   7.828   4.864  1.00 20.00    -0.165 F 
ENDBRANCH   2   6
TORSDOF 1
ENDMDL
MODEL 9
REMARK VINA RESULT:      -2.4      2.264      3.429
REMARK  1 active torsions:
REMARK  status: ('A' for Active; 'I' for Inactive)
REMARK    1  A    between atoms: C2_2  and  C4_4 
ROOT
HETATM    1  C1  UNL     1     -34.186   4.416   4.193  1.00 20.00     0.116 C 
HETATM    2  C2  UNL     1     -33.977   5.539   3.486  1.00 20.00     0.151 C 
HETATM    3  C3  UNL     1     -33.467   3.112   4.045  1.00 20.00     0.084 C 
HETATM    4  F5  UNL     1     -35.147   4.445   5.150  1.00 20.00    -0.209 F 
HETATM    5 CL9  UNL     1     -32.778   5.631   2.234  1.00 20.00    -0.076 Cl
ENDROOT
BRANCH   2   6
HETATM    6  C4  UNL     1     -34.730   6.816   3.680  1.00 20.00     0.430 C 
HETATM    7  F6  UNL     1     -36.041   6.682   3.349  1.00 20.00    -0.165 F 
HETATM    8  F7  UNL     1     -34.704   7.273   4.958  1.00 20.00    -0.165 F 
HETATM    9  F8  UNL     1     -34.232   7.816   2.906  1.00 20.00    -0.165 F 
ENDBRANCH   2   6
TORSDOF 1
ENDMDL
