MODEL 1
REMARK VINA RESULT:      -2.9      0.000      0.000
REMARK  1 active torsions:
REMARK  status: ('A' for Active; 'I' for Inactive)
REMARK    1  A    between atoms: C2_2  and  C3_3 
ROOT
HETATM    1  C3  UNL     1     -32.896   6.201   1.797  1.00 20.00     0.351 C 
HETATM    2  F5  UNL     1     -33.684   6.070   0.697  1.00 20.00    -0.185 F 
HETATM    3  F6  UNL     1     -31.943   5.237   1.702  1.00 20.00    -0.185 F 
HETATM    4 BR7  UNL     1     -32.048   7.952   1.773  1.00 20.00    -0.003 Br
ENDROOT
BRANCH   1   5
HETATM    5  C2  UNL     1     -33.658   6.066   3.071  1.00 20.00     0.167 C 
HETATM    6  C1  UNL     1     -34.193   7.090   3.744  1.00 20.00     0.059 C 
HETATM    7  F4  UNL     1     -33.853   4.821   3.566  1.00 20.00    -0.204 F 
ENDBRANCH   1   5
TORSDOF 1
ENDMDL
MODEL 2
REMARK VINA RESULT:      -2.6      2.695      3.173
REMARK  1 active torsions:
REMARK  status: ('A' for Active; 'I' for Inactive)
REMARK    1  A    between atoms: C2_2  and  C3_3 
ROOT
HETATM    1  C3  UNL     1     -33.867   7.514   3.660  1.00 20.00     0.351 C 
HETATM    2  F5  UNL     1     -34.615   8.624   3.421  1.00 20.00    -0.185 F 
HETATM    3  F6  UNL     1     -33.110   7.792   4.754  1.00 20.00    -0.185 F 
HETATM    4 BR7  UNL     1     -35.048   6.019   4.053  1.00 20.00    -0.003 Br
ENDROOT
BRANCH   1   5
HETATM    5  C2  UNL     1     -33.005   7.139   2.503  1.00 20.00     0.167 C 
HETATM    6  C1  UNL     1     -32.088   7.942   1.953  1.00 20.00     0.059 C 
HETATM    7  F4  UNL     1     -33.133   5.892   1.992  1.00 20.00    -0.204 F 
ENDBRANCH   1   5
TORSDOF 1
ENDMDL
MODEL 3
REMARK VINA RESULT:      -2.5      2.625      3.341
REMARK  1 active torsions:
REMARK  status: ('A' for Active; 'I' for Inactive)
REMARK    1  A    between atoms: C2_2  and  C3_3 
ROOT
HETATM    1  C3  UNL     1     -34.510   6.451   3.679  1.00 20.00     0.351 C 
HETATM    2  F5  UNL     1     -35.754   6.658   3.172  1.00 20.00    -0.185 F 
HETATM    3  F6  UNL     1     -34.384   7.293   4.738  1.00 20.00    -0.185 F 
HETATM    4 BR7  UNL     1     -34.365   4.612   4.294  1.00 20.00    -0.003 Br
ENDROOT
BRANCH   1   5
HETATM    5  C2  UNL     1     -33.432   6.698   2.678  1.00 20.00     0.167 C 
HETATM    6  C1  UNL     1     -33.047   5.816   1.751  1.00 20.00     0.059 C 
HETATM    7  F4  UNL     1     -32.824   7.907   2.684  1.00 20.00    -0.204 F 
ENDBRANCH   1   5
TORSDOF 1
ENDMDL
MODEL 4
REMARK VINA RESULT:      -2.5      2.128      2.728
REMARK  1 active torsions:
REMARK  status: ('A' for Active; 'I' for Inactive)
REMARK    1  A    between atoms: C2_2  and  C3_3 
ROOT
HETATM    1  C3  UNL     1     -33.569   7.647   3.619  1.00 20.00     0.351 C 
HETATM    2  F5  UNL     1     -32.944   7.904   4.799  1.00 20.00    -0.185 F 
HETATM    3  F6  UNL     1     -34.520   8.607   3.475  1.00 20.00    -0.185 F 
HETATM    4 BR7  UNL     1     -32.282   7.790   2.167  1.00 20.00    -0.003 Br
ENDROOT
BRANCH   1   5
HETATM    5  C2  UNL     1     -34.179   6.288   3.574  1.00 20.00     0.167 C 
HETATM    6  C1  UNL     1     -35.354   5.969   4.127  1.00 20.00     0.059 C 
HETATM    7  F4  UNL     1     -33.518   5.316   2.902  1.00 20.00    -0.204 F 
ENDBRANCH   1   5
TORSDOF 1
ENDMDL
MODEL 5
REMARK VINA RESULT:      -2.4      2.344      2.636
REMARK  1 active torsions:
REMARK  status: ('A' for Active; 'I' for Inactive)
REMARK    1  A    between atoms: C2_2  and  C3_3 
ROOT
HETATM    1  C3  UNL     1     -32.578   7.653   2.394  1.00 20.00     0.351 C 
HETATM    2  F5  UNL     1     -31.305   8.028   2.689  1.00 20.00    -0.185 F 
HETATM    3  F6  UNL     1     -33.078   8.614   1.574  1.00 20.00    -0.185 F 
HETATM    4 BR7  UNL     1     -32.543   5.952   1.451  1.00 20.00    -0.003 Br
ENDROOT
BRANCH   1   5
HETATM    5  C2  UNL     1     -33.430   7.500   3.608  1.00 20.00     0.167 C 
HETATM    6  C1  UNL     1     -34.547   6.768   3.658  1.00 20.00     0.059 C 
HETATM    7  F4  UNL     1     -33.031   8.114   4.746  1.00 20.00    -0.204 F 
ENDBRANCH   1   5
TORSDOF 1
ENDMDL
MODEL 6
REMARK VINA RESULT:      -2.4      2.466      2.985
REMARK  1 active torsions:
REMARK  status: ('A' for Active; 'I' for Inactive)
REMARK    1  A    between atoms: C2_2  and  C3_3 
ROOT
HETATM    1  C3  UNL     1     -34.410   6.307   3.560  1.00 20.00     0.351 C 
HETATM    2  F5  UNL     1     -33.900   7.242   4.406  1.00 20.00    -0.185 F 
HETATM    3  F6  UNL     1     -35.587   6.809   3.103  1.00 20.00    -0.185 F 
HETATM    4 BR7  UNL     1     -33.188   6.060   2.067  1.00 20.00    -0.003 Br
ENDROOT
BRANCH   1   5
HETATM    5  C2  UNL     1     -34.619   4.987   4.219  1.00 20.00     0.167 C 
HETATM    6  C1  UNL     1     -33.783   3.949   4.112  1.00 20.00     0.059 C 
HETATM    7  F4  UNL     1     -35.710   4.834   5.006  1.00 20.00    -0.204 F 
ENDBRANCH   1   5
TORSDOF 1
ENDMDL
MODEL 7
REMARK VINA RESULT:      -2.2      1.788      2.826
REMARK  1 active torsions:
REMARK  status: ('A' for Active; 'I' for Inactive)
REMARK    1  A    between atoms: C2_2  and  C3_3 
ROOT
HETATM    1  C3  UNL     1     -34.086   6.516   3.384  1.00 20.00     0.351 C 
HETATM    2  F5  UNL     1     -34.053   5.295   3.981  1.00 20.00    -0.185 F 
HETATM    3  F6  UNL     1     -35.365   6.701   2.966  1.00 20.00    -0.185 F 
HETATM    4 BR7  UNL     1     -33.630   7.882   4.692  1.00 20.00    -0.003 Br
ENDROOT
BRANCH   1   5
HETATM    5  C2  UNL     1     -33.135   6.625   2.241  1.00 20.00     0.167 C 
HETATM    6  C1  UNL     1     -32.385   7.701   1.982  1.00 20.00     0.059 C 
HETATM    7  F4  UNL     1     -32.994   5.552   1.428  1.00 20.00    -0.204 F 
ENDBRANCH   1   5
TORSDOF 1
ENDMDL
MODEL 8
REMARK VINA RESULT:      -2.2      2.011      2.282
REMARK  1 active torsions:
REMARK  status: ('A' for Active; 'I' for Inactive)
REMARK    1  A    between atoms: C2_2  and  C3_3 
ROOT
HETATM    1  C3  UNL     1     -31.979   7.955   2.087  1.00 20.00     0.351 C 
HETATM    2  F5  UNL     1     -30.999   7.209   1.512  1.00 20.00    -0.185 F 
HETATM    3  F6  UNL     1     -31.409   8.579   3.151  1.00 20.00    -0.185 F 
HETATM    4 BR7  UNL     1     -32.601   9.288   0.813  1.00 20.00    -0.003 Br
ENDROOT
BRANCH   1   5
HETATM    5  C2  UNL     1     -33.148   7.137   2.518  1.00 20.00     0.167 C 
HETATM    6  C1  UNL     1     -33.937   7.435   3.556  1.00 20.00     0.059 C 
HETATM    7  F4  UNL     1     -33.456   6.036   1.794  1.00 20.00    -0.204 F 
ENDBRANCH   1   5
TORSDOF 1
ENDMDL
MODEL 9
REMARK VINA RESULT:      -2.2      2.118      2.897
REMARK  1 active torsions:
REMARK  status: ('A' for Active; 'I' for Inactive)
REMARK    1  A    between atoms: C2_2  and  C3_3 
ROOT
HETATM    1  C3  UNL     1     -32.803   6.538   1.780  1.00 20.00     0.351 C 
HETATM    2  F5  UNL     1     -31.903   5.520   1.775  1.00 20.00    -0.185 F 
HETATM    3  F6  UNL     1     -33.550   6.392   0.655  1.00 20.00    -0.185 F 
HETATM    4 BR7  UNL     1     -33.950   6.373   3.343  1.00 20.00    -0.003 Br
ENDROOT
BRANCH   1   5
HETATM    5  C2  UNL     1     -32.155   7.880   1.814  1.00 20.00     0.167 C 
HETATM    6  C1  UNL     1     -32.103   8.720   0.774  1.00 20.00     0.059 C 
HETATM    7  F4  UNL     1     -31.612   8.295   2.982  1.00 20.00    -0.204 F 
ENDBRANCH   1   5
TORSDOF 1
ENDMDL
