MODEL 1
REMARK VINA RESULT:      -2.4      0.000      0.000
REMARK  0 active torsions:
REMARK  status: ('A' for Active; 'I' for Inactive)
ROOT
HETATM    1  C1  UNL     1     -33.945   6.511   3.253  1.00 20.00     0.238 C 
HETATM    2  C2  UNL     1     -33.058   6.512   2.258  1.00 20.00     0.189 C 
HETATM    3  F3  UNL     1     -34.158   7.605   4.005  1.00 20.00    -0.216 F 
HETATM    4  F4  UNL     1     -32.892   5.379   1.540  1.00 20.00    -0.196 F 
HETATM    5 BR5  UNL     1     -32.037   8.000   1.816  1.00 20.00    -0.015 Br
ENDROOT
TORSDOF 0
ENDMDL
MODEL 2
REMARK VINA RESULT:      -2.3      2.175      3.213
REMARK  0 active torsions:
REMARK  status: ('A' for Active; 'I' for Inactive)
ROOT
HETATM    1  C1  UNL     1     -33.014   7.407   2.881  1.00 20.00     0.238 C 
HETATM    2  C2  UNL     1     -33.893   7.342   3.880  1.00 20.00     0.189 C 
HETATM    3  F3  UNL     1     -33.051   6.539   1.854  1.00 20.00    -0.216 F 
HETATM    4  F4  UNL     1     -33.800   8.244   4.882  1.00 20.00    -0.196 F 
HETATM    5 BR5  UNL     1     -35.240   6.064   3.959  1.00 20.00    -0.015 Br
ENDROOT
TORSDOF 0
ENDMDL
MODEL 3
REMARK VINA RESULT:      -2.2      1.998      2.204
REMARK  0 active torsions:
REMARK  status: ('A' for Active; 'I' for Inactive)
ROOT
HETATM    1  C1  UNL     1     -31.989   7.432   1.721  1.00 20.00     0.238 C 
HETATM    2  C2  UNL     1     -32.903   6.501   1.988  1.00 20.00     0.189 C 
HETATM    3  F3  UNL     1     -31.887   8.549   2.462  1.00 20.00    -0.216 F 
HETATM    4  F4  UNL     1     -32.953   5.400   1.205  1.00 20.00    -0.196 F 
HETATM    5 BR5  UNL     1     -34.118   6.648   3.387  1.00 20.00    -0.015 Br
ENDROOT
TORSDOF 0
ENDMDL
MODEL 4
REMARK VINA RESULT:      -2.1      1.968      1.970
REMARK  0 active torsions:
REMARK  status: ('A' for Active; 'I' for Inactive)
ROOT
HETATM    1  C1  UNL     1     -33.903   7.415   3.684  1.00 20.00     0.238 C 
HETATM    2  C2  UNL     1     -32.959   7.301   2.751  1.00 20.00     0.189 C 
HETATM    3  F3  UNL     1     -34.837   6.463   3.858  1.00 20.00    -0.216 F 
HETATM    4  F4  UNL     1     -32.050   8.293   2.627  1.00 20.00    -0.196 F 
HETATM    5 BR5  UNL     1     -32.837   5.839   1.609  1.00 20.00    -0.015 Br
ENDROOT
TORSDOF 0
ENDMDL
MODEL 5
REMARK VINA RESULT:      -2.0      2.049      2.761
REMARK  0 active torsions:
REMARK  status: ('A' for Active; 'I' for Inactive)
ROOT
HETATM    1  C1  UNL     1     -32.358   6.417   1.547  1.00 20.00     0.238 C 
HETATM    2  C2  UNL     1     -32.730   7.464   2.282  1.00 20.00     0.189 C 
HETATM    3  F3  UNL     1     -32.866   5.191   1.765  1.00 20.00    -0.216 F 
HETATM    4  F4  UNL     1     -32.183   8.671   2.012  1.00 20.00    -0.196 F 
HETATM    5 BR5  UNL     1     -33.967   7.342   3.664  1.00 20.00    -0.015 Br
ENDROOT
TORSDOF 0
ENDMDL
MODEL 6
REMARK VINA RESULT:      -2.0      1.734      1.755
REMARK  0 active torsions:
REMARK  status: ('A' for Active; 'I' for Inactive)
ROOT
HETATM    1  C1  UNL     1     -34.534   6.695   4.025  1.00 20.00     0.238 C 
HETATM    2  C2  UNL     1     -33.896   5.735   3.356  1.00 20.00     0.189 C 
HETATM    3  F3  UNL     1     -34.461   7.984   3.645  1.00 20.00    -0.216 F 
HETATM    4  F4  UNL     1     -34.011   4.460   3.789  1.00 20.00    -0.196 F 
HETATM    5 BR5  UNL     1     -32.854   6.071   1.854  1.00 20.00    -0.015 Br
ENDROOT
TORSDOF 0
ENDMDL
MODEL 7
REMARK VINA RESULT:      -2.0      1.948      2.779
REMARK  0 active torsions:
REMARK  status: ('A' for Active; 'I' for Inactive)
ROOT
HETATM    1  C1  UNL     1     -34.533   4.971   4.193  1.00 20.00     0.238 C 
HETATM    2  C2  UNL     1     -34.207   6.052   3.485  1.00 20.00     0.189 C 
HETATM    3  F3  UNL     1     -34.014   3.763   3.910  1.00 20.00    -0.216 F 
HETATM    4  F4  UNL     1     -34.764   7.237   3.820  1.00 20.00    -0.196 F 
HETATM    5 BR5  UNL     1     -33.022   6.003   2.054  1.00 20.00    -0.015 Br
ENDROOT
TORSDOF 0
ENDMDL
MODEL 8
REMARK VINA RESULT:      -1.9      2.168      2.387
REMARK  0 active torsions:
REMARK  status: ('A' for Active; 'I' for Inactive)
ROOT
HETATM    1  C1  UNL     1     -32.811   6.124   1.907  1.00 20.00     0.238 C 
HETATM    2  C2  UNL     1     -33.552   5.969   3.004  1.00 20.00     0.189 C 
HETATM    3  F3  UNL     1     -32.508   7.344   1.430  1.00 20.00    -0.216 F 
HETATM    4  F4  UNL     1     -33.820   4.715   3.431  1.00 20.00    -0.196 F 
HETATM    5 BR5  UNL     1     -34.236   7.401   3.972  1.00 20.00    -0.015 Br
ENDROOT
TORSDOF 0
ENDMDL
MODEL 9
REMARK VINA RESULT:      -1.9      2.318      2.398
REMARK  0 active torsions:
REMARK  status: ('A' for Active; 'I' for Inactive)
ROOT
HETATM    1  C1  UNL     1     -33.541   7.701   3.825  1.00 20.00     0.238 C 
HETATM    2  C2  UNL     1     -33.953   6.522   3.360  1.00 20.00     0.189 C 
HETATM    3  F3  UNL     1     -34.034   8.218   4.964  1.00 20.00    -0.216 F 
HETATM    4  F4  UNL     1     -33.418   6.058   2.209  1.00 20.00    -0.196 F 
HETATM    5 BR5  UNL     1     -35.234   5.487   4.223  1.00 20.00    -0.015 Br
ENDROOT
TORSDOF 0
ENDMDL
