MODEL 1
REMARK VINA RESULT:      -3.6      0.000      0.000
REMARK  1 active torsions:
REMARK  status: ('A' for Active; 'I' for Inactive)
REMARK    1  A    between atoms: C1_1  and  C3_3 
ROOT
HETATM    1  C1  UNL     1     -33.500   6.249   3.013  1.00 20.00     0.249 C 
HETATM    2  C2  UNL     1     -32.624   6.493   2.030  1.00 20.00     0.229 C 
HETATM    3  F4  UNL     1     -33.848   4.965   3.265  1.00 20.00    -0.197 F 
HETATM    4  F5  UNL     1     -32.109   5.469   1.313  1.00 20.00    -0.189 F 
HETATM    5 CL9  UNL     1     -32.126   8.098   1.642  1.00 20.00    -0.049 Cl
ENDROOT
BRANCH   1   6
HETATM    6  C3  UNL     1     -34.129   7.295   3.865  1.00 20.00     0.448 C 
HETATM    7  F6  UNL     1     -33.234   7.819   4.740  1.00 20.00    -0.164 F 
HETATM    8  F7  UNL     1     -34.645   8.335   3.164  1.00 20.00    -0.164 F 
HETATM    9  F8  UNL     1     -35.143   6.780   4.606  1.00 20.00    -0.164 F 
ENDBRANCH   1   6
TORSDOF 1
ENDMDL
MODEL 2
REMARK VINA RESULT:      -3.5      1.872      3.608
REMARK  1 active torsions:
REMARK  status: ('A' for Active; 'I' for Inactive)
REMARK    1  A    between atoms: C1_1  and  C3_3 
ROOT
HETATM    1  C1  UNL     1     -33.042   7.181   2.858  1.00 20.00     0.249 C 
HETATM    2  C2  UNL     1     -34.018   7.277   3.770  1.00 20.00     0.229 C 
HETATM    3  F4  UNL     1     -32.113   8.165   2.800  1.00 20.00    -0.197 F 
HETATM    4  F5  UNL     1     -34.063   8.339   4.605  1.00 20.00    -0.189 F 
HETATM    5 CL9  UNL     1     -35.242   6.070   3.911  1.00 20.00    -0.049 Cl
ENDROOT
BRANCH   1   6
HETATM    6  C3  UNL     1     -32.895   6.061   1.889  1.00 20.00     0.448 C 
HETATM    7  F6  UNL     1     -33.098   4.861   2.491  1.00 20.00    -0.164 F 
HETATM    8  F7  UNL     1     -33.755   6.124   0.843  1.00 20.00    -0.164 F 
HETATM    9  F8  UNL     1     -31.643   6.026   1.365  1.00 20.00    -0.164 F 
ENDBRANCH   1   6
TORSDOF 1
ENDMDL
MODEL 3
REMARK VINA RESULT:      -3.5      1.880      3.618
REMARK  1 active torsions:
REMARK  status: ('A' for Active; 'I' for Inactive)
REMARK    1  A    between atoms: C1_1  and  C3_3 
ROOT
HETATM    1  C1  UNL     1     -33.045   7.174   2.843  1.00 20.00     0.249 C 
HETATM    2  C2  UNL     1     -34.019   7.271   3.757  1.00 20.00     0.229 C 
HETATM    3  F4  UNL     1     -32.130   8.170   2.764  1.00 20.00    -0.197 F 
HETATM    4  F5  UNL     1     -34.075   8.347   4.574  1.00 20.00    -0.189 F 
HETATM    5 CL9  UNL     1     -35.224   6.049   3.925  1.00 20.00    -0.049 Cl
ENDROOT
BRANCH   1   6
HETATM    6  C3  UNL     1     -32.885   6.038   1.894  1.00 20.00     0.448 C 
HETATM    7  F6  UNL     1     -31.637   6.017   1.360  1.00 20.00    -0.164 F 
HETATM    8  F7  UNL     1     -33.090   4.821   2.456  1.00 20.00    -0.164 F 
HETATM    9  F8  UNL     1     -33.751   6.141   0.855  1.00 20.00    -0.164 F 
ENDBRANCH   1   6
TORSDOF 1
ENDMDL
MODEL 4
REMARK VINA RESULT:      -3.4      1.922      3.007
REMARK  1 active torsions:
REMARK  status: ('A' for Active; 'I' for Inactive)
REMARK    1  A    between atoms: C1_1  and  C3_3 
ROOT
HETATM    1  C1  UNL     1     -32.901   6.680   2.240  1.00 20.00     0.249 C 
HETATM    2  C2  UNL     1     -33.745   6.563   3.273  1.00 20.00     0.229 C 
HETATM    3  F4  UNL     1     -32.714   5.608   1.433  1.00 20.00    -0.197 F 
HETATM    4  F5  UNL     1     -34.387   5.394   3.494  1.00 20.00    -0.189 F 
HETATM    5 CL9  UNL     1     -34.041   7.878   4.349  1.00 20.00    -0.049 Cl
ENDROOT
BRANCH   1   6
HETATM    6  C3  UNL     1     -32.142   7.915   1.902  1.00 20.00     0.448 C 
HETATM    7  F6  UNL     1     -31.161   7.657   1.001  1.00 20.00    -0.164 F 
HETATM    8  F7  UNL     1     -32.908   8.901   1.373  1.00 20.00    -0.164 F 
HETATM    9  F8  UNL     1     -31.536   8.436   2.999  1.00 20.00    -0.164 F 
ENDBRANCH   1   6
TORSDOF 1
ENDMDL
MODEL 5
REMARK VINA RESULT:      -3.3      1.598      2.519
REMARK  1 active torsions:
REMARK  status: ('A' for Active; 'I' for Inactive)
REMARK    1  A    between atoms: C1_1  and  C3_3 
ROOT
HETATM    1  C1  UNL     1     -33.887   7.297   3.824  1.00 20.00     0.249 C 
HETATM    2  C2  UNL     1     -32.982   7.309   2.837  1.00 20.00     0.229 C 
HETATM    3  F4  UNL     1     -33.815   8.257   4.777  1.00 20.00    -0.197 F 
HETATM    4  F5  UNL     1     -32.025   8.262   2.806  1.00 20.00    -0.189 F 
HETATM    5 CL9  UNL     1     -33.001   6.124   1.584  1.00 20.00    -0.049 Cl
ENDROOT
BRANCH   1   6
HETATM    6  C3  UNL     1     -34.982   6.299   3.958  1.00 20.00     0.448 C 
HETATM    7  F6  UNL     1     -35.940   6.492   3.016  1.00 20.00    -0.164 F 
HETATM    8  F7  UNL     1     -34.570   5.013   3.837  1.00 20.00    -0.164 F 
HETATM    9  F8  UNL     1     -35.596   6.402   5.165  1.00 20.00    -0.164 F 
ENDBRANCH   1   6
TORSDOF 1
ENDMDL
MODEL 6
REMARK VINA RESULT:      -2.6      1.917      3.042
REMARK  1 active torsions:
REMARK  status: ('A' for Active; 'I' for Inactive)
REMARK    1  A    between atoms: C1_1  and  C3_3 
ROOT
HETATM    1  C1  UNL     1     -33.134   7.378   3.148  1.00 20.00     0.249 C 
HETATM    2  C2  UNL     1     -33.632   6.176   2.833  1.00 20.00     0.229 C 
HETATM    3  F4  UNL     1     -33.604   8.004   4.254  1.00 20.00    -0.197 F 
HETATM    4  F5  UNL     1     -34.584   5.613   3.610  1.00 20.00    -0.189 F 
HETATM    5 CL9  UNL     1     -33.091   5.312   1.442  1.00 20.00    -0.049 Cl
ENDROOT
BRANCH   1   6
HETATM    6  C3  UNL     1     -32.086   8.092   2.368  1.00 20.00     0.448 C 
HETATM    7  F6  UNL     1     -31.237   8.764   3.187  1.00 20.00    -0.164 F 
HETATM    8  F7  UNL     1     -31.324   7.276   1.599  1.00 20.00    -0.164 F 
HETATM    9  F8  UNL     1     -32.635   9.014   1.537  1.00 20.00    -0.164 F 
ENDBRANCH   1   6
TORSDOF 1
ENDMDL
MODEL 7
REMARK VINA RESULT:      -2.5      1.755      2.277
REMARK  1 active torsions:
REMARK  status: ('A' for Active; 'I' for Inactive)
REMARK    1  A    between atoms: C1_1  and  C3_3 
ROOT
HETATM    1  C1  UNL     1     -33.309   6.980   2.816  1.00 20.00     0.249 C 
HETATM    2  C2  UNL     1     -33.168   5.671   2.572  1.00 20.00     0.229 C 
HETATM    3  F4  UNL     1     -32.695   7.862   1.991  1.00 20.00    -0.197 F 
HETATM    4  F5  UNL     1     -32.424   5.254   1.524  1.00 20.00    -0.189 F 
HETATM    5 CL9  UNL     1     -33.915   4.482   3.573  1.00 20.00    -0.049 Cl
ENDROOT
BRANCH   1   6
HETATM    6  C3  UNL     1     -34.102   7.552   3.939  1.00 20.00     0.448 C 
HETATM    7  F6  UNL     1     -34.696   8.717   3.576  1.00 20.00    -0.164 F 
HETATM    8  F7  UNL     1     -35.086   6.735   4.387  1.00 20.00    -0.164 F 
HETATM    9  F8  UNL     1     -33.311   7.834   5.005  1.00 20.00    -0.164 F 
ENDBRANCH   1   6
TORSDOF 1
ENDMDL
MODEL 8
REMARK VINA RESULT:      -2.4      1.421      1.851
REMARK  1 active torsions:
REMARK  status: ('A' for Active; 'I' for Inactive)
REMARK    1  A    between atoms: C1_1  and  C3_3 
ROOT
HETATM    1  C1  UNL     1     -33.252   6.718   2.372  1.00 20.00     0.249 C 
HETATM    2  C2  UNL     1     -32.264   7.621   2.327  1.00 20.00     0.229 C 
HETATM    3  F4  UNL     1     -33.426   5.896   1.309  1.00 20.00    -0.197 F 
HETATM    4  F5  UNL     1     -31.468   7.700   1.237  1.00 20.00    -0.189 F 
HETATM    5 CL9  UNL     1     -31.975   8.706   3.636  1.00 20.00    -0.049 Cl
ENDROOT
BRANCH   1   6
HETATM    6  C3  UNL     1     -34.188   6.541   3.516  1.00 20.00     0.448 C 
HETATM    7  F6  UNL     1     -34.119   5.282   4.016  1.00 20.00    -0.164 F 
HETATM    8  F7  UNL     1     -33.953   7.385   4.551  1.00 20.00    -0.164 F 
HETATM    9  F8  UNL     1     -35.475   6.739   3.133  1.00 20.00    -0.164 F 
ENDBRANCH   1   6
TORSDOF 1
ENDMDL
MODEL 9
REMARK VINA RESULT:      -2.3      1.401      2.496
REMARK  1 active torsions:
REMARK  status: ('A' for Active; 'I' for Inactive)
REMARK    1  A    between atoms: C1_1  and  C3_3 
ROOT
HETATM    1  C1  UNL     1     -33.545   7.374   3.755  1.00 20.00     0.249 C 
HETATM    2  C2  UNL     1     -32.493   7.755   3.020  1.00 20.00     0.229 C 
HETATM    3  F4  UNL     1     -33.816   8.051   4.897  1.00 20.00    -0.197 F 
HETATM    4  F5  UNL     1     -31.726   8.793   3.423  1.00 20.00    -0.189 F 
HETATM    5 CL9  UNL     1     -32.077   6.948   1.554  1.00 20.00    -0.049 Cl
ENDROOT
BRANCH   1   6
HETATM    6  C3  UNL     1     -34.457   6.249   3.411  1.00 20.00     0.448 C 
HETATM    7  F6  UNL     1     -34.102   5.113   4.064  1.00 20.00    -0.164 F 
HETATM    8  F7  UNL     1     -35.757   6.484   3.714  1.00 20.00    -0.164 F 
HETATM    9  F8  UNL     1     -34.409   5.966   2.084  1.00 20.00    -0.164 F 
ENDBRANCH   1   6
TORSDOF 1
ENDMDL
