MODEL 1
REMARK VINA RESULT:      -1.8      0.000      0.000
REMARK  0 active torsions:
REMARK  status: ('A' for Active; 'I' for Inactive)
ROOT
HETATM    1  C1  UNL     1     -34.370   7.578   3.982  1.00 20.00     0.145 C 
HETATM    2  C2  UNL     1     -33.236   7.330   3.340  1.00 20.00    -0.034 C 
HETATM    3  C3  UNL     1     -32.324   8.107   2.476  1.00 20.00     0.038 C 
HETATM    4  C4  UNL     1     -31.996   7.057   1.395  1.00 20.00     0.007 C 
HETATM    5  C5  UNL     1     -32.998   5.897   1.588  1.00 20.00     0.034 C 
HETATM    6  C6  UNL     1     -33.213   5.878   3.086  1.00 20.00     0.161 C 
HETATM    7  N7  UNL     1     -35.112   6.432   4.149  1.00 20.00    -0.167 NA
HETATM    8  N8  UNL     1     -34.549   5.458   3.554  1.00 20.00    -0.183 NA
ENDROOT
TORSDOF 0
ENDMDL
MODEL 2
REMARK VINA RESULT:      -1.8      1.966      3.289
REMARK  0 active torsions:
REMARK  status: ('A' for Active; 'I' for Inactive)
ROOT
HETATM    1  C1  UNL     1     -32.676   6.079   1.670  1.00 20.00     0.145 C 
HETATM    2  C2  UNL     1     -33.275   6.002   2.851  1.00 20.00    -0.034 C 
HETATM    3  C3  UNL     1     -34.378   5.203   3.422  1.00 20.00     0.038 C 
HETATM    4  C4  UNL     1     -35.113   6.282   4.243  1.00 20.00     0.007 C 
HETATM    5  C5  UNL     1     -34.531   7.644   3.803  1.00 20.00     0.034 C 
HETATM    6  C6  UNL     1     -33.086   7.315   3.496  1.00 20.00     0.161 C 
HETATM    7  N7  UNL     1     -32.137   7.327   1.462  1.00 20.00    -0.167 NA
HETATM    8  N8  UNL     1     -32.444   8.101   2.423  1.00 20.00    -0.183 NA
ENDROOT
TORSDOF 0
ENDMDL
MODEL 3
REMARK VINA RESULT:      -1.7      1.947      2.843
REMARK  0 active torsions:
REMARK  status: ('A' for Active; 'I' for Inactive)
ROOT
HETATM    1  C1  UNL     1     -32.309   8.052   2.518  1.00 20.00     0.145 C 
HETATM    2  C2  UNL     1     -33.462   7.480   2.842  1.00 20.00    -0.034 C 
HETATM    3  C3  UNL     1     -34.374   7.535   4.001  1.00 20.00     0.038 C 
HETATM    4  C4  UNL     1     -34.748   6.046   4.138  1.00 20.00     0.007 C 
HETATM    5  C5  UNL     1     -33.767   5.261   3.239  1.00 20.00     0.034 C 
HETATM    6  C6  UNL     1     -33.520   6.213   2.089  1.00 20.00     0.161 C 
HETATM    7  N7  UNL     1     -31.588   7.268   1.647  1.00 20.00    -0.167 NA
HETATM    8  N8  UNL     1     -32.184   6.160   1.464  1.00 20.00    -0.183 NA
ENDROOT
TORSDOF 0
ENDMDL
MODEL 4
REMARK VINA RESULT:      -1.5      1.047      2.179
REMARK  0 active torsions:
REMARK  status: ('A' for Active; 'I' for Inactive)
ROOT
HETATM    1  C1  UNL     1     -33.986   4.466   3.530  1.00 20.00     0.145 C 
HETATM    2  C2  UNL     1     -33.838   5.624   2.898  1.00 20.00    -0.034 C 
HETATM    3  C3  UNL     1     -32.739   6.297   2.178  1.00 20.00     0.038 C 
HETATM    4  C4  UNL     1     -32.912   7.743   2.686  1.00 20.00     0.007 C 
HETATM    5  C5  UNL     1     -33.892   7.677   3.878  1.00 20.00     0.034 C 
HETATM    6  C6  UNL     1     -34.822   6.547   3.494  1.00 20.00     0.161 C 
HETATM    7  N7  UNL     1     -34.951   4.547   4.505  1.00 20.00    -0.167 NA
HETATM    8  N8  UNL     1     -35.375   5.742   4.601  1.00 20.00    -0.183 NA
ENDROOT
TORSDOF 0
ENDMDL
MODEL 5
REMARK VINA RESULT:      -1.2      0.836      1.863
REMARK  0 active torsions:
REMARK  status: ('A' for Active; 'I' for Inactive)
ROOT
HETATM    1  C1  UNL     1     -34.186   5.538   3.395  1.00 20.00     0.145 C 
HETATM    2  C2  UNL     1     -33.578   6.186   2.409  1.00 20.00    -0.034 C 
HETATM    3  C3  UNL     1     -32.510   5.866   1.441  1.00 20.00     0.038 C 
HETATM    4  C4  UNL     1     -31.713   7.186   1.454  1.00 20.00     0.007 C 
HETATM    5  C5  UNL     1     -32.231   8.003   2.659  1.00 20.00     0.034 C 
HETATM    6  C6  UNL     1     -33.694   7.621   2.726  1.00 20.00     0.161 C 
HETATM    7  N7  UNL     1     -34.665   6.408   4.346  1.00 20.00    -0.167 NA
HETATM    8  N8  UNL     1     -34.308   7.597   4.068  1.00 20.00    -0.183 NA
ENDROOT
TORSDOF 0
ENDMDL
MODEL 6
REMARK VINA RESULT:      -0.7      1.932      2.771
REMARK  0 active torsions:
REMARK  status: ('A' for Active; 'I' for Inactive)
ROOT
HETATM    1  C1  UNL     1     -33.933   7.828   3.918  1.00 20.00     0.145 C 
HETATM    2  C2  UNL     1     -34.406   6.612   3.678  1.00 20.00    -0.034 C 
HETATM    3  C3  UNL     1     -35.097   5.575   4.471  1.00 20.00     0.038 C 
HETATM    4  C4  UNL     1     -34.381   4.307   3.962  1.00 20.00     0.007 C 
HETATM    5  C5  UNL     1     -33.148   4.786   3.165  1.00 20.00     0.034 C 
HETATM    6  C6  UNL     1     -33.624   6.082   2.545  1.00 20.00     0.161 C 
HETATM    7  N7  UNL     1     -32.894   8.138   3.072  1.00 20.00    -0.167 NA
HETATM    8  N8  UNL     1     -32.605   7.132   2.349  1.00 20.00    -0.183 NA
ENDROOT
TORSDOF 0
ENDMDL
MODEL 7
REMARK VINA RESULT:       0.0      2.458      3.417
REMARK  0 active torsions:
REMARK  status: ('A' for Active; 'I' for Inactive)
ROOT
HETATM    1  C1  UNL     1     -31.955   7.842   0.578  1.00 20.00     0.145 C 
HETATM    2  C2  UNL     1     -32.211   7.046   1.608  1.00 20.00    -0.034 C 
HETATM    3  C3  UNL     1     -32.730   5.674   1.776  1.00 20.00     0.038 C 
HETATM    4  C4  UNL     1     -33.669   5.873   2.983  1.00 20.00     0.007 C 
HETATM    5  C5  UNL     1     -33.821   7.398   3.177  1.00 20.00     0.034 C 
HETATM    6  C6  UNL     1     -32.468   7.932   2.759  1.00 20.00     0.161 C 
HETATM    7  N7  UNL     1     -32.050   9.167   0.931  1.00 20.00    -0.167 NA
HETATM    8  N8  UNL     1     -32.453   9.270   2.133  1.00 20.00    -0.183 NA
ENDROOT
TORSDOF 0
ENDMDL
MODEL 8
REMARK VINA RESULT:       0.3      2.241      2.700
REMARK  0 active torsions:
REMARK  status: ('A' for Active; 'I' for Inactive)
ROOT
HETATM    1  C1  UNL     1     -32.828   8.196   4.324  1.00 20.00     0.145 C 
HETATM    2  C2  UNL     1     -33.530   7.388   3.540  1.00 20.00    -0.034 C 
HETATM    3  C3  UNL     1     -34.361   6.184   3.744  1.00 20.00     0.038 C 
HETATM    4  C4  UNL     1     -33.921   5.330   2.538  1.00 20.00     0.007 C 
HETATM    5  C5  UNL     1     -32.663   6.008   1.952  1.00 20.00     0.034 C 
HETATM    6  C6  UNL     1     -32.920   7.479   2.201  1.00 20.00     0.161 C 
HETATM    7  N7  UNL     1     -31.794   8.787   3.636  1.00 20.00    -0.167 NA
HETATM    8  N8  UNL     1     -31.735   8.322   2.454  1.00 20.00    -0.183 NA
ENDROOT
TORSDOF 0
ENDMDL
MODEL 9
REMARK VINA RESULT:       0.4      1.883      3.109
REMARK  0 active torsions:
REMARK  status: ('A' for Active; 'I' for Inactive)
ROOT
HETATM    1  C1  UNL     1     -32.705   7.016   2.025  1.00 20.00     0.145 C 
HETATM    2  C2  UNL     1     -33.230   6.327   3.030  1.00 20.00    -0.034 C 
HETATM    3  C3  UNL     1     -33.698   4.941   3.226  1.00 20.00     0.038 C 
HETATM    4  C4  UNL     1     -34.981   5.188   4.043  1.00 20.00     0.007 C 
HETATM    5  C5  UNL     1     -35.273   6.702   3.959  1.00 20.00     0.034 C 
HETATM    6  C6  UNL     1     -33.890   7.315   3.905  1.00 20.00     0.161 C 
HETATM    7  N7  UNL     1     -32.982   8.358   2.137  1.00 20.00    -0.167 NA
HETATM    8  N8  UNL     1     -33.752   8.563   3.128  1.00 20.00    -0.183 NA
ENDROOT
TORSDOF 0
ENDMDL
