MODEL 1
REMARK VINA RESULT:      -1.6      0.000      0.000
REMARK  0 active torsions:
REMARK  status: ('A' for Active; 'I' for Inactive)
ROOT
HETATM    1  C1  UNL     1     -33.705   5.614   3.055  1.00 20.00     0.164 C 
HETATM    2  C2  UNL     1     -34.463   6.700   3.781  1.00 20.00     0.107 C 
HETATM    3  C3  UNL     1     -33.574   7.928   3.909  1.00 20.00     0.175 C 
HETATM    4  C4  UNL     1     -32.223   7.329   2.068  1.00 20.00     0.212 C 
HETATM    5  C5  UNL     1     -32.991   6.047   1.799  1.00 20.00     0.263 C 
HETATM    6  O6  UNL     1     -33.745   4.440   3.414  1.00 20.00    -0.295 OA
HETATM    7  O7  UNL     1     -33.076   8.327   2.630  1.00 20.00    -0.388 OA
HETATM    8  F8  UNL     1     -32.122   5.095   1.370  1.00 20.00    -0.239 F 
ENDROOT
TORSDOF 0
ENDMDL
MODEL 2
REMARK VINA RESULT:      -1.5      2.109      2.662
REMARK  0 active torsions:
REMARK  status: ('A' for Active; 'I' for Inactive)
ROOT
HETATM    1  C1  UNL     1     -34.246   6.253   3.521  1.00 20.00     0.164 C 
HETATM    2  C2  UNL     1     -33.547   5.199   2.695  1.00 20.00     0.107 C 
HETATM    3  C3  UNL     1     -32.912   5.857   1.481  1.00 20.00     0.175 C 
HETATM    4  C4  UNL     1     -32.807   7.984   2.499  1.00 20.00     0.212 C 
HETATM    5  C5  UNL     1     -33.447   7.504   3.790  1.00 20.00     0.263 C 
HETATM    6  O6  UNL     1     -35.354   6.065   4.017  1.00 20.00    -0.295 OA
HETATM    7  O7  UNL     1     -32.062   6.937   1.877  1.00 20.00    -0.388 OA
HETATM    8  F8  UNL     1     -34.231   8.495   4.288  1.00 20.00    -0.239 F 
ENDROOT
TORSDOF 0
ENDMDL
MODEL 3
REMARK VINA RESULT:      -1.4      2.004      2.898
REMARK  0 active torsions:
REMARK  status: ('A' for Active; 'I' for Inactive)
ROOT
HETATM    1  C1  UNL     1     -33.572   7.567   3.707  1.00 20.00     0.164 C 
HETATM    2  C2  UNL     1     -32.705   8.169   2.627  1.00 20.00     0.107 C 
HETATM    3  C3  UNL     1     -31.965   7.055   1.903  1.00 20.00     0.175 C 
HETATM    4  C4  UNL     1     -33.547   5.409   2.502  1.00 20.00     0.212 C 
HETATM    5  C5  UNL     1     -34.407   6.384   3.287  1.00 20.00     0.263 C 
HETATM    6  O6  UNL     1     -33.659   8.066   4.827  1.00 20.00    -0.295 OA
HETATM    7  O7  UNL     1     -32.881   6.067   1.424  1.00 20.00    -0.388 OA
HETATM    8  F8  UNL     1     -34.932   5.741   4.362  1.00 20.00    -0.239 F 
ENDROOT
TORSDOF 0
ENDMDL
MODEL 4
REMARK VINA RESULT:      -1.1      1.685      2.105
REMARK  0 active torsions:
REMARK  status: ('A' for Active; 'I' for Inactive)
ROOT
HETATM    1  C1  UNL     1     -32.711   6.107   1.860  1.00 20.00     0.164 C 
HETATM    2  C2  UNL     1     -33.997   5.578   2.449  1.00 20.00     0.107 C 
HETATM    3  C3  UNL     1     -34.200   6.185   3.828  1.00 20.00     0.175 C 
HETATM    4  C4  UNL     1     -32.840   8.059   3.371  1.00 20.00     0.212 C 
HETATM    5  C5  UNL     1     -32.514   7.599   1.961  1.00 20.00     0.263 C 
HETATM    6  O6  UNL     1     -31.923   5.382   1.258  1.00 20.00    -0.295 OA
HETATM    7  O7  UNL     1     -34.137   7.612   3.768  1.00 20.00    -0.388 OA
HETATM    8  F8  UNL     1     -31.235   7.951   1.667  1.00 20.00    -0.239 F 
ENDROOT
TORSDOF 0
ENDMDL
MODEL 5
REMARK VINA RESULT:      -1.1      2.002      3.444
REMARK  0 active torsions:
REMARK  status: ('A' for Active; 'I' for Inactive)
ROOT
HETATM    1  C1  UNL     1     -32.402   7.997   2.967  1.00 20.00     0.164 C 
HETATM    2  C2  UNL     1     -31.995   7.450   1.619  1.00 20.00     0.107 C 
HETATM    3  C3  UNL     1     -32.269   5.955   1.584  1.00 20.00     0.175 C 
HETATM    4  C4  UNL     1     -33.910   6.063   3.278  1.00 20.00     0.212 C 
HETATM    5  C5  UNL     1     -33.760   7.562   3.461  1.00 20.00     0.263 C 
HETATM    6  O6  UNL     1     -31.714   8.813   3.575  1.00 20.00    -0.295 OA
HETATM    7  O7  UNL     1     -33.629   5.682   1.930  1.00 20.00    -0.388 OA
HETATM    8  F8  UNL     1     -33.927   7.864   4.775  1.00 20.00    -0.239 F 
ENDROOT
TORSDOF 0
ENDMDL
MODEL 6
REMARK VINA RESULT:      -1.1      0.861      2.439
REMARK  0 active torsions:
REMARK  status: ('A' for Active; 'I' for Inactive)
ROOT
HETATM    1  C1  UNL     1     -32.646   7.462   2.388  1.00 20.00     0.164 C 
HETATM    2  C2  UNL     1     -33.292   7.911   3.677  1.00 20.00     0.107 C 
HETATM    3  C3  UNL     1     -34.568   7.114   3.901  1.00 20.00     0.175 C 
HETATM    4  C4  UNL     1     -33.859   5.314   2.548  1.00 20.00     0.212 C 
HETATM    5  C5  UNL     1     -32.534   5.969   2.203  1.00 20.00     0.263 C 
HETATM    6  O6  UNL     1     -32.162   8.259   1.588  1.00 20.00    -0.295 OA
HETATM    7  O7  UNL     1     -34.303   5.710   3.846  1.00 20.00    -0.388 OA
HETATM    8  F8  UNL     1     -32.206   5.652   0.923  1.00 20.00    -0.239 F 
ENDROOT
TORSDOF 0
ENDMDL
MODEL 7
REMARK VINA RESULT:      -0.6      1.632      2.401
REMARK  0 active torsions:
REMARK  status: ('A' for Active; 'I' for Inactive)
ROOT
HETATM    1  C1  UNL     1     -33.017   6.057   1.828  1.00 20.00     0.164 C 
HETATM    2  C2  UNL     1     -31.818   6.911   1.489  1.00 20.00     0.107 C 
HETATM    3  C3  UNL     1     -32.057   8.327   1.989  1.00 20.00     0.175 C 
HETATM    4  C4  UNL     1     -33.624   7.649   3.619  1.00 20.00     0.212 C 
HETATM    5  C5  UNL     1     -33.524   6.181   3.243  1.00 20.00     0.263 C 
HETATM    6  O6  UNL     1     -33.488   5.248   1.032  1.00 20.00    -0.295 OA
HETATM    7  O7  UNL     1     -32.388   8.323   3.380  1.00 20.00    -0.388 OA
HETATM    8  F8  UNL     1     -34.747   5.607   3.383  1.00 20.00    -0.239 F 
ENDROOT
TORSDOF 0
ENDMDL
MODEL 8
REMARK VINA RESULT:      -0.3      2.095      3.494
REMARK  0 active torsions:
REMARK  status: ('A' for Active; 'I' for Inactive)
ROOT
HETATM    1  C1  UNL     1     -33.509   6.472   2.858  1.00 20.00     0.164 C 
HETATM    2  C2  UNL     1     -33.390   4.992   2.579  1.00 20.00     0.107 C 
HETATM    3  C3  UNL     1     -33.796   4.216   3.822  1.00 20.00     0.175 C 
HETATM    4  C4  UNL     1     -35.105   5.983   4.682  1.00 20.00     0.212 C 
HETATM    5  C5  UNL     1     -34.794   6.907   3.518  1.00 20.00     0.263 C 
HETATM    6  O6  UNL     1     -32.658   7.276   2.488  1.00 20.00    -0.295 OA
HETATM    7  O7  UNL     1     -35.095   4.616   4.266  1.00 20.00    -0.388 OA
HETATM    8  F8  UNL     1     -34.706   8.182   3.980  1.00 20.00    -0.239 F 
ENDROOT
TORSDOF 0
ENDMDL
MODEL 9
REMARK VINA RESULT:      -0.2      1.991      2.280
REMARK  0 active torsions:
REMARK  status: ('A' for Active; 'I' for Inactive)
ROOT
HETATM    1  C1  UNL     1     -35.070   5.219   4.308  1.00 20.00     0.164 C 
HETATM    2  C2  UNL     1     -35.329   6.631   3.837  1.00 20.00     0.107 C 
HETATM    3  C3  UNL     1     -34.002   7.295   3.502  1.00 20.00     0.175 C 
HETATM    4  C4  UNL     1     -32.895   5.243   3.135  1.00 20.00     0.212 C 
HETATM    5  C5  UNL     1     -34.125   4.412   3.454  1.00 20.00     0.263 C 
HETATM    6  O6  UNL     1     -35.663   4.733   5.269  1.00 20.00    -0.295 OA
HETATM    7  O7  UNL     1     -33.261   6.503   2.571  1.00 20.00    -0.388 OA
HETATM    8  F8  UNL     1     -33.735   3.275   4.087  1.00 20.00    -0.239 F 
ENDROOT
TORSDOF 0
ENDMDL
