MODEL 1
REMARK VINA RESULT:      -0.5      0.000      0.000
REMARK  1 active torsions:
REMARK  status: ('A' for Active; 'I' for Inactive)
REMARK    1  A    between atoms: C6_6  and  C8_8 
ROOT
HETATM    1  C1  UNL     1     -32.050   7.721   1.755  1.00 20.00     0.000 C 
HETATM    2  C2  UNL     1     -32.228   8.098   3.221  1.00 20.00     0.001 C 
HETATM    3  C3  UNL     1     -32.441   6.271   1.489  1.00 20.00     0.001 C 
HETATM    4  C4  UNL     1     -33.644   7.799   3.714  1.00 20.00     0.010 C 
HETATM    5  C5  UNL     1     -33.857   5.969   1.979  1.00 20.00     0.010 C 
HETATM    6  C6  UNL     1     -34.086   6.340   3.462  1.00 20.00    -0.032 C 
HETATM    7  C7  UNL     1     -35.587   6.209   3.784  1.00 20.00     0.016 C 
ENDROOT
BRANCH   6   8
HETATM    8  C8  UNL     1     -33.319   5.374   4.386  1.00 20.00     0.123 C 
HETATM    9 CL9  UNL     1     -33.837   3.713   4.076  1.00 20.00    -0.130 Cl
ENDBRANCH   6   8
TORSDOF 1
ENDMDL
MODEL 2
REMARK VINA RESULT:      -0.3      2.615      3.863
REMARK  1 active torsions:
REMARK  status: ('A' for Active; 'I' for Inactive)
REMARK    1  A    between atoms: C6_6  and  C8_8 
ROOT
HETATM    1  C1  UNL     1     -34.070   5.774   3.340  1.00 20.00     0.000 C 
HETATM    2  C2  UNL     1     -34.236   7.248   3.693  1.00 20.00     0.001 C 
HETATM    3  C3  UNL     1     -33.486   5.586   1.944  1.00 20.00     0.001 C 
HETATM    4  C4  UNL     1     -32.928   8.021   3.523  1.00 20.00     0.010 C 
HETATM    5  C5  UNL     1     -32.176   6.357   1.771  1.00 20.00     0.010 C 
HETATM    6  C6  UNL     1     -32.296   7.857   2.122  1.00 20.00    -0.032 C 
HETATM    7  C7  UNL     1     -30.888   8.482   2.132  1.00 20.00     0.016 C 
ENDROOT
BRANCH   6   8
HETATM    8  C8  UNL     1     -33.133   8.596   1.061  1.00 20.00     0.123 C 
HETATM    9 CL9  UNL     1     -32.153   9.854   0.298  1.00 20.00    -0.130 Cl
ENDBRANCH   6   8
TORSDOF 1
ENDMDL
MODEL 3
REMARK VINA RESULT:       0.4      1.785      3.150
REMARK  1 active torsions:
REMARK  status: ('A' for Active; 'I' for Inactive)
REMARK    1  A    between atoms: C6_6  and  C8_8 
ROOT
HETATM    1  C1  UNL     1     -33.653   7.670   3.787  1.00 20.00     0.000 C 
HETATM    2  C2  UNL     1     -32.998   8.220   2.525  1.00 20.00     0.001 C 
HETATM    3  C3  UNL     1     -34.359   6.343   3.529  1.00 20.00     0.001 C 
HETATM    4  C4  UNL     1     -32.057   7.199   1.886  1.00 20.00     0.010 C 
HETATM    5  C5  UNL     1     -33.420   5.319   2.891  1.00 20.00     0.010 C 
HETATM    6  C6  UNL     1     -32.728   5.835   1.608  1.00 20.00    -0.032 C 
HETATM    7  C7  UNL     1     -31.648   4.823   1.181  1.00 20.00     0.016 C 
ENDROOT
BRANCH   6   8
HETATM    8  C8  UNL     1     -33.744   5.955   0.457  1.00 20.00     0.123 C 
HETATM    9 CL9  UNL     1     -33.889   4.404  -0.377  1.00 20.00    -0.130 Cl
ENDBRANCH   6   8
TORSDOF 1
ENDMDL
MODEL 4
REMARK VINA RESULT:       0.6      1.652      3.302
REMARK  1 active torsions:
REMARK  status: ('A' for Active; 'I' for Inactive)
REMARK    1  A    between atoms: C6_6  and  C8_8 
ROOT
HETATM    1  C1  UNL     1     -35.007   5.066   4.568  1.00 20.00     0.000 C 
HETATM    2  C2  UNL     1     -35.505   6.308   3.837  1.00 20.00     0.001 C 
HETATM    3  C3  UNL     1     -33.981   4.295   3.745  1.00 20.00     0.001 C 
HETATM    4  C4  UNL     1     -34.350   7.206   3.396  1.00 20.00     0.010 C 
HETATM    5  C5  UNL     1     -32.823   5.191   3.304  1.00 20.00     0.010 C 
HETATM    6  C6  UNL     1     -33.281   6.466   2.560  1.00 20.00    -0.032 C 
HETATM    7  C7  UNL     1     -32.067   7.394   2.365  1.00 20.00     0.016 C 
ENDROOT
BRANCH   6   8
HETATM    8  C8  UNL     1     -33.833   6.111   1.167  1.00 20.00     0.123 C 
HETATM    9 CL9  UNL     1     -32.801   4.893   0.408  1.00 20.00    -0.130 Cl
ENDBRANCH   6   8
TORSDOF 1
ENDMDL
MODEL 5
REMARK VINA RESULT:       0.8      1.500      2.553
REMARK  1 active torsions:
REMARK  status: ('A' for Active; 'I' for Inactive)
REMARK    1  A    between atoms: C6_6  and  C8_8 
ROOT
HETATM    1  C1  UNL     1     -31.961   6.644   1.131  1.00 20.00     0.000 C 
HETATM    2  C2  UNL     1     -32.936   5.709   1.838  1.00 20.00     0.001 C 
HETATM    3  C3  UNL     1     -32.302   8.111   1.376  1.00 20.00     0.001 C 
HETATM    4  C4  UNL     1     -33.038   6.021   3.331  1.00 20.00     0.010 C 
HETATM    5  C5  UNL     1     -32.402   8.426   2.868  1.00 20.00     0.010 C 
HETATM    6  C6  UNL     1     -33.379   7.498   3.628  1.00 20.00    -0.032 C 
HETATM    7  C7  UNL     1     -33.234   7.751   5.140  1.00 20.00     0.016 C 
ENDROOT
BRANCH   6   8
HETATM    8  C8  UNL     1     -34.835   7.808   3.234  1.00 20.00     0.123 C 
HETATM    9 CL9  UNL     1     -35.874   6.445   3.670  1.00 20.00    -0.130 Cl
ENDBRANCH   6   8
TORSDOF 1
ENDMDL
MODEL 6
REMARK VINA RESULT:       1.0      0.947      2.389
REMARK  1 active torsions:
REMARK  status: ('A' for Active; 'I' for Inactive)
REMARK    1  A    between atoms: C6_6  and  C8_8 
ROOT
HETATM    1  C1  UNL     1     -33.870   8.209   4.112  1.00 20.00     0.000 C 
HETATM    2  C2  UNL     1     -34.695   6.928   4.182  1.00 20.00     0.001 C 
HETATM    3  C3  UNL     1     -32.466   7.952   3.574  1.00 20.00     0.001 C 
HETATM    4  C4  UNL     1     -34.733   6.206   2.835  1.00 20.00     0.010 C 
HETATM    5  C5  UNL     1     -32.502   7.231   2.226  1.00 20.00     0.010 C 
HETATM    6  C6  UNL     1     -33.332   5.927   2.248  1.00 20.00    -0.032 C 
HETATM    7  C7  UNL     1     -33.488   5.410   0.805  1.00 20.00     0.016 C 
ENDROOT
BRANCH   6   8
HETATM    8  C8  UNL     1     -32.609   4.839   3.064  1.00 20.00     0.123 C 
HETATM    9 CL9  UNL     1     -33.793   3.873   3.952  1.00 20.00    -0.130 Cl
ENDBRANCH   6   8
TORSDOF 1
ENDMDL
MODEL 7
REMARK VINA RESULT:       1.1      2.165      3.710
REMARK  1 active torsions:
REMARK  status: ('A' for Active; 'I' for Inactive)
REMARK    1  A    between atoms: C6_6  and  C8_8 
ROOT
HETATM    1  C1  UNL     1     -34.299   5.890   3.348  1.00 20.00     0.000 C 
HETATM    2  C2  UNL     1     -33.098   5.466   2.510  1.00 20.00     0.001 C 
HETATM    3  C3  UNL     1     -34.113   7.283   3.941  1.00 20.00     0.001 C 
HETATM    4  C4  UNL     1     -32.768   6.497   1.431  1.00 20.00     0.010 C 
HETATM    5  C5  UNL     1     -33.786   8.317   2.864  1.00 20.00     0.010 C 
HETATM    6  C6  UNL     1     -32.575   7.926   1.985  1.00 20.00    -0.032 C 
HETATM    7  C7  UNL     1     -32.475   8.912   0.805  1.00 20.00     0.016 C 
ENDROOT
BRANCH   6   8
HETATM    8  C8  UNL     1     -31.267   8.021   2.793  1.00 20.00     0.123 C 
HETATM    9 CL9  UNL     1     -31.500   9.087   4.183  1.00 20.00    -0.130 Cl
ENDBRANCH   6   8
TORSDOF 1
ENDMDL
MODEL 8
REMARK VINA RESULT:       1.2      1.667      3.419
REMARK  1 active torsions:
REMARK  status: ('A' for Active; 'I' for Inactive)
REMARK    1  A    between atoms: C6_6  and  C8_8 
ROOT
HETATM    1  C1  UNL     1     -34.160   7.440   4.428  1.00 20.00     0.000 C 
HETATM    2  C2  UNL     1     -34.309   6.510   3.229  1.00 20.00     0.001 C 
HETATM    3  C3  UNL     1     -32.754   8.022   4.524  1.00 20.00     0.001 C 
HETATM    4  C4  UNL     1     -33.894   7.194   1.927  1.00 20.00     0.010 C 
HETATM    5  C5  UNL     1     -32.337   8.709   3.223  1.00 20.00     0.010 C 
HETATM    6  C6  UNL     1     -32.475   7.803   1.978  1.00 20.00    -0.032 C 
HETATM    7  C7  UNL     1     -32.249   8.654   0.714  1.00 20.00     0.016 C 
ENDROOT
BRANCH   6   8
HETATM    8  C8  UNL     1     -31.409   6.692   1.997  1.00 20.00     0.123 C 
HETATM    9 CL9  UNL     1     -31.996   5.286   1.101  1.00 20.00    -0.130 Cl
ENDBRANCH   6   8
TORSDOF 1
ENDMDL
MODEL 9
REMARK VINA RESULT:       1.4      1.820      1.842
REMARK  1 active torsions:
REMARK  status: ('A' for Active; 'I' for Inactive)
REMARK    1  A    between atoms: C6_6  and  C8_8 
ROOT
HETATM    1  C1  UNL     1     -31.890   7.017   1.102  1.00 20.00     0.000 C 
HETATM    2  C2  UNL     1     -32.244   8.207   1.988  1.00 20.00     0.001 C 
HETATM    3  C3  UNL     1     -32.117   5.689   1.816  1.00 20.00     0.001 C 
HETATM    4  C4  UNL     1     -33.667   8.100   2.537  1.00 20.00     0.010 C 
HETATM    5  C5  UNL     1     -33.540   5.579   2.365  1.00 20.00     0.010 C 
HETATM    6  C6  UNL     1     -33.944   6.767   3.267  1.00 20.00    -0.032 C 
HETATM    7  C7  UNL     1     -35.451   6.670   3.576  1.00 20.00     0.016 C 
ENDROOT
BRANCH   6   8
HETATM    8  C8  UNL     1     -33.183   6.714   4.606  1.00 20.00     0.123 C 
HETATM    9 CL9  UNL     1     -33.173   8.317   5.350  1.00 20.00    -0.130 Cl
ENDBRANCH   6   8
TORSDOF 1
ENDMDL
