MODEL 1
REMARK VINA RESULT:      -1.4      0.000      0.000
REMARK  0 active torsions:
REMARK  status: ('A' for Active; 'I' for Inactive)
ROOT
HETATM    1  C1  UNL     1     -34.060   7.708   3.900  1.00 20.00     0.009 C 
HETATM    2  C2  UNL     1     -34.419   6.248   3.618  1.00 20.00     0.035 C 
HETATM    3  C3  UNL     1     -32.583   7.981   3.613  1.00 20.00     0.082 C 
HETATM    4  C4  UNL     1     -33.913   5.778   2.289  1.00 20.00     0.157 A 
HETATM    5  C5  UNL     1     -32.813   6.514   1.570  1.00 20.00     0.223 A 
HETATM    6  C6  UNL     1     -32.276   7.779   2.137  1.00 20.00     0.271 C 
HETATM    7  O7  UNL     1     -32.543   5.331   2.324  1.00 20.00    -0.369 OA
HETATM    8  F8  UNL     1     -32.800   8.819   1.434  1.00 20.00    -0.203 F 
HETATM    9  F9  UNL     1     -30.932   7.826   1.945  1.00 20.00    -0.203 F 
ENDROOT
TORSDOF 0
ENDMDL
MODEL 2
REMARK VINA RESULT:      -1.3      2.521      3.500
REMARK  0 active torsions:
REMARK  status: ('A' for Active; 'I' for Inactive)
ROOT
HETATM    1  C1  UNL     1     -33.202   6.192   1.806  1.00 20.00     0.009 C 
HETATM    2  C2  UNL     1     -32.312   7.341   2.280  1.00 20.00     0.035 C 
HETATM    3  C3  UNL     1     -33.880   5.492   2.984  1.00 20.00     0.082 C 
HETATM    4  C4  UNL     1     -33.004   8.236   3.263  1.00 20.00     0.157 A 
HETATM    5  C5  UNL     1     -34.228   7.774   4.009  1.00 20.00     0.223 A 
HETATM    6  C6  UNL     1     -34.821   6.445   3.707  1.00 20.00     0.271 C 
HETATM    7  O7  UNL     1     -32.937   7.755   4.620  1.00 20.00    -0.369 OA
HETATM    8  F8  UNL     1     -35.927   6.635   2.939  1.00 20.00    -0.203 F 
HETATM    9  F9  UNL     1     -35.250   5.868   4.859  1.00 20.00    -0.203 F 
ENDROOT
TORSDOF 0
ENDMDL
MODEL 3
REMARK VINA RESULT:      -1.0      2.175      3.015
REMARK  0 active torsions:
REMARK  status: ('A' for Active; 'I' for Inactive)
ROOT
HETATM    1  C1  UNL     1     -33.216   5.556   1.895  1.00 20.00     0.009 C 
HETATM    2  C2  UNL     1     -32.088   6.441   1.362  1.00 20.00     0.035 C 
HETATM    3  C3  UNL     1     -33.485   5.831   3.374  1.00 20.00     0.082 C 
HETATM    4  C4  UNL     1     -32.259   7.880   1.739  1.00 20.00     0.157 A 
HETATM    5  C5  UNL     1     -33.164   8.286   2.872  1.00 20.00     0.223 A 
HETATM    6  C6  UNL     1     -33.975   7.258   3.576  1.00 20.00     0.271 C 
HETATM    7  O7  UNL     1     -31.750   8.192   3.051  1.00 20.00    -0.369 OA
HETATM    8  F8  UNL     1     -35.258   7.347   3.131  1.00 20.00    -0.203 F 
HETATM    9  F9  UNL     1     -34.010   7.539   4.904  1.00 20.00    -0.203 F 
ENDROOT
TORSDOF 0
ENDMDL
MODEL 4
REMARK VINA RESULT:      -0.9      1.529      1.946
REMARK  0 active torsions:
REMARK  status: ('A' for Active; 'I' for Inactive)
ROOT
HETATM    1  C1  UNL     1     -33.323   8.145   2.888  1.00 20.00     0.009 C 
HETATM    2  C2  UNL     1     -34.091   7.439   4.007  1.00 20.00     0.035 C 
HETATM    3  C3  UNL     1     -32.239   7.240   2.302  1.00 20.00     0.082 C 
HETATM    4  C4  UNL     1     -34.529   6.060   3.621  1.00 20.00     0.157 A 
HETATM    5  C5  UNL     1     -33.884   5.331   2.472  1.00 20.00     0.223 A 
HETATM    6  C6  UNL     1     -32.859   6.017   1.643  1.00 20.00     0.271 C 
HETATM    7  O7  UNL     1     -33.511   5.059   3.824  1.00 20.00    -0.369 OA
HETATM    8  F8  UNL     1     -33.439   6.397   0.473  1.00 20.00    -0.203 F 
HETATM    9  F9  UNL     1     -31.879   5.136   1.315  1.00 20.00    -0.203 F 
ENDROOT
TORSDOF 0
ENDMDL
MODEL 5
REMARK VINA RESULT:      -0.8      1.280      2.333
REMARK  0 active torsions:
REMARK  status: ('A' for Active; 'I' for Inactive)
ROOT
HETATM    1  C1  UNL     1     -32.834   5.509   1.857  1.00 20.00     0.009 C 
HETATM    2  C2  UNL     1     -33.850   5.616   2.994  1.00 20.00     0.035 C 
HETATM    3  C3  UNL     1     -32.754   6.812   1.060  1.00 20.00     0.082 C 
HETATM    4  C4  UNL     1     -33.681   6.867   3.801  1.00 20.00     0.157 A 
HETATM    5  C5  UNL     1     -32.921   8.047   3.256  1.00 20.00     0.223 A 
HETATM    6  C6  UNL     1     -32.246   7.948   1.936  1.00 20.00     0.271 C 
HETATM    7  O7  UNL     1     -34.349   8.010   3.230  1.00 20.00    -0.369 OA
HETATM    8  F8  UNL     1     -30.914   7.775   2.148  1.00 20.00    -0.203 F 
HETATM    9  F9  UNL     1     -32.378   9.124   1.270  1.00 20.00    -0.203 F 
ENDROOT
TORSDOF 0
ENDMDL
MODEL 6
REMARK VINA RESULT:      -0.8      1.998      2.722
REMARK  0 active torsions:
REMARK  status: ('A' for Active; 'I' for Inactive)
ROOT
HETATM    1  C1  UNL     1     -33.927   6.985   3.899  1.00 20.00     0.009 C 
HETATM    2  C2  UNL     1     -33.147   8.290   3.735  1.00 20.00     0.035 C 
HETATM    3  C3  UNL     1     -34.310   6.394   2.542  1.00 20.00     0.082 C 
HETATM    4  C4  UNL     1     -32.038   8.177   2.735  1.00 20.00     0.157 A 
HETATM    5  C5  UNL     1     -32.021   7.068   1.715  1.00 20.00     0.223 A 
HETATM    6  C6  UNL     1     -33.067   6.014   1.751  1.00 20.00     0.271 C 
HETATM    7  O7  UNL     1     -32.471   8.381   1.375  1.00 20.00    -0.369 OA
HETATM    8  F8  UNL     1     -32.525   4.892   2.298  1.00 20.00    -0.203 F 
HETATM    9  F9  UNL     1     -33.423   5.686   0.482  1.00 20.00    -0.203 F 
ENDROOT
TORSDOF 0
ENDMDL
MODEL 7
REMARK VINA RESULT:      -0.4      2.132      2.904
REMARK  0 active torsions:
REMARK  status: ('A' for Active; 'I' for Inactive)
ROOT
HETATM    1  C1  UNL     1     -32.398   8.280   2.972  1.00 20.00     0.009 C 
HETATM    2  C2  UNL     1     -31.883   7.544   1.735  1.00 20.00     0.035 C 
HETATM    3  C3  UNL     1     -33.897   8.051   3.169  1.00 20.00     0.082 C 
HETATM    4  C4  UNL     1     -32.339   6.118   1.682  1.00 20.00     0.157 A 
HETATM    5  C5  UNL     1     -33.515   5.647   2.496  1.00 20.00     0.223 A 
HETATM    6  C6  UNL     1     -34.185   6.581   3.437  1.00 20.00     0.271 C 
HETATM    7  O7  UNL     1     -33.651   5.958   1.108  1.00 20.00    -0.369 OA
HETATM    8  F8  UNL     1     -33.781   6.279   4.700  1.00 20.00    -0.203 F 
HETATM    9  F9  UNL     1     -35.527   6.372   3.405  1.00 20.00    -0.203 F 
ENDROOT
TORSDOF 0
ENDMDL
MODEL 8
REMARK VINA RESULT:      -0.2      1.775      2.673
REMARK  0 active torsions:
REMARK  status: ('A' for Active; 'I' for Inactive)
ROOT
HETATM    1  C1  UNL     1     -31.782   7.588   1.866  1.00 20.00     0.009 C 
HETATM    2  C2  UNL     1     -32.275   6.216   1.404  1.00 20.00     0.035 C 
HETATM    3  C3  UNL     1     -32.924   8.421   2.448  1.00 20.00     0.082 C 
HETATM    4  C4  UNL     1     -33.123   5.534   2.434  1.00 20.00     0.157 A 
HETATM    5  C5  UNL     1     -33.765   6.311   3.552  1.00 20.00     0.223 A 
HETATM    6  C6  UNL     1     -33.485   7.764   3.700  1.00 20.00     0.271 C 
HETATM    7  O7  UNL     1     -34.507   5.935   2.391  1.00 20.00    -0.369 OA
HETATM    8  F8  UNL     1     -32.596   7.927   4.716  1.00 20.00    -0.203 F 
HETATM    9  F9  UNL     1     -34.620   8.407   4.077  1.00 20.00    -0.203 F 
ENDROOT
TORSDOF 0
ENDMDL
MODEL 9
REMARK VINA RESULT:       0.5      2.627      3.213
REMARK  0 active torsions:
REMARK  status: ('A' for Active; 'I' for Inactive)
ROOT
HETATM    1  C1  UNL     1     -34.210   7.277   4.073  1.00 20.00     0.009 C 
HETATM    2  C2  UNL     1     -33.488   7.764   2.817  1.00 20.00     0.035 C 
HETATM    3  C3  UNL     1     -34.854   5.908   3.848  1.00 20.00     0.082 C 
HETATM    4  C4  UNL     1     -32.602   6.715   2.219  1.00 20.00     0.157 A 
HETATM    5  C5  UNL     1     -32.781   5.259   2.559  1.00 20.00     0.223 A 
HETATM    6  C6  UNL     1     -33.792   4.854   3.570  1.00 20.00     0.271 C 
HETATM    7  O7  UNL     1     -33.300   5.806   1.345  1.00 20.00    -0.369 OA
HETATM    8  F8  UNL     1     -33.144   4.568   4.732  1.00 20.00    -0.203 F 
HETATM    9  F9  UNL     1     -34.393   3.702   3.174  1.00 20.00    -0.203 F 
ENDROOT
TORSDOF 0
ENDMDL
