MODEL 1
REMARK VINA RESULT:      -2.2      0.000      0.000
REMARK  1 active torsions:
REMARK  status: ('A' for Active; 'I' for Inactive)
REMARK    1  A    between atoms: C2_2  and  C5_5 
ROOT
HETATM    1  C1  UNL     1     -33.951   4.822   3.832  1.00 20.00     0.077 C 
HETATM    2  C3  UNL     1     -35.341   6.879   3.391  1.00 20.00     0.034 A 
HETATM    3  C4  UNL     1     -34.304   7.252   4.406  1.00 20.00     0.034 A 
HETATM    4  C5  UNL     1     -33.995   6.185   3.376  1.00 20.00     0.109 A 
HETATM    5  N7  UNL     1     -33.917   3.722   4.201  1.00 20.00    -0.196 NA
ENDROOT
BRANCH   4   6
HETATM    6  C2  UNL     1     -33.058   6.532   2.292  1.00 20.00     0.145 C 
HETATM    7  C6  UNL     1     -32.744   5.449   1.296  1.00 20.00     0.093 C 
HETATM    8  O8  UNL     1     -32.560   7.654   2.203  1.00 20.00    -0.296 OA
ENDBRANCH   4   6
TORSDOF 1
ENDMDL
MODEL 2
REMARK VINA RESULT:      -2.0      2.263      2.901
REMARK  1 active torsions:
REMARK  status: ('A' for Active; 'I' for Inactive)
REMARK    1  A    between atoms: C2_2  and  C5_5 
ROOT
HETATM    1  C1  UNL     1     -33.302   5.863   2.361  1.00 20.00     0.077 C 
HETATM    2  C3  UNL     1     -34.060   7.323   4.272  1.00 20.00     0.034 A 
HETATM    3  C4  UNL     1     -35.234   7.140   3.360  1.00 20.00     0.034 A 
HETATM    4  C5  UNL     1     -34.194   6.044   3.474  1.00 20.00     0.109 A 
HETATM    5  N7  UNL     1     -32.581   5.718   1.463  1.00 20.00    -0.196 NA
ENDROOT
BRANCH   4   6
HETATM    6  C2  UNL     1     -34.570   4.819   4.204  1.00 20.00     0.145 C 
HETATM    7  C6  UNL     1     -33.590   3.677   4.159  1.00 20.00     0.093 C 
HETATM    8  O8  UNL     1     -35.630   4.735   4.823  1.00 20.00    -0.296 OA
ENDBRANCH   4   6
TORSDOF 1
ENDMDL
MODEL 3
REMARK VINA RESULT:      -1.8      2.686      3.704
REMARK  1 active torsions:
REMARK  status: ('A' for Active; 'I' for Inactive)
REMARK    1  A    between atoms: C2_2  and  C5_5 
ROOT
HETATM    1  C1  UNL     1     -32.410   8.259   1.401  1.00 20.00     0.077 C 
HETATM    2  C3  UNL     1     -33.272   5.894   1.244  1.00 20.00     0.034 A 
HETATM    3  C4  UNL     1     -31.919   5.832   1.884  1.00 20.00     0.034 A 
HETATM    4  C5  UNL     1     -32.790   7.054   2.089  1.00 20.00     0.109 A 
HETATM    5  N7  UNL     1     -32.102   9.230   0.844  1.00 20.00    -0.196 NA
ENDROOT
BRANCH   4   6
HETATM    6  C2  UNL     1     -33.409   7.239   3.415  1.00 20.00     0.145 C 
HETATM    7  C6  UNL     1     -34.705   6.515   3.664  1.00 20.00     0.093 C 
HETATM    8  O8  UNL     1     -32.890   7.947   4.277  1.00 20.00    -0.296 OA
ENDBRANCH   4   6
TORSDOF 1
ENDMDL
MODEL 4
REMARK VINA RESULT:      -1.8      2.559      3.706
REMARK  1 active torsions:
REMARK  status: ('A' for Active; 'I' for Inactive)
REMARK    1  A    between atoms: C2_2  and  C5_5 
ROOT
HETATM    1  C1  UNL     1     -32.394   7.677   1.733  1.00 20.00     0.077 C 
HETATM    2  C3  UNL     1     -33.231   5.496   0.783  1.00 20.00     0.034 A 
HETATM    3  C4  UNL     1     -32.001   5.190   1.582  1.00 20.00     0.034 A 
HETATM    4  C5  UNL     1     -32.888   6.350   1.986  1.00 20.00     0.109 A 
HETATM    5  N7  UNL     1     -31.994   8.748   1.528  1.00 20.00    -0.196 NA
ENDROOT
BRANCH   4   6
HETATM    6  C2  UNL     1     -33.714   6.190   3.196  1.00 20.00     0.145 C 
HETATM    7  C6  UNL     1     -34.138   7.453   3.898  1.00 20.00     0.093 C 
HETATM    8  O8  UNL     1     -34.044   5.080   3.611  1.00 20.00    -0.296 OA
ENDBRANCH   4   6
TORSDOF 1
ENDMDL
MODEL 5
REMARK VINA RESULT:      -1.8      2.008      3.066
REMARK  1 active torsions:
REMARK  status: ('A' for Active; 'I' for Inactive)
REMARK    1  A    between atoms: C2_2  and  C5_5 
ROOT
HETATM    1  C1  UNL     1     -32.706   6.085   1.678  1.00 20.00     0.077 C 
HETATM    2  C3  UNL     1     -31.476   8.209   2.256  1.00 20.00     0.034 A 
HETATM    3  C4  UNL     1     -32.693   8.599   1.475  1.00 20.00     0.034 A 
HETATM    4  C5  UNL     1     -32.725   7.359   2.345  1.00 20.00     0.109 A 
HETATM    5  N7  UNL     1     -32.689   5.058   1.138  1.00 20.00    -0.196 NA
ENDROOT
BRANCH   4   6
HETATM    6  C2  UNL     1     -33.506   7.420   3.594  1.00 20.00     0.145 C 
HETATM    7  C6  UNL     1     -34.769   6.603   3.643  1.00 20.00     0.093 C 
HETATM    8  O8  UNL     1     -33.142   8.102   4.551  1.00 20.00    -0.296 OA
ENDBRANCH   4   6
TORSDOF 1
ENDMDL
MODEL 6
REMARK VINA RESULT:      -1.6      2.063      2.511
REMARK  1 active torsions:
REMARK  status: ('A' for Active; 'I' for Inactive)
REMARK    1  A    between atoms: C2_2  and  C5_5 
ROOT
HETATM    1  C1  UNL     1     -33.454   7.711   4.482  1.00 20.00     0.077 C 
HETATM    2  C3  UNL     1     -34.612   5.523   4.003  1.00 20.00     0.034 A 
HETATM    3  C4  UNL     1     -35.417   6.604   3.350  1.00 20.00     0.034 A 
HETATM    4  C5  UNL     1     -33.919   6.771   3.498  1.00 20.00     0.109 A 
HETATM    5  N7  UNL     1     -33.080   8.470   5.277  1.00 20.00    -0.196 NA
ENDROOT
BRANCH   4   6
HETATM    6  C2  UNL     1     -33.093   6.650   2.283  1.00 20.00     0.145 C 
HETATM    7  C6  UNL     1     -32.304   7.866   1.876  1.00 20.00     0.093 C 
HETATM    8  O8  UNL     1     -33.048   5.606   1.633  1.00 20.00    -0.296 OA
ENDBRANCH   4   6
TORSDOF 1
ENDMDL
MODEL 7
REMARK VINA RESULT:      -1.5      0.857      2.481
REMARK  1 active torsions:
REMARK  status: ('A' for Active; 'I' for Inactive)
REMARK    1  A    between atoms: C2_2  and  C5_5 
ROOT
HETATM    1  C1  UNL     1     -33.672   4.826   3.347  1.00 20.00     0.077 C 
HETATM    2  C3  UNL     1     -32.014   5.402   1.537  1.00 20.00     0.034 A 
HETATM    3  C4  UNL     1     -33.384   5.573   0.956  1.00 20.00     0.034 A 
HETATM    4  C5  UNL     1     -33.162   5.813   2.435  1.00 20.00     0.109 A 
HETATM    5  N7  UNL     1     -34.083   4.028   4.083  1.00 20.00    -0.196 NA
ENDROOT
BRANCH   4   6
HETATM    6  C2  UNL     1     -33.191   7.208   2.912  1.00 20.00     0.145 C 
HETATM    7  C6  UNL     1     -34.192   7.534   3.988  1.00 20.00     0.093 C 
HETATM    8  O8  UNL     1     -32.431   8.062   2.457  1.00 20.00    -0.296 OA
ENDBRANCH   4   6
TORSDOF 1
ENDMDL
MODEL 8
REMARK VINA RESULT:      -1.2      1.803      2.899
REMARK  1 active torsions:
REMARK  status: ('A' for Active; 'I' for Inactive)
REMARK    1  A    between atoms: C2_2  and  C5_5 
ROOT
HETATM    1  C1  UNL     1     -33.844   6.744   3.057  1.00 20.00     0.077 C 
HETATM    2  C3  UNL     1     -32.123   5.484   1.711  1.00 20.00     0.034 A 
HETATM    3  C4  UNL     1     -33.140   6.016   0.748  1.00 20.00     0.034 A 
HETATM    4  C5  UNL     1     -32.845   6.778   2.022  1.00 20.00     0.109 A 
HETATM    5  N7  UNL     1     -34.650   6.715   3.892  1.00 20.00    -0.196 NA
ENDROOT
BRANCH   4   6
HETATM    6  C2  UNL     1     -32.080   8.033   1.907  1.00 20.00     0.145 C 
HETATM    7  C6  UNL     1     -32.417   8.928   0.745  1.00 20.00     0.093 C 
HETATM    8  O8  UNL     1     -31.210   8.337   2.724  1.00 20.00    -0.296 OA
ENDBRANCH   4   6
TORSDOF 1
ENDMDL
MODEL 9
REMARK VINA RESULT:      -1.0      2.580      2.956
REMARK  1 active torsions:
REMARK  status: ('A' for Active; 'I' for Inactive)
REMARK    1  A    between atoms: C2_2  and  C5_5 
ROOT
HETATM    1  C1  UNL     1     -32.616   7.957   2.111  1.00 20.00     0.077 C 
HETATM    2  C3  UNL     1     -33.454   7.538   4.452  1.00 20.00     0.034 A 
HETATM    3  C4  UNL     1     -34.655   7.661   3.565  1.00 20.00     0.034 A 
HETATM    4  C5  UNL     1     -33.361   7.110   3.003  1.00 20.00     0.109 A 
HETATM    5  N7  UNL     1     -32.014   8.643   1.393  1.00 20.00    -0.196 NA
ENDROOT
BRANCH   4   6
HETATM    6  C2  UNL     1     -33.300   5.664   2.719  1.00 20.00     0.145 C 
HETATM    7  C6  UNL     1     -32.693   5.258   1.403  1.00 20.00     0.093 C 
HETATM    8  O8  UNL     1     -33.720   4.830   3.520  1.00 20.00    -0.296 OA
ENDBRANCH   4   6
TORSDOF 1
ENDMDL
