MODEL 1
REMARK VINA RESULT:      -0.6      0.000      0.000
REMARK  1 active torsions:
REMARK  status: ('A' for Active; 'I' for Inactive)
REMARK    1  A    between atoms: C6_6  and  C7_7 
ROOT
HETATM    1  C1  UNL     1     -31.925   6.349   1.116  1.00 20.00     0.005 C 
HETATM    2  C2  UNL     1     -32.990   6.094   2.187  1.00 20.00     0.011 C 
HETATM    3  C3  UNL     1     -33.083   8.459   1.550  1.00 20.00     0.015 C 
HETATM    4  C4  UNL     1     -31.583   7.961   2.925  1.00 20.00     0.015 C 
HETATM    5  C5  UNL     1     -31.665   7.831   1.371  1.00 20.00    -0.013 C 
HETATM    6  C6  UNL     1     -33.074   7.502   2.790  1.00 20.00    -0.031 C 
ENDROOT
BRANCH   6   7
HETATM    7  C7  UNL     1     -34.043   7.697   3.919  1.00 20.00     0.094 C 
HETATM    8 BR8  UNL     1     -35.231   6.159   4.057  1.00 20.00    -0.096 Br
ENDBRANCH   6   7
TORSDOF 1
ENDMDL
MODEL 2
REMARK VINA RESULT:      -0.4      2.266      3.565
REMARK  1 active torsions:
REMARK  status: ('A' for Active; 'I' for Inactive)
REMARK    1  A    between atoms: C6_6  and  C7_7 
ROOT
HETATM    1  C1  UNL     1     -34.897   4.984   4.411  1.00 20.00     0.005 C 
HETATM    2  C2  UNL     1     -33.716   5.057   3.438  1.00 20.00     0.011 C 
HETATM    3  C3  UNL     1     -34.065   7.284   4.398  1.00 20.00     0.015 C 
HETATM    4  C4  UNL     1     -35.340   6.784   2.813  1.00 20.00     0.015 C 
HETATM    5  C5  UNL     1     -35.372   6.432   4.334  1.00 20.00    -0.013 C 
HETATM    6  C6  UNL     1     -33.812   6.536   3.046  1.00 20.00    -0.031 C 
ENDROOT
BRANCH   6   7
HETATM    7  C7  UNL     1     -32.794   7.043   2.067  1.00 20.00     0.094 C 
HETATM    8 BR8  UNL     1     -32.053   5.560   1.042  1.00 20.00    -0.096 Br
ENDBRANCH   6   7
TORSDOF 1
ENDMDL
MODEL 3
REMARK VINA RESULT:      -0.4      2.191      3.622
REMARK  1 active torsions:
REMARK  status: ('A' for Active; 'I' for Inactive)
REMARK    1  A    between atoms: C6_6  and  C7_7 
ROOT
HETATM    1  C1  UNL     1     -34.363   7.518   4.848  1.00 20.00     0.005 C 
HETATM    2  C2  UNL     1     -33.256   7.623   3.795  1.00 20.00     0.011 C 
HETATM    3  C3  UNL     1     -35.250   6.677   2.729  1.00 20.00     0.015 C 
HETATM    4  C4  UNL     1     -34.087   5.316   3.817  1.00 20.00     0.015 C 
HETATM    5  C5  UNL     1     -35.162   6.361   4.255  1.00 20.00    -0.013 C 
HETATM    6  C6  UNL     1     -33.701   6.492   2.858  1.00 20.00    -0.031 C 
ENDROOT
BRANCH   6   7
HETATM    7  C7  UNL     1     -32.852   6.247   1.645  1.00 20.00     0.094 C 
HETATM    8 BR8  UNL     1     -31.749   7.809   1.271  1.00 20.00    -0.096 Br
ENDBRANCH   6   7
TORSDOF 1
ENDMDL
MODEL 4
REMARK VINA RESULT:      -0.3      1.892      2.674
REMARK  1 active torsions:
REMARK  status: ('A' for Active; 'I' for Inactive)
REMARK    1  A    between atoms: C6_6  and  C7_7 
ROOT
HETATM    1  C1  UNL     1     -33.061   7.233   2.301  1.00 20.00     0.005 C 
HETATM    2  C2  UNL     1     -33.297   5.768   2.682  1.00 20.00     0.011 C 
HETATM    3  C3  UNL     1     -35.317   7.044   3.229  1.00 20.00     0.015 C 
HETATM    4  C4  UNL     1     -33.774   7.162   4.641  1.00 20.00     0.015 C 
HETATM    5  C5  UNL     1     -34.015   7.902   3.287  1.00 20.00    -0.013 C 
HETATM    6  C6  UNL     1     -34.332   5.967   3.796  1.00 20.00    -0.031 C 
ENDROOT
BRANCH   6   7
HETATM    7  C7  UNL     1     -34.849   4.729   4.466  1.00 20.00     0.094 C 
HETATM    8 BR8  UNL     1     -33.476   3.347   4.478  1.00 20.00    -0.096 Br
ENDBRANCH   6   7
TORSDOF 1
ENDMDL
MODEL 5
REMARK VINA RESULT:      -0.1      2.297      3.163
REMARK  1 active torsions:
REMARK  status: ('A' for Active; 'I' for Inactive)
REMARK    1  A    between atoms: C6_6  and  C7_7 
ROOT
HETATM    1  C1  UNL     1     -33.813   6.345   3.174  1.00 20.00     0.005 C 
HETATM    2  C2  UNL     1     -33.072   7.670   2.967  1.00 20.00     0.011 C 
HETATM    3  C3  UNL     1     -33.432   6.634   0.775  1.00 20.00     0.015 C 
HETATM    4  C4  UNL     1     -31.800   5.891   1.858  1.00 20.00     0.015 C 
HETATM    5  C5  UNL     1     -33.332   5.595   1.935  1.00 20.00    -0.013 C 
HETATM    6  C6  UNL     1     -32.348   7.344   1.654  1.00 20.00    -0.031 C 
ENDROOT
BRANCH   6   7
HETATM    7  C7  UNL     1     -31.475   8.420   1.079  1.00 20.00     0.094 C 
HETATM    8 BR8  UNL     1     -32.572   9.849   0.336  1.00 20.00    -0.096 Br
ENDBRANCH   6   7
TORSDOF 1
ENDMDL
MODEL 6
REMARK VINA RESULT:      -0.1      2.151      3.228
REMARK  1 active torsions:
REMARK  status: ('A' for Active; 'I' for Inactive)
REMARK    1  A    between atoms: C6_6  and  C7_7 
ROOT
HETATM    1  C1  UNL     1     -34.503   6.105   3.681  1.00 20.00     0.005 C 
HETATM    2  C2  UNL     1     -33.430   6.104   2.588  1.00 20.00     0.011 C 
HETATM    3  C3  UNL     1     -32.809   7.766   4.278  1.00 20.00     0.015 C 
HETATM    4  C4  UNL     1     -34.234   8.402   2.880  1.00 20.00     0.015 C 
HETATM    5  C5  UNL     1     -34.350   7.540   4.178  1.00 20.00    -0.013 C 
HETATM    6  C6  UNL     1     -32.930   7.546   2.733  1.00 20.00    -0.031 C 
ENDROOT
BRANCH   6   7
HETATM    7  C7  UNL     1     -31.831   7.976   1.807  1.00 20.00     0.094 C 
HETATM    8 BR8  UNL     1     -32.461   9.396   0.630  1.00 20.00    -0.096 Br
ENDBRANCH   6   7
TORSDOF 1
ENDMDL
MODEL 7
REMARK VINA RESULT:       0.0      0.912      2.140
REMARK  1 active torsions:
REMARK  status: ('A' for Active; 'I' for Inactive)
REMARK    1  A    between atoms: C6_6  and  C7_7 
ROOT
HETATM    1  C1  UNL     1     -31.996   8.043   1.747  1.00 20.00     0.005 C 
HETATM    2  C2  UNL     1     -32.849   7.516   2.905  1.00 20.00     0.011 C 
HETATM    3  C3  UNL     1     -31.719   5.615   1.849  1.00 20.00     0.015 C 
HETATM    4  C4  UNL     1     -33.451   6.279   0.875  1.00 20.00     0.015 C 
HETATM    5  C5  UNL     1     -31.978   6.798   0.864  1.00 20.00    -0.013 C 
HETATM    6  C6  UNL     1     -33.108   6.094   2.392  1.00 20.00    -0.031 C 
ENDROOT
BRANCH   6   7
HETATM    7  C7  UNL     1     -33.941   5.202   3.264  1.00 20.00     0.094 C 
HETATM    8 BR8  UNL     1     -35.337   6.238   4.144  1.00 20.00    -0.096 Br
ENDBRANCH   6   7
TORSDOF 1
ENDMDL
MODEL 8
REMARK VINA RESULT:       0.8      0.697      1.798
REMARK  1 active torsions:
REMARK  status: ('A' for Active; 'I' for Inactive)
REMARK    1  A    between atoms: C6_6  and  C7_7 
ROOT
HETATM    1  C1  UNL     1     -32.323   8.990   0.713  1.00 20.00     0.005 C 
HETATM    2  C2  UNL     1     -33.343   9.119   1.849  1.00 20.00     0.011 C 
HETATM    3  C3  UNL     1     -31.291   8.134   2.760  1.00 20.00     0.015 C 
HETATM    4  C4  UNL     1     -32.562   6.795   1.769  1.00 20.00     0.015 C 
HETATM    5  C5  UNL     1     -31.504   7.818   1.246  1.00 20.00    -0.013 C 
HETATM    6  C6  UNL     1     -32.849   7.981   2.752  1.00 20.00    -0.031 C 
ENDROOT
BRANCH   6   7
HETATM    7  C7  UNL     1     -33.606   7.755   4.027  1.00 20.00     0.094 C 
HETATM    8 BR8  UNL     1     -35.002   6.424   3.753  1.00 20.00    -0.096 Br
ENDBRANCH   6   7
TORSDOF 1
ENDMDL
MODEL 9
REMARK VINA RESULT:       1.3      2.422      3.071
REMARK  1 active torsions:
REMARK  status: ('A' for Active; 'I' for Inactive)
REMARK    1  A    between atoms: C6_6  and  C7_7 
ROOT
HETATM    1  C1  UNL     1     -31.645   5.578   1.530  1.00 20.00     0.005 C 
HETATM    2  C2  UNL     1     -31.262   7.056   1.417  1.00 20.00     0.011 C 
HETATM    3  C3  UNL     1     -33.178   6.868   2.934  1.00 20.00     0.015 C 
HETATM    4  C4  UNL     1     -33.647   6.833   0.893  1.00 20.00     0.015 C 
HETATM    5  C5  UNL     1     -33.126   5.729   1.868  1.00 20.00    -0.013 C 
HETATM    6  C6  UNL     1     -32.627   7.687   1.719  1.00 20.00    -0.031 C 
ENDROOT
BRANCH   6   7
HETATM    7  C7  UNL     1     -32.696   9.186   1.708  1.00 20.00     0.094 C 
HETATM    8 BR8  UNL     1     -32.413   9.858  -0.099  1.00 20.00    -0.096 Br
ENDBRANCH   6   7
TORSDOF 1
ENDMDL
