MODEL 1
REMARK VINA RESULT:      -2.0      0.000      0.000
REMARK  2 active torsions:
REMARK  status: ('A' for Active; 'I' for Inactive)
REMARK    1  A    between atoms: C1_1  and  C4_4 
REMARK    2  A    between atoms: C4_4  and  C5_5 
ROOT
HETATM    1  C2  UNL     1     -31.417   7.936   2.100  1.00 20.00     0.020 A 
HETATM    2  C3  UNL     1     -32.566   8.463   1.295  1.00 20.00     0.020 A 
HETATM    3  C4  UNL     1     -32.759   7.237   2.162  1.00 20.00     0.039 A 
ENDROOT
BRANCH   3   4
HETATM    4  C1  UNL     1     -33.550   7.410   3.404  1.00 20.00     0.243 C 
HETATM    5  O6  UNL     1     -34.470   6.667   3.728  1.00 20.00    -0.306 OA
ENDBRANCH   3   4
BRANCH   3   6
HETATM    6  C5  UNL     1     -32.873   5.909   1.456  1.00 20.00     0.238 C 
HETATM    7  F7  UNL     1     -31.632   5.369   1.329  1.00 20.00    -0.254 F 
ENDBRANCH   3   6
TORSDOF 2
ENDMDL
MODEL 2
REMARK VINA RESULT:      -2.0      2.271      2.856
REMARK  2 active torsions:
REMARK  status: ('A' for Active; 'I' for Inactive)
REMARK    1  A    between atoms: C1_1  and  C4_4 
REMARK    2  A    between atoms: C4_4  and  C5_5 
ROOT
HETATM    1  C2  UNL     1     -34.214   7.267   4.178  1.00 20.00     0.020 A 
HETATM    2  C3  UNL     1     -35.438   6.866   3.412  1.00 20.00     0.020 A 
HETATM    3  C4  UNL     1     -34.259   5.918   3.491  1.00 20.00     0.039 A 
ENDROOT
BRANCH   3   4
HETATM    4  C1  UNL     1     -34.413   4.726   4.360  1.00 20.00     0.243 C 
HETATM    5  O6  UNL     1     -33.901   3.639   4.113  1.00 20.00    -0.306 OA
ENDBRANCH   3   4
BRANCH   3   6
HETATM    6  C5  UNL     1     -33.426   5.755   2.245  1.00 20.00     0.238 C 
HETATM    7  F7  UNL     1     -32.713   6.894   2.039  1.00 20.00    -0.254 F 
ENDBRANCH   3   6
TORSDOF 2
ENDMDL
MODEL 3
REMARK VINA RESULT:      -1.9      2.596      3.368
REMARK  2 active torsions:
REMARK  status: ('A' for Active; 'I' for Inactive)
REMARK    1  A    between atoms: C1_1  and  C4_4 
REMARK    2  A    between atoms: C4_4  and  C5_5 
ROOT
HETATM    1  C2  UNL     1     -35.333   6.789   3.528  1.00 20.00     0.020 A 
HETATM    2  C3  UNL     1     -34.130   7.273   4.278  1.00 20.00     0.020 A 
HETATM    3  C4  UNL     1     -33.998   6.104   3.324  1.00 20.00     0.039 A 
ENDROOT
BRANCH   3   4
HETATM    4  C1  UNL     1     -33.300   6.361   2.041  1.00 20.00     0.243 C 
HETATM    5  O6  UNL     1     -32.612   5.523   1.466  1.00 20.00    -0.306 OA
ENDBRANCH   3   4
BRANCH   3   6
HETATM    6  C5  UNL     1     -33.828   4.736   3.935  1.00 20.00     0.238 C 
HETATM    7  F7  UNL     1     -35.003   4.358   4.504  1.00 20.00    -0.254 F 
ENDBRANCH   3   6
TORSDOF 2
ENDMDL
MODEL 4
REMARK VINA RESULT:      -1.8      1.490      2.303
REMARK  2 active torsions:
REMARK  status: ('A' for Active; 'I' for Inactive)
REMARK    1  A    between atoms: C1_1  and  C4_4 
REMARK    2  A    between atoms: C4_4  and  C5_5 
ROOT
HETATM    1  C2  UNL     1     -33.162   5.989   0.757  1.00 20.00     0.020 A 
HETATM    2  C3  UNL     1     -32.128   5.390   1.660  1.00 20.00     0.020 A 
HETATM    3  C4  UNL     1     -32.816   6.679   2.059  1.00 20.00     0.039 A 
ENDROOT
BRANCH   3   4
HETATM    4  C1  UNL     1     -33.816   6.597   3.151  1.00 20.00     0.243 C 
HETATM    5  O6  UNL     1     -34.011   7.499   3.958  1.00 20.00    -0.306 OA
ENDBRANCH   3   4
BRANCH   3   6
HETATM    6  C5  UNL     1     -32.003   7.946   1.968  1.00 20.00     0.238 C 
HETATM    7  F7  UNL     1     -32.388   8.639   0.863  1.00 20.00    -0.254 F 
ENDBRANCH   3   6
TORSDOF 2
ENDMDL
MODEL 5
REMARK VINA RESULT:      -1.6      2.513      3.552
REMARK  2 active torsions:
REMARK  status: ('A' for Active; 'I' for Inactive)
REMARK    1  A    between atoms: C1_1  and  C4_4 
REMARK    2  A    between atoms: C4_4  and  C5_5 
ROOT
HETATM    1  C2  UNL     1     -34.759   5.677   4.328  1.00 20.00     0.020 A 
HETATM    2  C3  UNL     1     -35.622   6.444   3.373  1.00 20.00     0.020 A 
HETATM    3  C4  UNL     1     -34.162   6.815   3.527  1.00 20.00     0.039 A 
ENDROOT
BRANCH   3   4
HETATM    4  C1  UNL     1     -33.254   6.449   2.414  1.00 20.00     0.243 C 
HETATM    5  O6  UNL     1     -32.497   7.245   1.869  1.00 20.00    -0.306 OA
ENDBRANCH   3   4
BRANCH   3   6
HETATM    6  C5  UNL     1     -33.854   8.090   4.272  1.00 20.00     0.238 C 
HETATM    7  F7  UNL     1     -32.816   7.865   5.121  1.00 20.00    -0.254 F 
ENDBRANCH   3   6
TORSDOF 2
ENDMDL
MODEL 6
REMARK VINA RESULT:      -1.6      2.213      2.825
REMARK  2 active torsions:
REMARK  status: ('A' for Active; 'I' for Inactive)
REMARK    1  A    between atoms: C1_1  and  C4_4 
REMARK    2  A    between atoms: C4_4  and  C5_5 
ROOT
HETATM    1  C2  UNL     1     -32.048   5.305   1.696  1.00 20.00     0.020 A 
HETATM    2  C3  UNL     1     -33.078   5.808   0.731  1.00 20.00     0.020 A 
HETATM    3  C4  UNL     1     -32.753   6.618   1.969  1.00 20.00     0.039 A 
ENDROOT
BRANCH   3   4
HETATM    4  C1  UNL     1     -31.964   7.858   1.772  1.00 20.00     0.243 C 
HETATM    5  O6  UNL     1     -32.391   8.844   1.183  1.00 20.00    -0.306 OA
ENDBRANCH   3   4
BRANCH   3   6
HETATM    6  C5  UNL     1     -33.782   6.627   3.071  1.00 20.00     0.238 C 
HETATM    7  F7  UNL     1     -33.504   7.648   3.924  1.00 20.00    -0.254 F 
ENDBRANCH   3   6
TORSDOF 2
ENDMDL
MODEL 7
REMARK VINA RESULT:      -1.5      1.946      2.498
REMARK  2 active torsions:
REMARK  status: ('A' for Active; 'I' for Inactive)
REMARK    1  A    between atoms: C1_1  and  C4_4 
REMARK    2  A    between atoms: C4_4  and  C5_5 
ROOT
HETATM    1  C2  UNL     1     -32.543   8.388   1.314  1.00 20.00     0.020 A 
HETATM    2  C3  UNL     1     -31.447   8.089   2.291  1.00 20.00     0.020 A 
HETATM    3  C4  UNL     1     -32.712   7.256   2.307  1.00 20.00     0.039 A 
ENDROOT
BRANCH   3   4
HETATM    4  C1  UNL     1     -32.614   5.875   1.775  1.00 20.00     0.243 C 
HETATM    5  O6  UNL     1     -33.185   5.501   0.756  1.00 20.00    -0.306 OA
ENDBRANCH   3   4
BRANCH   3   6
HETATM    6  C5  UNL     1     -33.668   7.484   3.450  1.00 20.00     0.238 C 
HETATM    7  F7  UNL     1     -34.543   6.445   3.506  1.00 20.00    -0.254 F 
ENDBRANCH   3   6
TORSDOF 2
ENDMDL
MODEL 8
REMARK VINA RESULT:      -1.4      2.293      3.307
REMARK  2 active torsions:
REMARK  status: ('A' for Active; 'I' for Inactive)
REMARK    1  A    between atoms: C1_1  and  C4_4 
REMARK    2  A    between atoms: C4_4  and  C5_5 
ROOT
HETATM    1  C2  UNL     1     -34.445   5.424   4.158  1.00 20.00     0.020 A 
HETATM    2  C3  UNL     1     -35.455   6.416   3.666  1.00 20.00     0.020 A 
HETATM    3  C4  UNL     1     -33.983   6.642   3.385  1.00 20.00     0.039 A 
ENDROOT
BRANCH   3   4
HETATM    4  C1  UNL     1     -33.523   6.421   1.993  1.00 20.00     0.243 C 
HETATM    5  O6  UNL     1     -32.678   5.587   1.685  1.00 20.00    -0.306 OA
ENDBRANCH   3   4
BRANCH   3   6
HETATM    6  C5  UNL     1     -33.296   7.731   4.169  1.00 20.00     0.238 C 
HETATM    7  F7  UNL     1     -32.259   8.216   3.435  1.00 20.00    -0.254 F 
ENDBRANCH   3   6
TORSDOF 2
ENDMDL
MODEL 9
REMARK VINA RESULT:      -1.4      2.053      3.053
REMARK  2 active torsions:
REMARK  status: ('A' for Active; 'I' for Inactive)
REMARK    1  A    between atoms: C1_1  and  C4_4 
REMARK    2  A    between atoms: C4_4  and  C5_5 
ROOT
HETATM    1  C2  UNL     1     -35.764   6.529   3.325  1.00 20.00     0.020 A 
HETATM    2  C3  UNL     1     -35.095   5.656   4.343  1.00 20.00     0.020 A 
HETATM    3  C4  UNL     1     -34.291   6.718   3.622  1.00 20.00     0.039 A 
ENDROOT
BRANCH   3   4
HETATM    4  C1  UNL     1     -33.911   7.919   4.403  1.00 20.00     0.243 C 
HETATM    5  O6  UNL     1     -32.807   8.071   4.915  1.00 20.00    -0.306 OA
ENDBRANCH   3   4
BRANCH   3   6
HETATM    6  C5  UNL     1     -33.314   6.244   2.574  1.00 20.00     0.238 C 
HETATM    7  F7  UNL     1     -32.709   7.326   2.015  1.00 20.00    -0.254 F 
ENDBRANCH   3   6
TORSDOF 2
ENDMDL
