MODEL 1
REMARK VINA RESULT:      -0.7      0.000      0.000
REMARK  1 active torsions:
REMARK  status: ('A' for Active; 'I' for Inactive)
REMARK    1  A    between atoms: C5_5  and  C6_6 
ROOT
HETATM    1  C1  UNL     1     -32.283   6.160   1.594  1.00 20.00     0.015 C 
HETATM    2  C2  UNL     1     -33.318   7.711   3.329  1.00 20.00     0.015 C 
HETATM    3  C3  UNL     1     -33.307   5.054   1.823  1.00 20.00     0.074 C 
HETATM    4  C4  UNL     1     -34.424   6.730   3.697  1.00 20.00     0.074 C 
HETATM    5  C5  UNL     1     -32.835   7.564   1.879  1.00 20.00    -0.003 C 
HETATM    6  S7  UNL     1     -33.879   5.007   3.544  1.00 20.00    -0.169 SA
ENDROOT
BRANCH   5   7
HETATM    7  C6  UNL     1     -31.771   8.619   1.569  1.00 20.00     0.089 C 
HETATM    8 BR8  UNL     1     -32.463   9.862   0.251  1.00 20.00    -0.096 Br
ENDBRANCH   5   7
TORSDOF 1
ENDMDL
MODEL 2
REMARK VINA RESULT:      -0.7      1.004      2.029
REMARK  1 active torsions:
REMARK  status: ('A' for Active; 'I' for Inactive)
REMARK    1  A    between atoms: C5_5  and  C6_6 
ROOT
HETATM    1  C1  UNL     1     -33.178   8.354   2.872  1.00 20.00     0.015 C 
HETATM    2  C2  UNL     1     -32.973   6.081   1.741  1.00 20.00     0.015 C 
HETATM    3  C3  UNL     1     -33.815   7.784   4.133  1.00 20.00     0.074 C 
HETATM    4  C4  UNL     1     -33.594   5.328   2.912  1.00 20.00     0.074 C 
HETATM    5  C5  UNL     1     -32.242   7.363   2.164  1.00 20.00    -0.003 C 
HETATM    6  S7  UNL     1     -34.837   6.327   3.776  1.00 20.00    -0.169 SA
ENDROOT
BRANCH   5   7
HETATM    7  C6  UNL     1     -31.597   8.027   0.946  1.00 20.00     0.089 C 
HETATM    8 BR8  UNL     1     -32.521   9.686   0.554  1.00 20.00    -0.096 Br
ENDBRANCH   5   7
TORSDOF 1
ENDMDL
MODEL 3
REMARK VINA RESULT:      -0.6      3.208      4.294
REMARK  1 active torsions:
REMARK  status: ('A' for Active; 'I' for Inactive)
REMARK    1  A    between atoms: C5_5  and  C6_6 
ROOT
HETATM    1  C1  UNL     1     -33.887   7.275   3.969  1.00 20.00     0.015 C 
HETATM    2  C2  UNL     1     -33.204   5.319   2.488  1.00 20.00     0.015 C 
HETATM    3  C3  UNL     1     -33.427   8.327   2.968  1.00 20.00     0.074 C 
HETATM    4  C4  UNL     1     -32.689   6.215   1.367  1.00 20.00     0.074 C 
HETATM    5  C5  UNL     1     -34.331   5.962   3.307  1.00 20.00    -0.003 C 
HETATM    6  S7  UNL     1     -31.996   7.765   2.004  1.00 20.00    -0.169 SA
ENDROOT
BRANCH   5   7
HETATM    7  C6  UNL     1     -34.834   4.982   4.369  1.00 20.00     0.089 C 
HETATM    8 BR8  UNL     1     -33.621   3.473   4.477  1.00 20.00    -0.096 Br
ENDBRANCH   5   7
TORSDOF 1
ENDMDL
MODEL 4
REMARK VINA RESULT:      -0.3      3.329      3.942
REMARK  1 active torsions:
REMARK  status: ('A' for Active; 'I' for Inactive)
REMARK    1  A    between atoms: C5_5  and  C6_6 
ROOT
HETATM    1  C1  UNL     1     -33.024   5.601   1.872  1.00 20.00     0.015 C 
HETATM    2  C2  UNL     1     -33.876   7.171   3.687  1.00 20.00     0.015 C 
HETATM    3  C3  UNL     1     -31.957   6.575   1.387  1.00 20.00     0.074 C 
HETATM    4  C4  UNL     1     -32.877   8.271   3.348  1.00 20.00     0.074 C 
HETATM    5  C5  UNL     1     -33.359   5.762   3.361  1.00 20.00    -0.003 C 
HETATM    6  S7  UNL     1     -32.480   8.302   1.578  1.00 20.00    -0.169 SA
ENDROOT
BRANCH   5   7
HETATM    7  C6  UNL     1     -34.390   4.714   3.785  1.00 20.00     0.089 C 
HETATM    8 BR8  UNL     1     -33.474   3.176   4.530  1.00 20.00    -0.096 Br
ENDBRANCH   5   7
TORSDOF 1
ENDMDL
MODEL 5
REMARK VINA RESULT:       0.8      2.984      4.015
REMARK  1 active torsions:
REMARK  status: ('A' for Active; 'I' for Inactive)
REMARK    1  A    between atoms: C5_5  and  C6_6 
ROOT
HETATM    1  C1  UNL     1     -33.218   7.764   3.217  1.00 20.00     0.015 C 
HETATM    2  C2  UNL     1     -33.505   5.415   2.276  1.00 20.00     0.015 C 
HETATM    3  C3  UNL     1     -32.437   8.264   2.008  1.00 20.00     0.074 C 
HETATM    4  C4  UNL     1     -32.747   5.727   0.991  1.00 20.00     0.074 C 
HETATM    5  C5  UNL     1     -34.208   6.640   2.877  1.00 20.00    -0.003 C 
HETATM    6  S7  UNL     1     -31.435   6.950   1.259  1.00 20.00    -0.169 SA
ENDROOT
BRANCH   5   7
HETATM    7  C6  UNL     1     -34.994   6.236   4.125  1.00 20.00     0.089 C 
HETATM    8 BR8  UNL     1     -34.518   4.424   4.626  1.00 20.00    -0.096 Br
ENDBRANCH   5   7
TORSDOF 1
ENDMDL
MODEL 6
REMARK VINA RESULT:       1.4      2.512      3.259
REMARK  1 active torsions:
REMARK  status: ('A' for Active; 'I' for Inactive)
REMARK    1  A    between atoms: C5_5  and  C6_6 
ROOT
HETATM    1  C1  UNL     1     -33.715   5.640   2.874  1.00 20.00     0.015 C 
HETATM    2  C2  UNL     1     -31.958   7.165   1.839  1.00 20.00     0.015 C 
HETATM    3  C3  UNL     1     -34.387   6.767   3.648  1.00 20.00     0.074 C 
HETATM    4  C4  UNL     1     -32.490   8.416   2.529  1.00 20.00     0.074 C 
HETATM    5  C5  UNL     1     -33.044   6.111   1.577  1.00 20.00    -0.003 C 
HETATM    6  S7  UNL     1     -33.199   8.041   4.156  1.00 20.00    -0.169 SA
ENDROOT
BRANCH   5   7
HETATM    7  C6  UNL     1     -32.446   4.917   0.830  1.00 20.00     0.089 C 
HETATM    8 BR8  UNL     1     -33.771   4.190  -0.385  1.00 20.00    -0.096 Br
ENDBRANCH   5   7
TORSDOF 1
ENDMDL
MODEL 7
REMARK VINA RESULT:       1.6      2.256      2.928
REMARK  1 active torsions:
REMARK  status: ('A' for Active; 'I' for Inactive)
REMARK    1  A    between atoms: C5_5  and  C6_6 
ROOT
HETATM    1  C1  UNL     1     -33.535   7.537   2.823  1.00 20.00     0.015 C 
HETATM    2  C2  UNL     1     -33.548   5.003   2.571  1.00 20.00     0.015 C 
HETATM    3  C3  UNL     1     -34.246   7.510   4.170  1.00 20.00     0.074 C 
HETATM    4  C4  UNL     1     -34.260   4.772   3.899  1.00 20.00     0.074 C 
HETATM    5  C5  UNL     1     -32.695   6.280   2.555  1.00 20.00    -0.003 C 
HETATM    6  S7  UNL     1     -35.407   6.121   4.294  1.00 20.00    -0.169 SA
ENDROOT
BRANCH   5   7
HETATM    7  C6  UNL     1     -31.967   6.408   1.216  1.00 20.00     0.089 C 
HETATM    8 BR8  UNL     1     -31.625   4.641   0.497  1.00 20.00    -0.096 Br
ENDBRANCH   5   7
TORSDOF 1
ENDMDL
MODEL 8
REMARK VINA RESULT:       1.7      2.443      3.338
REMARK  1 active torsions:
REMARK  status: ('A' for Active; 'I' for Inactive)
REMARK    1  A    between atoms: C5_5  and  C6_6 
ROOT
HETATM    1  C1  UNL     1     -32.550   7.956   2.856  1.00 20.00     0.015 C 
HETATM    2  C2  UNL     1     -33.719   5.694   2.819  1.00 20.00     0.015 C 
HETATM    3  C3  UNL     1     -31.939   7.778   1.472  1.00 20.00     0.074 C 
HETATM    4  C4  UNL     1     -33.202   5.334   1.431  1.00 20.00     0.074 C 
HETATM    5  C5  UNL     1     -33.878   7.206   3.033  1.00 20.00    -0.003 C 
HETATM    6  S7  UNL     1     -31.560   6.039   1.118  1.00 20.00    -0.169 SA
ENDROOT
BRANCH   5   7
HETATM    7  C6  UNL     1     -34.457   7.482   4.422  1.00 20.00     0.089 C 
HETATM    8 BR8  UNL     1     -33.128   8.388   5.505  1.00 20.00    -0.096 Br
ENDBRANCH   5   7
TORSDOF 1
ENDMDL
MODEL 9
REMARK VINA RESULT:       2.0      2.300      3.034
REMARK  1 active torsions:
REMARK  status: ('A' for Active; 'I' for Inactive)
REMARK    1  A    between atoms: C5_5  and  C6_6 
ROOT
HETATM    1  C1  UNL     1     -32.346   7.309   1.786  1.00 20.00     0.015 C 
HETATM    2  C2  UNL     1     -33.886   5.405   2.487  1.00 20.00     0.015 C 
HETATM    3  C3  UNL     1     -32.486   8.047   3.112  1.00 20.00     0.074 C 
HETATM    4  C4  UNL     1     -34.149   5.990   3.869  1.00 20.00     0.074 C 
HETATM    5  C5  UNL     1     -32.512   5.788   1.918  1.00 20.00    -0.003 C 
HETATM    6  S7  UNL     1     -34.125   7.804   3.852  1.00 20.00    -0.169 SA
ENDROOT
BRANCH   5   7
HETATM    7  C6  UNL     1     -32.299   5.116   0.561  1.00 20.00     0.089 C 
HETATM    8 BR8  UNL     1     -34.020   4.713  -0.235  1.00 20.00    -0.096 Br
ENDBRANCH   5   7
TORSDOF 1
ENDMDL
