MODEL 1
REMARK VINA RESULT:       0.6      0.000      0.000
REMARK  3 active torsions:
REMARK  status: ('A' for Active; 'I' for Inactive)
REMARK    1  A    between atoms: C3_3  and  C5_5 
REMARK    2  A    between atoms: C5_5  and  C6_6 
REMARK    3  A    between atoms: C6_6  and  S9_9 
ROOT
HETATM    1  C1  UNL     1     -34.375   4.699   3.933  1.00 20.00     0.179 C 
HETATM    2  C2  UNL     1     -35.351   5.827   4.214  1.00 20.00     0.103 C 
HETATM    3  C3  UNL     1     -33.127   6.407   2.991  1.00 20.00     0.183 C 
HETATM    4  O7  UNL     1     -33.595   5.067   2.788  1.00 20.00    -0.375 OA
HETATM    5  S8  UNL     1     -34.330   7.297   4.016  1.00 20.00    -0.135 SA
ENDROOT
BRANCH   3   6
HETATM    6  C5  UNL     1     -32.951   7.074   1.640  1.00 20.00     0.057 C 
BRANCH   6   7
HETATM    7  C6  UNL     1     -32.422   8.514   1.721  1.00 20.00     0.043 C 
HETATM    8  C4  UNL     1     -31.025   8.545   2.338  1.00 20.00     0.021 C 
BRANCH   7   9
HETATM    9  S9  UNL     1     -32.354   9.310   0.077  1.00 20.00    -0.178 SA
HETATM   10  H21 UNL     1     -32.802   8.246  -0.600  1.00 20.00     0.102 HD
ENDBRANCH   7   9
ENDBRANCH   6   7
ENDBRANCH   3   6
TORSDOF 3
ENDMDL
MODEL 2
REMARK VINA RESULT:       0.9      1.505      1.803
REMARK  3 active torsions:
REMARK  status: ('A' for Active; 'I' for Inactive)
REMARK    1  A    between atoms: C3_3  and  C5_5 
REMARK    2  A    between atoms: C5_5  and  C6_6 
REMARK    3  A    between atoms: C6_6  and  S9_9 
ROOT
HETATM    1  C1  UNL     1     -35.465   6.075   4.297  1.00 20.00     0.179 C 
HETATM    2  C2  UNL     1     -34.510   4.894   4.269  1.00 20.00     0.103 C 
HETATM    3  C3  UNL     1     -33.848   7.037   2.948  1.00 20.00     0.183 C 
HETATM    4  O7  UNL     1     -34.698   7.266   4.079  1.00 20.00    -0.375 OA
HETATM    5  S8  UNL     1     -33.452   5.270   2.861  1.00 20.00    -0.135 SA
ENDROOT
BRANCH   3   6
HETATM    6  C5  UNL     1     -32.594   7.878   3.100  1.00 20.00     0.057 C 
BRANCH   6   7
HETATM    7  C6  UNL     1     -31.806   8.062   1.794  1.00 20.00     0.043 C 
HETATM    8  C4  UNL     1     -31.800   6.771   0.977  1.00 20.00     0.021 C 
BRANCH   7   9
HETATM    9  S9  UNL     1     -32.499   9.404   0.763  1.00 20.00    -0.178 SA
HETATM   10  H21 UNL     1     -31.373   9.633   0.076  1.00 20.00     0.102 HD
ENDBRANCH   7   9
ENDBRANCH   6   7
ENDBRANCH   3   6
TORSDOF 3
ENDMDL
MODEL 3
REMARK VINA RESULT:       1.0      1.895      4.372
REMARK  3 active torsions:
REMARK  status: ('A' for Active; 'I' for Inactive)
REMARK    1  A    between atoms: C3_3  and  C5_5 
REMARK    2  A    between atoms: C5_5  and  C6_6 
REMARK    3  A    between atoms: C6_6  and  S9_9 
ROOT
HETATM    1  C1  UNL     1     -31.980   8.112   1.646  1.00 20.00     0.179 C 
HETATM    2  C2  UNL     1     -32.012   8.388   3.138  1.00 20.00     0.103 C 
HETATM    3  C3  UNL     1     -33.506   6.466   2.216  1.00 20.00     0.183 C 
HETATM    4  O7  UNL     1     -32.327   6.735   1.446  1.00 20.00    -0.375 OA
HETATM    5  S8  UNL     1     -33.517   7.554   3.667  1.00 20.00    -0.135 SA
ENDROOT
BRANCH   3   6
HETATM    6  C5  UNL     1     -33.502   5.003   2.622  1.00 20.00     0.057 C 
BRANCH   6   7
HETATM    7  C6  UNL     1     -33.789   4.771   4.114  1.00 20.00     0.043 C 
HETATM    8  C4  UNL     1     -35.270   4.977   4.420  1.00 20.00     0.021 C 
BRANCH   7   9
HETATM    9  S9  UNL     1     -33.308   3.090   4.647  1.00 20.00    -0.178 SA
HETATM   10  H21 UNL     1     -34.520   2.747   5.100  1.00 20.00     0.102 HD
ENDBRANCH   7   9
ENDBRANCH   6   7
ENDBRANCH   3   6
TORSDOF 3
ENDMDL
MODEL 4
REMARK VINA RESULT:       1.0      1.794      2.077
REMARK  3 active torsions:
REMARK  status: ('A' for Active; 'I' for Inactive)
REMARK    1  A    between atoms: C3_3  and  C5_5 
REMARK    2  A    between atoms: C5_5  and  C6_6 
REMARK    3  A    between atoms: C6_6  and  S9_9 
ROOT
HETATM    1  C1  UNL     1     -34.545   6.586   3.741  1.00 20.00     0.179 C 
HETATM    2  C2  UNL     1     -33.831   5.307   3.342  1.00 20.00     0.103 C 
HETATM    3  C3  UNL     1     -33.097   7.528   2.198  1.00 20.00     0.183 C 
HETATM    4  O7  UNL     1     -33.647   7.680   3.514  1.00 20.00    -0.375 OA
HETATM    5  S8  UNL     1     -33.033   5.762   1.792  1.00 20.00    -0.135 SA
ENDROOT
BRANCH   3   6
HETATM    6  C5  UNL     1     -31.714   8.151   2.171  1.00 20.00     0.057 C 
BRANCH   6   7
HETATM    7  C6  UNL     1     -31.498   9.136   1.012  1.00 20.00     0.043 C 
HETATM    8  C4  UNL     1     -31.301   8.390  -0.305  1.00 20.00     0.021 C 
BRANCH   7   9
HETATM    9  S9  UNL     1     -32.905  10.289   0.826  1.00 20.00    -0.178 SA
HETATM   10  H21 UNL     1     -32.562  10.716  -0.395  1.00 20.00     0.102 HD
ENDBRANCH   7   9
ENDBRANCH   6   7
ENDBRANCH   3   6
TORSDOF 3
ENDMDL
MODEL 5
REMARK VINA RESULT:       1.3      2.383      4.712
REMARK  3 active torsions:
REMARK  status: ('A' for Active; 'I' for Inactive)
REMARK    1  A    between atoms: C3_3  and  C5_5 
REMARK    2  A    between atoms: C5_5  and  C6_6 
REMARK    3  A    between atoms: C6_6  and  S9_9 
ROOT
HETATM    1  C1  UNL     1     -32.862  10.602   0.538  1.00 20.00     0.179 C 
HETATM    2  C2  UNL     1     -32.712   9.773  -0.726  1.00 20.00     0.103 C 
HETATM    3  C3  UNL     1     -31.543   8.926   1.440  1.00 20.00     0.183 C 
HETATM    4  O7  UNL     1     -32.714   9.722   1.660  1.00 20.00    -0.375 OA
HETATM    5  S8  UNL     1     -31.306   8.715  -0.345  1.00 20.00    -0.135 SA
ENDROOT
BRANCH   3   6
HETATM    6  C5  UNL     1     -31.721   7.589   2.136  1.00 20.00     0.057 C 
BRANCH   6   7
HETATM    7  C6  UNL     1     -33.094   6.942   1.896  1.00 20.00     0.043 C 
HETATM    8  C4  UNL     1     -32.939   5.537   1.319  1.00 20.00     0.021 C 
BRANCH   7   9
HETATM    9  S9  UNL     1     -34.077   6.838   3.434  1.00 20.00    -0.178 SA
HETATM   10  H21 UNL     1     -33.430   5.776   3.929  1.00 20.00     0.102 HD
ENDBRANCH   7   9
ENDBRANCH   6   7
ENDBRANCH   3   6
TORSDOF 3
ENDMDL
MODEL 6
REMARK VINA RESULT:       1.4      2.121      4.674
REMARK  3 active torsions:
REMARK  status: ('A' for Active; 'I' for Inactive)
REMARK    1  A    between atoms: C3_3  and  C5_5 
REMARK    2  A    between atoms: C5_5  and  C6_6 
REMARK    3  A    between atoms: C6_6  and  S9_9 
ROOT
HETATM    1  C1  UNL     1     -32.730  10.472   0.737  1.00 20.00     0.179 C 
HETATM    2  C2  UNL     1     -32.397   9.677  -0.513  1.00 20.00     0.103 C 
HETATM    3  C3  UNL     1     -32.134   8.501   1.795  1.00 20.00     0.183 C 
HETATM    4  O7  UNL     1     -33.117   9.545   1.759  1.00 20.00    -0.375 OA
HETATM    5  S8  UNL     1     -31.431   8.302   0.136  1.00 20.00    -0.135 SA
ENDROOT
BRANCH   3   6
HETATM    6  C5  UNL     1     -32.797   7.221   2.272  1.00 20.00     0.057 C 
BRANCH   6   7
HETATM    7  C6  UNL     1     -33.878   7.442   3.341  1.00 20.00     0.043 C 
HETATM    8  C4  UNL     1     -34.592   6.133   3.670  1.00 20.00     0.021 C 
BRANCH   7   9
HETATM    9  S9  UNL     1     -33.181   8.132   4.884  1.00 20.00    -0.178 SA
HETATM   10  H21 UNL     1     -32.867   6.949   5.424  1.00 20.00     0.102 HD
ENDBRANCH   7   9
ENDBRANCH   6   7
ENDBRANCH   3   6
TORSDOF 3
ENDMDL
MODEL 7
REMARK VINA RESULT:       1.7      1.615      2.118
REMARK  3 active torsions:
REMARK  status: ('A' for Active; 'I' for Inactive)
REMARK    1  A    between atoms: C3_3  and  C5_5 
REMARK    2  A    between atoms: C5_5  and  C6_6 
REMARK    3  A    between atoms: C6_6  and  S9_9 
ROOT
HETATM    1  C1  UNL     1     -33.377   5.809   2.338  1.00 20.00     0.179 C 
HETATM    2  C2  UNL     1     -34.314   6.446   3.349  1.00 20.00     0.103 C 
HETATM    3  C3  UNL     1     -32.253   7.823   2.551  1.00 20.00     0.183 C 
HETATM    4  O7  UNL     1     -32.740   6.863   1.604  1.00 20.00    -0.375 OA
HETATM    5  S8  UNL     1     -33.326   7.797   4.013  1.00 20.00    -0.135 SA
ENDROOT
BRANCH   3   6
HETATM    6  C5  UNL     1     -32.241   9.193   1.899  1.00 20.00     0.057 C 
BRANCH   6   7
HETATM    7  C6  UNL     1     -32.416   9.156   0.373  1.00 20.00     0.043 C 
HETATM    8  C4  UNL     1     -32.953  10.489  -0.145  1.00 20.00     0.021 C 
BRANCH   7   9
HETATM    9  S9  UNL     1     -30.845   8.785  -0.485  1.00 20.00    -0.178 SA
HETATM   10  H21 UNL     1     -30.820   9.914  -1.203  1.00 20.00     0.102 HD
ENDBRANCH   7   9
ENDBRANCH   6   7
ENDBRANCH   3   6
TORSDOF 3
ENDMDL
MODEL 8
REMARK VINA RESULT:       1.8      2.029      4.615
REMARK  3 active torsions:
REMARK  status: ('A' for Active; 'I' for Inactive)
REMARK    1  A    between atoms: C3_3  and  C5_5 
REMARK    2  A    between atoms: C5_5  and  C6_6 
REMARK    3  A    between atoms: C6_6  and  S9_9 
ROOT
HETATM    1  C1  UNL     1     -32.725  10.069   1.328  1.00 20.00     0.179 C 
HETATM    2  C2  UNL     1     -32.206   9.531   0.006  1.00 20.00     0.103 C 
HETATM    3  C3  UNL     1     -32.418   7.876   2.005  1.00 20.00     0.183 C 
HETATM    4  O7  UNL     1     -33.330   8.982   2.039  1.00 20.00    -0.375 OA
HETATM    5  S8  UNL     1     -31.436   7.974   0.483  1.00 20.00    -0.135 SA
ENDROOT
BRANCH   3   6
HETATM    6  C5  UNL     1     -33.212   6.584   2.067  1.00 20.00     0.057 C 
BRANCH   6   7
HETATM    7  C6  UNL     1     -33.684   6.212   3.481  1.00 20.00     0.043 C 
HETATM    8  C4  UNL     1     -35.053   6.821   3.775  1.00 20.00     0.021 C 
BRANCH   7   9
HETATM    9  S9  UNL     1     -33.788   4.401   3.711  1.00 20.00    -0.178 SA
HETATM   10  H21 UNL     1     -32.465   4.199   3.746  1.00 20.00     0.102 HD
ENDBRANCH   7   9
ENDBRANCH   6   7
ENDBRANCH   3   6
TORSDOF 3
ENDMDL
MODEL 9
REMARK VINA RESULT:       1.9      1.679      4.188
REMARK  3 active torsions:
REMARK  status: ('A' for Active; 'I' for Inactive)
REMARK    1  A    between atoms: C3_3  and  C5_5 
REMARK    2  A    between atoms: C5_5  and  C6_6 
REMARK    3  A    between atoms: C6_6  and  S9_9 
ROOT
HETATM    1  C1  UNL     1     -32.101   6.188   1.048  1.00 20.00     0.179 C 
HETATM    2  C2  UNL     1     -31.169   7.325   1.428  1.00 20.00     0.103 C 
HETATM    3  C3  UNL     1     -33.549   7.286   2.484  1.00 20.00     0.183 C 
HETATM    4  O7  UNL     1     -33.027   5.999   2.125  1.00 20.00    -0.375 OA
HETATM    5  S8  UNL     1     -32.293   8.545   2.129  1.00 20.00    -0.135 SA
ENDROOT
BRANCH   3   6
HETATM    6  C5  UNL     1     -33.917   7.272   3.956  1.00 20.00     0.057 C 
BRANCH   6   7
HETATM    7  C6  UNL     1     -35.092   6.341   4.294  1.00 20.00     0.043 C 
HETATM    8  C4  UNL     1     -36.200   6.464   3.250  1.00 20.00     0.021 C 
BRANCH   7   9
HETATM    9  S9  UNL     1     -34.570   4.592   4.392  1.00 20.00    -0.178 SA
HETATM   10  H21 UNL     1     -34.007   4.557   3.179  1.00 20.00     0.102 HD
ENDBRANCH   7   9
ENDBRANCH   6   7
ENDBRANCH   3   6
TORSDOF 3
ENDMDL
