MODEL 1
REMARK VINA RESULT:      -3.9      0.000      0.000
REMARK  1 active torsions:
REMARK  status: ('A' for Active; 'I' for Inactive)
REMARK    1  A    between atoms: C1_1  and  C3_3 
ROOT
HETATM    1  C1  UNL     1     -33.356   7.071   2.557  1.00 20.00     0.143 C 
HETATM    2  C2  UNL     1     -34.027   7.178   3.711  1.00 20.00     0.190 C 
HETATM    3  F4  UNL     1     -33.652   8.089   4.633  1.00 20.00    -0.193 F 
HETATM    4 CL8  UNL     1     -35.380   6.165   4.049  1.00 20.00    -0.051 Cl
ENDROOT
BRANCH   1   5
HETATM    5  C3  UNL     1     -32.179   7.898   2.172  1.00 20.00     0.411 C 
HETATM    6  F5  UNL     1     -31.530   8.448   3.230  1.00 20.00    -0.167 F 
HETATM    7  F6  UNL     1     -32.543   8.924   1.361  1.00 20.00    -0.167 F 
HETATM    8  F7  UNL     1     -31.262   7.166   1.490  1.00 20.00    -0.167 F 
ENDBRANCH   1   5
TORSDOF 1
ENDMDL
MODEL 2
REMARK VINA RESULT:      -3.9      0.031      1.334
REMARK  1 active torsions:
REMARK  status: ('A' for Active; 'I' for Inactive)
REMARK    1  A    between atoms: C1_1  and  C3_3 
ROOT
HETATM    1  C1  UNL     1     -33.369   7.073   2.534  1.00 20.00     0.143 C 
HETATM    2  C2  UNL     1     -34.026   7.172   3.696  1.00 20.00     0.190 C 
HETATM    3  F4  UNL     1     -33.639   8.075   4.621  1.00 20.00    -0.193 F 
HETATM    4 CL8  UNL     1     -35.377   6.157   4.042  1.00 20.00    -0.051 Cl
ENDROOT
BRANCH   1   5
HETATM    5  C3  UNL     1     -32.196   7.902   2.141  1.00 20.00     0.411 C 
HETATM    6  F5  UNL     1     -32.513   8.949   1.337  1.00 20.00    -0.167 F 
HETATM    7  F6  UNL     1     -31.272   7.163   1.475  1.00 20.00    -0.167 F 
HETATM    8  F7  UNL     1     -31.572   8.420   3.230  1.00 20.00    -0.167 F 
ENDBRANCH   1   5
TORSDOF 1
ENDMDL
MODEL 3
REMARK VINA RESULT:      -3.8      0.036      1.336
REMARK  1 active torsions:
REMARK  status: ('A' for Active; 'I' for Inactive)
REMARK    1  A    between atoms: C1_1  and  C3_3 
ROOT
HETATM    1  C1  UNL     1     -33.365   7.057   2.560  1.00 20.00     0.143 C 
HETATM    2  C2  UNL     1     -34.044   7.177   3.708  1.00 20.00     0.190 C 
HETATM    3  F4  UNL     1     -33.684   8.108   4.617  1.00 20.00    -0.193 F 
HETATM    4 CL8  UNL     1     -35.389   6.156   4.056  1.00 20.00    -0.051 Cl
ENDROOT
BRANCH   1   5
HETATM    5  C3  UNL     1     -32.195   7.890   2.168  1.00 20.00     0.411 C 
HETATM    6  F5  UNL     1     -31.245   7.206   1.482  1.00 20.00    -0.167 F 
HETATM    7  F6  UNL     1     -31.583   8.424   3.256  1.00 20.00    -0.167 F 
HETATM    8  F7  UNL     1     -32.571   8.931   1.381  1.00 20.00    -0.167 F 
ENDBRANCH   1   5
TORSDOF 1
ENDMDL
MODEL 4
REMARK VINA RESULT:      -3.5      2.489      3.821
REMARK  1 active torsions:
REMARK  status: ('A' for Active; 'I' for Inactive)
REMARK    1  A    between atoms: C1_1  and  C3_3 
ROOT
HETATM    1  C1  UNL     1     -34.053   5.736   2.986  1.00 20.00     0.143 C 
HETATM    2  C2  UNL     1     -33.096   6.436   2.364  1.00 20.00     0.190 C 
HETATM    3  F4  UNL     1     -33.004   7.770   2.544  1.00 20.00    -0.193 F 
HETATM    4 CL8  UNL     1     -31.961   5.659   1.324  1.00 20.00    -0.051 Cl
ENDROOT
BRANCH   1   5
HETATM    5  C3  UNL     1     -35.075   6.312   3.903  1.00 20.00     0.411 C 
HETATM    6  F5  UNL     1     -34.618   7.355   4.641  1.00 20.00    -0.167 F 
HETATM    7  F6  UNL     1     -35.531   5.382   4.780  1.00 20.00    -0.167 F 
HETATM    8  F7  UNL     1     -36.156   6.764   3.216  1.00 20.00    -0.167 F 
ENDBRANCH   1   5
TORSDOF 1
ENDMDL
MODEL 5
REMARK VINA RESULT:      -3.5      2.682      3.865
REMARK  1 active torsions:
REMARK  status: ('A' for Active; 'I' for Inactive)
REMARK    1  A    between atoms: C1_1  and  C3_3 
ROOT
HETATM    1  C1  UNL     1     -33.658   7.348   3.164  1.00 20.00     0.143 C 
HETATM    2  C2  UNL     1     -32.889   6.930   2.151  1.00 20.00     0.190 C 
HETATM    3  F4  UNL     1     -33.028   5.679   1.663  1.00 20.00    -0.193 F 
HETATM    4 CL8  UNL     1     -31.709   7.968   1.444  1.00 20.00    -0.051 Cl
ENDROOT
BRANCH   1   5
HETATM    5  C3  UNL     1     -34.703   6.529   3.839  1.00 20.00     0.411 C 
HETATM    6  F5  UNL     1     -34.363   5.223   3.984  1.00 20.00    -0.167 F 
HETATM    7  F6  UNL     1     -35.871   6.555   3.148  1.00 20.00    -0.167 F 
HETATM    8  F7  UNL     1     -34.973   7.002   5.083  1.00 20.00    -0.167 F 
ENDBRANCH   1   5
TORSDOF 1
ENDMDL
MODEL 6
REMARK VINA RESULT:      -3.5      2.675      3.851
REMARK  1 active torsions:
REMARK  status: ('A' for Active; 'I' for Inactive)
REMARK    1  A    between atoms: C1_1  and  C3_3 
ROOT
HETATM    1  C1  UNL     1     -33.615   7.374   3.173  1.00 20.00     0.143 C 
HETATM    2  C2  UNL     1     -32.900   6.986   2.110  1.00 20.00     0.190 C 
HETATM    3  F4  UNL     1     -33.118   5.778   1.549  1.00 20.00    -0.193 F 
HETATM    4 CL8  UNL     1     -31.691   8.010   1.430  1.00 20.00    -0.051 Cl
ENDROOT
BRANCH   1   5
HETATM    5  C3  UNL     1     -34.679   6.566   3.830  1.00 20.00     0.411 C 
HETATM    6  F5  UNL     1     -35.855   6.558   3.152  1.00 20.00    -0.167 F 
HETATM    7  F6  UNL     1     -34.950   7.029   5.077  1.00 20.00    -0.167 F 
HETATM    8  F7  UNL     1     -34.300   5.270   3.968  1.00 20.00    -0.167 F 
ENDBRANCH   1   5
TORSDOF 1
ENDMDL
MODEL 7
REMARK VINA RESULT:      -3.5      2.488      3.774
REMARK  1 active torsions:
REMARK  status: ('A' for Active; 'I' for Inactive)
REMARK    1  A    between atoms: C1_1  and  C3_3 
ROOT
HETATM    1  C1  UNL     1     -34.060   5.737   2.998  1.00 20.00     0.143 C 
HETATM    2  C2  UNL     1     -33.106   6.447   2.382  1.00 20.00     0.190 C 
HETATM    3  F4  UNL     1     -33.026   7.782   2.566  1.00 20.00    -0.193 F 
HETATM    4 CL8  UNL     1     -31.960   5.684   1.345  1.00 20.00    -0.051 Cl
ENDROOT
BRANCH   1   5
HETATM    5  C3  UNL     1     -35.091   6.302   3.911  1.00 20.00     0.411 C 
HETATM    6  F5  UNL     1     -35.565   5.408   4.817  1.00 20.00    -0.167 F 
HETATM    7  F6  UNL     1     -36.164   6.762   3.218  1.00 20.00    -0.167 F 
HETATM    8  F7  UNL     1     -34.602   7.353   4.618  1.00 20.00    -0.167 F 
ENDBRANCH   1   5
TORSDOF 1
ENDMDL
MODEL 8
REMARK VINA RESULT:      -3.5      2.485      3.839
REMARK  1 active torsions:
REMARK  status: ('A' for Active; 'I' for Inactive)
REMARK    1  A    between atoms: C1_1  and  C3_3 
ROOT
HETATM    1  C1  UNL     1     -34.041   5.724   2.999  1.00 20.00     0.143 C 
HETATM    2  C2  UNL     1     -33.101   6.423   2.351  1.00 20.00     0.190 C 
HETATM    3  F4  UNL     1     -33.045   7.766   2.476  1.00 20.00    -0.193 F 
HETATM    4 CL8  UNL     1     -31.942   5.635   1.346  1.00 20.00    -0.051 Cl
ENDROOT
BRANCH   1   5
HETATM    5  C3  UNL     1     -35.081   6.311   3.889  1.00 20.00     0.411 C 
HETATM    6  F5  UNL     1     -36.166   6.781   3.222  1.00 20.00    -0.167 F 
HETATM    7  F6  UNL     1     -34.584   7.349   4.609  1.00 20.00    -0.167 F 
HETATM    8  F7  UNL     1     -35.538   5.397   4.784  1.00 20.00    -0.167 F 
ENDBRANCH   1   5
TORSDOF 1
ENDMDL
MODEL 9
REMARK VINA RESULT:      -3.4      1.183      1.855
REMARK  1 active torsions:
REMARK  status: ('A' for Active; 'I' for Inactive)
REMARK    1  A    between atoms: C1_1  and  C3_3 
ROOT
HETATM    1  C1  UNL     1     -33.391   7.630   2.919  1.00 20.00     0.143 C 
HETATM    2  C2  UNL     1     -33.906   6.413   3.130  1.00 20.00     0.190 C 
HETATM    3  F4  UNL     1     -33.311   5.322   2.603  1.00 20.00    -0.193 F 
HETATM    4 CL8  UNL     1     -35.333   6.203   4.075  1.00 20.00    -0.051 Cl
ENDROOT
BRANCH   1   5
HETATM    5  C3  UNL     1     -32.166   7.914   2.121  1.00 20.00     0.411 C 
HETATM    6  F5  UNL     1     -31.644   6.817   1.516  1.00 20.00    -0.167 F 
HETATM    7  F6  UNL     1     -31.183   8.437   2.898  1.00 20.00    -0.167 F 
HETATM    8  F7  UNL     1     -32.414   8.820   1.141  1.00 20.00    -0.167 F 
ENDBRANCH   1   5
TORSDOF 1
ENDMDL
