MODEL 1
REMARK VINA RESULT:      -2.1      0.000      0.000
REMARK  2 active torsions:
REMARK  status: ('A' for Active; 'I' for Inactive)
REMARK    1  A    between atoms: C1_1  and  C3_3 
REMARK    2  A    between atoms: C3_3  and  C4_4 
ROOT
HETATM    1  C1  UNL     1     -33.014   7.061   2.479  1.00 20.00     0.078 C 
HETATM    2  S5  UNL     1     -34.216   6.973   3.627  1.00 20.00    -0.072 SA
HETATM    3 CL6  UNL     1     -32.763   5.705   1.466  1.00 20.00    -0.076 Cl
ENDROOT
BRANCH   1   4
HETATM    4  C3  UNL     1     -32.141   8.266   2.253  1.00 20.00     0.063 C 
BRANCH   4   5
HETATM    5  C4  UNL     1     -31.924   8.514   0.760  1.00 20.00     0.002 C 
HETATM    6  C2  UNL     1     -32.453   9.875   0.339  1.00 20.00     0.005 C 
ENDBRANCH   4   5
ENDBRANCH   1   4
TORSDOF 2
ENDMDL
MODEL 2
REMARK VINA RESULT:      -2.1      2.256      3.712
REMARK  2 active torsions:
REMARK  status: ('A' for Active; 'I' for Inactive)
REMARK    1  A    between atoms: C1_1  and  C3_3 
REMARK    2  A    between atoms: C3_3  and  C4_4 
ROOT
HETATM    1  C1  UNL     1     -32.943   7.100   2.433  1.00 20.00     0.078 C 
HETATM    2  S5  UNL     1     -31.963   8.269   1.770  1.00 20.00    -0.072 SA
HETATM    3 CL6  UNL     1     -33.052   5.589   1.636  1.00 20.00    -0.076 Cl
ENDROOT
BRANCH   1   4
HETATM    4  C3  UNL     1     -33.729   7.270   3.705  1.00 20.00     0.063 C 
BRANCH   4   5
HETATM    5  C4  UNL     1     -35.079   6.557   3.617  1.00 20.00     0.002 C 
HETATM    6  C2  UNL     1     -35.075   5.260   4.411  1.00 20.00     0.005 C 
ENDBRANCH   4   5
ENDBRANCH   1   4
TORSDOF 2
ENDMDL
MODEL 3
REMARK VINA RESULT:      -2.1      1.690      1.690
REMARK  2 active torsions:
REMARK  status: ('A' for Active; 'I' for Inactive)
REMARK    1  A    between atoms: C1_1  and  C3_3 
REMARK    2  A    between atoms: C3_3  and  C4_4 
ROOT
HETATM    1  C1  UNL     1     -32.858   7.200   2.367  1.00 20.00     0.078 C 
HETATM    2  S5  UNL     1     -32.758   5.756   1.546  1.00 20.00    -0.072 SA
HETATM    3 CL6  UNL     1     -33.971   7.317   3.663  1.00 20.00    -0.076 Cl
ENDROOT
BRANCH   1   4
HETATM    4  C3  UNL     1     -32.018   8.411   2.065  1.00 20.00     0.063 C 
BRANCH   4   5
HETATM    5  C4  UNL     1     -32.047   8.741   0.573  1.00 20.00     0.002 C 
HETATM    6  C2  UNL     1     -32.547  10.156   0.326  1.00 20.00     0.005 C 
ENDBRANCH   4   5
ENDBRANCH   1   4
TORSDOF 2
ENDMDL
MODEL 4
REMARK VINA RESULT:      -1.9      3.480      4.952
REMARK  2 active torsions:
REMARK  status: ('A' for Active; 'I' for Inactive)
REMARK    1  A    between atoms: C1_1  and  C3_3 
REMARK    2  A    between atoms: C3_3  and  C4_4 
ROOT
HETATM    1  C1  UNL     1     -33.930   6.065   3.399  1.00 20.00     0.078 C 
HETATM    2  S5  UNL     1     -33.066   5.968   1.981  1.00 20.00    -0.072 SA
HETATM    3 CL6  UNL     1     -34.221   7.614   4.065  1.00 20.00    -0.076 Cl
ENDROOT
BRANCH   1   4
HETATM    4  C3  UNL     1     -34.497   4.879   4.132  1.00 20.00     0.063 C 
BRANCH   4   5
HETATM    5  C4  UNL     1     -33.698   3.612   3.829  1.00 20.00     0.002 C 
HETATM    6  C2  UNL     1     -33.073   3.033   5.088  1.00 20.00     0.005 C 
ENDBRANCH   4   5
ENDBRANCH   1   4
TORSDOF 2
ENDMDL
MODEL 5
REMARK VINA RESULT:      -1.8      2.472      3.867
REMARK  2 active torsions:
REMARK  status: ('A' for Active; 'I' for Inactive)
REMARK    1  A    between atoms: C1_1  and  C3_3 
REMARK    2  A    between atoms: C3_3  and  C4_4 
ROOT
HETATM    1  C1  UNL     1     -32.998   7.061   2.500  1.00 20.00     0.078 C 
HETATM    2  S5  UNL     1     -32.961   5.647   1.623  1.00 20.00    -0.072 SA
HETATM    3 CL6  UNL     1     -32.064   8.382   1.943  1.00 20.00    -0.076 Cl
ENDROOT
BRANCH   1   4
HETATM    4  C3  UNL     1     -33.819   7.269   3.744  1.00 20.00     0.063 C 
BRANCH   4   5
HETATM    5  C4  UNL     1     -35.144   6.510   3.661  1.00 20.00     0.002 C 
HETATM    6  C2  UNL     1     -35.096   5.217   4.459  1.00 20.00     0.005 C 
ENDBRANCH   4   5
ENDBRANCH   1   4
TORSDOF 2
ENDMDL
MODEL 6
REMARK VINA RESULT:      -1.8      3.106      4.682
REMARK  2 active torsions:
REMARK  status: ('A' for Active; 'I' for Inactive)
REMARK    1  A    between atoms: C1_1  and  C3_3 
REMARK    2  A    between atoms: C3_3  and  C4_4 
ROOT
HETATM    1  C1  UNL     1     -33.996   6.069   3.463  1.00 20.00     0.078 C 
HETATM    2  S5  UNL     1     -34.123   7.618   4.058  1.00 20.00    -0.072 SA
HETATM    3 CL6  UNL     1     -33.177   5.840   1.978  1.00 20.00    -0.076 Cl
ENDROOT
BRANCH   1   4
HETATM    4  C3  UNL     1     -34.533   4.845   4.154  1.00 20.00     0.063 C 
BRANCH   4   5
HETATM    5  C4  UNL     1     -33.684   3.615   3.830  1.00 20.00     0.002 C 
HETATM    6  C2  UNL     1     -33.074   3.014   5.087  1.00 20.00     0.005 C 
ENDBRANCH   4   5
ENDBRANCH   1   4
TORSDOF 2
ENDMDL
MODEL 7
REMARK VINA RESULT:      -1.7      1.854      2.127
REMARK  2 active torsions:
REMARK  status: ('A' for Active; 'I' for Inactive)
REMARK    1  A    between atoms: C1_1  and  C3_3 
REMARK    2  A    between atoms: C3_3  and  C4_4 
ROOT
HETATM    1  C1  UNL     1     -33.710   6.216   3.128  1.00 20.00     0.078 C 
HETATM    2  S5  UNL     1     -34.083   4.708   3.724  1.00 20.00    -0.072 SA
HETATM    3 CL6  UNL     1     -34.177   7.584   4.044  1.00 20.00    -0.076 Cl
ENDROOT
BRANCH   1   4
HETATM    4  C3  UNL     1     -32.966   6.462   1.844  1.00 20.00     0.063 C 
BRANCH   4   5
HETATM    5  C4  UNL     1     -31.977   7.619   1.995  1.00 20.00     0.002 C 
HETATM    6  C2  UNL     1     -32.279   8.741   1.016  1.00 20.00     0.005 C 
ENDBRANCH   4   5
ENDBRANCH   1   4
TORSDOF 2
ENDMDL
MODEL 8
REMARK VINA RESULT:      -1.7      1.361      1.704
REMARK  2 active torsions:
REMARK  status: ('A' for Active; 'I' for Inactive)
REMARK    1  A    between atoms: C1_1  and  C3_3 
REMARK    2  A    between atoms: C3_3  and  C4_4 
ROOT
HETATM    1  C1  UNL     1     -33.661   6.209   3.106  1.00 20.00     0.078 C 
HETATM    2  S5  UNL     1     -34.267   7.436   4.053  1.00 20.00    -0.072 SA
HETATM    3 CL6  UNL     1     -33.916   4.595   3.614  1.00 20.00    -0.076 Cl
ENDROOT
BRANCH   1   4
HETATM    4  C3  UNL     1     -32.920   6.419   1.813  1.00 20.00     0.063 C 
BRANCH   4   5
HETATM    5  C4  UNL     1     -31.919   7.569   1.935  1.00 20.00     0.002 C 
HETATM    6  C2  UNL     1     -32.277   8.718   1.007  1.00 20.00     0.005 C 
ENDBRANCH   4   5
ENDBRANCH   1   4
TORSDOF 2
ENDMDL
MODEL 9
REMARK VINA RESULT:      -1.7      2.877      4.448
REMARK  2 active torsions:
REMARK  status: ('A' for Active; 'I' for Inactive)
REMARK    1  A    between atoms: C1_1  and  C3_3 
REMARK    2  A    between atoms: C3_3  and  C4_4 
ROOT
HETATM    1  C1  UNL     1     -33.290   6.840   2.892  1.00 20.00     0.078 C 
HETATM    2  S5  UNL     1     -32.247   7.756   1.975  1.00 20.00    -0.072 SA
HETATM    3 CL6  UNL     1     -34.189   7.625   4.118  1.00 20.00    -0.076 Cl
ENDROOT
BRANCH   1   4
HETATM    4  C3  UNL     1     -33.518   5.364   2.702  1.00 20.00     0.063 C 
BRANCH   4   5
HETATM    5  C4  UNL     1     -34.270   4.768   3.892  1.00 20.00     0.002 C 
HETATM    6  C2  UNL     1     -33.626   3.475   4.366  1.00 20.00     0.005 C 
ENDBRANCH   4   5
ENDBRANCH   1   4
TORSDOF 2
ENDMDL
