MODEL 1
REMARK VINA RESULT:      -2.5      0.000      0.000
REMARK  1 active torsions:
REMARK  status: ('A' for Active; 'I' for Inactive)
REMARK    1  A    between atoms: C2_2  and  C3_3 
ROOT
HETATM    1  C1  UNL     1     -32.927   6.780   2.213  1.00 20.00     0.018 C 
HETATM    2  C2  UNL     1     -33.600   6.809   3.371  1.00 20.00     0.188 C 
HETATM    3  C4  UNL     1     -32.030   7.876   1.738  1.00 20.00     0.039 C 
HETATM    4  F7  UNL     1     -33.473   7.889   4.177  1.00 20.00    -0.199 F 
ENDROOT
BRANCH   2   5
HETATM    5  C3  UNL     1     -34.514   5.661   3.827  1.00 20.00     0.238 C 
HETATM    6  O5  UNL     1     -35.682   6.027   4.152  1.00 20.00    -0.642 OA
HETATM    7  O6  UNL     1     -34.015   4.501   3.829  1.00 20.00    -0.642 OA
ENDBRANCH   2   5
TORSDOF 1
ENDMDL
MODEL 2
REMARK VINA RESULT:      -2.5      2.950      3.710
REMARK  1 active torsions:
REMARK  status: ('A' for Active; 'I' for Inactive)
REMARK    1  A    between atoms: C2_2  and  C3_3 
ROOT
HETATM    1  C1  UNL     1     -34.117   7.251   3.610  1.00 20.00     0.018 C 
HETATM    2  C2  UNL     1     -33.224   7.056   2.631  1.00 20.00     0.188 C 
HETATM    3  C4  UNL     1     -35.161   6.256   4.001  1.00 20.00     0.039 C 
HETATM    4  F7  UNL     1     -33.250   5.891   1.940  1.00 20.00    -0.199 F 
ENDROOT
BRANCH   2   5
HETATM    5  C3  UNL     1     -32.164   8.104   2.256  1.00 20.00     0.238 C 
HETATM    6  O5  UNL     1     -31.509   8.553   3.243  1.00 20.00    -0.642 OA
HETATM    7  O6  UNL     1     -32.062   8.399   1.032  1.00 20.00    -0.642 OA
ENDBRANCH   2   5
TORSDOF 1
ENDMDL
MODEL 3
REMARK VINA RESULT:      -2.5      1.466      1.469
REMARK  1 active torsions:
REMARK  status: ('A' for Active; 'I' for Inactive)
REMARK    1  A    between atoms: C2_2  and  C3_3 
ROOT
HETATM    1  C1  UNL     1     -32.946   7.491   2.678  1.00 20.00     0.018 C 
HETATM    2  C2  UNL     1     -33.361   6.219   2.621  1.00 20.00     0.188 C 
HETATM    3  C4  UNL     1     -31.974   8.098   1.719  1.00 20.00     0.039 C 
HETATM    4  F7  UNL     1     -32.884   5.415   1.642  1.00 20.00    -0.199 F 
ENDROOT
BRANCH   2   5
HETATM    5  C3  UNL     1     -34.362   5.629   3.627  1.00 20.00     0.238 C 
HETATM    6  O5  UNL     1     -35.300   6.419   3.947  1.00 20.00    -0.642 OA
HETATM    7  O6  UNL     1     -34.148   4.448   4.019  1.00 20.00    -0.642 OA
ENDBRANCH   2   5
TORSDOF 1
ENDMDL
MODEL 4
REMARK VINA RESULT:      -2.4      1.623      1.882
REMARK  1 active torsions:
REMARK  status: ('A' for Active; 'I' for Inactive)
REMARK    1  A    between atoms: C2_2  and  C3_3 
ROOT
HETATM    1  C1  UNL     1     -32.538   7.920   2.408  1.00 20.00     0.018 C 
HETATM    2  C2  UNL     1     -33.349   6.919   2.773  1.00 20.00     0.188 C 
HETATM    3  C4  UNL     1     -31.564   7.839   1.278  1.00 20.00     0.039 C 
HETATM    4  F7  UNL     1     -33.299   5.751   2.089  1.00 20.00    -0.199 F 
ENDROOT
BRANCH   2   5
HETATM    5  C3  UNL     1     -34.339   7.039   3.942  1.00 20.00     0.238 C 
HETATM    6  O5  UNL     1     -34.036   7.933   4.786  1.00 20.00    -0.642 OA
HETATM    7  O6  UNL     1     -35.326   6.251   3.937  1.00 20.00    -0.642 OA
ENDBRANCH   2   5
TORSDOF 1
ENDMDL
MODEL 5
REMARK VINA RESULT:      -2.4      2.300      3.343
REMARK  1 active torsions:
REMARK  status: ('A' for Active; 'I' for Inactive)
REMARK    1  A    between atoms: C2_2  and  C3_3 
ROOT
HETATM    1  C1  UNL     1     -34.365   6.091   3.225  1.00 20.00     0.018 C 
HETATM    2  C2  UNL     1     -33.441   7.059   3.177  1.00 20.00     0.188 C 
HETATM    3  C4  UNL     1     -35.347   5.924   4.339  1.00 20.00     0.039 C 
HETATM    4  F7  UNL     1     -33.374   7.954   4.192  1.00 20.00    -0.199 F 
ENDROOT
BRANCH   2   5
HETATM    5  C3  UNL     1     -32.447   7.199   2.014  1.00 20.00     0.238 C 
HETATM    6  O5  UNL     1     -32.123   6.099   1.475  1.00 20.00    -0.642 OA
HETATM    7  O6  UNL     1     -32.067   8.368   1.725  1.00 20.00    -0.642 OA
ENDBRANCH   2   5
TORSDOF 1
ENDMDL
MODEL 6
REMARK VINA RESULT:      -2.4      1.874      2.165
REMARK  1 active torsions:
REMARK  status: ('A' for Active; 'I' for Inactive)
REMARK    1  A    between atoms: C2_2  and  C3_3 
ROOT
HETATM    1  C1  UNL     1     -32.985   6.226   1.919  1.00 20.00     0.018 C 
HETATM    2  C2  UNL     1     -33.637   5.760   2.992  1.00 20.00     0.188 C 
HETATM    3  C4  UNL     1     -32.073   5.402   1.070  1.00 20.00     0.039 C 
HETATM    4  F7  UNL     1     -33.473   4.463   3.347  1.00 20.00    -0.199 F 
ENDROOT
BRANCH   2   5
HETATM    5  C3  UNL     1     -34.567   6.638   3.842  1.00 20.00     0.238 C 
HETATM    6  O5  UNL     1     -34.084   7.772   4.135  1.00 20.00    -0.642 OA
HETATM    7  O6  UNL     1     -35.689   6.147   4.152  1.00 20.00    -0.642 OA
ENDBRANCH   2   5
TORSDOF 1
ENDMDL
MODEL 7
REMARK VINA RESULT:      -2.3      1.588      1.942
REMARK  1 active torsions:
REMARK  status: ('A' for Active; 'I' for Inactive)
REMARK    1  A    between atoms: C2_2  and  C3_3 
ROOT
HETATM    1  C1  UNL     1     -33.126   5.740   2.148  1.00 20.00     0.018 C 
HETATM    2  C2  UNL     1     -33.302   6.916   2.763  1.00 20.00     0.188 C 
HETATM    3  C4  UNL     1     -32.163   5.517   1.027  1.00 20.00     0.039 C 
HETATM    4  F7  UNL     1     -32.573   7.984   2.360  1.00 20.00    -0.199 F 
ENDROOT
BRANCH   2   5
HETATM    5  C3  UNL     1     -34.303   7.107   3.914  1.00 20.00     0.238 C 
HETATM    6  O5  UNL     1     -33.963   7.992   4.754  1.00 20.00    -0.642 OA
HETATM    7  O6  UNL     1     -35.334   6.378   3.899  1.00 20.00    -0.642 OA
ENDBRANCH   2   5
TORSDOF 1
ENDMDL
MODEL 8
REMARK VINA RESULT:      -2.3      2.353      3.214
REMARK  1 active torsions:
REMARK  status: ('A' for Active; 'I' for Inactive)
REMARK    1  A    between atoms: C2_2  and  C3_3 
ROOT
HETATM    1  C1  UNL     1     -34.003   4.132   4.510  1.00 20.00     0.018 C 
HETATM    2  C2  UNL     1     -33.874   5.123   3.618  1.00 20.00     0.188 C 
HETATM    3  C4  UNL     1     -33.308   2.814   4.405  1.00 20.00     0.039 C 
HETATM    4  F7  UNL     1     -33.067   4.939   2.546  1.00 20.00    -0.199 F 
ENDROOT
BRANCH   2   5
HETATM    5  C3  UNL     1     -34.606   6.466   3.760  1.00 20.00     0.238 C 
HETATM    6  O5  UNL     1     -35.869   6.371   3.750  1.00 20.00    -0.642 OA
HETATM    7  O6  UNL     1     -33.887   7.499   3.869  1.00 20.00    -0.642 OA
ENDBRANCH   2   5
TORSDOF 1
ENDMDL
MODEL 9
REMARK VINA RESULT:      -2.2      2.689      3.556
REMARK  1 active torsions:
REMARK  status: ('A' for Active; 'I' for Inactive)
REMARK    1  A    between atoms: C2_2  and  C3_3 
ROOT
HETATM    1  C1  UNL     1     -34.343   6.749   3.351  1.00 20.00     0.018 C 
HETATM    2  C2  UNL     1     -33.428   5.954   2.782  1.00 20.00     0.188 C 
HETATM    3  C4  UNL     1     -35.392   6.272   4.300  1.00 20.00     0.039 C 
HETATM    4  F7  UNL     1     -33.437   4.631   3.071  1.00 20.00    -0.199 F 
ENDROOT
BRANCH   2   5
HETATM    5  C3  UNL     1     -32.362   6.482   1.808  1.00 20.00     0.238 C 
HETATM    6  O5  UNL     1     -31.798   5.580   1.120  1.00 20.00    -0.642 OA
HETATM    7  O6  UNL     1     -32.166   7.729   1.799  1.00 20.00    -0.642 OA
ENDBRANCH   2   5
TORSDOF 1
ENDMDL
