MODEL 1
REMARK VINA RESULT:      -1.5      0.000      0.000
REMARK  1 active torsions:
REMARK  status: ('A' for Active; 'I' for Inactive)
REMARK    1  A    between atoms: C3_3  and  C4_4 
ROOT
HETATM    1  C1  UNL     1     -33.555   5.506   2.299  1.00 20.00     0.149 A 
HETATM    2  C2  UNL     1     -34.170   6.189   3.326  1.00 20.00     0.093 A 
HETATM    3  C3  UNL     1     -32.515   7.426   2.089  1.00 20.00     0.089 A 
HETATM    4  N5  UNL     1     -32.605   6.214   1.588  1.00 20.00    -0.255 NA
HETATM    5  S6  UNL     1     -33.542   7.781   3.418  1.00 20.00    -0.060 SA
HETATM    6 CL7  UNL     1     -35.377   5.647   4.407  1.00 20.00    -0.075 Cl
ENDROOT
BRANCH   3   7
HETATM    7  C4  UNL     1     -31.599   8.474   1.587  1.00 20.00     0.181 C 
HETATM    8 CL8  UNL     1     -32.430   9.553   0.437  1.00 20.00    -0.123 Cl
ENDBRANCH   3   7
TORSDOF 1
ENDMDL
MODEL 2
REMARK VINA RESULT:      -1.3      1.419      1.619
REMARK  1 active torsions:
REMARK  status: ('A' for Active; 'I' for Inactive)
REMARK    1  A    between atoms: C3_3  and  C4_4 
ROOT
HETATM    1  C1  UNL     1     -33.977   7.588   4.092  1.00 20.00     0.149 A 
HETATM    2  C2  UNL     1     -34.220   6.312   3.631  1.00 20.00     0.093 A 
HETATM    3  C3  UNL     1     -32.660   7.614   2.339  1.00 20.00     0.089 A 
HETATM    4  N5  UNL     1     -33.082   8.337   3.353  1.00 20.00    -0.255 NA
HETATM    5  S6  UNL     1     -33.299   6.026   2.214  1.00 20.00    -0.060 SA
HETATM    6 CL7  UNL     1     -35.251   5.113   4.276  1.00 20.00    -0.075 Cl
ENDROOT
BRANCH   3   7
HETATM    7  C4  UNL     1     -31.690   8.082   1.324  1.00 20.00     0.181 C 
HETATM    8 CL8  UNL     1     -32.339   9.468   0.410  1.00 20.00    -0.123 Cl
ENDBRANCH   3   7
TORSDOF 1
ENDMDL
MODEL 3
REMARK VINA RESULT:      -1.2      1.954      4.314
REMARK  1 active torsions:
REMARK  status: ('A' for Active; 'I' for Inactive)
REMARK    1  A    between atoms: C3_3  and  C4_4 
ROOT
HETATM    1  C1  UNL     1     -33.362   8.165   3.362  1.00 20.00     0.149 A 
HETATM    2  C2  UNL     1     -32.732   7.582   2.283  1.00 20.00     0.093 A 
HETATM    3  C3  UNL     1     -34.117   6.121   3.604  1.00 20.00     0.089 A 
HETATM    4  N5  UNL     1     -34.157   7.329   4.121  1.00 20.00    -0.255 NA
HETATM    5  S6  UNL     1     -33.142   5.919   2.206  1.00 20.00    -0.060 SA
HETATM    6 CL7  UNL     1     -31.686   8.292   1.135  1.00 20.00    -0.075 Cl
ENDROOT
BRANCH   3   7
HETATM    7  C4  UNL     1     -34.846   4.953   4.147  1.00 20.00     0.181 C 
HETATM    8 CL8  UNL     1     -33.761   3.552   4.336  1.00 20.00    -0.123 Cl
ENDBRANCH   3   7
TORSDOF 1
ENDMDL
MODEL 4
REMARK VINA RESULT:      -1.0      1.386      4.039
REMARK  1 active torsions:
REMARK  status: ('A' for Active; 'I' for Inactive)
REMARK    1  A    between atoms: C3_3  and  C4_4 
ROOT
HETATM    1  C1  UNL     1     -32.492   6.227   1.411  1.00 20.00     0.149 A 
HETATM    2  C2  UNL     1     -32.677   7.502   1.901  1.00 20.00     0.093 A 
HETATM    3  C3  UNL     1     -33.734   5.736   3.151  1.00 20.00     0.089 A 
HETATM    4  N5  UNL     1     -33.097   5.212   2.127  1.00 20.00    -0.255 NA
HETATM    5  S6  UNL     1     -33.648   7.443   3.312  1.00 20.00    -0.060 SA
HETATM    6 CL7  UNL     1     -32.089   8.984   1.289  1.00 20.00    -0.075 Cl
ENDROOT
BRANCH   3   7
HETATM    7  C4  UNL     1     -34.503   4.957   4.147  1.00 20.00     0.181 C 
HETATM    8 CL8  UNL     1     -33.707   3.401   4.496  1.00 20.00    -0.123 Cl
ENDBRANCH   3   7
TORSDOF 1
ENDMDL
MODEL 5
REMARK VINA RESULT:      -0.5      2.311      3.721
REMARK  1 active torsions:
REMARK  status: ('A' for Active; 'I' for Inactive)
REMARK    1  A    between atoms: C3_3  and  C4_4 
ROOT
HETATM    1  C1  UNL     1     -31.814   7.198   1.482  1.00 20.00     0.149 A 
HETATM    2  C2  UNL     1     -32.100   5.854   1.374  1.00 20.00     0.093 A 
HETATM    3  C3  UNL     1     -33.394   7.073   2.999  1.00 20.00     0.089 A 
HETATM    4  N5  UNL     1     -32.556   7.899   2.413  1.00 20.00    -0.255 NA
HETATM    5  S6  UNL     1     -33.343   5.437   2.479  1.00 20.00    -0.060 SA
HETATM    6 CL7  UNL     1     -31.398   4.684   0.346  1.00 20.00    -0.075 Cl
ENDROOT
BRANCH   3   7
HETATM    7  C4  UNL     1     -34.353   7.462   4.056  1.00 20.00     0.181 C 
HETATM    8 CL8  UNL     1     -35.549   6.173   4.342  1.00 20.00    -0.123 Cl
ENDBRANCH   3   7
TORSDOF 1
ENDMDL
MODEL 6
REMARK VINA RESULT:      -0.5      1.562      4.198
REMARK  1 active torsions:
REMARK  status: ('A' for Active; 'I' for Inactive)
REMARK    1  A    between atoms: C3_3  and  C4_4 
ROOT
HETATM    1  C1  UNL     1     -32.800   8.271   2.893  1.00 20.00     0.149 A 
HETATM    2  C2  UNL     1     -32.262   7.791   1.719  1.00 20.00     0.093 A 
HETATM    3  C3  UNL     1     -33.468   6.188   3.052  1.00 20.00     0.089 A 
HETATM    4  N5  UNL     1     -33.493   7.354   3.659  1.00 20.00    -0.255 NA
HETATM    5  S6  UNL     1     -32.628   6.124   1.556  1.00 20.00    -0.060 SA
HETATM    6 CL7  UNL     1     -31.353   8.620   0.534  1.00 20.00    -0.075 Cl
ENDROOT
BRANCH   3   7
HETATM    7  C4  UNL     1     -34.105   4.959   3.573  1.00 20.00     0.181 C 
HETATM    8 CL8  UNL     1     -35.561   5.346   4.524  1.00 20.00    -0.123 Cl
ENDBRANCH   3   7
TORSDOF 1
ENDMDL
MODEL 7
REMARK VINA RESULT:      -0.3      0.891      3.816
REMARK  1 active torsions:
REMARK  status: ('A' for Active; 'I' for Inactive)
REMARK    1  A    between atoms: C3_3  and  C4_4 
ROOT
HETATM    1  C1  UNL     1     -32.096   6.476   1.150  1.00 20.00     0.149 A 
HETATM    2  C2  UNL     1     -32.442   7.695   1.690  1.00 20.00     0.093 A 
HETATM    3  C3  UNL     1     -33.359   5.762   2.794  1.00 20.00     0.089 A 
HETATM    4  N5  UNL     1     -32.621   5.365   1.782  1.00 20.00    -0.255 NA
HETATM    5  S6  UNL     1     -33.467   7.457   3.043  1.00 20.00    -0.060 SA
HETATM    6 CL7  UNL     1     -31.990   9.263   1.185  1.00 20.00    -0.075 Cl
ENDROOT
BRANCH   3   7
HETATM    7  C4  UNL     1     -34.087   4.853   3.707  1.00 20.00     0.181 C 
HETATM    8 CL8  UNL     1     -35.520   5.653   4.401  1.00 20.00    -0.123 Cl
ENDBRANCH   3   7
TORSDOF 1
ENDMDL
MODEL 8
REMARK VINA RESULT:       0.0      2.428      2.712
REMARK  1 active torsions:
REMARK  status: ('A' for Active; 'I' for Inactive)
REMARK    1  A    between atoms: C3_3  and  C4_4 
ROOT
HETATM    1  C1  UNL     1     -35.048   5.012   4.497  1.00 20.00     0.149 A 
HETATM    2  C2  UNL     1     -33.944   4.280   4.114  1.00 20.00     0.093 A 
HETATM    3  C3  UNL     1     -34.017   6.555   3.329  1.00 20.00     0.089 A 
HETATM    4  N5  UNL     1     -35.091   6.317   4.048  1.00 20.00    -0.255 NA
HETATM    5  S6  UNL     1     -32.913   5.253   3.150  1.00 20.00    -0.060 SA
HETATM    6 CL7  UNL     1     -33.553   2.656   4.472  1.00 20.00    -0.075 Cl
ENDROOT
BRANCH   3   7
HETATM    7  C4  UNL     1     -33.714   7.850   2.679  1.00 20.00     0.181 C 
HETATM    8 CL8  UNL     1     -32.115   7.812   1.892  1.00 20.00    -0.123 Cl
ENDBRANCH   3   7
TORSDOF 1
ENDMDL
MODEL 9
REMARK VINA RESULT:       0.4      2.497      2.937
REMARK  1 active torsions:
REMARK  status: ('A' for Active; 'I' for Inactive)
REMARK    1  A    between atoms: C3_3  and  C4_4 
ROOT
HETATM    1  C1  UNL     1     -32.368   8.016   2.670  1.00 20.00     0.149 A 
HETATM    2  C2  UNL     1     -33.270   7.540   3.598  1.00 20.00     0.093 A 
HETATM    3  C3  UNL     1     -32.909   6.140   1.671  1.00 20.00     0.089 A 
HETATM    4  N5  UNL     1     -32.160   7.215   1.565  1.00 20.00    -0.255 NA
HETATM    5  S6  UNL     1     -33.891   6.030   3.076  1.00 20.00    -0.060 SA
HETATM    6 CL7  UNL     1     -33.775   8.246   5.068  1.00 20.00    -0.075 Cl
ENDROOT
BRANCH   3   7
HETATM    7  C4  UNL     1     -32.955   5.049   0.673  1.00 20.00     0.181 C 
HETATM    8 CL8  UNL     1     -31.326   4.399   0.360  1.00 20.00    -0.123 Cl
ENDBRANCH   3   7
TORSDOF 1
ENDMDL
