MODEL 1
REMARK VINA RESULT:       0.7      0.000      0.000
REMARK  0 active torsions:
REMARK  status: ('A' for Active; 'I' for Inactive)
ROOT
HETATM    1  C1  UNL     1     -32.857   8.167   2.300  1.00 20.00     0.052 A 
HETATM    2  C2  UNL     1     -32.411   5.543   1.713  1.00 20.00     0.126 A 
HETATM    3  C3  UNL     1     -33.554   7.189   3.014  1.00 20.00    -0.047 A 
HETATM    4  C4  UNL     1     -33.343   5.838   2.706  1.00 20.00    -0.034 A 
HETATM    5  C5  UNL     1     -31.961   7.760   1.325  1.00 20.00     0.126 A 
HETATM    6  C6  UNL     1     -34.560   7.608   4.056  1.00 20.00     0.039 C 
HETATM    7  C7  UNL     1     -34.038   4.731   3.447  1.00 20.00     0.040 C 
HETATM    8  C8  UNL     1     -34.953   6.473   5.001  1.00 20.00     0.005 C 
HETATM    9  C9  UNL     1     -35.270   5.207   4.215  1.00 20.00     0.005 C 
HETATM   10  N10 UNL     1     -31.716   6.469   1.015  1.00 20.00    -0.248 NA
HETATM   11 CL11 UNL     1     -31.066   8.902   0.410  1.00 20.00    -0.062 Cl
ENDROOT
TORSDOF 0
ENDMDL
MODEL 2
REMARK VINA RESULT:       1.1      2.827      4.571
REMARK  0 active torsions:
REMARK  status: ('A' for Active; 'I' for Inactive)
ROOT
HETATM    1  C1  UNL     1     -33.982   5.419   3.012  1.00 20.00     0.052 A 
HETATM    2  C2  UNL     1     -33.876   7.977   3.948  1.00 20.00     0.126 A 
HETATM    3  C3  UNL     1     -33.145   6.337   2.372  1.00 20.00    -0.047 A 
HETATM    4  C4  UNL     1     -33.099   7.658   2.837  1.00 20.00    -0.034 A 
HETATM    5  C5  UNL     1     -34.719   5.848   4.104  1.00 20.00     0.126 A 
HETATM    6  C6  UNL     1     -32.359   5.903   1.161  1.00 20.00     0.039 C 
HETATM    7  C7  UNL     1     -32.206   8.694   2.213  1.00 20.00     0.040 C 
HETATM    8  C8  UNL     1     -31.226   6.866   0.804  1.00 20.00     0.005 C 
HETATM    9  C9  UNL     1     -31.724   8.306   0.816  1.00 20.00     0.005 C 
HETATM   10  N10 UNL     1     -34.685   7.106   4.592  1.00 20.00    -0.248 NA
HETATM   11 CL11 UNL     1     -35.765   4.778   4.943  1.00 20.00    -0.062 Cl
ENDROOT
TORSDOF 0
ENDMDL
MODEL 3
REMARK VINA RESULT:       1.3      2.624      4.511
REMARK  0 active torsions:
REMARK  status: ('A' for Active; 'I' for Inactive)
ROOT
HETATM    1  C1  UNL     1     -32.928   5.594   2.349  1.00 20.00     0.052 A 
HETATM    2  C2  UNL     1     -34.031   7.745   3.609  1.00 20.00     0.126 A 
HETATM    3  C3  UNL     1     -32.645   6.875   1.867  1.00 20.00    -0.047 A 
HETATM    4  C4  UNL     1     -33.223   7.985   2.499  1.00 20.00    -0.034 A 
HETATM    5  C5  UNL     1     -33.754   5.472   3.454  1.00 20.00     0.126 A 
HETATM    6  C6  UNL     1     -31.776   7.032   0.645  1.00 20.00     0.039 C 
HETATM    7  C7  UNL     1     -32.946   9.393   2.053  1.00 20.00     0.040 C 
HETATM    8  C8  UNL     1     -31.248   8.454   0.463  1.00 20.00     0.005 C 
HETATM    9  C9  UNL     1     -32.371   9.469   0.639  1.00 20.00     0.005 C 
HETATM   10  N10 UNL     1     -34.312   6.517   4.100  1.00 20.00    -0.248 NA
HETATM   11 CL11 UNL     1     -34.143   3.932   4.104  1.00 20.00    -0.062 Cl
ENDROOT
TORSDOF 0
ENDMDL
MODEL 4
REMARK VINA RESULT:       1.3      1.612      2.580
REMARK  0 active torsions:
REMARK  status: ('A' for Active; 'I' for Inactive)
ROOT
HETATM    1  C1  UNL     1     -32.902   4.834   1.868  1.00 20.00     0.052 A 
HETATM    2  C2  UNL     1     -32.011   7.408   1.749  1.00 20.00     0.126 A 
HETATM    3  C3  UNL     1     -33.474   5.785   2.717  1.00 20.00    -0.047 A 
HETATM    4  C4  UNL     1     -33.008   7.107   2.674  1.00 20.00    -0.034 A 
HETATM    5  C5  UNL     1     -31.909   5.243   0.993  1.00 20.00     0.126 A 
HETATM    6  C6  UNL     1     -34.532   5.358   3.702  1.00 20.00     0.039 C 
HETATM    7  C7  UNL     1     -33.590   8.188   3.541  1.00 20.00     0.040 C 
HETATM    8  C8  UNL     1     -35.321   6.531   4.282  1.00 20.00     0.005 C 
HETATM    9  C9  UNL     1     -34.378   7.641   4.731  1.00 20.00     0.005 C 
HETATM   10  N10 UNL     1     -31.450   6.510   0.909  1.00 20.00    -0.248 NA
HETATM   11 CL11 UNL     1     -31.164   4.134  -0.084  1.00 20.00    -0.062 Cl
ENDROOT
TORSDOF 0
ENDMDL
MODEL 5
REMARK VINA RESULT:       1.4      3.020      4.418
REMARK  0 active torsions:
REMARK  status: ('A' for Active; 'I' for Inactive)
ROOT
HETATM    1  C1  UNL     1     -32.812   4.380   3.084  1.00 20.00     0.052 A 
HETATM    2  C2  UNL     1     -34.803   5.846   4.234  1.00 20.00     0.126 A 
HETATM    3  C3  UNL     1     -32.924   5.735   2.761  1.00 20.00    -0.047 A 
HETATM    4  C4  UNL     1     -33.956   6.491   3.335  1.00 20.00    -0.034 A 
HETATM    5  C5  UNL     1     -33.718   3.839   3.983  1.00 20.00     0.126 A 
HETATM    6  C6  UNL     1     -31.972   6.339   1.760  1.00 20.00     0.039 C 
HETATM    7  C7  UNL     1     -34.124   7.958   3.054  1.00 20.00     0.040 C 
HETATM    8  C8  UNL     1     -31.959   7.867   1.790  1.00 20.00     0.005 C 
HETATM    9  C9  UNL     1     -33.381   8.414   1.799  1.00 20.00     0.005 C 
HETATM   10  N10 UNL     1     -34.710   4.540   4.570  1.00 20.00    -0.248 NA
HETATM   11 CL11 UNL     1     -33.641   2.185   4.430  1.00 20.00    -0.062 Cl
ENDROOT
TORSDOF 0
ENDMDL
MODEL 6
REMARK VINA RESULT:       1.8      2.500      4.116
REMARK  0 active torsions:
REMARK  status: ('A' for Active; 'I' for Inactive)
ROOT
HETATM    1  C1  UNL     1     -34.153   7.410   3.261  1.00 20.00     0.052 A 
HETATM    2  C2  UNL     1     -32.621   5.633   1.871  1.00 20.00     0.126 A 
HETATM    3  C3  UNL     1     -33.258   7.896   2.303  1.00 20.00    -0.047 A 
HETATM    4  C4  UNL     1     -32.455   6.989   1.597  1.00 20.00    -0.034 A 
HETATM    5  C5  UNL     1     -34.228   6.041   3.459  1.00 20.00     0.126 A 
HETATM    6  C6  UNL     1     -33.133   9.383   2.093  1.00 20.00     0.039 C 
HETATM    7  C7  UNL     1     -31.488   7.436   0.537  1.00 20.00     0.040 C 
HETATM    8  C8  UNL     1     -32.425   9.748   0.789  1.00 20.00     0.005 C 
HETATM    9  C9  UNL     1     -31.154   8.924   0.621  1.00 20.00     0.005 C 
HETATM   10  N10 UNL     1     -33.486   5.137   2.784  1.00 20.00    -0.248 NA
HETATM   11 CL11 UNL     1     -35.306   5.370   4.613  1.00 20.00    -0.062 Cl
ENDROOT
TORSDOF 0
ENDMDL
MODEL 7
REMARK VINA RESULT:       2.1      1.199      2.225
REMARK  0 active torsions:
REMARK  status: ('A' for Active; 'I' for Inactive)
ROOT
HETATM    1  C1  UNL     1     -32.123   6.609   1.753  1.00 20.00     0.052 A 
HETATM    2  C2  UNL     1     -33.994   8.115   3.043  1.00 20.00     0.126 A 
HETATM    3  C3  UNL     1     -33.012   5.976   2.626  1.00 20.00    -0.047 A 
HETATM    4  C4  UNL     1     -33.965   6.747   3.307  1.00 20.00    -0.034 A 
HETATM    5  C5  UNL     1     -32.235   7.979   1.575  1.00 20.00     0.126 A 
HETATM    6  C6  UNL     1     -32.888   4.493   2.863  1.00 20.00     0.039 C 
HETATM    7  C7  UNL     1     -34.968   6.133   4.243  1.00 20.00     0.040 C 
HETATM    8  C8  UNL     1     -34.126   3.884   3.520  1.00 20.00     0.005 C 
HETATM    9  C9  UNL     1     -34.575   4.731   4.704  1.00 20.00     0.005 C 
HETATM   10  N10 UNL     1     -33.152   8.749   2.196  1.00 20.00    -0.248 NA
HETATM   11 CL11 UNL     1     -31.182   8.824   0.516  1.00 20.00    -0.062 Cl
ENDROOT
TORSDOF 0
ENDMDL
MODEL 8
REMARK VINA RESULT:       3.6      2.631      3.897
REMARK  0 active torsions:
REMARK  status: ('A' for Active; 'I' for Inactive)
ROOT
HETATM    1  C1  UNL     1     -32.857   8.279   3.918  1.00 20.00     0.052 A 
HETATM    2  C2  UNL     1     -34.456   6.103   3.543  1.00 20.00     0.126 A 
HETATM    3  C3  UNL     1     -32.645   7.472   2.796  1.00 20.00    -0.047 A 
HETATM    4  C4  UNL     1     -33.452   6.341   2.607  1.00 20.00    -0.034 A 
HETATM    5  C5  UNL     1     -33.879   7.941   4.790  1.00 20.00     0.126 A 
HETATM    6  C6  UNL     1     -31.517   7.799   1.851  1.00 20.00     0.039 C 
HETATM    7  C7  UNL     1     -33.298   5.440   1.413  1.00 20.00     0.040 C 
HETATM    8  C8  UNL     1     -31.637   7.086   0.505  1.00 20.00     0.005 C 
HETATM    9  C9  UNL     1     -31.953   5.609   0.707  1.00 20.00     0.005 C 
HETATM   10  N10 UNL     1     -34.688   6.873   4.629  1.00 20.00    -0.248 NA
HETATM   11 CL11 UNL     1     -34.202   8.886   6.186  1.00 20.00    -0.062 Cl
ENDROOT
TORSDOF 0
ENDMDL
