MODEL 1
REMARK VINA RESULT:      -1.6      0.000      0.000
REMARK  2 active torsions:
REMARK  status: ('A' for Active; 'I' for Inactive)
REMARK    1  A    between atoms: C5_5  and  C6_6 
REMARK    2  A    between atoms: C6_6  and  C7_7 
ROOT
HETATM    1  C1  UNL     1     -32.730   5.574   1.501  1.00 20.00     0.012 C 
HETATM    2  C6  UNL     1     -33.334   6.866   2.083  1.00 20.00     0.002 C 
ENDROOT
BRANCH   2   3
HETATM    3  C5  UNL     1     -32.241   7.951   2.201  1.00 20.00     0.119 C 
HETATM    4 CL8  UNL     1     -32.280   9.102   0.833  1.00 20.00    -0.130 Cl
ENDBRANCH   2   3
BRANCH   2   5
HETATM    5  C7  UNL     1     -34.100   6.632   3.442  1.00 20.00    -0.047 C 
HETATM    6  C2  UNL     1     -33.854   5.195   3.957  1.00 20.00     0.015 C 
HETATM    7  C3  UNL     1     -35.626   6.782   3.240  1.00 20.00     0.015 C 
HETATM    8  C4  UNL     1     -33.661   7.619   4.540  1.00 20.00     0.015 C 
ENDBRANCH   2   5
TORSDOF 2
ENDMDL
MODEL 2
REMARK VINA RESULT:      -1.6      0.036      1.534
REMARK  2 active torsions:
REMARK  status: ('A' for Active; 'I' for Inactive)
REMARK    1  A    between atoms: C5_5  and  C6_6 
REMARK    2  A    between atoms: C6_6  and  C7_7 
ROOT
HETATM    1  C1  UNL     1     -32.726   5.569   1.488  1.00 20.00     0.012 C 
HETATM    2  C6  UNL     1     -33.344   6.847   2.087  1.00 20.00     0.002 C 
ENDROOT
BRANCH   2   3
HETATM    3  C5  UNL     1     -32.261   7.939   2.229  1.00 20.00     0.119 C 
HETATM    4 CL8  UNL     1     -32.276   9.089   0.860  1.00 20.00    -0.130 Cl
ENDBRANCH   2   3
BRANCH   2   5
HETATM    5  C7  UNL     1     -34.117   6.585   3.438  1.00 20.00    -0.047 C 
HETATM    6  C2  UNL     1     -35.635   6.796   3.237  1.00 20.00     0.015 C 
HETATM    7  C3  UNL     1     -33.665   7.584   4.527  1.00 20.00     0.015 C 
HETATM    8  C4  UNL     1     -33.896   5.158   3.973  1.00 20.00     0.015 C 
ENDBRANCH   2   5
TORSDOF 2
ENDMDL
MODEL 3
REMARK VINA RESULT:      -1.6      0.033      1.522
REMARK  2 active torsions:
REMARK  status: ('A' for Active; 'I' for Inactive)
REMARK    1  A    between atoms: C5_5  and  C6_6 
REMARK    2  A    between atoms: C6_6  and  C7_7 
ROOT
HETATM    1  C1  UNL     1     -32.712   5.572   1.479  1.00 20.00     0.012 C 
HETATM    2  C6  UNL     1     -33.331   6.855   2.066  1.00 20.00     0.002 C 
ENDROOT
BRANCH   2   3
HETATM    3  C5  UNL     1     -32.248   7.948   2.202  1.00 20.00     0.119 C 
HETATM    4 CL8  UNL     1     -32.278   9.104   0.838  1.00 20.00    -0.130 Cl
ENDBRANCH   2   3
BRANCH   2   5
HETATM    5  C7  UNL     1     -34.107   6.604   3.417  1.00 20.00    -0.047 C 
HETATM    6  C2  UNL     1     -33.615   7.582   4.508  1.00 20.00     0.015 C 
HETATM    7  C3  UNL     1     -33.841   5.175   3.941  1.00 20.00     0.015 C 
HETATM    8  C4  UNL     1     -35.629   6.784   3.261  1.00 20.00     0.015 C 
ENDBRANCH   2   5
TORSDOF 2
ENDMDL
MODEL 4
REMARK VINA RESULT:      -1.0      2.238      3.751
REMARK  2 active torsions:
REMARK  status: ('A' for Active; 'I' for Inactive)
REMARK    1  A    between atoms: C5_5  and  C6_6 
REMARK    2  A    between atoms: C6_6  and  C7_7 
ROOT
HETATM    1  C1  UNL     1     -33.364   8.184   4.492  1.00 20.00     0.012 C 
HETATM    2  C6  UNL     1     -33.591   7.639   3.068  1.00 20.00     0.002 C 
ENDROOT
BRANCH   2   3
HETATM    3  C5  UNL     1     -34.031   6.160   3.134  1.00 20.00     0.119 C 
HETATM    4 CL8  UNL     1     -35.425   5.916   4.226  1.00 20.00    -0.130 Cl
ENDBRANCH   2   3
BRANCH   2   5
HETATM    5  C7  UNL     1     -32.350   7.857   2.118  1.00 20.00    -0.047 C 
HETATM    6  C2  UNL     1     -31.942   6.523   1.453  1.00 20.00     0.015 C 
HETATM    7  C3  UNL     1     -31.126   8.349   2.924  1.00 20.00     0.015 C 
HETATM    8  C4  UNL     1     -32.637   8.882   1.005  1.00 20.00     0.015 C 
ENDBRANCH   2   5
TORSDOF 2
ENDMDL
MODEL 5
REMARK VINA RESULT:      -0.9      2.237      3.761
REMARK  2 active torsions:
REMARK  status: ('A' for Active; 'I' for Inactive)
REMARK    1  A    between atoms: C5_5  and  C6_6 
REMARK    2  A    between atoms: C6_6  and  C7_7 
ROOT
HETATM    1  C1  UNL     1     -33.369   8.184   4.509  1.00 20.00     0.012 C 
HETATM    2  C6  UNL     1     -33.585   7.645   3.082  1.00 20.00     0.002 C 
ENDROOT
BRANCH   2   3
HETATM    3  C5  UNL     1     -34.043   6.171   3.140  1.00 20.00     0.119 C 
HETATM    4 CL8  UNL     1     -35.431   5.936   4.242  1.00 20.00    -0.130 Cl
ENDBRANCH   2   3
BRANCH   2   5
HETATM    5  C7  UNL     1     -32.329   7.849   2.149  1.00 20.00    -0.047 C 
HETATM    6  C2  UNL     1     -32.651   8.869   1.032  1.00 20.00     0.015 C 
HETATM    7  C3  UNL     1     -31.949   6.524   1.449  1.00 20.00     0.015 C 
HETATM    8  C4  UNL     1     -31.098   8.355   2.923  1.00 20.00     0.015 C 
ENDBRANCH   2   5
TORSDOF 2
ENDMDL
MODEL 6
REMARK VINA RESULT:      -0.9      2.237      3.767
REMARK  2 active torsions:
REMARK  status: ('A' for Active; 'I' for Inactive)
REMARK    1  A    between atoms: C5_5  and  C6_6 
REMARK    2  A    between atoms: C6_6  and  C7_7 
ROOT
HETATM    1  C1  UNL     1     -33.344   8.173   4.489  1.00 20.00     0.012 C 
HETATM    2  C6  UNL     1     -33.580   7.621   3.070  1.00 20.00     0.002 C 
ENDROOT
BRANCH   2   3
HETATM    3  C5  UNL     1     -34.036   6.148   3.146  1.00 20.00     0.119 C 
HETATM    4 CL8  UNL     1     -35.444   5.929   4.226  1.00 20.00    -0.130 Cl
ENDBRANCH   2   3
BRANCH   2   5
HETATM    5  C7  UNL     1     -32.338   7.820   2.116  1.00 20.00    -0.047 C 
HETATM    6  C2  UNL     1     -31.127   8.352   2.916  1.00 20.00     0.015 C 
HETATM    7  C3  UNL     1     -32.652   8.869   1.025  1.00 20.00     0.015 C 
HETATM    8  C4  UNL     1     -31.918   6.512   1.420  1.00 20.00     0.015 C 
ENDBRANCH   2   5
TORSDOF 2
ENDMDL
MODEL 7
REMARK VINA RESULT:      -0.5      2.438      3.788
REMARK  2 active torsions:
REMARK  status: ('A' for Active; 'I' for Inactive)
REMARK    1  A    between atoms: C5_5  and  C6_6 
REMARK    2  A    between atoms: C6_6  and  C7_7 
ROOT
HETATM    1  C1  UNL     1     -33.748   7.594   3.904  1.00 20.00     0.012 C 
HETATM    2  C6  UNL     1     -33.930   6.457   2.882  1.00 20.00     0.002 C 
ENDROOT
BRANCH   2   3
HETATM    3  C5  UNL     1     -33.949   5.094   3.608  1.00 20.00     0.119 C 
HETATM    4 CL8  UNL     1     -35.377   4.911   4.667  1.00 20.00    -0.130 Cl
ENDBRANCH   2   3
BRANCH   2   5
HETATM    5  C7  UNL     1     -32.870   6.502   1.713  1.00 20.00    -0.047 C 
HETATM    6  C2  UNL     1     -33.578   6.387   0.343  1.00 20.00     0.015 C 
HETATM    7  C3  UNL     1     -31.894   5.309   1.815  1.00 20.00     0.015 C 
HETATM    8  C4  UNL     1     -32.044   7.802   1.720  1.00 20.00     0.015 C 
ENDBRANCH   2   5
TORSDOF 2
ENDMDL
MODEL 8
REMARK VINA RESULT:      -0.5      2.653      3.264
REMARK  2 active torsions:
REMARK  status: ('A' for Active; 'I' for Inactive)
REMARK    1  A    between atoms: C5_5  and  C6_6 
REMARK    2  A    between atoms: C6_6  and  C7_7 
ROOT
HETATM    1  C1  UNL     1     -32.782   5.357   1.892  1.00 20.00     0.012 C 
HETATM    2  C6  UNL     1     -33.255   5.553   3.345  1.00 20.00     0.002 C 
ENDROOT
BRANCH   2   3
HETATM    3  C5  UNL     1     -34.134   4.359   3.779  1.00 20.00     0.119 C 
HETATM    4 CL8  UNL     1     -33.218   3.154   4.731  1.00 20.00    -0.130 Cl
ENDBRANCH   2   3
BRANCH   2   5
HETATM    5  C7  UNL     1     -33.965   6.942   3.582  1.00 20.00    -0.047 C 
HETATM    6  C2  UNL     1     -35.499   6.757   3.642  1.00 20.00     0.015 C 
HETATM    7  C3  UNL     1     -33.675   7.909   2.412  1.00 20.00     0.015 C 
HETATM    8  C4  UNL     1     -33.510   7.618   4.889  1.00 20.00     0.015 C 
ENDBRANCH   2   5
TORSDOF 2
ENDMDL
MODEL 9
REMARK VINA RESULT:      -0.4      2.647      3.474
REMARK  2 active torsions:
REMARK  status: ('A' for Active; 'I' for Inactive)
REMARK    1  A    between atoms: C5_5  and  C6_6 
REMARK    2  A    between atoms: C6_6  and  C7_7 
ROOT
HETATM    1  C1  UNL     1     -32.756   5.350   1.890  1.00 20.00     0.012 C 
HETATM    2  C6  UNL     1     -33.252   5.549   3.334  1.00 20.00     0.002 C 
ENDROOT
BRANCH   2   3
HETATM    3  C5  UNL     1     -34.121   4.347   3.764  1.00 20.00     0.119 C 
HETATM    4 CL8  UNL     1     -33.199   3.156   4.728  1.00 20.00    -0.130 Cl
ENDBRANCH   2   3
BRANCH   2   5
HETATM    5  C7  UNL     1     -33.986   6.930   3.550  1.00 20.00    -0.047 C 
HETATM    6  C2  UNL     1     -33.633   7.909   2.407  1.00 20.00     0.015 C 
HETATM    7  C3  UNL     1     -33.522   7.593   4.867  1.00 20.00     0.015 C 
HETATM    8  C4  UNL     1     -35.517   6.780   3.600  1.00 20.00     0.015 C 
ENDBRANCH   2   5
TORSDOF 2
ENDMDL
