MODEL 1
REMARK VINA RESULT:       4.9      0.000      0.000
REMARK  0 active torsions:
REMARK  status: ('A' for Active; 'I' for Inactive)
ROOT
HETATM    1  C1  UNL     1     -31.447   6.981   1.674  1.00 20.00     0.001 C 
HETATM    2  C2  UNL     1     -32.286   7.989   2.007  1.00 20.00     0.001 C 
HETATM    3  C3  UNL     1     -33.909   4.016   4.197  1.00 20.00     0.001 C 
HETATM    4  C4  UNL     1     -34.823   5.116   4.561  1.00 20.00     0.001 C 
HETATM    5  C5  UNL     1     -33.017   3.924   3.184  1.00 20.00     0.009 C 
HETATM    6  C6  UNL     1     -35.010   6.322   3.979  1.00 20.00     0.009 C 
HETATM    7  C7  UNL     1     -31.603   5.591   2.104  1.00 20.00     0.009 C 
HETATM    8  C8  UNL     1     -33.474   7.840   2.847  1.00 20.00     0.009 C 
HETATM    9  C9  UNL     1     -32.807   4.982   2.203  1.00 20.00    -0.039 C 
HETATM   10  C10 UNL     1     -34.285   6.760   2.791  1.00 20.00    -0.039 C 
HETATM   11  C11 UNL     1     -34.090   5.648   1.801  1.00 20.00     0.123 C 
HETATM   12 BR12 UNL     1     -34.186   6.185  -0.064  1.00 20.00    -0.081 Br
ENDROOT
TORSDOF 0
ENDMDL
MODEL 2
REMARK VINA RESULT:       5.9      1.650      2.189
REMARK  0 active torsions:
REMARK  status: ('A' for Active; 'I' for Inactive)
ROOT
HETATM    1  C1  UNL     1     -30.636   8.489   2.731  1.00 20.00     0.001 C 
HETATM    2  C2  UNL     1     -31.320   9.039   3.761  1.00 20.00     0.001 C 
HETATM    3  C3  UNL     1     -33.788   5.154   2.332  1.00 20.00     0.001 C 
HETATM    4  C4  UNL     1     -34.534   5.753   3.456  1.00 20.00     0.001 C 
HETATM    5  C5  UNL     1     -32.832   5.690   1.537  1.00 20.00     0.009 C 
HETATM    6  C6  UNL     1     -34.459   6.994   3.988  1.00 20.00     0.009 C 
HETATM    7  C7  UNL     1     -31.063   7.307   1.983  1.00 20.00     0.009 C 
HETATM    8  C8  UNL     1     -32.591   8.532   4.280  1.00 20.00     0.009 C 
HETATM    9  C9  UNL     1     -32.356   7.062   1.671  1.00 20.00    -0.039 C 
HETATM   10  C10 UNL     1     -33.562   8.029   3.486  1.00 20.00    -0.039 C 
HETATM   11  C11 UNL     1     -33.466   8.020   1.988  1.00 20.00     0.123 C 
HETATM   12 BR12 UNL     1     -33.293   9.774   1.168  1.00 20.00    -0.081 Br
ENDROOT
TORSDOF 0
ENDMDL
MODEL 3
REMARK VINA RESULT:       6.0      1.032      3.015
REMARK  0 active torsions:
REMARK  status: ('A' for Active; 'I' for Inactive)
ROOT
HETATM    1  C1  UNL     1     -32.557   3.975   2.336  1.00 20.00     0.001 C 
HETATM    2  C2  UNL     1     -31.592   4.567   1.595  1.00 20.00     0.001 C 
HETATM    3  C3  UNL     1     -33.804   8.049   4.087  1.00 20.00     0.001 C 
HETATM    4  C4  UNL     1     -32.752   8.695   3.279  1.00 20.00     0.001 C 
HETATM    5  C5  UNL     1     -34.377   6.829   3.956  1.00 20.00     0.009 C 
HETATM    6  C6  UNL     1     -32.082   8.240   2.196  1.00 20.00     0.009 C 
HETATM    7  C7  UNL     1     -33.487   4.684   3.214  1.00 20.00     0.009 C 
HETATM    8  C8  UNL     1     -31.335   6.007   1.562  1.00 20.00     0.009 C 
HETATM    9  C9  UNL     1     -34.022   5.886   2.902  1.00 20.00    -0.039 C 
HETATM   10  C10 UNL     1     -32.322   6.932   1.596  1.00 20.00    -0.039 C 
HETATM   11  C11 UNL     1     -33.778   6.568   1.588  1.00 20.00     0.123 C 
HETATM   12 BR12 UNL     1     -34.364   5.571   0.026  1.00 20.00    -0.081 Br
ENDROOT
TORSDOF 0
ENDMDL
MODEL 4
REMARK VINA RESULT:       6.3      1.747      2.849
REMARK  0 active torsions:
REMARK  status: ('A' for Active; 'I' for Inactive)
ROOT
HETATM    1  C1  UNL     1     -31.959   5.921   0.982  1.00 20.00     0.001 C 
HETATM    2  C2  UNL     1     -30.895   6.677   1.336  1.00 20.00     0.001 C 
HETATM    3  C3  UNL     1     -34.347   7.470   4.604  1.00 20.00     0.001 C 
HETATM    4  C4  UNL     1     -33.186   8.294   4.991  1.00 20.00     0.001 C 
HETATM    5  C5  UNL     1     -34.645   6.887   3.419  1.00 20.00     0.009 C 
HETATM    6  C6  UNL     1     -32.113   8.684   4.265  1.00 20.00     0.009 C 
HETATM    7  C7  UNL     1     -33.237   5.895   1.694  1.00 20.00     0.009 C 
HETATM    8  C8  UNL     1     -30.863   7.582   2.485  1.00 20.00     0.009 C 
HETATM    9  C9  UNL     1     -33.800   6.998   2.236  1.00 20.00    -0.039 C 
HETATM   10  C10 UNL     1     -31.924   8.331   2.862  1.00 20.00    -0.039 C 
HETATM   11  C11 UNL     1     -33.209   8.369   2.087  1.00 20.00     0.123 C 
HETATM   12 BR12 UNL     1     -33.042   8.995   0.255  1.00 20.00    -0.081 Br
ENDROOT
TORSDOF 0
ENDMDL
MODEL 5
REMARK VINA RESULT:       6.4      1.324      3.819
REMARK  0 active torsions:
REMARK  status: ('A' for Active; 'I' for Inactive)
ROOT
HETATM    1  C1  UNL     1     -34.717   6.214   5.205  1.00 20.00     0.001 C 
HETATM    2  C2  UNL     1     -34.715   5.002   4.604  1.00 20.00     0.001 C 
HETATM    3  C3  UNL     1     -31.844   7.875   2.009  1.00 20.00     0.001 C 
HETATM    4  C4  UNL     1     -31.841   6.552   1.355  1.00 20.00     0.001 C 
HETATM    5  C5  UNL     1     -32.712   8.401   2.906  1.00 20.00     0.009 C 
HETATM    6  C6  UNL     1     -32.702   5.517   1.478  1.00 20.00     0.009 C 
HETATM    7  C7  UNL     1     -33.996   7.389   4.714  1.00 20.00     0.009 C 
HETATM    8  C8  UNL     1     -33.990   4.684   3.373  1.00 20.00     0.009 C 
HETATM    9  C9  UNL     1     -33.884   7.687   3.400  1.00 20.00    -0.039 C 
HETATM   10  C10 UNL     1     -33.878   5.550   2.341  1.00 20.00    -0.039 C 
HETATM   11  C11 UNL     1     -34.558   6.888   2.324  1.00 20.00     0.123 C 
HETATM   12 BR12 UNL     1     -36.497   6.823   2.445  1.00 20.00    -0.081 Br
ENDROOT
TORSDOF 0
ENDMDL
MODEL 6
REMARK VINA RESULT:       6.4      2.068      3.420
REMARK  0 active torsions:
REMARK  status: ('A' for Active; 'I' for Inactive)
ROOT
HETATM    1  C1  UNL     1     -32.978   9.989   1.291  1.00 20.00     0.001 C 
HETATM    2  C2  UNL     1     -32.289   9.266   0.378  1.00 20.00     0.001 C 
HETATM    3  C3  UNL     1     -34.393   6.129   3.370  1.00 20.00     0.001 C 
HETATM    4  C4  UNL     1     -33.641   5.342   2.374  1.00 20.00     0.001 C 
HETATM    5  C5  UNL     1     -34.282   7.434   3.712  1.00 20.00     0.009 C 
HETATM    6  C6  UNL     1     -32.645   5.715   1.540  1.00 20.00     0.009 C 
HETATM    7  C7  UNL     1     -33.736   9.418   2.405  1.00 20.00     0.009 C 
HETATM    8  C8  UNL     1     -32.198   7.806   0.369  1.00 20.00     0.009 C 
HETATM    9  C9  UNL     1     -33.314   8.342   3.106  1.00 20.00    -0.039 C 
HETATM   10  C10 UNL     1     -32.100   7.068   1.497  1.00 20.00    -0.039 C 
HETATM   11  C11 UNL     1     -31.990   7.680   2.863  1.00 20.00     0.123 C 
HETATM   12 BR12 UNL     1     -30.442   8.826   3.125  1.00 20.00    -0.081 Br
ENDROOT
TORSDOF 0
ENDMDL
MODEL 7
REMARK VINA RESULT:       7.2      1.978      3.667
REMARK  0 active torsions:
REMARK  status: ('A' for Active; 'I' for Inactive)
ROOT
HETATM    1  C1  UNL     1     -35.798   6.200   2.948  1.00 20.00     0.001 C 
HETATM    2  C2  UNL     1     -35.543   6.818   4.125  1.00 20.00     0.001 C 
HETATM    3  C3  UNL     1     -31.813   7.725   1.211  1.00 20.00     0.001 C 
HETATM    4  C4  UNL     1     -31.536   8.399   2.493  1.00 20.00     0.001 C 
HETATM    5  C5  UNL     1     -32.685   6.730   0.920  1.00 20.00     0.009 C 
HETATM    6  C6  UNL     1     -32.078   8.203   3.716  1.00 20.00     0.009 C 
HETATM    7  C7  UNL     1     -34.896   6.197   1.796  1.00 20.00     0.009 C 
HETATM    8  C8  UNL     1     -34.327   7.576   4.420  1.00 20.00     0.009 C 
HETATM    9  C9  UNL     1     -33.552   6.109   1.915  1.00 20.00    -0.039 C 
HETATM   10  C10 UNL     1     -33.102   7.199   3.988  1.00 20.00    -0.039 C 
HETATM   11  C11 UNL     1     -32.862   5.924   3.234  1.00 20.00     0.123 C 
HETATM   12 BR12 UNL     1     -33.347   4.303   4.191  1.00 20.00    -0.081 Br
ENDROOT
TORSDOF 0
ENDMDL
MODEL 8
REMARK VINA RESULT:       7.4      1.859      2.982
REMARK  0 active torsions:
REMARK  status: ('A' for Active; 'I' for Inactive)
ROOT
HETATM    1  C1  UNL     1     -31.662   8.922   4.129  1.00 20.00     0.001 C 
HETATM    2  C2  UNL     1     -32.902   8.617   4.579  1.00 20.00     0.001 C 
HETATM    3  C3  UNL     1     -31.848   5.471   1.083  1.00 20.00     0.001 C 
HETATM    4  C4  UNL     1     -33.200   5.138   1.574  1.00 20.00     0.001 C 
HETATM    5  C5  UNL     1     -31.126   6.607   1.224  1.00 20.00     0.009 C 
HETATM    6  C6  UNL     1     -34.073   5.880   2.293  1.00 20.00     0.009 C 
HETATM    7  C7  UNL     1     -30.977   8.226   3.040  1.00 20.00     0.009 C 
HETATM    8  C8  UNL     1     -33.742   7.546   4.041  1.00 20.00     0.009 C 
HETATM    9  C9  UNL     1     -31.615   7.784   1.933  1.00 20.00    -0.039 C 
HETATM   10  C10 UNL     1     -33.799   7.246   2.724  1.00 20.00    -0.039 C 
HETATM   11  C11 UNL     1     -33.071   8.038   1.677  1.00 20.00     0.123 C 
HETATM   12 BR12 UNL     1     -33.570   9.914   1.574  1.00 20.00    -0.081 Br
ENDROOT
TORSDOF 0
ENDMDL
MODEL 9
REMARK VINA RESULT:       7.7      1.753      2.782
REMARK  0 active torsions:
REMARK  status: ('A' for Active; 'I' for Inactive)
ROOT
HETATM    1  C1  UNL     1     -32.468   7.890   0.142  1.00 20.00     0.001 C 
HETATM    2  C2  UNL     1     -33.445   6.979  -0.073  1.00 20.00     0.001 C 
HETATM    3  C3  UNL     1     -33.500   8.031   4.629  1.00 20.00     0.001 C 
HETATM    4  C4  UNL     1     -34.566   7.038   4.394  1.00 20.00     0.001 C 
HETATM    5  C5  UNL     1     -32.431   8.359   3.866  1.00 20.00     0.009 C 
HETATM    6  C6  UNL     1     -34.757   6.194   3.355  1.00 20.00     0.009 C 
HETATM    7  C7  UNL     1     -32.125   8.451   1.449  1.00 20.00     0.009 C 
HETATM    8  C8  UNL     1     -34.305   6.419   0.969  1.00 20.00     0.009 C 
HETATM    9  C9  UNL     1     -32.134   7.722   2.588  1.00 20.00    -0.039 C 
HETATM   10  C10 UNL     1     -33.857   6.117   2.209  1.00 20.00    -0.039 C 
HETATM   11  C11 UNL     1     -32.416   6.249   2.608  1.00 20.00     0.123 C 
HETATM   12 BR12 UNL     1     -31.177   5.164   1.575  1.00 20.00    -0.081 Br
ENDROOT
TORSDOF 0
ENDMDL
