MODEL 1
REMARK VINA RESULT:      -2.8      0.000      0.000
REMARK  2 active torsions:
REMARK  status: ('A' for Active; 'I' for Inactive)
REMARK    1  A    between atoms: C2_2  and  C3_3 
REMARK    2  A    between atoms: C3_3  and  C7_7 
ROOT
HETATM    1  C3  UNL     1     -32.041   8.084   1.476  1.00 20.00     0.255 C 
HETATM    2  O8  UNL     1     -31.486   7.011   1.261  1.00 20.00    -0.283 OA
ENDROOT
BRANCH   1   3
HETATM    3  C2  UNL     1     -32.715   8.385   2.768  1.00 20.00     0.062 C 
HETATM    4  C1  UNL     1     -33.518   7.491   3.346  1.00 20.00    -0.076 C 
HETATM    5  C4  UNL     1     -34.327   7.498   4.625  1.00 20.00     0.034 C 
HETATM    6  C5  UNL     1     -33.950   6.091   2.969  1.00 20.00     0.034 C 
HETATM    7  C6  UNL     1     -35.108   6.347   3.957  1.00 20.00     0.009 C 
ENDBRANCH   1   3
BRANCH   1   8
HETATM    8  C7  UNL     1     -32.077   9.173   0.443  1.00 20.00     0.455 C 
HETATM    9  F9  UNL     1     -32.341  10.386   0.994  1.00 20.00    -0.163 F 
HETATM   10  F10 UNL     1     -30.896   9.288  -0.215  1.00 20.00    -0.163 F 
HETATM   11  F11 UNL     1     -33.030   8.954  -0.497  1.00 20.00    -0.163 F 
ENDBRANCH   1   8
TORSDOF 2
ENDMDL
MODEL 2
REMARK VINA RESULT:      -2.3      3.303      4.596
REMARK  2 active torsions:
REMARK  status: ('A' for Active; 'I' for Inactive)
REMARK    1  A    between atoms: C2_2  and  C3_3 
REMARK    2  A    between atoms: C3_3  and  C7_7 
ROOT
HETATM    1  C3  UNL     1     -33.916   5.435   3.307  1.00 20.00     0.255 C 
HETATM    2  O8  UNL     1     -33.511   4.439   3.900  1.00 20.00    -0.283 OA
ENDROOT
BRANCH   1   3
HETATM    3  C2  UNL     1     -33.362   5.854   1.991  1.00 20.00     0.062 C 
HETATM    4  C1  UNL     1     -32.637   6.967   1.877  1.00 20.00    -0.076 C 
HETATM    5  C4  UNL     1     -31.954   7.643   0.708  1.00 20.00     0.034 C 
HETATM    6  C5  UNL     1     -32.183   8.014   2.870  1.00 20.00     0.034 C 
HETATM    7  C6  UNL     1     -31.972   8.890   1.617  1.00 20.00     0.009 C 
ENDBRANCH   1   3
BRANCH   1   8
HETATM    8  C7  UNL     1     -35.005   6.299   3.872  1.00 20.00     0.455 C 
HETATM    9  F9  UNL     1     -35.767   5.630   4.775  1.00 20.00    -0.163 F 
HETATM   10  F10 UNL     1     -34.509   7.391   4.508  1.00 20.00    -0.163 F 
HETATM   11  F11 UNL     1     -35.846   6.755   2.910  1.00 20.00    -0.163 F 
ENDBRANCH   1   8
TORSDOF 2
ENDMDL
MODEL 3
REMARK VINA RESULT:      -2.1      0.961      1.349
REMARK  2 active torsions:
REMARK  status: ('A' for Active; 'I' for Inactive)
REMARK    1  A    between atoms: C2_2  and  C3_3 
REMARK    2  A    between atoms: C3_3  and  C7_7 
ROOT
HETATM    1  C3  UNL     1     -31.884   8.265   1.886  1.00 20.00     0.255 C 
HETATM    2  O8  UNL     1     -31.256   8.720   2.836  1.00 20.00    -0.283 OA
ENDROOT
BRANCH   1   3
HETATM    3  C2  UNL     1     -32.514   6.917   1.924  1.00 20.00     0.062 C 
HETATM    4  C1  UNL     1     -33.533   6.659   2.745  1.00 20.00    -0.076 C 
HETATM    5  C4  UNL     1     -34.363   5.423   3.009  1.00 20.00     0.034 C 
HETATM    6  C5  UNL     1     -34.291   7.500   3.748  1.00 20.00     0.034 C 
HETATM    7  C6  UNL     1     -34.729   6.138   4.327  1.00 20.00     0.009 C 
ENDBRANCH   1   3
BRANCH   1   8
HETATM    8  C7  UNL     1     -32.062   9.041   0.614  1.00 20.00     0.455 C 
HETATM    9  F9  UNL     1     -32.346  10.348   0.853  1.00 20.00    -0.163 F 
HETATM   10  F10 UNL     1     -30.946   9.016  -0.158  1.00 20.00    -0.163 F 
HETATM   11  F11 UNL     1     -33.075   8.553  -0.146  1.00 20.00    -0.163 F 
ENDBRANCH   1   8
TORSDOF 2
ENDMDL
MODEL 4
REMARK VINA RESULT:      -2.1      0.961      1.766
REMARK  2 active torsions:
REMARK  status: ('A' for Active; 'I' for Inactive)
REMARK    1  A    between atoms: C2_2  and  C3_3 
REMARK    2  A    between atoms: C3_3  and  C7_7 
ROOT
HETATM    1  C3  UNL     1     -31.884   8.266   1.886  1.00 20.00     0.255 C 
HETATM    2  O8  UNL     1     -31.255   8.721   2.836  1.00 20.00    -0.283 OA
ENDROOT
BRANCH   1   3
HETATM    3  C2  UNL     1     -32.512   6.917   1.923  1.00 20.00     0.062 C 
HETATM    4  C1  UNL     1     -33.532   6.659   2.744  1.00 20.00    -0.076 C 
HETATM    5  C4  UNL     1     -34.361   5.422   3.008  1.00 20.00     0.034 C 
HETATM    6  C5  UNL     1     -34.291   7.499   3.746  1.00 20.00     0.034 C 
HETATM    7  C6  UNL     1     -34.728   6.137   4.326  1.00 20.00     0.009 C 
ENDBRANCH   1   3
BRANCH   1   8
HETATM    8  C7  UNL     1     -32.063   9.043   0.615  1.00 20.00     0.455 C 
HETATM    9  F9  UNL     1     -30.946   9.018  -0.158  1.00 20.00    -0.163 F 
HETATM   10  F10 UNL     1     -33.077   8.552  -0.143  1.00 20.00    -0.163 F 
HETATM   11  F11 UNL     1     -32.347  10.349   0.850  1.00 20.00    -0.163 F 
ENDBRANCH   1   8
TORSDOF 2
ENDMDL
MODEL 5
REMARK VINA RESULT:      -2.0      3.055      4.596
REMARK  2 active torsions:
REMARK  status: ('A' for Active; 'I' for Inactive)
REMARK    1  A    between atoms: C2_2  and  C3_3 
REMARK    2  A    between atoms: C3_3  and  C7_7 
ROOT
HETATM    1  C3  UNL     1     -33.125   7.506   3.492  1.00 20.00     0.255 C 
HETATM    2  O8  UNL     1     -32.809   8.257   4.410  1.00 20.00    -0.283 OA
ENDROOT
BRANCH   1   3
HETATM    3  C2  UNL     1     -32.348   7.430   2.226  1.00 20.00     0.062 C 
HETATM    4  C1  UNL     1     -32.257   8.484   1.414  1.00 20.00    -0.076 C 
HETATM    5  C4  UNL     1     -31.561   8.716   0.091  1.00 20.00     0.034 C 
HETATM    6  C5  UNL     1     -32.803   9.893   1.481  1.00 20.00     0.034 C 
HETATM    7  C6  UNL     1     -32.534   9.906  -0.039  1.00 20.00     0.009 C 
ENDBRANCH   1   3
BRANCH   1   8
HETATM    8  C7  UNL     1     -34.323   6.606   3.588  1.00 20.00     0.455 C 
HETATM    9  F9  UNL     1     -33.969   5.299   3.687  1.00 20.00    -0.163 F 
HETATM   10  F10 UNL     1     -35.087   6.891   4.673  1.00 20.00    -0.163 F 
HETATM   11  F11 UNL     1     -35.130   6.713   2.502  1.00 20.00    -0.163 F 
ENDBRANCH   1   8
TORSDOF 2
ENDMDL
MODEL 6
REMARK VINA RESULT:      -2.0      3.052      4.574
REMARK  2 active torsions:
REMARK  status: ('A' for Active; 'I' for Inactive)
REMARK    1  A    between atoms: C2_2  and  C3_3 
REMARK    2  A    between atoms: C3_3  and  C7_7 
ROOT
HETATM    1  C3  UNL     1     -33.121   7.508   3.492  1.00 20.00     0.255 C 
HETATM    2  O8  UNL     1     -32.806   8.261   4.408  1.00 20.00    -0.283 OA
ENDROOT
BRANCH   1   3
HETATM    3  C2  UNL     1     -32.342   7.430   2.226  1.00 20.00     0.062 C 
HETATM    4  C1  UNL     1     -32.249   8.482   1.412  1.00 20.00    -0.076 C 
HETATM    5  C4  UNL     1     -31.551   8.711   0.090  1.00 20.00     0.034 C 
HETATM    6  C5  UNL     1     -32.796   9.891   1.475  1.00 20.00     0.034 C 
HETATM    7  C6  UNL     1     -32.525   9.901  -0.044  1.00 20.00     0.009 C 
ENDBRANCH   1   3
BRANCH   1   8
HETATM    8  C7  UNL     1     -34.319   6.610   3.587  1.00 20.00     0.455 C 
HETATM    9  F9  UNL     1     -35.130   6.729   2.504  1.00 20.00    -0.163 F 
HETATM   10  F10 UNL     1     -33.968   5.302   3.673  1.00 20.00    -0.163 F 
HETATM   11  F11 UNL     1     -35.078   6.885   4.677  1.00 20.00    -0.163 F 
ENDBRANCH   1   8
TORSDOF 2
ENDMDL
MODEL 7
REMARK VINA RESULT:      -1.9      3.090      4.566
REMARK  2 active torsions:
REMARK  status: ('A' for Active; 'I' for Inactive)
REMARK    1  A    between atoms: C2_2  and  C3_3 
REMARK    2  A    between atoms: C3_3  and  C7_7 
ROOT
HETATM    1  C3  UNL     1     -33.186   7.465   3.528  1.00 20.00     0.255 C 
HETATM    2  O8  UNL     1     -32.907   8.230   4.445  1.00 20.00    -0.283 OA
ENDROOT
BRANCH   1   3
HETATM    3  C2  UNL     1     -32.375   7.390   2.282  1.00 20.00     0.062 C 
HETATM    4  C1  UNL     1     -32.269   8.442   1.469  1.00 20.00    -0.076 C 
HETATM    5  C4  UNL     1     -31.540   8.674   0.165  1.00 20.00     0.034 C 
HETATM    6  C5  UNL     1     -32.827   9.847   1.517  1.00 20.00     0.034 C 
HETATM    7  C6  UNL     1     -32.518   9.857   0.005  1.00 20.00     0.009 C 
ENDBRANCH   1   3
BRANCH   1   8
HETATM    8  C7  UNL     1     -34.370   6.546   3.602  1.00 20.00     0.455 C 
HETATM    9  F9  UNL     1     -35.170   6.833   4.661  1.00 20.00    -0.163 F 
HETATM   10  F10 UNL     1     -35.145   6.625   2.490  1.00 20.00    -0.163 F 
HETATM   11  F11 UNL     1     -34.001   5.246   3.730  1.00 20.00    -0.163 F 
ENDBRANCH   1   8
TORSDOF 2
ENDMDL
MODEL 8
REMARK VINA RESULT:      -1.9      1.071      1.400
REMARK  2 active torsions:
REMARK  status: ('A' for Active; 'I' for Inactive)
REMARK    1  A    between atoms: C2_2  and  C3_3 
REMARK    2  A    between atoms: C3_3  and  C7_7 
ROOT
HETATM    1  C3  UNL     1     -31.962   8.969   1.121  1.00 20.00     0.255 C 
HETATM    2  O8  UNL     1     -31.052   8.274   0.681  1.00 20.00    -0.283 OA
ENDROOT
BRANCH   1   3
HETATM    3  C2  UNL     1     -32.521   8.774   2.487  1.00 20.00     0.062 C 
HETATM    4  C1  UNL     1     -33.003   7.590   2.867  1.00 20.00    -0.076 C 
HETATM    5  C4  UNL     1     -33.622   7.088   4.152  1.00 20.00     0.034 C 
HETATM    6  C5  UNL     1     -33.124   6.251   2.174  1.00 20.00     0.034 C 
HETATM    7  C6  UNL     1     -34.177   5.955   3.263  1.00 20.00     0.009 C 
ENDBRANCH   1   3
BRANCH   1   8
HETATM    8  C7  UNL     1     -32.575  10.072   0.308  1.00 20.00     0.455 C 
HETATM    9  F9  UNL     1     -31.661  11.014  -0.039  1.00 20.00    -0.163 F 
HETATM   10  F10 UNL     1     -33.121   9.609  -0.845  1.00 20.00    -0.163 F 
HETATM   11  F11 UNL     1     -33.564  10.713   0.980  1.00 20.00    -0.163 F 
ENDBRANCH   1   8
TORSDOF 2
ENDMDL
MODEL 9
REMARK VINA RESULT:      -1.8      1.461      1.783
REMARK  2 active torsions:
REMARK  status: ('A' for Active; 'I' for Inactive)
REMARK    1  A    between atoms: C2_2  and  C3_3 
REMARK    2  A    between atoms: C3_3  and  C7_7 
ROOT
HETATM    1  C3  UNL     1     -32.663   6.937   1.786  1.00 20.00     0.255 C 
HETATM    2  O8  UNL     1     -32.339   5.868   1.278  1.00 20.00    -0.283 OA
ENDROOT
BRANCH   1   3
HETATM    3  C2  UNL     1     -33.897   7.085   2.604  1.00 20.00     0.062 C 
HETATM    4  C1  UNL     1     -34.247   6.152   3.491  1.00 20.00    -0.076 C 
HETATM    5  C4  UNL     1     -35.412   6.017   4.446  1.00 20.00     0.034 C 
HETATM    6  C5  UNL     1     -33.621   4.843   3.918  1.00 20.00     0.034 C 
HETATM    7  C6  UNL     1     -35.032   4.521   4.456  1.00 20.00     0.009 C 
ENDBRANCH   1   3
BRANCH   1   8
HETATM    8  C7  UNL     1     -31.829   8.174   1.617  1.00 20.00     0.455 C 
HETATM    9  F9  UNL     1     -31.191   8.517   2.765  1.00 20.00    -0.163 F 
HETATM   10  F10 UNL     1     -30.873   8.016   0.667  1.00 20.00    -0.163 F 
HETATM   11  F11 UNL     1     -32.576   9.246   1.248  1.00 20.00    -0.163 F 
ENDBRANCH   1   8
TORSDOF 2
ENDMDL
