MODEL 1
REMARK VINA RESULT:      -2.9      0.000      0.000
REMARK  2 active torsions:
REMARK  status: ('A' for Active; 'I' for Inactive)
REMARK    1  A    between atoms: C3_3  and  C4_4 
REMARK    2  A    between atoms: C3_3  and  C5_5 
ROOT
HETATM    1  C3  UNL     1     -33.216   6.915   2.380  1.00 20.00     0.157 C 
ENDROOT
BRANCH   1   2
HETATM    2  C4  UNL     1     -32.089   7.880   2.024  1.00 20.00     0.245 C 
HETATM    3  C1  UNL     1     -32.517   8.939   1.029  1.00 20.00     0.090 C 
HETATM    4  F6  UNL     1     -31.041   7.194   1.503  1.00 20.00    -0.207 F 
HETATM    5  F7  UNL     1     -31.637   8.496   3.146  1.00 20.00    -0.207 F 
ENDBRANCH   1   2
BRANCH   1   6
HETATM    6  C5  UNL     1     -34.009   7.373   3.599  1.00 20.00     0.245 C 
HETATM    7  C2  UNL     1     -35.058   6.368   4.027  1.00 20.00     0.090 C 
HETATM    8  F8  UNL     1     -33.168   7.595   4.640  1.00 20.00    -0.207 F 
HETATM    9  F9  UNL     1     -34.622   8.554   3.331  1.00 20.00    -0.207 F 
ENDBRANCH   1   6
TORSDOF 2
ENDMDL
MODEL 2
REMARK VINA RESULT:      -2.9      0.003      3.395
REMARK  2 active torsions:
REMARK  status: ('A' for Active; 'I' for Inactive)
REMARK    1  A    between atoms: C3_3  and  C4_4 
REMARK    2  A    between atoms: C3_3  and  C5_5 
ROOT
HETATM    1  C3  UNL     1     -33.212   6.913   2.382  1.00 20.00     0.157 C 
ENDROOT
BRANCH   1   2
HETATM    2  C4  UNL     1     -34.009   7.373   3.599  1.00 20.00     0.245 C 
HETATM    3  C1  UNL     1     -35.058   6.369   4.026  1.00 20.00     0.090 C 
HETATM    4  F6  UNL     1     -34.621   8.553   3.330  1.00 20.00    -0.207 F 
HETATM    5  F7  UNL     1     -33.170   7.596   4.643  1.00 20.00    -0.207 F 
ENDBRANCH   1   2
BRANCH   1   6
HETATM    6  C5  UNL     1     -32.088   7.881   2.025  1.00 20.00     0.245 C 
HETATM    7  C2  UNL     1     -32.521   8.937   1.029  1.00 20.00     0.090 C 
HETATM    8  F8  UNL     1     -31.636   8.497   3.145  1.00 20.00    -0.207 F 
HETATM    9  F9  UNL     1     -31.039   7.195   1.503  1.00 20.00    -0.207 F 
ENDBRANCH   1   6
TORSDOF 2
ENDMDL
MODEL 3
REMARK VINA RESULT:      -2.5      0.858      3.454
REMARK  2 active torsions:
REMARK  status: ('A' for Active; 'I' for Inactive)
REMARK    1  A    between atoms: C3_3  and  C4_4 
REMARK    2  A    between atoms: C3_3  and  C5_5 
ROOT
HETATM    1  C3  UNL     1     -33.730   7.617   2.257  1.00 20.00     0.157 C 
ENDROOT
BRANCH   1   2
HETATM    2  C4  UNL     1     -33.925   6.884   3.581  1.00 20.00     0.245 C 
HETATM    3  C1  UNL     1     -35.370   6.512   3.837  1.00 20.00     0.090 C 
HETATM    4  F6  UNL     1     -33.488   7.659   4.606  1.00 20.00    -0.207 F 
HETATM    5  F7  UNL     1     -33.175   5.753   3.597  1.00 20.00    -0.207 F 
ENDBRANCH   1   2
BRANCH   1   6
HETATM    6  C5  UNL     1     -32.260   7.894   1.958  1.00 20.00     0.245 C 
HETATM    7  C2  UNL     1     -32.069   8.944   0.883  1.00 20.00     0.090 C 
HETATM    8  F8  UNL     1     -31.629   8.306   3.086  1.00 20.00    -0.207 F 
HETATM    9  F9  UNL     1     -31.648   6.749   1.562  1.00 20.00    -0.207 F 
ENDBRANCH   1   6
TORSDOF 2
ENDMDL
MODEL 4
REMARK VINA RESULT:      -2.5      1.393      1.904
REMARK  2 active torsions:
REMARK  status: ('A' for Active; 'I' for Inactive)
REMARK    1  A    between atoms: C3_3  and  C4_4 
REMARK    2  A    between atoms: C3_3  and  C5_5 
ROOT
HETATM    1  C3  UNL     1     -33.726   6.361   2.956  1.00 20.00     0.157 C 
ENDROOT
BRANCH   1   2
HETATM    2  C4  UNL     1     -33.053   7.730   2.935  1.00 20.00     0.245 C 
HETATM    3  C1  UNL     1     -32.028   7.862   1.828  1.00 20.00     0.090 C 
HETATM    4  F6  UNL     1     -32.441   7.961   4.123  1.00 20.00    -0.207 F 
HETATM    5  F7  UNL     1     -33.988   8.702   2.779  1.00 20.00    -0.207 F 
ENDBRANCH   1   2
BRANCH   1   6
HETATM    6  C5  UNL     1     -34.920   6.317   3.904  1.00 20.00     0.245 C 
HETATM    7  C2  UNL     1     -35.102   4.959   4.551  1.00 20.00     0.090 C 
HETATM    8  F8  UNL     1     -34.769   7.247   4.880  1.00 20.00    -0.207 F 
HETATM    9  F9  UNL     1     -36.055   6.634   3.231  1.00 20.00    -0.207 F 
ENDBRANCH   1   6
TORSDOF 2
ENDMDL
MODEL 5
REMARK VINA RESULT:      -2.4      1.976      2.468
REMARK  2 active torsions:
REMARK  status: ('A' for Active; 'I' for Inactive)
REMARK    1  A    between atoms: C3_3  and  C4_4 
REMARK    2  A    between atoms: C3_3  and  C5_5 
ROOT
HETATM    1  C3  UNL     1     -33.398   5.548   3.072  1.00 20.00     0.157 C 
ENDROOT
BRANCH   1   2
HETATM    2  C4  UNL     1     -32.816   6.106   1.776  1.00 20.00     0.245 C 
HETATM    3  C1  UNL     1     -32.314   7.527   1.925  1.00 20.00     0.090 C 
HETATM    4  F6  UNL     1     -33.756   6.077   0.799  1.00 20.00    -0.207 F 
HETATM    5  F7  UNL     1     -31.789   5.324   1.357  1.00 20.00    -0.207 F 
ENDBRANCH   1   2
BRANCH   1   6
HETATM    6  C5  UNL     1     -34.538   6.404   3.612  1.00 20.00     0.245 C 
HETATM    7  C2  UNL     1     -34.047   7.617   4.376  1.00 20.00     0.090 C 
HETATM    8  F8  UNL     1     -35.325   6.823   2.590  1.00 20.00    -0.207 F 
HETATM    9  F9  UNL     1     -35.322   5.661   4.434  1.00 20.00    -0.207 F 
ENDBRANCH   1   6
TORSDOF 2
ENDMDL
MODEL 6
REMARK VINA RESULT:      -2.4      1.976      3.729
REMARK  2 active torsions:
REMARK  status: ('A' for Active; 'I' for Inactive)
REMARK    1  A    between atoms: C3_3  and  C4_4 
REMARK    2  A    between atoms: C3_3  and  C5_5 
ROOT
HETATM    1  C3  UNL     1     -33.384   5.549   3.071  1.00 20.00     0.157 C 
ENDROOT
BRANCH   1   2
HETATM    2  C4  UNL     1     -34.531   6.399   3.610  1.00 20.00     0.245 C 
HETATM    3  C1  UNL     1     -34.050   7.614   4.375  1.00 20.00     0.090 C 
HETATM    4  F6  UNL     1     -35.314   5.652   4.428  1.00 20.00    -0.207 F 
HETATM    5  F7  UNL     1     -35.318   6.815   2.585  1.00 20.00    -0.207 F 
ENDBRANCH   1   2
BRANCH   1   6
HETATM    6  C5  UNL     1     -32.808   6.107   1.774  1.00 20.00     0.245 C 
HETATM    7  C2  UNL     1     -32.310   7.530   1.920  1.00 20.00     0.090 C 
HETATM    8  F8  UNL     1     -31.782   5.327   1.352  1.00 20.00    -0.207 F 
HETATM    9  F9  UNL     1     -33.753   6.074   0.800  1.00 20.00    -0.207 F 
ENDBRANCH   1   6
TORSDOF 2
ENDMDL
MODEL 7
REMARK VINA RESULT:      -2.4      1.547      3.667
REMARK  2 active torsions:
REMARK  status: ('A' for Active; 'I' for Inactive)
REMARK    1  A    between atoms: C3_3  and  C4_4 
REMARK    2  A    between atoms: C3_3  and  C5_5 
ROOT
HETATM    1  C3  UNL     1     -33.241   5.604   3.046  1.00 20.00     0.157 C 
ENDROOT
BRANCH   1   2
HETATM    2  C4  UNL     1     -34.406   6.431   3.583  1.00 20.00     0.245 C 
HETATM    3  C1  UNL     1     -35.350   5.622   4.447  1.00 20.00     0.090 C 
HETATM    4  F6  UNL     1     -35.108   6.962   2.551  1.00 20.00    -0.207 F 
HETATM    5  F7  UNL     1     -33.933   7.473   4.314  1.00 20.00    -0.207 F 
ENDBRANCH   1   2
BRANCH   1   6
HETATM    6  C5  UNL     1     -32.702   6.148   1.728  1.00 20.00     0.245 C 
HETATM    7  C2  UNL     1     -32.209   7.576   1.842  1.00 20.00     0.090 C 
HETATM    8  F8  UNL     1     -31.682   5.369   1.289  1.00 20.00    -0.207 F 
HETATM    9  F9  UNL     1     -33.672   6.098   0.779  1.00 20.00    -0.207 F 
ENDBRANCH   1   6
TORSDOF 2
ENDMDL
MODEL 8
REMARK VINA RESULT:      -2.4      1.539      1.996
REMARK  2 active torsions:
REMARK  status: ('A' for Active; 'I' for Inactive)
REMARK    1  A    between atoms: C3_3  and  C4_4 
REMARK    2  A    between atoms: C3_3  and  C5_5 
ROOT
HETATM    1  C3  UNL     1     -33.262   5.575   3.020  1.00 20.00     0.157 C 
ENDROOT
BRANCH   1   2
HETATM    2  C4  UNL     1     -32.703   6.134   1.715  1.00 20.00     0.245 C 
HETATM    3  C1  UNL     1     -32.220   7.563   1.849  1.00 20.00     0.090 C 
HETATM    4  F6  UNL     1     -33.654   6.085   0.749  1.00 20.00    -0.207 F 
HETATM    5  F7  UNL     1     -31.669   5.364   1.288  1.00 20.00    -0.207 F 
ENDBRANCH   1   2
BRANCH   1   6
HETATM    6  C5  UNL     1     -34.387   6.435   3.586  1.00 20.00     0.245 C 
HETATM    7  C2  UNL     1     -35.351   5.646   4.447  1.00 20.00     0.090 C 
HETATM    8  F8  UNL     1     -33.867   7.445   4.327  1.00 20.00    -0.207 F 
HETATM    9  F9  UNL     1     -35.081   7.010   2.571  1.00 20.00    -0.207 F 
ENDBRANCH   1   6
TORSDOF 2
ENDMDL
MODEL 9
REMARK VINA RESULT:      -2.1      1.466      1.783
REMARK  2 active torsions:
REMARK  status: ('A' for Active; 'I' for Inactive)
REMARK    1  A    between atoms: C3_3  and  C4_4 
REMARK    2  A    between atoms: C3_3  and  C5_5 
ROOT
HETATM    1  C3  UNL     1     -33.093   7.644   3.219  1.00 20.00     0.157 C 
ENDROOT
BRANCH   1   2
HETATM    2  C4  UNL     1     -32.062   7.795   2.104  1.00 20.00     0.245 C 
HETATM    3  C1  UNL     1     -32.482   8.796   1.049  1.00 20.00     0.090 C 
HETATM    4  F6  UNL     1     -31.852   6.595   1.506  1.00 20.00    -0.207 F 
HETATM    5  F7  UNL     1     -30.872   8.187   2.626  1.00 20.00    -0.207 F 
ENDBRANCH   1   2
BRANCH   1   6
HETATM    6  C5  UNL     1     -33.924   6.374   3.072  1.00 20.00     0.245 C 
HETATM    7  C2  UNL     1     -35.235   6.442   3.828  1.00 20.00     0.090 C 
HETATM    8  F8  UNL     1     -34.188   6.144   1.762  1.00 20.00    -0.207 F 
HETATM    9  F9  UNL     1     -33.217   5.307   3.524  1.00 20.00    -0.207 F 
ENDBRANCH   1   6
TORSDOF 2
ENDMDL
