MODEL 1
REMARK VINA RESULT:      -2.2      0.000      0.000
REMARK  1 active torsions:
REMARK  status: ('A' for Active; 'I' for Inactive)
REMARK    1  A    between atoms: C3_3  and  C5_5 
ROOT
HETATM    1  C1  UNL     1     -31.156   7.896   1.081  1.00 20.00     0.055 A 
HETATM    2  C2  UNL     1     -31.174   8.889   0.196  1.00 20.00     0.085 A 
HETATM    3  C3  UNL     1     -32.383   7.947   1.919  1.00 20.00     0.273 A 
HETATM    4  C4  UNL     1     -32.411   9.677   0.367  1.00 20.00     0.378 A 
HETATM    5  O6  UNL     1     -33.165   9.046   1.413  1.00 20.00    -0.273 OA
HETATM    6  F7  UNL     1     -32.078   8.234   3.212  1.00 20.00    -0.202 F 
HETATM    7  F8  UNL     1     -32.171  10.959   0.730  1.00 20.00    -0.171 F 
HETATM    8  F9  UNL     1     -33.176   9.700  -0.751  1.00 20.00    -0.171 F 
ENDROOT
BRANCH   3   9
HETATM    9  C5  UNL     1     -33.209   6.677   1.877  1.00 20.00     0.337 C 
HETATM   10  F10 UNL     1     -32.381   5.627   1.638  1.00 20.00    -0.226 F 
HETATM   11 CL11 UNL     1     -34.044   6.421   3.418  1.00 20.00    -0.083 Cl
ENDBRANCH   3   9
TORSDOF 1
ENDMDL
MODEL 2
REMARK VINA RESULT:      -2.2      2.742      3.747
REMARK  1 active torsions:
REMARK  status: ('A' for Active; 'I' for Inactive)
REMARK    1  A    between atoms: C3_3  and  C5_5 
ROOT
HETATM    1  C1  UNL     1     -33.657   7.461   3.872  1.00 20.00     0.055 A 
HETATM    2  C2  UNL     1     -32.708   7.676   2.965  1.00 20.00     0.085 A 
HETATM    3  C3  UNL     1     -34.457   6.268   3.488  1.00 20.00     0.273 A 
HETATM    4  C4  UNL     1     -32.794   6.646   1.910  1.00 20.00     0.378 A 
HETATM    5  O6  UNL     1     -33.859   5.759   2.281  1.00 20.00    -0.273 OA
HETATM    6  F7  UNL     1     -35.736   6.616   3.187  1.00 20.00    -0.202 F 
HETATM    7  F8  UNL     1     -33.076   7.164   0.692  1.00 20.00    -0.171 F 
HETATM    8  F9  UNL     1     -31.657   5.918   1.796  1.00 20.00    -0.171 F 
ENDROOT
BRANCH   3   9
HETATM    9  C5  UNL     1     -34.478   5.178   4.542  1.00 20.00     0.337 C 
HETATM   10  F10 UNL     1     -35.770   4.905   4.861  1.00 20.00    -0.226 F 
HETATM   11 CL11 UNL     1     -33.703   3.705   3.936  1.00 20.00    -0.083 Cl
ENDBRANCH   3   9
TORSDOF 1
ENDMDL
MODEL 3
REMARK VINA RESULT:      -1.8      3.216      4.359
REMARK  1 active torsions:
REMARK  status: ('A' for Active; 'I' for Inactive)
REMARK    1  A    between atoms: C3_3  and  C5_5 
ROOT
HETATM    1  C1  UNL     1     -33.532   4.738   3.125  1.00 20.00     0.055 A 
HETATM    2  C2  UNL     1     -34.390   5.145   4.056  1.00 20.00     0.085 A 
HETATM    3  C3  UNL     1     -33.326   5.818   2.124  1.00 20.00     0.273 A 
HETATM    4  C4  UNL     1     -34.820   6.526   3.757  1.00 20.00     0.378 A 
HETATM    5  O6  UNL     1     -34.112   6.936   2.578  1.00 20.00    -0.273 OA
HETATM    6  F7  UNL     1     -33.810   5.454   0.907  1.00 20.00    -0.202 F 
HETATM    7  F8  UNL     1     -36.148   6.620   3.510  1.00 20.00    -0.171 F 
HETATM    8  F9  UNL     1     -34.523   7.394   4.753  1.00 20.00    -0.171 F 
ENDROOT
BRANCH   3   9
HETATM    9  C5  UNL     1     -31.879   6.246   1.971  1.00 20.00     0.337 C 
HETATM   10  F10 UNL     1     -31.299   5.483   1.008  1.00 20.00    -0.226 F 
HETATM   11 CL11 UNL     1     -31.775   7.951   1.505  1.00 20.00    -0.083 Cl
ENDBRANCH   3   9
TORSDOF 1
ENDMDL
MODEL 4
REMARK VINA RESULT:      -1.4      2.524      4.068
REMARK  1 active torsions:
REMARK  status: ('A' for Active; 'I' for Inactive)
REMARK    1  A    between atoms: C3_3  and  C5_5 
ROOT
HETATM    1  C1  UNL     1     -32.492   8.276   3.409  1.00 20.00     0.055 A 
HETATM    2  C2  UNL     1     -33.434   7.659   4.116  1.00 20.00     0.085 A 
HETATM    3  C3  UNL     1     -32.409   7.678   2.051  1.00 20.00     0.273 A 
HETATM    4  C4  UNL     1     -34.058   6.606   3.290  1.00 20.00     0.378 A 
HETATM    5  O6  UNL     1     -33.435   6.668   1.999  1.00 20.00    -0.273 OA
HETATM    6  F7  UNL     1     -31.218   7.051   1.866  1.00 20.00    -0.202 F 
HETATM    7  F8  UNL     1     -33.871   5.363   3.793  1.00 20.00    -0.171 F 
HETATM    8  F9  UNL     1     -35.390   6.790   3.126  1.00 20.00    -0.171 F 
ENDROOT
BRANCH   3   9
HETATM    9  C5  UNL     1     -32.622   8.674   0.927  1.00 20.00     0.337 C 
HETATM   10  F10 UNL     1     -32.932   9.880   1.468  1.00 20.00    -0.226 F 
HETATM   11 CL11 UNL     1     -31.155   8.834  -0.054  1.00 20.00    -0.083 Cl
ENDBRANCH   3   9
TORSDOF 1
ENDMDL
MODEL 5
REMARK VINA RESULT:      -1.3      3.003      5.209
REMARK  1 active torsions:
REMARK  status: ('A' for Active; 'I' for Inactive)
REMARK    1  A    between atoms: C3_3  and  C5_5 
ROOT
HETATM    1  C1  UNL     1     -35.170   6.377   3.848  1.00 20.00     0.055 A 
HETATM    2  C2  UNL     1     -35.405   5.129   4.243  1.00 20.00     0.085 A 
HETATM    3  C3  UNL     1     -33.719   6.553   3.573  1.00 20.00     0.273 A 
HETATM    4  C4  UNL     1     -34.136   4.373   4.260  1.00 20.00     0.378 A 
HETATM    5  O6  UNL     1     -33.113   5.266   3.798  1.00 20.00    -0.273 OA
HETATM    6  F7  UNL     1     -33.158   7.421   4.456  1.00 20.00    -0.202 F 
HETATM    7  F8  UNL     1     -33.798   3.942   5.498  1.00 20.00    -0.171 F 
HETATM    8  F9  UNL     1     -34.159   3.295   3.439  1.00 20.00    -0.171 F 
ENDROOT
BRANCH   3   9
HETATM    9  C5  UNL     1     -33.413   7.018   2.163  1.00 20.00     0.337 C 
HETATM   10  F10 UNL     1     -32.542   8.058   2.227  1.00 20.00    -0.226 F 
HETATM   11 CL11 UNL     1     -32.691   5.708   1.214  1.00 20.00    -0.083 Cl
ENDBRANCH   3   9
TORSDOF 1
ENDMDL
MODEL 6
REMARK VINA RESULT:      -1.2      2.124      3.854
REMARK  1 active torsions:
REMARK  status: ('A' for Active; 'I' for Inactive)
REMARK    1  A    between atoms: C3_3  and  C5_5 
ROOT
HETATM    1  C1  UNL     1     -33.242   7.563   2.873  1.00 20.00     0.055 A 
HETATM    2  C2  UNL     1     -33.422   6.269   2.621  1.00 20.00     0.085 A 
HETATM    3  C3  UNL     1     -32.247   8.127   1.923  1.00 20.00     0.273 A 
HETATM    4  C4  UNL     1     -32.570   5.868   1.483  1.00 20.00     0.378 A 
HETATM    5  O6  UNL     1     -31.884   7.048   1.041  1.00 20.00    -0.273 OA
HETATM    6  F7  UNL     1     -31.117   8.512   2.573  1.00 20.00    -0.202 F 
HETATM    7  F8  UNL     1     -31.644   4.940   1.823  1.00 20.00    -0.171 F 
HETATM    8  F9  UNL     1     -33.283   5.377   0.442  1.00 20.00    -0.171 F 
ENDROOT
BRANCH   3   9
HETATM    9  C5  UNL     1     -32.770   9.294   1.108  1.00 20.00     0.337 C 
HETATM   10  F10 UNL     1     -32.222  10.440   1.589  1.00 20.00    -0.226 F 
HETATM   11 CL11 UNL     1     -32.335   9.111  -0.599  1.00 20.00    -0.083 Cl
ENDBRANCH   3   9
TORSDOF 1
ENDMDL
MODEL 7
REMARK VINA RESULT:      -0.9      3.025      4.437
REMARK  1 active torsions:
REMARK  status: ('A' for Active; 'I' for Inactive)
REMARK    1  A    between atoms: C3_3  and  C5_5 
ROOT
HETATM    1  C1  UNL     1     -33.264   7.263   3.692  1.00 20.00     0.055 A 
HETATM    2  C2  UNL     1     -34.458   7.409   4.260  1.00 20.00     0.085 A 
HETATM    3  C3  UNL     1     -33.264   6.057   2.822  1.00 20.00     0.273 A 
HETATM    4  C4  UNL     1     -35.349   6.320   3.814  1.00 20.00     0.378 A 
HETATM    5  O6  UNL     1     -34.599   5.520   2.889  1.00 20.00    -0.273 OA
HETATM    6  F7  UNL     1     -32.424   5.106   3.308  1.00 20.00    -0.202 F 
HETATM    7  F8  UNL     1     -35.756   5.525   4.831  1.00 20.00    -0.171 F 
HETATM    8  F9  UNL     1     -36.455   6.776   3.179  1.00 20.00    -0.171 F 
ENDROOT
BRANCH   3   9
HETATM    9  C5  UNL     1     -32.904   6.341   1.377  1.00 20.00     0.337 C 
HETATM   10  F10 UNL     1     -32.197   7.500   1.325  1.00 20.00    -0.226 F 
HETATM   11 CL11 UNL     1     -31.923   5.028   0.706  1.00 20.00    -0.083 Cl
ENDBRANCH   3   9
TORSDOF 1
ENDMDL
MODEL 8
REMARK VINA RESULT:      -0.8      2.141      2.913
REMARK  1 active torsions:
REMARK  status: ('A' for Active; 'I' for Inactive)
REMARK    1  A    between atoms: C3_3  and  C5_5 
ROOT
HETATM    1  C1  UNL     1     -33.525   5.777   1.943  1.00 20.00     0.055 A 
HETATM    2  C2  UNL     1     -32.798   6.589   1.179  1.00 20.00     0.085 A 
HETATM    3  C3  UNL     1     -33.606   6.324   3.323  1.00 20.00     0.273 A 
HETATM    4  C4  UNL     1     -32.341   7.740   1.983  1.00 20.00     0.378 A 
HETATM    5  O6  UNL     1     -32.892   7.574   3.297  1.00 20.00    -0.273 OA
HETATM    6  F7  UNL     1     -32.965   5.513   4.206  1.00 20.00    -0.202 F 
HETATM    7  F8  UNL     1     -30.993   7.802   2.091  1.00 20.00    -0.171 F 
HETATM    8  F9  UNL     1     -32.771   8.926   1.490  1.00 20.00    -0.171 F 
ENDROOT
BRANCH   3   9
HETATM    9  C5  UNL     1     -35.023   6.559   3.809  1.00 20.00     0.337 C 
HETATM   10  F10 UNL     1     -35.818   6.794   2.733  1.00 20.00    -0.226 F 
HETATM   11 CL11 UNL     1     -35.628   5.144   4.685  1.00 20.00    -0.083 Cl
ENDBRANCH   3   9
TORSDOF 1
ENDMDL
MODEL 9
REMARK VINA RESULT:      -0.6      2.117      2.960
REMARK  1 active torsions:
REMARK  status: ('A' for Active; 'I' for Inactive)
REMARK    1  A    between atoms: C3_3  and  C5_5 
ROOT
HETATM    1  C1  UNL     1     -33.677   5.879   1.540  1.00 20.00     0.055 A 
HETATM    2  C2  UNL     1     -32.863   6.654   0.830  1.00 20.00     0.085 A 
HETATM    3  C3  UNL     1     -33.533   6.190   2.987  1.00 20.00     0.273 A 
HETATM    4  C4  UNL     1     -32.117   7.547   1.740  1.00 20.00     0.378 A 
HETATM    5  O6  UNL     1     -32.583   7.269   3.068  1.00 20.00    -0.273 OA
HETATM    6  F7  UNL     1     -33.003   5.136   3.662  1.00 20.00    -0.202 F 
HETATM    7  F8  UNL     1     -30.780   7.334   1.705  1.00 20.00    -0.171 F 
HETATM    8  F9  UNL     1     -32.333   8.858   1.481  1.00 20.00    -0.171 F 
ENDROOT
BRANCH   3   9
HETATM    9  C5  UNL     1     -34.828   6.604   3.658  1.00 20.00     0.337 C 
HETATM   10  F10 UNL     1     -35.356   5.523   4.289  1.00 20.00    -0.226 F 
HETATM   11 CL11 UNL     1     -34.538   7.888   4.843  1.00 20.00    -0.083 Cl
ENDBRANCH   3   9
TORSDOF 1
ENDMDL
