MODEL 1
REMARK VINA RESULT:       0.1      0.000      0.000
REMARK  2 active torsions:
REMARK  status: ('A' for Active; 'I' for Inactive)
REMARK    1  A    between atoms: C3_3  and  O10_10 
REMARK    2  A    between atoms: C8_8  and  O10_10 
ROOT
HETATM    1  C1  UNL     1     -32.778   7.757   3.262  1.00 20.00     0.069 C 
HETATM    2  C2  UNL     1     -32.721   7.814   1.718  1.00 20.00     0.173 C 
HETATM    3  C3  UNL     1     -33.430   6.357   3.175  1.00 20.00     0.134 C 
HETATM    4  C4  UNL     1     -32.922   6.261   1.693  1.00 20.00     0.008 C 
HETATM    5  C5  UNL     1     -31.614   5.455   1.615  1.00 20.00     0.020 C 
HETATM    6  C6  UNL     1     -33.878   5.800   0.588  1.00 20.00     0.020 C 
HETATM    7  O9  UNL     1     -31.501   8.316   1.144  1.00 20.00    -0.234 OA
ENDROOT
BRANCH   3   8
HETATM    8  O10 UNL     1     -34.829   6.408   3.327  1.00 20.00    -0.385 OA
BRANCH   8   9
HETATM    9  C8  UNL     1     -35.260   5.508   4.329  1.00 20.00     0.163 C 
HETATM   10  C7  UNL     1     -34.324   4.318   4.359  1.00 20.00     0.033 C 
ENDBRANCH   8   9
ENDBRANCH   3   8
TORSDOF 2
ENDMDL
MODEL 2
REMARK VINA RESULT:       0.3      1.376      2.586
REMARK  2 active torsions:
REMARK  status: ('A' for Active; 'I' for Inactive)
REMARK    1  A    between atoms: C3_3  and  O10_10 
REMARK    2  A    between atoms: C8_8  and  O10_10 
ROOT
HETATM    1  C1  UNL     1     -32.982   6.238   1.651  1.00 20.00     0.069 C 
HETATM    2  C2  UNL     1     -32.403   7.495   2.338  1.00 20.00     0.173 C 
HETATM    3  C3  UNL     1     -33.749   5.894   2.948  1.00 20.00     0.134 C 
HETATM    4  C4  UNL     1     -33.533   7.377   3.416  1.00 20.00     0.008 C 
HETATM    5  C5  UNL     1     -34.779   8.230   3.121  1.00 20.00     0.020 C 
HETATM    6  C6  UNL     1     -33.037   7.664   4.836  1.00 20.00     0.020 C 
HETATM    7  O9  UNL     1     -32.385   8.700   1.551  1.00 20.00    -0.234 OA
ENDROOT
BRANCH   3   8
HETATM    8  O10 UNL     1     -33.087   4.921   3.720  1.00 20.00    -0.385 OA
BRANCH   8   9
HETATM    9  C8  UNL     1     -34.003   3.966   4.220  1.00 20.00     0.163 C 
HETATM   10  C7  UNL     1     -33.231   2.796   4.796  1.00 20.00     0.033 C 
ENDBRANCH   8   9
ENDBRANCH   3   8
TORSDOF 2
ENDMDL
MODEL 3
REMARK VINA RESULT:       0.4      1.315      3.874
REMARK  2 active torsions:
REMARK  status: ('A' for Active; 'I' for Inactive)
REMARK    1  A    between atoms: C3_3  and  O10_10 
REMARK    2  A    between atoms: C8_8  and  O10_10 
ROOT
HETATM    1  C1  UNL     1     -33.861   7.184   3.108  1.00 20.00     0.069 C 
HETATM    2  C2  UNL     1     -33.224   5.780   3.219  1.00 20.00     0.173 C 
HETATM    3  C3  UNL     1     -33.073   7.426   1.800  1.00 20.00     0.134 C 
HETATM    4  C4  UNL     1     -32.843   5.875   1.703  1.00 20.00     0.008 C 
HETATM    5  C5  UNL     1     -33.867   5.230   0.753  1.00 20.00     0.020 C 
HETATM    6  C6  UNL     1     -31.444   5.329   1.403  1.00 20.00     0.020 C 
HETATM    7  O9  UNL     1     -34.108   4.708   3.597  1.00 20.00    -0.234 OA
ENDROOT
BRANCH   3   8
HETATM    8  O10 UNL     1     -31.909   8.191   2.010  1.00 20.00    -0.385 OA
BRANCH   8   9
HETATM    9  C8  UNL     1     -31.527   8.862   0.824  1.00 20.00     0.163 C 
HETATM   10  C7  UNL     1     -32.576   9.900   0.485  1.00 20.00     0.033 C 
ENDBRANCH   8   9
ENDBRANCH   3   8
TORSDOF 2
ENDMDL
MODEL 4
REMARK VINA RESULT:       0.9      1.618      4.282
REMARK  2 active torsions:
REMARK  status: ('A' for Active; 'I' for Inactive)
REMARK    1  A    between atoms: C3_3  and  O10_10 
REMARK    2  A    between atoms: C8_8  and  O10_10 
ROOT
HETATM    1  C1  UNL     1     -33.404   5.744   2.860  1.00 20.00     0.069 C 
HETATM    2  C2  UNL     1     -34.726   6.361   3.372  1.00 20.00     0.173 C 
HETATM    3  C3  UNL     1     -32.800   7.162   2.744  1.00 20.00     0.134 C 
HETATM    4  C4  UNL     1     -33.941   7.679   3.690  1.00 20.00     0.008 C 
HETATM    5  C5  UNL     1     -33.442   7.783   5.141  1.00 20.00     0.020 C 
HETATM    6  C6  UNL     1     -34.723   8.943   3.321  1.00 20.00     0.020 C 
HETATM    7  O9  UNL     1     -35.349   5.697   4.486  1.00 20.00    -0.234 OA
ENDROOT
BRANCH   3   8
HETATM    8  O10 UNL     1     -32.844   7.657   1.426  1.00 20.00    -0.385 OA
BRANCH   8   9
HETATM    9  C8  UNL     1     -31.828   8.618   1.214  1.00 20.00     0.163 C 
HETATM   10  C7  UNL     1     -32.371   9.723   0.332  1.00 20.00     0.033 C 
ENDBRANCH   8   9
ENDBRANCH   3   8
TORSDOF 2
ENDMDL
MODEL 5
REMARK VINA RESULT:       1.2      1.620      3.515
REMARK  2 active torsions:
REMARK  status: ('A' for Active; 'I' for Inactive)
REMARK    1  A    between atoms: C3_3  and  O10_10 
REMARK    2  A    between atoms: C8_8  and  O10_10 
ROOT
HETATM    1  C1  UNL     1     -32.933   7.917   2.788  1.00 20.00     0.069 C 
HETATM    2  C2  UNL     1     -33.271   7.326   4.175  1.00 20.00     0.173 C 
HETATM    3  C3  UNL     1     -33.429   6.612   2.123  1.00 20.00     0.134 C 
HETATM    4  C4  UNL     1     -34.177   6.267   3.460  1.00 20.00     0.008 C 
HETATM    5  C5  UNL     1     -35.661   6.661   3.373  1.00 20.00     0.020 C 
HETATM    6  C6  UNL     1     -34.049   4.866   4.065  1.00 20.00     0.020 C 
HETATM    7  O9  UNL     1     -33.924   8.212   5.103  1.00 20.00    -0.234 OA
ENDROOT
BRANCH   3   8
HETATM    8  O10 UNL     1     -32.371   5.746   1.788  1.00 20.00    -0.385 OA
BRANCH   8   9
HETATM    9  C8  UNL     1     -32.643   5.061   0.581  1.00 20.00     0.163 C 
HETATM   10  C7  UNL     1     -31.448   4.204   0.220  1.00 20.00     0.033 C 
ENDBRANCH   8   9
ENDBRANCH   3   8
TORSDOF 2
ENDMDL
MODEL 6
REMARK VINA RESULT:       1.6      1.669      4.067
REMARK  2 active torsions:
REMARK  status: ('A' for Active; 'I' for Inactive)
REMARK    1  A    between atoms: C3_3  and  O10_10 
REMARK    2  A    between atoms: C8_8  and  O10_10 
ROOT
HETATM    1  C1  UNL     1     -33.504   4.609   3.787  1.00 20.00     0.069 C 
HETATM    2  C2  UNL     1     -34.982   5.022   3.966  1.00 20.00     0.173 C 
HETATM    3  C3  UNL     1     -33.226   5.951   3.072  1.00 20.00     0.134 C 
HETATM    4  C4  UNL     1     -34.560   6.505   3.687  1.00 20.00     0.008 C 
HETATM    5  C5  UNL     1     -34.276   7.330   4.954  1.00 20.00     0.020 C 
HETATM    6  C6  UNL     1     -35.558   7.252   2.797  1.00 20.00     0.020 C 
HETATM    7  O9  UNL     1     -35.569   4.749   5.251  1.00 20.00    -0.234 OA
ENDROOT
BRANCH   3   8
HETATM    8  O10 UNL     1     -33.222   5.820   1.670  1.00 20.00    -0.385 OA
BRANCH   8   9
HETATM    9  C8  UNL     1     -32.077   6.434   1.109  1.00 20.00     0.163 C 
HETATM   10  C7  UNL     1     -31.920   7.818   1.703  1.00 20.00     0.033 C 
ENDBRANCH   8   9
ENDBRANCH   3   8
TORSDOF 2
ENDMDL
MODEL 7
REMARK VINA RESULT:       1.6      1.224      2.318
REMARK  2 active torsions:
REMARK  status: ('A' for Active; 'I' for Inactive)
REMARK    1  A    between atoms: C3_3  and  O10_10 
REMARK    2  A    between atoms: C8_8  and  O10_10 
ROOT
HETATM    1  C1  UNL     1     -33.359   5.893   1.707  1.00 20.00     0.069 C 
HETATM    2  C2  UNL     1     -31.864   6.277   1.783  1.00 20.00     0.173 C 
HETATM    3  C3  UNL     1     -33.723   7.207   2.435  1.00 20.00     0.134 C 
HETATM    4  C4  UNL     1     -32.299   7.755   2.066  1.00 20.00     0.008 C 
HETATM    5  C5  UNL     1     -32.364   8.645   0.813  1.00 20.00     0.020 C 
HETATM    6  C6  UNL     1     -31.442   8.436   3.138  1.00 20.00     0.020 C 
HETATM    7  O9  UNL     1     -31.086   6.050   0.594  1.00 20.00    -0.234 OA
ENDROOT
BRANCH   3   8
HETATM    8  O10 UNL     1     -33.950   7.011   3.811  1.00 20.00    -0.385 OA
BRANCH   8   9
HETATM    9  C8  UNL     1     -35.264   6.540   4.042  1.00 20.00     0.163 C 
HETATM   10  C7  UNL     1     -35.198   5.101   4.511  1.00 20.00     0.033 C 
ENDBRANCH   8   9
ENDBRANCH   3   8
TORSDOF 2
ENDMDL
MODEL 8
REMARK VINA RESULT:       1.8      1.990      3.177
REMARK  2 active torsions:
REMARK  status: ('A' for Active; 'I' for Inactive)
REMARK    1  A    between atoms: C3_3  and  O10_10 
REMARK    2  A    between atoms: C8_8  and  O10_10 
ROOT
HETATM    1  C1  UNL     1     -35.446   5.286   4.572  1.00 20.00     0.069 C 
HETATM    2  C2  UNL     1     -35.409   6.119   3.271  1.00 20.00     0.173 C 
HETATM    3  C3  UNL     1     -33.990   4.835   4.311  1.00 20.00     0.134 C 
HETATM    4  C4  UNL     1     -33.846   6.031   3.305  1.00 20.00     0.008 C 
HETATM    5  C5  UNL     1     -33.160   7.232   3.979  1.00 20.00     0.020 C 
HETATM    6  C6  UNL     1     -33.230   5.795   1.923  1.00 20.00     0.020 C 
HETATM    7  O9  UNL     1     -35.983   7.437   3.342  1.00 20.00    -0.234 OA
ENDROOT
BRANCH   3   8
HETATM    8  O10 UNL     1     -33.923   3.554   3.732  1.00 20.00    -0.385 OA
BRANCH   8   9
HETATM    9  C8  UNL     1     -33.191   2.666   4.555  1.00 20.00     0.163 C 
HETATM   10  C7  UNL     1     -32.657   3.428   5.749  1.00 20.00     0.033 C 
ENDBRANCH   8   9
ENDBRANCH   3   8
TORSDOF 2
ENDMDL
MODEL 9
REMARK VINA RESULT:       2.1      1.630      2.415
REMARK  2 active torsions:
REMARK  status: ('A' for Active; 'I' for Inactive)
REMARK    1  A    between atoms: C3_3  and  O10_10 
REMARK    2  A    between atoms: C8_8  and  O10_10 
ROOT
HETATM    1  C1  UNL     1     -32.850   4.938   2.644  1.00 20.00     0.069 C 
HETATM    2  C2  UNL     1     -31.760   5.491   1.699  1.00 20.00     0.173 C 
HETATM    3  C3  UNL     1     -33.561   6.310   2.609  1.00 20.00     0.134 C 
HETATM    4  C4  UNL     1     -32.735   6.656   1.320  1.00 20.00     0.008 C 
HETATM    5  C5  UNL     1     -33.567   6.397   0.052  1.00 20.00     0.020 C 
HETATM    6  C6  UNL     1     -32.031   8.011   1.207  1.00 20.00     0.020 C 
HETATM    7  O9  UNL     1     -31.345   4.622   0.628  1.00 20.00    -0.234 OA
ENDROOT
BRANCH   3   8
HETATM    8  O10 UNL     1     -33.265   7.095   3.740  1.00 20.00    -0.385 OA
BRANCH   8   9
HETATM    9  C8  UNL     1     -34.442   7.407   4.460  1.00 20.00     0.163 C 
HETATM   10  C7  UNL     1     -35.518   6.403   4.104  1.00 20.00     0.033 C 
ENDBRANCH   8   9
ENDBRANCH   3   8
TORSDOF 2
ENDMDL
