MODEL 1
REMARK VINA RESULT:      -0.9      0.000      0.000
REMARK  1 active torsions:
REMARK  status: ('A' for Active; 'I' for Inactive)
REMARK    1  A    between atoms: C4_4  and  C9_9 
ROOT
HETATM    1  C1  UNL     1     -31.202   8.773   0.259  1.00 20.00     0.017 C 
HETATM    2  C2  UNL     1     -31.939   8.454   1.151  1.00 20.00    -0.089 C 
HETATM    3  C3  UNL     1     -32.811   8.096   2.218  1.00 20.00     0.066 C 
HETATM    4  C4  UNL     1     -33.303   6.856   2.424  1.00 20.00    -0.068 C 
HETATM    5  C5  UNL     1     -32.963   5.706   1.493  1.00 20.00     0.044 C 
ENDROOT
BRANCH   4   6
HETATM    6  C9  UNL     1     -34.242   6.512   3.611  1.00 20.00    -0.028 C 
HETATM    7  C6  UNL     1     -33.974   7.458   4.803  1.00 20.00     0.019 C 
HETATM    8  C7  UNL     1     -35.750   6.636   3.278  1.00 20.00     0.019 C 
HETATM    9  C8  UNL     1     -33.998   5.057   4.064  1.00 20.00     0.019 C 
ENDBRANCH   4   6
TORSDOF 1
ENDMDL
MODEL 2
REMARK VINA RESULT:      -0.9      0.055      1.437
REMARK  1 active torsions:
REMARK  status: ('A' for Active; 'I' for Inactive)
REMARK    1  A    between atoms: C4_4  and  C9_9 
ROOT
HETATM    1  C1  UNL     1     -31.236   8.760   0.227  1.00 20.00     0.017 C 
HETATM    2  C2  UNL     1     -31.964   8.446   1.129  1.00 20.00    -0.089 C 
HETATM    3  C3  UNL     1     -32.824   8.094   2.208  1.00 20.00     0.066 C 
HETATM    4  C4  UNL     1     -33.319   6.856   2.422  1.00 20.00    -0.068 C 
HETATM    5  C5  UNL     1     -32.994   5.702   1.490  1.00 20.00     0.044 C 
ENDROOT
BRANCH   4   6
HETATM    6  C9  UNL     1     -34.245   6.518   3.622  1.00 20.00    -0.028 C 
HETATM    7  C6  UNL     1     -35.728   6.673   3.219  1.00 20.00     0.019 C 
HETATM    8  C7  UNL     1     -34.080   5.075   4.158  1.00 20.00     0.019 C 
HETATM    9  C8  UNL     1     -33.944   7.473   4.797  1.00 20.00     0.019 C 
ENDBRANCH   4   6
TORSDOF 1
ENDMDL
MODEL 3
REMARK VINA RESULT:      -0.8      1.109      4.063
REMARK  1 active torsions:
REMARK  status: ('A' for Active; 'I' for Inactive)
REMARK    1  A    between atoms: C4_4  and  C9_9 
ROOT
HETATM    1  C1  UNL     1     -35.494   5.512   4.356  1.00 20.00     0.017 C 
HETATM    2  C2  UNL     1     -34.736   6.327   3.906  1.00 20.00    -0.089 C 
HETATM    3  C3  UNL     1     -33.844   7.308   3.388  1.00 20.00     0.066 C 
HETATM    4  C4  UNL     1     -33.024   7.119   2.332  1.00 20.00    -0.068 C 
HETATM    5  C5  UNL     1     -32.977   5.793   1.595  1.00 20.00     0.044 C 
ENDROOT
BRANCH   4   6
HETATM    6  C9  UNL     1     -32.077   8.226   1.796  1.00 20.00    -0.028 C 
HETATM    7  C6  UNL     1     -31.125   7.650   0.724  1.00 20.00     0.019 C 
HETATM    8  C7  UNL     1     -32.813   9.420   1.140  1.00 20.00     0.019 C 
HETATM    9  C8  UNL     1     -31.234   8.798   2.956  1.00 20.00     0.019 C 
ENDBRANCH   4   6
TORSDOF 1
ENDMDL
MODEL 4
REMARK VINA RESULT:      -0.7      0.068      1.449
REMARK  1 active torsions:
REMARK  status: ('A' for Active; 'I' for Inactive)
REMARK    1  A    between atoms: C4_4  and  C9_9 
ROOT
HETATM    1  C1  UNL     1     -31.226   8.786   0.211  1.00 20.00     0.017 C 
HETATM    2  C2  UNL     1     -31.958   8.476   1.111  1.00 20.00    -0.089 C 
HETATM    3  C3  UNL     1     -32.824   8.131   2.188  1.00 20.00     0.066 C 
HETATM    4  C4  UNL     1     -33.304   6.890   2.418  1.00 20.00    -0.068 C 
HETATM    5  C5  UNL     1     -32.957   5.726   1.507  1.00 20.00     0.044 C 
ENDROOT
BRANCH   4   6
HETATM    6  C9  UNL     1     -34.237   6.560   3.614  1.00 20.00    -0.028 C 
HETATM    7  C6  UNL     1     -34.034   5.098   4.069  1.00 20.00     0.019 C 
HETATM    8  C7  UNL     1     -34.001   7.449   4.860  1.00 20.00     0.019 C 
HETATM    9  C8  UNL     1     -35.710   6.753   3.195  1.00 20.00     0.019 C 
ENDBRANCH   4   6
TORSDOF 1
ENDMDL
MODEL 5
REMARK VINA RESULT:      -0.6      1.105      4.091
REMARK  1 active torsions:
REMARK  status: ('A' for Active; 'I' for Inactive)
REMARK    1  A    between atoms: C4_4  and  C9_9 
ROOT
HETATM    1  C1  UNL     1     -35.473   5.520   4.341  1.00 20.00     0.017 C 
HETATM    2  C2  UNL     1     -34.710   6.330   3.891  1.00 20.00    -0.089 C 
HETATM    3  C3  UNL     1     -33.813   7.308   3.373  1.00 20.00     0.066 C 
HETATM    4  C4  UNL     1     -33.005   7.119   2.308  1.00 20.00    -0.068 C 
HETATM    5  C5  UNL     1     -32.977   5.798   1.560  1.00 20.00     0.044 C 
ENDROOT
BRANCH   4   6
HETATM    6  C9  UNL     1     -32.051   8.221   1.773  1.00 20.00    -0.028 C 
HETATM    7  C6  UNL     1     -31.124   8.727   2.899  1.00 20.00     0.019 C 
HETATM    8  C7  UNL     1     -31.132   7.751   0.618  1.00 20.00     0.019 C 
HETATM    9  C8  UNL     1     -32.878   9.408   1.235  1.00 20.00     0.019 C 
ENDBRANCH   4   6
TORSDOF 1
ENDMDL
MODEL 6
REMARK VINA RESULT:      -0.6      1.123      4.077
REMARK  1 active torsions:
REMARK  status: ('A' for Active; 'I' for Inactive)
REMARK    1  A    between atoms: C4_4  and  C9_9 
ROOT
HETATM    1  C1  UNL     1     -35.521   5.487   4.386  1.00 20.00     0.017 C 
HETATM    2  C2  UNL     1     -34.750   6.291   3.940  1.00 20.00    -0.089 C 
HETATM    3  C3  UNL     1     -33.843   7.261   3.425  1.00 20.00     0.066 C 
HETATM    4  C4  UNL     1     -33.023   7.061   2.371  1.00 20.00    -0.068 C 
HETATM    5  C5  UNL     1     -32.994   5.736   1.632  1.00 20.00     0.044 C 
ENDROOT
BRANCH   4   6
HETATM    6  C9  UNL     1     -32.059   8.156   1.839  1.00 20.00    -0.028 C 
HETATM    7  C6  UNL     1     -32.854   9.287   1.150  1.00 20.00     0.019 C 
HETATM    8  C7  UNL     1     -31.199   8.825   2.939  1.00 20.00     0.019 C 
HETATM    9  C8  UNL     1     -31.083   7.537   0.816  1.00 20.00     0.019 C 
ENDBRANCH   4   6
TORSDOF 1
ENDMDL
MODEL 7
REMARK VINA RESULT:      -0.0      1.241      2.380
REMARK  1 active torsions:
REMARK  status: ('A' for Active; 'I' for Inactive)
REMARK    1  A    between atoms: C4_4  and  C9_9 
ROOT
HETATM    1  C1  UNL     1     -31.571   4.633   0.341  1.00 20.00     0.017 C 
HETATM    2  C2  UNL     1     -32.277   5.109   1.187  1.00 20.00    -0.089 C 
HETATM    3  C3  UNL     1     -33.126   5.654   2.191  1.00 20.00     0.066 C 
HETATM    4  C4  UNL     1     -33.084   6.933   2.620  1.00 20.00    -0.068 C 
HETATM    5  C5  UNL     1     -32.084   7.925   2.054  1.00 20.00     0.044 C 
ENDROOT
BRANCH   4   6
HETATM    6  C9  UNL     1     -34.041   7.485   3.712  1.00 20.00    -0.028 C 
HETATM    7  C6  UNL     1     -33.253   7.839   4.992  1.00 20.00     0.019 C 
HETATM    8  C7  UNL     1     -34.803   8.766   3.291  1.00 20.00     0.019 C 
HETATM    9  C8  UNL     1     -35.104   6.421   4.058  1.00 20.00     0.019 C 
ENDBRANCH   4   6
TORSDOF 1
ENDMDL
MODEL 8
REMARK VINA RESULT:       0.1      1.410      4.133
REMARK  1 active torsions:
REMARK  status: ('A' for Active; 'I' for Inactive)
REMARK    1  A    between atoms: C4_4  and  C9_9 
ROOT
HETATM    1  C1  UNL     1     -33.202   2.084   4.516  1.00 20.00     0.017 C 
HETATM    2  C2  UNL     1     -33.552   3.231   4.468  1.00 20.00    -0.089 C 
HETATM    3  C3  UNL     1     -33.980   4.589   4.428  1.00 20.00     0.066 C 
HETATM    4  C4  UNL     1     -33.633   5.475   3.471  1.00 20.00    -0.068 C 
HETATM    5  C5  UNL     1     -32.716   5.084   2.326  1.00 20.00     0.044 C 
ENDROOT
BRANCH   4   6
HETATM    6  C9  UNL     1     -34.137   6.944   3.465  1.00 20.00    -0.028 C 
HETATM    7  C6  UNL     1     -35.666   6.989   3.252  1.00 20.00     0.019 C 
HETATM    8  C7  UNL     1     -33.849   7.713   4.777  1.00 20.00     0.019 C 
HETATM    9  C8  UNL     1     -33.450   7.725   2.324  1.00 20.00     0.019 C 
ENDBRANCH   4   6
TORSDOF 1
ENDMDL
MODEL 9
REMARK VINA RESULT:       0.1      1.562      2.899
REMARK  1 active torsions:
REMARK  status: ('A' for Active; 'I' for Inactive)
REMARK    1  A    between atoms: C4_4  and  C9_9 
ROOT
HETATM    1  C1  UNL     1     -32.334  10.818   0.324  1.00 20.00     0.017 C 
HETATM    2  C2  UNL     1     -32.450   9.626   0.406  1.00 20.00    -0.089 C 
HETATM    3  C3  UNL     1     -32.591   8.211   0.480  1.00 20.00     0.066 C 
HETATM    4  C4  UNL     1     -32.592   7.499   1.627  1.00 20.00    -0.068 C 
HETATM    5  C5  UNL     1     -32.424   8.173   2.977  1.00 20.00     0.044 C 
ENDROOT
BRANCH   4   6
HETATM    6  C9  UNL     1     -32.762   5.956   1.657  1.00 20.00    -0.028 C 
HETATM    7  C6  UNL     1     -33.584   5.480   0.439  1.00 20.00     0.019 C 
HETATM    8  C7  UNL     1     -31.425   5.175   1.622  1.00 20.00     0.019 C 
HETATM    9  C8  UNL     1     -33.495   5.537   2.949  1.00 20.00     0.019 C 
ENDBRANCH   4   6
TORSDOF 1
ENDMDL
