MODEL 1
REMARK VINA RESULT:      -0.3      0.000      0.000
REMARK  1 active torsions:
REMARK  status: ('A' for Active; 'I' for Inactive)
REMARK    1  A    between atoms: C4_4  and  C10_10 
ROOT
HETATM    1  C1  UNL     1     -31.847   8.104   1.622  1.00 20.00    -0.004 C 
HETATM    2  C2  UNL     1     -32.855   7.916   2.633  1.00 20.00     0.003 C 
HETATM    3  C3  UNL     1     -31.394   7.079   0.889  1.00 20.00    -0.026 C 
HETATM    4  C4  UNL     1     -33.505   6.748   2.778  1.00 20.00    -0.072 C 
HETATM    5  C5  UNL     1     -31.909   5.681   1.058  1.00 20.00     0.031 C 
HETATM    6  C6  UNL     1     -33.199   5.562   1.893  1.00 20.00     0.038 C 
ENDROOT
BRANCH   4   7
HETATM    7  C10 UNL     1     -34.581   6.556   3.804  1.00 20.00    -0.028 C 
HETATM    8  C7  UNL     1     -34.318   7.490   4.996  1.00 20.00     0.019 C 
HETATM    9  C8  UNL     1     -34.584   5.097   4.289  1.00 20.00     0.019 C 
HETATM   10  C9  UNL     1     -35.952   6.884   3.190  1.00 20.00     0.019 C 
ENDBRANCH   4   7
TORSDOF 1
ENDMDL
MODEL 2
REMARK VINA RESULT:      -0.3      0.010      1.372
REMARK  1 active torsions:
REMARK  status: ('A' for Active; 'I' for Inactive)
REMARK    1  A    between atoms: C4_4  and  C10_10 
ROOT
HETATM    1  C1  UNL     1     -31.838   8.094   1.622  1.00 20.00    -0.004 C 
HETATM    2  C2  UNL     1     -32.847   7.910   2.634  1.00 20.00     0.003 C 
HETATM    3  C3  UNL     1     -31.391   7.068   0.886  1.00 20.00    -0.026 C 
HETATM    4  C4  UNL     1     -33.501   6.745   2.779  1.00 20.00    -0.072 C 
HETATM    5  C5  UNL     1     -31.913   5.672   1.055  1.00 20.00     0.031 C 
HETATM    6  C6  UNL     1     -33.202   5.559   1.892  1.00 20.00     0.038 C 
ENDROOT
BRANCH   4   7
HETATM    7  C10 UNL     1     -34.577   6.557   3.806  1.00 20.00    -0.028 C 
HETATM    8  C7  UNL     1     -34.568   5.098   4.289  1.00 20.00     0.019 C 
HETATM    9  C8  UNL     1     -35.947   6.884   3.191  1.00 20.00     0.019 C 
HETATM   10  C9  UNL     1     -34.326   7.492   5.001  1.00 20.00     0.019 C 
ENDBRANCH   4   7
TORSDOF 1
ENDMDL
MODEL 3
REMARK VINA RESULT:      -0.3      0.164      2.090
REMARK  1 active torsions:
REMARK  status: ('A' for Active; 'I' for Inactive)
REMARK    1  A    between atoms: C4_4  and  C10_10 
ROOT
HETATM    1  C1  UNL     1     -32.116   5.630   1.093  1.00 20.00    -0.004 C 
HETATM    2  C2  UNL     1     -33.212   5.557   2.025  1.00 20.00     0.003 C 
HETATM    3  C3  UNL     1     -31.472   6.780   0.861  1.00 20.00    -0.026 C 
HETATM    4  C4  UNL     1     -33.534   6.589   2.823  1.00 20.00    -0.072 C 
HETATM    5  C5  UNL     1     -31.834   8.058   1.558  1.00 20.00     0.031 C 
HETATM    6  C6  UNL     1     -32.768   7.891   2.772  1.00 20.00     0.038 C 
ENDROOT
BRANCH   4   7
HETATM    7  C10 UNL     1     -34.650   6.509   3.821  1.00 20.00    -0.028 C 
HETATM    8  C7  UNL     1     -34.728   5.079   4.379  1.00 20.00     0.019 C 
HETATM    9  C8  UNL     1     -35.982   6.867   3.143  1.00 20.00     0.019 C 
HETATM   10  C9  UNL     1     -34.391   7.494   4.973  1.00 20.00     0.019 C 
ENDBRANCH   4   7
TORSDOF 1
ENDMDL
MODEL 4
REMARK VINA RESULT:      -0.2      0.150      1.580
REMARK  1 active torsions:
REMARK  status: ('A' for Active; 'I' for Inactive)
REMARK    1  A    between atoms: C4_4  and  C10_10 
ROOT
HETATM    1  C1  UNL     1     -32.076   5.677   1.089  1.00 20.00    -0.004 C 
HETATM    2  C2  UNL     1     -33.177   5.585   2.012  1.00 20.00     0.003 C 
HETATM    3  C3  UNL     1     -31.441   6.837   0.873  1.00 20.00    -0.026 C 
HETATM    4  C4  UNL     1     -33.516   6.606   2.817  1.00 20.00    -0.072 C 
HETATM    5  C5  UNL     1     -31.821   8.104   1.580  1.00 20.00     0.031 C 
HETATM    6  C6  UNL     1     -32.762   7.915   2.786  1.00 20.00     0.038 C 
ENDROOT
BRANCH   4   7
HETATM    7  C10 UNL     1     -34.638   6.505   3.807  1.00 20.00    -0.028 C 
HETATM    8  C7  UNL     1     -34.420   7.533   4.928  1.00 20.00     0.019 C 
HETATM    9  C8  UNL     1     -34.675   5.091   4.409  1.00 20.00     0.019 C 
HETATM   10  C9  UNL     1     -35.977   6.788   3.106  1.00 20.00     0.019 C 
ENDBRANCH   4   7
TORSDOF 1
ENDMDL
MODEL 5
REMARK VINA RESULT:      -0.1      1.102      3.914
REMARK  1 active torsions:
REMARK  status: ('A' for Active; 'I' for Inactive)
REMARK    1  A    between atoms: C4_4  and  C10_10 
ROOT
HETATM    1  C1  UNL     1     -35.317   6.270   4.262  1.00 20.00    -0.004 C 
HETATM    2  C2  UNL     1     -34.513   6.657   3.131  1.00 20.00     0.003 C 
HETATM    3  C3  UNL     1     -35.212   5.053   4.810  1.00 20.00    -0.026 C 
HETATM    4  C4  UNL     1     -33.511   5.885   2.676  1.00 20.00    -0.072 C 
HETATM    5  C5  UNL     1     -34.249   4.022   4.298  1.00 20.00     0.031 C 
HETATM    6  C6  UNL     1     -33.184   4.559   3.323  1.00 20.00     0.038 C 
ENDROOT
BRANCH   4   7
HETATM    7  C10 UNL     1     -32.646   6.297   1.523  1.00 20.00    -0.028 C 
HETATM    8  C7  UNL     1     -33.506   6.392   0.253  1.00 20.00     0.019 C 
HETATM    9  C8  UNL     1     -31.532   5.260   1.310  1.00 20.00     0.019 C 
HETATM   10  C9  UNL     1     -32.009   7.667   1.812  1.00 20.00     0.019 C 
ENDBRANCH   4   7
TORSDOF 1
ENDMDL
MODEL 6
REMARK VINA RESULT:      -0.1      1.103      3.909
REMARK  1 active torsions:
REMARK  status: ('A' for Active; 'I' for Inactive)
REMARK    1  A    between atoms: C4_4  and  C10_10 
ROOT
HETATM    1  C1  UNL     1     -35.328   6.263   4.268  1.00 20.00    -0.004 C 
HETATM    2  C2  UNL     1     -34.525   6.656   3.138  1.00 20.00     0.003 C 
HETATM    3  C3  UNL     1     -35.218   5.044   4.812  1.00 20.00    -0.026 C 
HETATM    4  C4  UNL     1     -33.520   5.890   2.681  1.00 20.00    -0.072 C 
HETATM    5  C5  UNL     1     -34.251   4.019   4.297  1.00 20.00     0.031 C 
HETATM    6  C6  UNL     1     -33.188   4.563   3.324  1.00 20.00     0.038 C 
ENDROOT
BRANCH   4   7
HETATM    7  C10 UNL     1     -32.657   6.309   1.529  1.00 20.00    -0.028 C 
HETATM    8  C7  UNL     1     -32.033   7.680   1.836  1.00 20.00     0.019 C 
HETATM    9  C8  UNL     1     -33.506   6.409   0.252  1.00 20.00     0.019 C 
HETATM   10  C9  UNL     1     -31.540   5.276   1.311  1.00 20.00     0.019 C 
ENDBRANCH   4   7
TORSDOF 1
ENDMDL
MODEL 7
REMARK VINA RESULT:      -0.1      1.113      3.920
REMARK  1 active torsions:
REMARK  status: ('A' for Active; 'I' for Inactive)
REMARK    1  A    between atoms: C4_4  and  C10_10 
ROOT
HETATM    1  C1  UNL     1     -35.353   6.219   4.249  1.00 20.00    -0.004 C 
HETATM    2  C2  UNL     1     -34.549   6.613   3.120  1.00 20.00     0.003 C 
HETATM    3  C3  UNL     1     -35.218   5.013   4.814  1.00 20.00    -0.026 C 
HETATM    4  C4  UNL     1     -33.522   5.864   2.684  1.00 20.00    -0.072 C 
HETATM    5  C5  UNL     1     -34.222   4.003   4.324  1.00 20.00     0.031 C 
HETATM    6  C6  UNL     1     -33.164   4.556   3.351  1.00 20.00     0.038 C 
ENDROOT
BRANCH   4   7
HETATM    7  C10 UNL     1     -32.659   6.286   1.532  1.00 20.00    -0.028 C 
HETATM    8  C7  UNL     1     -31.541   5.251   1.331  1.00 20.00     0.019 C 
HETATM    9  C8  UNL     1     -32.037   7.660   1.824  1.00 20.00     0.019 C 
HETATM   10  C9  UNL     1     -33.506   6.378   0.253  1.00 20.00     0.019 C 
ENDBRANCH   4   7
TORSDOF 1
ENDMDL
MODEL 8
REMARK VINA RESULT:       0.2      1.089      4.169
REMARK  1 active torsions:
REMARK  status: ('A' for Active; 'I' for Inactive)
REMARK    1  A    between atoms: C4_4  and  C10_10 
ROOT
HETATM    1  C1  UNL     1     -34.220   4.088   4.255  1.00 20.00    -0.004 C 
HETATM    2  C2  UNL     1     -33.353   4.543   3.198  1.00 20.00     0.003 C 
HETATM    3  C3  UNL     1     -35.123   4.902   4.816  1.00 20.00    -0.026 C 
HETATM    4  C4  UNL     1     -33.514   5.743   2.615  1.00 20.00    -0.072 C 
HETATM    5  C5  UNL     1     -35.302   6.326   4.379  1.00 20.00     0.031 C 
HETATM    6  C6  UNL     1     -34.611   6.687   3.050  1.00 20.00     0.038 C 
ENDROOT
BRANCH   4   7
HETATM    7  C10 UNL     1     -32.638   6.208   1.491  1.00 20.00    -0.028 C 
HETATM    8  C7  UNL     1     -33.481   6.339   0.212  1.00 20.00     0.019 C 
HETATM    9  C8  UNL     1     -31.509   5.193   1.256  1.00 20.00     0.019 C 
HETATM   10  C9  UNL     1     -32.023   7.574   1.840  1.00 20.00     0.019 C 
ENDBRANCH   4   7
TORSDOF 1
ENDMDL
MODEL 9
REMARK VINA RESULT:       0.3      1.092      4.167
REMARK  1 active torsions:
REMARK  status: ('A' for Active; 'I' for Inactive)
REMARK    1  A    between atoms: C4_4  and  C10_10 
ROOT
HETATM    1  C1  UNL     1     -34.225   4.086   4.255  1.00 20.00    -0.004 C 
HETATM    2  C2  UNL     1     -33.358   4.544   3.200  1.00 20.00     0.003 C 
HETATM    3  C3  UNL     1     -35.127   4.898   4.820  1.00 20.00    -0.026 C 
HETATM    4  C4  UNL     1     -33.520   5.746   2.621  1.00 20.00    -0.072 C 
HETATM    5  C5  UNL     1     -35.306   6.324   4.389  1.00 20.00     0.031 C 
HETATM    6  C6  UNL     1     -34.616   6.689   3.060  1.00 20.00     0.038 C 
ENDROOT
BRANCH   4   7
HETATM    7  C10 UNL     1     -32.645   6.215   1.498  1.00 20.00    -0.028 C 
HETATM    8  C7  UNL     1     -31.525   5.189   1.265  1.00 20.00     0.019 C 
HETATM    9  C8  UNL     1     -32.025   7.576   1.854  1.00 20.00     0.019 C 
HETATM   10  C9  UNL     1     -33.478   6.362   0.214  1.00 20.00     0.019 C 
ENDBRANCH   4   7
TORSDOF 1
ENDMDL
