MODEL 1
REMARK VINA RESULT:      -2.0      0.000      0.000
REMARK  3 active torsions:
REMARK  status: ('A' for Active; 'I' for Inactive)
REMARK    1  A    between atoms: C5_5  and  C6_6 
REMARK    2  A    between atoms: C6_6  and  C7_7 
REMARK    3  A    between atoms: C7_7  and  C8_8 
ROOT
HETATM    1  C1  UNL     1     -35.285   6.387   3.974  1.00 20.00     0.004 C 
HETATM    2  C2  UNL     1     -34.876   5.071   4.626  1.00 20.00     0.026 C 
HETATM    3  C3  UNL     1     -34.084   7.048   3.303  1.00 20.00     0.032 C 
HETATM    4  C4  UNL     1     -34.120   4.193   3.638  1.00 20.00     0.168 C 
HETATM    5  C5  UNL     1     -33.374   6.062   2.375  1.00 20.00     0.121 C 
HETATM    6  O9  UNL     1     -32.994   4.887   3.102  1.00 20.00    -0.386 OA
ENDROOT
BRANCH   5   7
HETATM    7  C6  UNL     1     -32.110   6.674   1.787  1.00 20.00     0.033 C 
BRANCH   7   8
HETATM    8  C7  UNL     1     -32.133   8.199   1.881  1.00 20.00     0.017 C 
BRANCH   8   9
HETATM    9  C8  UNL     1     -31.881   8.833   0.520  1.00 20.00     0.115 C 
HETATM   10 CL10 UNL     1     -32.661  10.429   0.426  1.00 20.00    -0.130 Cl
ENDBRANCH   8   9
ENDBRANCH   7   8
ENDBRANCH   5   7
TORSDOF 3
ENDMDL
MODEL 2
REMARK VINA RESULT:      -2.0      2.947      4.701
REMARK  3 active torsions:
REMARK  status: ('A' for Active; 'I' for Inactive)
REMARK    1  A    between atoms: C5_5  and  C6_6 
REMARK    2  A    between atoms: C6_6  and  C7_7 
REMARK    3  A    between atoms: C7_7  and  C8_8 
ROOT
HETATM    1  C1  UNL     1     -32.039   8.410   2.896  1.00 20.00     0.004 C 
HETATM    2  C2  UNL     1     -31.946   7.887   1.467  1.00 20.00     0.026 C 
HETATM    3  C3  UNL     1     -33.369   8.012   3.527  1.00 20.00     0.032 C 
HETATM    4  C4  UNL     1     -32.267   6.400   1.417  1.00 20.00     0.168 C 
HETATM    5  C5  UNL     1     -33.611   6.509   3.372  1.00 20.00     0.121 C 
HETATM    6  O9  UNL     1     -33.548   6.139   1.990  1.00 20.00    -0.386 OA
ENDROOT
BRANCH   5   7
HETATM    7  C6  UNL     1     -34.986   6.117   3.897  1.00 20.00     0.033 C 
BRANCH   7   8
HETATM    8  C7  UNL     1     -34.960   4.739   4.555  1.00 20.00     0.017 C 
BRANCH   8   9
HETATM    9  C8  UNL     1     -33.877   3.862   3.941  1.00 20.00     0.115 C 
HETATM   10 CL10 UNL     1     -33.033   2.941   5.208  1.00 20.00    -0.130 Cl
ENDBRANCH   8   9
ENDBRANCH   7   8
ENDBRANCH   5   7
TORSDOF 3
ENDMDL
MODEL 3
REMARK VINA RESULT:      -1.7      1.168      1.737
REMARK  3 active torsions:
REMARK  status: ('A' for Active; 'I' for Inactive)
REMARK    1  A    between atoms: C5_5  and  C6_6 
REMARK    2  A    between atoms: C6_6  and  C7_7 
REMARK    3  A    between atoms: C7_7  and  C8_8 
ROOT
HETATM    1  C1  UNL     1     -34.375   5.015   3.693  1.00 20.00     0.004 C 
HETATM    2  C2  UNL     1     -35.211   6.208   4.140  1.00 20.00     0.026 C 
HETATM    3  C3  UNL     1     -33.555   5.368   2.456  1.00 20.00     0.032 C 
HETATM    4  C4  UNL     1     -34.344   7.453   4.270  1.00 20.00     0.168 C 
HETATM    5  C5  UNL     1     -32.767   6.660   2.681  1.00 20.00     0.121 C 
HETATM    6  O9  UNL     1     -33.656   7.722   3.049  1.00 20.00    -0.386 OA
ENDROOT
BRANCH   5   7
HETATM    7  C6  UNL     1     -32.034   7.083   1.416  1.00 20.00     0.033 C 
BRANCH   7   8
HETATM    8  C7  UNL     1     -31.747   8.583   1.413  1.00 20.00     0.017 C 
BRANCH   8   9
HETATM    9  C8  UNL     1     -32.232   9.229   0.122  1.00 20.00     0.115 C 
HETATM   10 CL10 UNL     1     -32.593  10.950   0.388  1.00 20.00    -0.130 Cl
ENDBRANCH   8   9
ENDBRANCH   7   8
ENDBRANCH   5   7
TORSDOF 3
ENDMDL
MODEL 4
REMARK VINA RESULT:      -1.3      0.963      1.270
REMARK  3 active torsions:
REMARK  status: ('A' for Active; 'I' for Inactive)
REMARK    1  A    between atoms: C5_5  and  C6_6 
REMARK    2  A    between atoms: C6_6  and  C7_7 
REMARK    3  A    between atoms: C7_7  and  C8_8 
ROOT
HETATM    1  C1  UNL     1     -34.859   6.516   3.963  1.00 20.00     0.004 C 
HETATM    2  C2  UNL     1     -34.276   5.136   3.682  1.00 20.00     0.026 C 
HETATM    3  C3  UNL     1     -33.817   7.600   3.702  1.00 20.00     0.032 C 
HETATM    4  C4  UNL     1     -33.629   5.095   2.305  1.00 20.00     0.168 C 
HETATM    5  C5  UNL     1     -33.198   7.431   2.313  1.00 20.00     0.121 C 
HETATM    6  O9  UNL     1     -32.642   6.118   2.178  1.00 20.00    -0.386 OA
ENDROOT
BRANCH   5   7
HETATM    7  C6  UNL     1     -32.079   8.438   2.085  1.00 20.00     0.033 C 
BRANCH   7   8
HETATM    8  C7  UNL     1     -31.658   8.480   0.617  1.00 20.00     0.017 C 
BRANCH   8   9
HETATM    9  C8  UNL     1     -32.403   9.576  -0.133  1.00 20.00     0.115 C 
HETATM   10 CL10 UNL     1     -32.734  10.951   0.946  1.00 20.00    -0.130 Cl
ENDBRANCH   8   9
ENDBRANCH   7   8
ENDBRANCH   5   7
TORSDOF 3
ENDMDL
MODEL 5
REMARK VINA RESULT:      -1.1      2.679      4.532
REMARK  3 active torsions:
REMARK  status: ('A' for Active; 'I' for Inactive)
REMARK    1  A    between atoms: C5_5  and  C6_6 
REMARK    2  A    between atoms: C6_6  and  C7_7 
REMARK    3  A    between atoms: C7_7  and  C8_8 
ROOT
HETATM    1  C1  UNL     1     -31.502   8.221   1.820  1.00 20.00     0.004 C 
HETATM    2  C2  UNL     1     -31.796   7.160   0.767  1.00 20.00     0.026 C 
HETATM    3  C3  UNL     1     -32.703   8.408   2.743  1.00 20.00     0.032 C 
HETATM    4  C4  UNL     1     -32.319   5.886   1.418  1.00 20.00     0.168 C 
HETATM    5  C5  UNL     1     -33.173   7.062   3.296  1.00 20.00     0.121 C 
HETATM    6  O9  UNL     1     -33.466   6.161   2.222  1.00 20.00    -0.386 OA
ENDROOT
BRANCH   5   7
HETATM    7  C6  UNL     1     -34.438   7.222   4.128  1.00 20.00     0.033 C 
BRANCH   7   8
HETATM    8  C7  UNL     1     -35.443   6.110   3.835  1.00 20.00     0.017 C 
BRANCH   8   9
HETATM    9  C8  UNL     1     -35.264   4.945   4.799  1.00 20.00     0.115 C 
HETATM   10 CL10 UNL     1     -33.996   3.844   4.213  1.00 20.00    -0.130 Cl
ENDBRANCH   8   9
ENDBRANCH   7   8
ENDBRANCH   5   7
TORSDOF 3
ENDMDL
MODEL 6
REMARK VINA RESULT:      -0.9      3.145      4.983
REMARK  3 active torsions:
REMARK  status: ('A' for Active; 'I' for Inactive)
REMARK    1  A    between atoms: C5_5  and  C6_6 
REMARK    2  A    between atoms: C6_6  and  C7_7 
REMARK    3  A    between atoms: C7_7  and  C8_8 
ROOT
HETATM    1  C1  UNL     1     -32.358   6.498   1.091  1.00 20.00     0.004 C 
HETATM    2  C2  UNL     1     -31.565   7.625   1.743  1.00 20.00     0.026 C 
HETATM    3  C3  UNL     1     -33.156   5.728   2.139  1.00 20.00     0.032 C 
HETATM    4  C4  UNL     1     -32.467   8.476   2.626  1.00 20.00     0.168 C 
HETATM    5  C5  UNL     1     -33.982   6.685   2.999  1.00 20.00     0.121 C 
HETATM    6  O9  UNL     1     -33.131   7.670   3.599  1.00 20.00    -0.386 OA
ENDROOT
BRANCH   5   7
HETATM    7  C6  UNL     1     -34.694   5.941   4.119  1.00 20.00     0.033 C 
BRANCH   7   8
HETATM    8  C7  UNL     1     -34.572   4.427   3.950  1.00 20.00     0.017 C 
BRANCH   8   9
HETATM    9  C8  UNL     1     -33.712   3.823   5.052  1.00 20.00     0.115 C 
HETATM   10 CL10 UNL     1     -33.081   2.238   4.547  1.00 20.00    -0.130 Cl
ENDBRANCH   8   9
ENDBRANCH   7   8
ENDBRANCH   5   7
TORSDOF 3
ENDMDL
MODEL 7
REMARK VINA RESULT:      -0.0      2.705      4.870
REMARK  3 active torsions:
REMARK  status: ('A' for Active; 'I' for Inactive)
REMARK    1  A    between atoms: C5_5  and  C6_6 
REMARK    2  A    between atoms: C6_6  and  C7_7 
REMARK    3  A    between atoms: C7_7  and  C8_8 
ROOT
HETATM    1  C1  UNL     1     -32.788  10.386   1.137  1.00 20.00     0.004 C 
HETATM    2  C2  UNL     1     -32.217   9.832  -0.163  1.00 20.00     0.026 C 
HETATM    3  C3  UNL     1     -33.367   9.261   1.990  1.00 20.00     0.032 C 
HETATM    4  C4  UNL     1     -31.267   8.676   0.116  1.00 20.00     0.168 C 
HETATM    5  C5  UNL     1     -32.347   8.134   2.161  1.00 20.00     0.121 C 
HETATM    6  O9  UNL     1     -31.916   7.660   0.880  1.00 20.00    -0.386 OA
ENDROOT
BRANCH   5   7
HETATM    7  C6  UNL     1     -32.950   6.957   2.915  1.00 20.00     0.033 C 
BRANCH   7   8
HETATM    8  C7  UNL     1     -34.094   7.403   3.824  1.00 20.00     0.017 C 
BRANCH   8   9
HETATM    9  C8  UNL     1     -35.089   6.272   4.044  1.00 20.00     0.115 C 
HETATM   10 CL10 UNL     1     -34.274   4.695   3.918  1.00 20.00    -0.130 Cl
ENDBRANCH   8   9
ENDBRANCH   7   8
ENDBRANCH   5   7
TORSDOF 3
ENDMDL
MODEL 8
REMARK VINA RESULT:       0.5      2.534      4.833
REMARK  3 active torsions:
REMARK  status: ('A' for Active; 'I' for Inactive)
REMARK    1  A    between atoms: C5_5  and  C6_6 
REMARK    2  A    between atoms: C6_6  and  C7_7 
REMARK    3  A    between atoms: C7_7  and  C8_8 
ROOT
HETATM    1  C1  UNL     1     -32.656  10.593   0.698  1.00 20.00     0.004 C 
HETATM    2  C2  UNL     1     -32.180   9.782  -0.502  1.00 20.00     0.026 C 
HETATM    3  C3  UNL     1     -33.225   9.673   1.774  1.00 20.00     0.032 C 
HETATM    4  C4  UNL     1     -31.257   8.655  -0.058  1.00 20.00     0.168 C 
HETATM    5  C5  UNL     1     -32.238   8.552   2.103  1.00 20.00     0.121 C 
HETATM    6  O9  UNL     1     -31.898   7.829   0.914  1.00 20.00    -0.386 OA
ENDROOT
BRANCH   5   7
HETATM    7  C6  UNL     1     -32.840   7.564   3.093  1.00 20.00     0.033 C 
BRANCH   7   8
HETATM    8  C7  UNL     1     -33.127   6.217   2.432  1.00 20.00     0.017 C 
BRANCH   8   9
HETATM    9  C8  UNL     1     -34.088   5.390   3.275  1.00 20.00     0.115 C 
HETATM   10 CL10 UNL     1     -35.304   6.440   4.040  1.00 20.00    -0.130 Cl
ENDBRANCH   8   9
ENDBRANCH   7   8
ENDBRANCH   5   7
TORSDOF 3
ENDMDL
MODEL 9
REMARK VINA RESULT:       0.6      2.808      4.994
REMARK  3 active torsions:
REMARK  status: ('A' for Active; 'I' for Inactive)
REMARK    1  A    between atoms: C5_5  and  C6_6 
REMARK    2  A    between atoms: C6_6  and  C7_7 
REMARK    3  A    between atoms: C7_7  and  C8_8 
ROOT
HETATM    1  C1  UNL     1     -31.386   7.600   0.548  1.00 20.00     0.004 C 
HETATM    2  C2  UNL     1     -31.473   9.122   0.552  1.00 20.00     0.026 C 
HETATM    3  C3  UNL     1     -31.838   7.034   1.891  1.00 20.00     0.032 C 
HETATM    4  C4  UNL     1     -32.848   9.580   1.018  1.00 20.00     0.168 C 
HETATM    5  C5  UNL     1     -33.204   7.602   2.283  1.00 20.00     0.121 C 
HETATM    6  O9  UNL     1     -33.157   9.033   2.300  1.00 20.00    -0.386 OA
ENDROOT
BRANCH   5   7
HETATM    7  C6  UNL     1     -33.614   7.133   3.672  1.00 20.00     0.033 C 
BRANCH   7   8
HETATM    8  C7  UNL     1     -35.072   6.675   3.699  1.00 20.00     0.017 C 
BRANCH   8   9
HETATM    9  C8  UNL     1     -35.216   5.358   4.448  1.00 20.00     0.115 C 
HETATM   10 CL10 UNL     1     -33.952   4.213   3.941  1.00 20.00    -0.130 Cl
ENDBRANCH   8   9
ENDBRANCH   7   8
ENDBRANCH   5   7
TORSDOF 3
ENDMDL
