MODEL 1
REMARK VINA RESULT:      -1.7      0.000      0.000
REMARK  2 active torsions:
REMARK  status: ('A' for Active; 'I' for Inactive)
REMARK    1  A    between atoms: C5_5  and  C6_6 
REMARK    2  A    between atoms: C6_6  and  C7_7 
ROOT
HETATM    1  C1  UNL     1     -33.073   5.962   1.940  1.00 20.00     0.031 C 
HETATM    2  C2  UNL     1     -33.466   8.171   3.062  1.00 20.00     0.031 C 
HETATM    3  C3  UNL     1     -33.779   5.315   3.125  1.00 20.00     0.168 C 
HETATM    4  C4  UNL     1     -34.149   7.400   4.185  1.00 20.00     0.168 C 
HETATM    5  C5  UNL     1     -32.431   7.291   2.352  1.00 20.00    -0.010 C 
HETATM    6  O8  UNL     1     -34.745   6.203   3.686  1.00 20.00    -0.391 OA
ENDROOT
BRANCH   5   7
HETATM    7  C6  UNL     1     -31.831   8.009   1.147  1.00 20.00     0.020 C 
BRANCH   7   8
HETATM    8  C7  UNL     1     -32.256   9.467   1.041  1.00 20.00     0.115 C 
HETATM    9 CL9  UNL     1     -32.760   9.899  -0.609  1.00 20.00    -0.130 Cl
ENDBRANCH   7   8
ENDBRANCH   5   7
TORSDOF 2
ENDMDL
MODEL 2
REMARK VINA RESULT:      -1.7      3.169      4.505
REMARK  2 active torsions:
REMARK  status: ('A' for Active; 'I' for Inactive)
REMARK    1  A    between atoms: C5_5  and  C6_6 
REMARK    2  A    between atoms: C6_6  and  C7_7 
ROOT
HETATM    1  C1  UNL     1     -33.430   8.000   3.529  1.00 20.00     0.031 C 
HETATM    2  C2  UNL     1     -33.458   6.078   1.917  1.00 20.00     0.031 C 
HETATM    3  C3  UNL     1     -32.054   8.351   2.977  1.00 20.00     0.168 C 
HETATM    4  C4  UNL     1     -32.079   6.536   1.455  1.00 20.00     0.168 C 
HETATM    5  C5  UNL     1     -33.712   6.502   3.369  1.00 20.00    -0.010 C 
HETATM    6  O8  UNL     1     -31.937   7.947   1.613  1.00 20.00    -0.391 OA
ENDROOT
BRANCH   5   7
HETATM    7  C6  UNL     1     -35.135   6.160   3.801  1.00 20.00     0.020 C 
BRANCH   7   8
HETATM    8  C7  UNL     1     -35.223   4.893   4.638  1.00 20.00     0.115 C 
HETATM    9 CL9  UNL     1     -33.885   3.771   4.298  1.00 20.00    -0.130 Cl
ENDBRANCH   7   8
ENDBRANCH   5   7
TORSDOF 2
ENDMDL
MODEL 3
REMARK VINA RESULT:      -1.6      0.864      1.800
REMARK  2 active torsions:
REMARK  status: ('A' for Active; 'I' for Inactive)
REMARK    1  A    between atoms: C5_5  and  C6_6 
REMARK    2  A    between atoms: C6_6  and  C7_7 
ROOT
HETATM    1  C1  UNL     1     -33.680   7.629   3.666  1.00 20.00     0.031 C 
HETATM    2  C2  UNL     1     -32.683   5.931   2.113  1.00 20.00     0.031 C 
HETATM    3  C3  UNL     1     -34.758   6.601   3.986  1.00 20.00     0.168 C 
HETATM    4  C4  UNL     1     -33.817   4.997   2.519  1.00 20.00     0.168 C 
HETATM    5  C5  UNL     1     -33.107   7.396   2.264  1.00 20.00    -0.010 C 
HETATM    6  O8  UNL     1     -34.248   5.275   3.851  1.00 20.00    -0.391 OA
ENDROOT
BRANCH   5   7
HETATM    7  C6  UNL     1     -31.941   8.339   1.982  1.00 20.00     0.020 C 
BRANCH   7   8
HETATM    8  C7  UNL     1     -31.907   8.842   0.546  1.00 20.00     0.115 C 
HETATM    9 CL9  UNL     1     -32.659  10.445   0.380  1.00 20.00    -0.130 Cl
ENDBRANCH   7   8
ENDBRANCH   5   7
TORSDOF 2
ENDMDL
MODEL 4
REMARK VINA RESULT:      -1.5      1.331      1.671
REMARK  2 active torsions:
REMARK  status: ('A' for Active; 'I' for Inactive)
REMARK    1  A    between atoms: C5_5  and  C6_6 
REMARK    2  A    between atoms: C6_6  and  C7_7 
ROOT
HETATM    1  C1  UNL     1     -33.345   4.682   2.970  1.00 20.00     0.031 C 
HETATM    2  C2  UNL     1     -34.708   6.766   3.273  1.00 20.00     0.031 C 
HETATM    3  C3  UNL     1     -34.005   4.151   4.237  1.00 20.00     0.168 C 
HETATM    4  C4  UNL     1     -35.292   6.119   4.523  1.00 20.00     0.168 C 
HETATM    5  C5  UNL     1     -33.308   6.214   2.979  1.00 20.00    -0.010 C 
HETATM    6  O8  UNL     1     -35.313   4.698   4.393  1.00 20.00    -0.391 OA
ENDROOT
BRANCH   5   7
HETATM    7  C6  UNL     1     -32.766   6.760   1.662  1.00 20.00     0.020 C 
BRANCH   7   8
HETATM    8  C7  UNL     1     -31.919   8.013   1.832  1.00 20.00     0.115 C 
HETATM    9 CL9  UNL     1     -32.326   9.264   0.634  1.00 20.00    -0.130 Cl
ENDBRANCH   7   8
ENDBRANCH   5   7
TORSDOF 2
ENDMDL
MODEL 5
REMARK VINA RESULT:      -1.4      3.405      4.491
REMARK  2 active torsions:
REMARK  status: ('A' for Active; 'I' for Inactive)
REMARK    1  A    between atoms: C5_5  and  C6_6 
REMARK    2  A    between atoms: C6_6  and  C7_7 
ROOT
HETATM    1  C1  UNL     1     -33.015   5.645   2.331  1.00 20.00     0.031 C 
HETATM    2  C2  UNL     1     -33.766   7.336   4.025  1.00 20.00     0.031 C 
HETATM    3  C3  UNL     1     -32.543   6.815   1.476  1.00 20.00     0.168 C 
HETATM    4  C4  UNL     1     -33.253   8.412   3.075  1.00 20.00     0.168 C 
HETATM    5  C5  UNL     1     -34.164   6.074   3.251  1.00 20.00    -0.010 C 
HETATM    6  O8  UNL     1     -32.163   7.919   2.296  1.00 20.00    -0.391 OA
ENDROOT
BRANCH   5   7
HETATM    7  C6  UNL     1     -34.559   4.948   4.200  1.00 20.00     0.020 C 
BRANCH   7   8
HETATM    8  C7  UNL     1     -33.847   3.635   3.909  1.00 20.00     0.115 C 
HETATM    9 CL9  UNL     1     -32.940   3.038   5.318  1.00 20.00    -0.130 Cl
ENDBRANCH   7   8
ENDBRANCH   5   7
TORSDOF 2
ENDMDL
MODEL 6
REMARK VINA RESULT:      -1.2      3.143      4.189
REMARK  2 active torsions:
REMARK  status: ('A' for Active; 'I' for Inactive)
REMARK    1  A    between atoms: C5_5  and  C6_6 
REMARK    2  A    between atoms: C6_6  and  C7_7 
ROOT
HETATM    1  C1  UNL     1     -33.341   5.621   2.353  1.00 20.00     0.031 C 
HETATM    2  C2  UNL     1     -32.876   7.951   3.158  1.00 20.00     0.031 C 
HETATM    3  C3  UNL     1     -32.508   5.956   1.122  1.00 20.00     0.168 C 
HETATM    4  C4  UNL     1     -32.069   8.156   1.881  1.00 20.00     0.168 C 
HETATM    5  C5  UNL     1     -33.962   6.890   2.948  1.00 20.00    -0.010 C 
HETATM    6  O8  UNL     1     -31.506   6.922   1.436  1.00 20.00    -0.391 OA
ENDROOT
BRANCH   5   7
HETATM    7  C6  UNL     1     -34.693   6.586   4.252  1.00 20.00     0.020 C 
BRANCH   7   8
HETATM    8  C7  UNL     1     -35.295   5.188   4.294  1.00 20.00     0.115 C 
HETATM    9 CL9  UNL     1     -34.060   3.936   4.560  1.00 20.00    -0.130 Cl
ENDBRANCH   7   8
ENDBRANCH   5   7
TORSDOF 2
ENDMDL
MODEL 7
REMARK VINA RESULT:      -0.2      1.959      2.751
REMARK  2 active torsions:
REMARK  status: ('A' for Active; 'I' for Inactive)
REMARK    1  A    between atoms: C5_5  and  C6_6 
REMARK    2  A    between atoms: C6_6  and  C7_7 
ROOT
HETATM    1  C1  UNL     1     -34.810   6.908   3.994  1.00 20.00     0.031 C 
HETATM    2  C2  UNL     1     -33.057   5.192   3.467  1.00 20.00     0.031 C 
HETATM    3  C3  UNL     1     -35.761   5.749   4.268  1.00 20.00     0.168 C 
HETATM    4  C4  UNL     1     -34.107   4.129   3.770  1.00 20.00     0.168 C 
HETATM    5  C5  UNL     1     -33.721   6.492   2.999  1.00 20.00    -0.010 C 
HETATM    6  O8  UNL     1     -35.045   4.606   4.734  1.00 20.00    -0.391 OA
ENDROOT
BRANCH   5   7
HETATM    7  C6  UNL     1     -32.691   7.601   2.814  1.00 20.00     0.020 C 
BRANCH   7   8
HETATM    8  C7  UNL     1     -31.878   7.462   1.534  1.00 20.00     0.115 C 
HETATM    9 CL9  UNL     1     -31.883   5.795   0.915  1.00 20.00    -0.130 Cl
ENDBRANCH   7   8
ENDBRANCH   5   7
TORSDOF 2
ENDMDL
MODEL 8
REMARK VINA RESULT:       0.2      2.493      2.838
REMARK  2 active torsions:
REMARK  status: ('A' for Active; 'I' for Inactive)
REMARK    1  A    between atoms: C5_5  and  C6_6 
REMARK    2  A    between atoms: C6_6  and  C7_7 
ROOT
HETATM    1  C1  UNL     1     -33.438   4.531   3.223  1.00 20.00     0.031 C 
HETATM    2  C2  UNL     1     -34.708   6.693   3.306  1.00 20.00     0.031 C 
HETATM    3  C3  UNL     1     -34.172   4.132   4.497  1.00 20.00     0.168 C 
HETATM    4  C4  UNL     1     -35.371   6.174   4.576  1.00 20.00     0.168 C 
HETATM    5  C5  UNL     1     -33.326   6.056   3.116  1.00 20.00    -0.010 C 
HETATM    6  O8  UNL     1     -35.458   4.749   4.554  1.00 20.00    -0.391 OA
ENDROOT
BRANCH   5   7
HETATM    7  C6  UNL     1     -32.706   6.471   1.786  1.00 20.00     0.020 C 
BRANCH   7   8
HETATM    8  C7  UNL     1     -32.898   5.440   0.683  1.00 20.00     0.115 C 
HETATM    9 CL9  UNL     1     -31.411   4.519   0.361  1.00 20.00    -0.130 Cl
ENDBRANCH   7   8
ENDBRANCH   5   7
TORSDOF 2
ENDMDL
MODEL 9
REMARK VINA RESULT:       0.3      2.600      3.433
REMARK  2 active torsions:
REMARK  status: ('A' for Active; 'I' for Inactive)
REMARK    1  A    between atoms: C5_5  and  C6_6 
REMARK    2  A    between atoms: C6_6  and  C7_7 
ROOT
HETATM    1  C1  UNL     1     -31.978   7.216   1.768  1.00 20.00     0.031 C 
HETATM    2  C2  UNL     1     -33.782   6.017   3.033  1.00 20.00     0.031 C 
HETATM    3  C3  UNL     1     -32.306   8.447   2.604  1.00 20.00     0.168 C 
HETATM    4  C4  UNL     1     -34.010   7.316   3.799  1.00 20.00     0.168 C 
HETATM    5  C5  UNL     1     -33.202   6.303   1.643  1.00 20.00    -0.010 C 
HETATM    6  O8  UNL     1     -32.801   8.068   3.888  1.00 20.00    -0.391 OA
ENDROOT
BRANCH   5   7
HETATM    7  C6  UNL     1     -32.852   5.008   0.916  1.00 20.00     0.020 C 
BRANCH   7   8
HETATM    8  C7  UNL     1     -31.362   4.700   0.917  1.00 20.00     0.115 C 
HETATM    9 CL9  UNL     1     -30.903   3.606  -0.408  1.00 20.00    -0.130 Cl
ENDBRANCH   7   8
ENDBRANCH   5   7
TORSDOF 2
ENDMDL
