MODEL 1
REMARK VINA RESULT:      -2.1      0.000      0.000
REMARK  4 active torsions:
REMARK  status: ('A' for Active; 'I' for Inactive)
REMARK    1  A    between atoms: C5_5  and  C8_8 
REMARK    2  A    between atoms: C7_7  and  N10_10 
REMARK    3  A    between atoms: C8_8  and  N10_10 
REMARK    4  A    between atoms: C9_9  and  N10_10 
ROOT
HETATM    1  C1  UNL     1     -35.350   6.150   4.054  1.00 20.00     0.013 C 
HETATM    2  C2  UNL     1     -34.371   6.778   3.755  1.00 20.00    -0.087 C 
HETATM    3  C7  UNL     1     -33.177   7.545   3.394  1.00 20.00     0.364 C 
ENDROOT
BRANCH   3   4
HETATM    4  N10 UNL     1     -32.803   7.294   2.002  1.00 20.00     0.099 N 
BRANCH   4   5
HETATM    5  C8  UNL     1     -31.968   8.382   1.494  1.00 20.00     0.278 C 
BRANCH   5   6
HETATM    6  C5  UNL     1     -32.721   9.232   0.527  1.00 20.00     0.014 A 
HETATM    7  C3  UNL     1     -32.746  10.726   0.692  1.00 20.00     0.007 A 
HETATM    8  C4  UNL     1     -31.982  10.107  -0.446  1.00 20.00     0.007 A 
ENDBRANCH   5   6
ENDBRANCH   4   5
BRANCH   4   9
HETATM    9  C9  UNL     1     -32.106   6.014   1.882  1.00 20.00     0.269 C 
HETATM   10  C6  UNL     1     -32.691   5.184   0.792  1.00 20.00     0.037 C 
ENDBRANCH   4   9
ENDBRANCH   3   4
TORSDOF 4
ENDMDL
MODEL 2
REMARK VINA RESULT:      -1.7      0.758      4.141
REMARK  4 active torsions:
REMARK  status: ('A' for Active; 'I' for Inactive)
REMARK    1  A    between atoms: C5_5  and  C8_8 
REMARK    2  A    between atoms: C7_7  and  N10_10 
REMARK    3  A    between atoms: C8_8  and  N10_10 
REMARK    4  A    between atoms: C9_9  and  N10_10 
ROOT
HETATM    1  C1  UNL     1     -32.663   9.814   0.065  1.00 20.00     0.013 C 
HETATM    2  C2  UNL     1     -32.168   9.078   0.874  1.00 20.00    -0.087 C 
HETATM    3  C7  UNL     1     -31.559   8.184   1.861  1.00 20.00     0.364 C 
ENDROOT
BRANCH   3   4
HETATM    4  N10 UNL     1     -32.499   7.134   2.255  1.00 20.00     0.099 N 
BRANCH   4   5
HETATM    5  C8  UNL     1     -33.717   7.722   2.811  1.00 20.00     0.278 C 
BRANCH   5   6
HETATM    6  C5  UNL     1     -34.192   6.954   3.998  1.00 20.00     0.014 A 
HETATM    7  C3  UNL     1     -35.555   6.320   3.995  1.00 20.00     0.007 A 
HETATM    8  C4  UNL     1     -34.325   5.458   3.928  1.00 20.00     0.007 A 
ENDBRANCH   5   6
ENDBRANCH   4   5
BRANCH   4   9
HETATM    9  C9  UNL     1     -32.818   6.279   1.113  1.00 20.00     0.269 C 
HETATM   10  C6  UNL     1     -31.973   5.051   1.108  1.00 20.00     0.037 C 
ENDBRANCH   4   9
ENDBRANCH   3   4
TORSDOF 4
ENDMDL
MODEL 3
REMARK VINA RESULT:      -1.5      0.774      2.660
REMARK  4 active torsions:
REMARK  status: ('A' for Active; 'I' for Inactive)
REMARK    1  A    between atoms: C5_5  and  C8_8 
REMARK    2  A    between atoms: C7_7  and  N10_10 
REMARK    3  A    between atoms: C8_8  and  N10_10 
REMARK    4  A    between atoms: C9_9  and  N10_10 
ROOT
HETATM    1  C1  UNL     1     -31.583   4.603   0.742  1.00 20.00     0.013 C 
HETATM    2  C2  UNL     1     -32.356   5.414   1.173  1.00 20.00    -0.087 C 
HETATM    3  C7  UNL     1     -33.303   6.401   1.696  1.00 20.00     0.364 C 
ENDROOT
BRANCH   3   4
HETATM    4  N10 UNL     1     -32.678   7.215   2.738  1.00 20.00     0.099 N 
BRANCH   4   5
HETATM    5  C8  UNL     1     -31.983   8.358   2.146  1.00 20.00     0.278 C 
BRANCH   5   6
HETATM    6  C5  UNL     1     -32.749   8.916   0.996  1.00 20.00     0.014 A 
HETATM    7  C3  UNL     1     -32.702  10.389   0.698  1.00 20.00     0.007 A 
HETATM    8  C4  UNL     1     -32.027   9.414  -0.225  1.00 20.00     0.007 A 
ENDBRANCH   5   6
ENDBRANCH   4   5
BRANCH   4   9
HETATM    9  C9  UNL     1     -33.679   7.669   3.703  1.00 20.00     0.269 C 
HETATM   10  C6  UNL     1     -34.759   6.656   3.873  1.00 20.00     0.037 C 
ENDBRANCH   4   9
ENDBRANCH   3   4
TORSDOF 4
ENDMDL
MODEL 4
REMARK VINA RESULT:      -1.4      1.999      3.241
REMARK  4 active torsions:
REMARK  status: ('A' for Active; 'I' for Inactive)
REMARK    1  A    between atoms: C5_5  and  C8_8 
REMARK    2  A    between atoms: C7_7  and  N10_10 
REMARK    3  A    between atoms: C8_8  and  N10_10 
REMARK    4  A    between atoms: C9_9  and  N10_10 
ROOT
HETATM    1  C1  UNL     1     -32.925   2.843   5.030  1.00 20.00     0.013 C 
HETATM    2  C2  UNL     1     -33.478   3.598   4.278  1.00 20.00    -0.087 C 
HETATM    3  C7  UNL     1     -34.157   4.515   3.360  1.00 20.00     0.364 C 
ENDROOT
BRANCH   3   4
HETATM    4  N10 UNL     1     -33.416   5.771   3.244  1.00 20.00     0.099 N 
BRANCH   4   5
HETATM    5  C8  UNL     1     -33.078   6.038   1.846  1.00 20.00     0.278 C 
BRANCH   5   6
HETATM    6  C5  UNL     1     -31.898   6.943   1.742  1.00 20.00     0.014 A 
HETATM    7  C3  UNL     1     -31.948   8.153   0.851  1.00 20.00     0.007 A 
HETATM    8  C4  UNL     1     -31.943   8.319   2.345  1.00 20.00     0.007 A 
ENDBRANCH   5   6
ENDBRANCH   4   5
BRANCH   4   9
HETATM    9  C9  UNL     1     -34.194   6.877   3.802  1.00 20.00     0.269 C 
HETATM   10  C6  UNL     1     -35.626   6.498   3.964  1.00 20.00     0.037 C 
ENDBRANCH   4   9
ENDBRANCH   3   4
TORSDOF 4
ENDMDL
MODEL 5
REMARK VINA RESULT:      -0.9      0.901      4.241
REMARK  4 active torsions:
REMARK  status: ('A' for Active; 'I' for Inactive)
REMARK    1  A    between atoms: C5_5  and  C8_8 
REMARK    2  A    between atoms: C7_7  and  N10_10 
REMARK    3  A    between atoms: C8_8  and  N10_10 
REMARK    4  A    between atoms: C9_9  and  N10_10 
ROOT
HETATM    1  C1  UNL     1     -32.402   9.905   0.258  1.00 20.00     0.013 C 
HETATM    2  C2  UNL     1     -32.256   9.070   1.108  1.00 20.00    -0.087 C 
HETATM    3  C7  UNL     1     -32.073   8.054   2.147  1.00 20.00     0.364 C 
ENDROOT
BRANCH   3   4
HETATM    4  N10 UNL     1     -33.322   7.331   2.388  1.00 20.00     0.099 N 
BRANCH   4   5
HETATM    5  C8  UNL     1     -33.128   5.895   2.190  1.00 20.00     0.278 C 
BRANCH   5   6
HETATM    6  C5  UNL     1     -32.323   5.625   0.965  1.00 20.00     0.014 A 
HETATM    7  C3  UNL     1     -31.290   4.532   0.962  1.00 20.00     0.007 A 
HETATM    8  C4  UNL     1     -32.555   4.372   0.166  1.00 20.00     0.007 A 
ENDBRANCH   5   6
ENDBRANCH   4   5
BRANCH   4   9
HETATM    9  C9  UNL     1     -33.815   7.599   3.739  1.00 20.00     0.269 C 
HETATM   10  C6  UNL     1     -34.907   6.655   4.109  1.00 20.00     0.037 C 
ENDBRANCH   4   9
ENDBRANCH   3   4
TORSDOF 4
ENDMDL
MODEL 6
REMARK VINA RESULT:      -0.8      2.241      3.496
REMARK  4 active torsions:
REMARK  status: ('A' for Active; 'I' for Inactive)
REMARK    1  A    between atoms: C5_5  and  C8_8 
REMARK    2  A    between atoms: C7_7  and  N10_10 
REMARK    3  A    between atoms: C8_8  and  N10_10 
REMARK    4  A    between atoms: C9_9  and  N10_10 
ROOT
HETATM    1  C1  UNL     1     -33.441   8.225   4.811  1.00 20.00     0.013 C 
HETATM    2  C2  UNL     1     -34.214   7.404   4.398  1.00 20.00    -0.087 C 
HETATM    3  C7  UNL     1     -35.160   6.406   3.893  1.00 20.00     0.364 C 
ENDROOT
BRANCH   3   4
HETATM    4  N10 UNL     1     -34.466   5.165   3.548  1.00 20.00     0.099 N 
BRANCH   4   5
HETATM    5  C8  UNL     1     -33.087   5.444   3.150  1.00 20.00     0.278 C 
BRANCH   5   6
HETATM    6  C5  UNL     1     -33.018   5.891   1.729  1.00 20.00     0.014 A 
HETATM    7  C3  UNL     1     -32.076   6.992   1.326  1.00 20.00     0.007 A 
HETATM    8  C4  UNL     1     -31.807   5.577   0.894  1.00 20.00     0.007 A 
ENDBRANCH   5   6
ENDBRANCH   4   5
BRANCH   4   9
HETATM    9  C9  UNL     1     -34.494   4.233   4.675  1.00 20.00     0.269 C 
HETATM   10  C6  UNL     1     -33.427   3.201   4.545  1.00 20.00     0.037 C 
ENDBRANCH   4   9
ENDBRANCH   3   4
TORSDOF 4
ENDMDL
MODEL 7
REMARK VINA RESULT:      -0.7      2.178      3.901
REMARK  4 active torsions:
REMARK  status: ('A' for Active; 'I' for Inactive)
REMARK    1  A    between atoms: C5_5  and  C8_8 
REMARK    2  A    between atoms: C7_7  and  N10_10 
REMARK    3  A    between atoms: C8_8  and  N10_10 
REMARK    4  A    between atoms: C9_9  and  N10_10 
ROOT
HETATM    1  C1  UNL     1     -32.917   2.643   4.906  1.00 20.00     0.013 C 
HETATM    2  C2  UNL     1     -33.722   3.489   4.628  1.00 20.00    -0.087 C 
HETATM    3  C7  UNL     1     -34.708   4.518   4.291  1.00 20.00     0.364 C 
ENDROOT
BRANCH   3   4
HETATM    4  N10 UNL     1     -34.045   5.733   3.818  1.00 20.00     0.099 N 
BRANCH   4   5
HETATM    5  C8  UNL     1     -33.810   5.659   2.376  1.00 20.00     0.278 C 
BRANCH   5   6
HETATM    6  C5  UNL     1     -32.360   5.807   2.059  1.00 20.00     0.014 A 
HETATM    7  C3  UNL     1     -31.868   5.610   0.652  1.00 20.00     0.007 A 
HETATM    8  C4  UNL     1     -31.877   6.985   1.260  1.00 20.00     0.007 A 
ENDBRANCH   5   6
ENDBRANCH   4   5
BRANCH   4   9
HETATM    9  C9  UNL     1     -34.844   6.913   4.145  1.00 20.00     0.269 C 
HETATM   10  C6  UNL     1     -33.979   8.111   4.340  1.00 20.00     0.037 C 
ENDBRANCH   4   9
ENDBRANCH   3   4
TORSDOF 4
ENDMDL
MODEL 8
REMARK VINA RESULT:      -0.7      2.451      5.533
REMARK  4 active torsions:
REMARK  status: ('A' for Active; 'I' for Inactive)
REMARK    1  A    between atoms: C5_5  and  C8_8 
REMARK    2  A    between atoms: C7_7  and  N10_10 
REMARK    3  A    between atoms: C8_8  and  N10_10 
REMARK    4  A    between atoms: C9_9  and  N10_10 
ROOT
HETATM    1  C1  UNL     1     -31.892   8.316   2.009  1.00 20.00     0.013 C 
HETATM    2  C2  UNL     1     -32.380   7.246   1.768  1.00 20.00    -0.087 C 
HETATM    3  C7  UNL     1     -32.973   5.941   1.469  1.00 20.00     0.364 C 
ENDROOT
BRANCH   3   4
HETATM    4  N10 UNL     1     -33.651   5.400   2.647  1.00 20.00     0.099 N 
BRANCH   4   5
HETATM    5  C8  UNL     1     -32.815   4.393   3.300  1.00 20.00     0.278 C 
BRANCH   5   6
HETATM    6  C5  UNL     1     -33.601   3.599   4.287  1.00 20.00     0.014 A 
HETATM    7  C3  UNL     1     -33.292   2.144   4.508  1.00 20.00     0.007 A 
HETATM    8  C4  UNL     1     -32.967   3.152   5.575  1.00 20.00     0.007 A 
ENDBRANCH   5   6
ENDBRANCH   4   5
BRANCH   4   9
HETATM    9  C9  UNL     1     -33.985   6.472   3.583  1.00 20.00     0.269 C 
HETATM   10  C6  UNL     1     -35.440   6.469   3.907  1.00 20.00     0.037 C 
ENDBRANCH   4   9
ENDBRANCH   3   4
TORSDOF 4
ENDMDL
MODEL 9
REMARK VINA RESULT:      -0.6      0.818      4.312
REMARK  4 active torsions:
REMARK  status: ('A' for Active; 'I' for Inactive)
REMARK    1  A    between atoms: C5_5  and  C8_8 
REMARK    2  A    between atoms: C7_7  and  N10_10 
REMARK    3  A    between atoms: C8_8  and  N10_10 
REMARK    4  A    between atoms: C9_9  and  N10_10 
ROOT
HETATM    1  C1  UNL     1     -32.276   4.645   0.633  1.00 20.00     0.013 C 
HETATM    2  C2  UNL     1     -31.956   5.711   1.085  1.00 20.00    -0.087 C 
HETATM    3  C7  UNL     1     -31.560   7.009   1.634  1.00 20.00     0.364 C 
ENDROOT
BRANCH   3   4
HETATM    4  N10 UNL     1     -32.733   7.853   1.860  1.00 20.00     0.099 N 
BRANCH   4   5
HETATM    5  C8  UNL     1     -33.294   7.604   3.188  1.00 20.00     0.278 C 
BRANCH   5   6
HETATM    6  C5  UNL     1     -34.429   6.640   3.120  1.00 20.00     0.014 A 
HETATM    7  C3  UNL     1     -34.336   5.310   3.814  1.00 20.00     0.007 A 
HETATM    8  C4  UNL     1     -35.266   6.368   4.338  1.00 20.00     0.007 A 
ENDBRANCH   5   6
ENDBRANCH   4   5
BRANCH   4   9
HETATM    9  C9  UNL     1     -32.383   9.265   1.710  1.00 20.00     0.269 C 
HETATM   10  C6  UNL     1     -32.422   9.679   0.278  1.00 20.00     0.037 C 
ENDBRANCH   4   9
ENDBRANCH   3   4
TORSDOF 4
ENDMDL
