MODEL 1
REMARK VINA RESULT:      -0.6      0.000      0.000
REMARK  1 active torsions:
REMARK  status: ('A' for Active; 'I' for Inactive)
REMARK    1  A    between atoms: C4_4  and  C9_9 
ROOT
HETATM    1  C5  UNL     1     -32.678   8.042   3.531  1.00 20.00     0.135 C 
HETATM    2  C6  UNL     1     -31.491   8.507   2.727  1.00 20.00     0.079 C 
HETATM    3  C7  UNL     1     -31.880   8.083   1.315  1.00 20.00     0.008 C 
HETATM    4  C8  UNL     1     -32.708   6.820   1.510  1.00 20.00     0.017 C 
HETATM    5  C9  UNL     1     -33.588   7.133   2.729  1.00 20.00     0.090 C 
HETATM    6  O10 UNL     1     -32.872   8.365   4.698  1.00 20.00    -0.297 OA
ENDROOT
BRANCH   5   7
HETATM    7  C4  UNL     1     -34.061   5.911   3.470  1.00 20.00    -0.023 A 
HETATM    8  C1  UNL     1     -33.406   4.660   3.558  1.00 20.00     0.034 A 
HETATM    9  C2  UNL     1     -34.212   3.860   4.335  1.00 20.00     0.142 A 
HETATM   10  O11 UNL     1     -35.320   4.540   4.730  1.00 20.00    -0.334 OA
HETATM   11  C3  UNL     1     -35.221   5.787   4.200  1.00 20.00     0.149 A 
ENDBRANCH   5   7
TORSDOF 1
ENDMDL
MODEL 2
REMARK VINA RESULT:      -0.2      0.554      1.132
REMARK  1 active torsions:
REMARK  status: ('A' for Active; 'I' for Inactive)
REMARK    1  A    between atoms: C4_4  and  C9_9 
ROOT
HETATM    1  C5  UNL     1     -32.591   8.053   3.408  1.00 20.00     0.135 C 
HETATM    2  C6  UNL     1     -31.348   8.373   2.618  1.00 20.00     0.079 C 
HETATM    3  C7  UNL     1     -31.728   7.893   1.222  1.00 20.00     0.008 C 
HETATM    4  C8  UNL     1     -32.658   6.712   1.465  1.00 20.00     0.017 C 
HETATM    5  C9  UNL     1     -33.546   7.168   2.632  1.00 20.00     0.090 C 
HETATM    6  O10 UNL     1     -32.792   8.462   4.546  1.00 20.00    -0.297 OA
ENDROOT
BRANCH   5   7
HETATM    7  C4  UNL     1     -34.134   6.035   3.430  1.00 20.00    -0.023 A 
HETATM    8  C1  UNL     1     -35.307   6.069   4.222  1.00 20.00     0.034 A 
HETATM    9  C2  UNL     1     -35.444   4.808   4.756  1.00 20.00     0.142 A 
HETATM   10  O11 UNL     1     -34.431   4.002   4.343  1.00 20.00    -0.334 OA
HETATM   11  C3  UNL     1     -33.638   4.755   3.537  1.00 20.00     0.149 A 
ENDBRANCH   5   7
TORSDOF 1
ENDMDL
MODEL 3
REMARK VINA RESULT:       0.1      1.904      4.569
REMARK  1 active torsions:
REMARK  status: ('A' for Active; 'I' for Inactive)
REMARK    1  A    between atoms: C4_4  and  C9_9 
ROOT
HETATM    1  C5  UNL     1     -33.484   7.342   3.288  1.00 20.00     0.135 C 
HETATM    2  C6  UNL     1     -34.149   5.991   3.375  1.00 20.00     0.079 C 
HETATM    3  C7  UNL     1     -33.221   5.127   2.530  1.00 20.00     0.008 C 
HETATM    4  C8  UNL     1     -32.683   6.073   1.464  1.00 20.00     0.017 C 
HETATM    5  C9  UNL     1     -32.403   7.375   2.227  1.00 20.00     0.090 C 
HETATM    6  O10 UNL     1     -33.793   8.293   3.996  1.00 20.00    -0.297 OA
ENDROOT
BRANCH   5   7
HETATM    7  C4  UNL     1     -32.419   8.606   1.359  1.00 20.00    -0.023 A 
HETATM    8  C1  UNL     1     -31.936   8.722   0.034  1.00 20.00     0.034 A 
HETATM    9  C2  UNL     1     -32.163  10.026  -0.342  1.00 20.00     0.142 A 
HETATM   10  O11 UNL     1     -32.753  10.718   0.667  1.00 20.00    -0.334 OA
HETATM   11  C3  UNL     1     -32.906   9.848   1.699  1.00 20.00     0.149 A 
ENDBRANCH   5   7
TORSDOF 1
ENDMDL
MODEL 4
REMARK VINA RESULT:       0.1      2.036      4.656
REMARK  1 active torsions:
REMARK  status: ('A' for Active; 'I' for Inactive)
REMARK    1  A    between atoms: C4_4  and  C9_9 
ROOT
HETATM    1  C5  UNL     1     -33.523   7.365   3.366  1.00 20.00     0.135 C 
HETATM    2  C6  UNL     1     -34.289   6.075   3.511  1.00 20.00     0.079 C 
HETATM    3  C7  UNL     1     -33.419   5.101   2.726  1.00 20.00     0.008 C 
HETATM    4  C8  UNL     1     -32.799   5.947   1.622  1.00 20.00     0.017 C 
HETATM    5  C9  UNL     1     -32.430   7.263   2.321  1.00 20.00     0.090 C 
HETATM    6  O10 UNL     1     -33.767   8.373   4.019  1.00 20.00    -0.297 OA
ENDROOT
BRANCH   5   7
HETATM    7  C4  UNL     1     -32.343   8.444   1.392  1.00 20.00    -0.023 A 
HETATM    8  C1  UNL     1     -32.991   9.694   1.537  1.00 20.00     0.034 A 
HETATM    9  C2  UNL     1     -32.614  10.449   0.451  1.00 20.00     0.142 A 
HETATM   10  O11 UNL     1     -31.775   9.744  -0.352  1.00 20.00    -0.334 OA
HETATM   11  C3  UNL     1     -31.615   8.525   0.226  1.00 20.00     0.149 A 
ENDBRANCH   5   7
TORSDOF 1
ENDMDL
MODEL 5
REMARK VINA RESULT:       0.3      1.609      2.320
REMARK  1 active torsions:
REMARK  status: ('A' for Active; 'I' for Inactive)
REMARK    1  A    between atoms: C4_4  and  C9_9 
ROOT
HETATM    1  C5  UNL     1     -32.455   6.356   1.317  1.00 20.00     0.135 C 
HETATM    2  C6  UNL     1     -32.181   7.568   0.463  1.00 20.00     0.079 C 
HETATM    3  C7  UNL     1     -31.887   8.634   1.511  1.00 20.00     0.008 C 
HETATM    4  C8  UNL     1     -32.750   8.244   2.705  1.00 20.00     0.017 C 
HETATM    5  C9  UNL     1     -32.617   6.717   2.780  1.00 20.00     0.090 C 
HETATM    6  O10 UNL     1     -32.538   5.218   0.869  1.00 20.00    -0.297 OA
ENDROOT
BRANCH   5   7
HETATM    7  C4  UNL     1     -33.771   6.037   3.466  1.00 20.00    -0.023 A 
HETATM    8  C1  UNL     1     -34.988   6.630   3.880  1.00 20.00     0.034 A 
HETATM    9  C2  UNL     1     -35.728   5.623   4.455  1.00 20.00     0.142 A 
HETATM   10  O11 UNL     1     -35.044   4.450   4.422  1.00 20.00    -0.334 OA
HETATM   11  C3  UNL     1     -33.855   4.708   3.819  1.00 20.00     0.149 A 
ENDBRANCH   5   7
TORSDOF 1
ENDMDL
MODEL 6
REMARK VINA RESULT:       0.7      1.698      2.062
REMARK  1 active torsions:
REMARK  status: ('A' for Active; 'I' for Inactive)
REMARK    1  A    between atoms: C4_4  and  C9_9 
ROOT
HETATM    1  C5  UNL     1     -32.273   6.540   1.423  1.00 20.00     0.135 C 
HETATM    2  C6  UNL     1     -32.007   7.693   0.489  1.00 20.00     0.079 C 
HETATM    3  C7  UNL     1     -31.881   8.862   1.458  1.00 20.00     0.008 C 
HETATM    4  C8  UNL     1     -32.818   8.510   2.605  1.00 20.00     0.017 C 
HETATM    5  C9  UNL     1     -32.589   7.009   2.829  1.00 20.00     0.090 C 
HETATM    6  O10 UNL     1     -32.238   5.365   1.074  1.00 20.00    -0.297 OA
ENDROOT
BRANCH   5   7
HETATM    7  C4  UNL     1     -33.752   6.304   3.475  1.00 20.00    -0.023 A 
HETATM    8  C1  UNL     1     -33.821   4.941   3.851  1.00 20.00     0.034 A 
HETATM    9  C2  UNL     1     -35.070   4.758   4.398  1.00 20.00     0.142 A 
HETATM   10  O11 UNL     1     -35.773   5.921   4.381  1.00 20.00    -0.334 OA
HETATM   11  C3  UNL     1     -34.965   6.857   3.819  1.00 20.00     0.149 A 
ENDBRANCH   5   7
TORSDOF 1
ENDMDL
MODEL 7
REMARK VINA RESULT:       0.8      1.814      2.354
REMARK  1 active torsions:
REMARK  status: ('A' for Active; 'I' for Inactive)
REMARK    1  A    between atoms: C4_4  and  C9_9 
ROOT
HETATM    1  C5  UNL     1     -31.809   7.462   1.299  1.00 20.00     0.135 C 
HETATM    2  C6  UNL     1     -31.703   8.358   0.091  1.00 20.00     0.079 C 
HETATM    3  C7  UNL     1     -32.064   9.719   0.675  1.00 20.00     0.008 C 
HETATM    4  C8  UNL     1     -33.058   9.407   1.785  1.00 20.00     0.017 C 
HETATM    5  C9  UNL     1     -32.479   8.159   2.467  1.00 20.00     0.090 C 
HETATM    6  O10 UNL     1     -31.402   6.306   1.321  1.00 20.00    -0.297 OA
ENDROOT
BRANCH   5   7
HETATM    7  C4  UNL     1     -33.505   7.325   3.186  1.00 20.00    -0.023 A 
HETATM    8  C1  UNL     1     -33.812   5.963   2.954  1.00 20.00     0.034 A 
HETATM    9  C2  UNL     1     -34.808   5.638   3.846  1.00 20.00     0.142 A 
HETATM   10  O11 UNL     1     -35.132   6.713   4.611  1.00 20.00    -0.334 OA
HETATM   11  C3  UNL     1     -34.336   7.736   4.204  1.00 20.00     0.149 A 
ENDBRANCH   5   7
TORSDOF 1
ENDMDL
MODEL 8
REMARK VINA RESULT:       0.9      1.372      4.342
REMARK  1 active torsions:
REMARK  status: ('A' for Active; 'I' for Inactive)
REMARK    1  A    between atoms: C4_4  and  C9_9 
ROOT
HETATM    1  C5  UNL     1     -33.650   4.608   3.496  1.00 20.00     0.135 C 
HETATM    2  C6  UNL     1     -34.412   4.226   4.740  1.00 20.00     0.079 C 
HETATM    3  C7  UNL     1     -35.599   5.181   4.689  1.00 20.00     0.008 C 
HETATM    4  C8  UNL     1     -35.051   6.436   4.022  1.00 20.00     0.017 C 
HETATM    5  C9  UNL     1     -34.161   5.901   2.891  1.00 20.00     0.090 C 
HETATM    6  O10 UNL     1     -32.725   3.946   3.041  1.00 20.00    -0.297 OA
ENDROOT
BRANCH   5   7
HETATM    7  C4  UNL     1     -33.082   6.857   2.459  1.00 20.00    -0.023 A 
HETATM    8  C1  UNL     1     -32.271   6.762   1.303  1.00 20.00     0.034 A 
HETATM    9  C2  UNL     1     -31.435   7.855   1.331  1.00 20.00     0.142 A 
HETATM   10  O11 UNL     1     -31.681   8.615   2.430  1.00 20.00    -0.334 OA
HETATM   11  C3  UNL     1     -32.684   8.002   3.112  1.00 20.00     0.149 A 
ENDBRANCH   5   7
TORSDOF 1
ENDMDL
MODEL 9
REMARK VINA RESULT:       1.3      1.952      2.790
REMARK  1 active torsions:
REMARK  status: ('A' for Active; 'I' for Inactive)
REMARK    1  A    between atoms: C4_4  and  C9_9 
ROOT
HETATM    1  C5  UNL     1     -31.590   8.201   1.078  1.00 20.00     0.135 C 
HETATM    2  C6  UNL     1     -31.628   9.033  -0.179  1.00 20.00     0.079 C 
HETATM    3  C7  UNL     1     -32.393  10.268   0.282  1.00 20.00     0.008 C 
HETATM    4  C8  UNL     1     -33.357   9.747   1.339  1.00 20.00     0.017 C 
HETATM    5  C9  UNL     1     -32.522   8.741   2.144  1.00 20.00     0.090 C 
HETATM    6  O10 UNL     1     -30.888   7.205   1.208  1.00 20.00    -0.297 OA
ENDROOT
BRANCH   5   7
HETATM    7  C4  UNL     1     -33.341   7.691   2.847  1.00 20.00    -0.023 A 
HETATM    8  C1  UNL     1     -34.000   7.816   4.093  1.00 20.00     0.034 A 
HETATM    9  C2  UNL     1     -34.613   6.606   4.324  1.00 20.00     0.142 A 
HETATM   10  O11 UNL     1     -34.373   5.747   3.300  1.00 20.00    -0.334 OA
HETATM   11  C3  UNL     1     -33.599   6.414   2.405  1.00 20.00     0.149 A 
ENDBRANCH   5   7
TORSDOF 1
ENDMDL
