MODEL 1
REMARK VINA RESULT:      -1.1      0.000      0.000
REMARK  1 active torsions:
REMARK  status: ('A' for Active; 'I' for Inactive)
REMARK    1  A    between atoms: C4_4  and  C9_9 
ROOT
HETATM    1  C5  UNL     1     -33.010   6.386   2.206  1.00 20.00     0.135 C 
HETATM    2  C6  UNL     1     -34.110   6.203   3.219  1.00 20.00     0.079 C 
HETATM    3  C7  UNL     1     -34.176   7.578   3.869  1.00 20.00     0.008 C 
HETATM    4  C8  UNL     1     -32.744   8.101   3.818  1.00 20.00     0.017 C 
HETATM    5  C9  UNL     1     -32.179   7.624   2.473  1.00 20.00     0.090 C 
HETATM    6  O10 UNL     1     -32.805   5.609   1.280  1.00 20.00    -0.297 OA
ENDROOT
BRANCH   5   7
HETATM    7  C4  UNL     1     -32.256   8.665   1.382  1.00 20.00    -0.023 A 
HETATM    8  C1  UNL     1     -32.932   9.908   1.435  1.00 20.00     0.034 A 
HETATM    9  C2  UNL     1     -32.722  10.509   0.215  1.00 20.00     0.142 A 
HETATM   10  O11 UNL     1     -31.962   9.716  -0.584  1.00 20.00    -0.334 OA
HETATM   11  C3  UNL     1     -31.682   8.596   0.134  1.00 20.00     0.149 A 
ENDBRANCH   5   7
TORSDOF 1
ENDMDL
MODEL 2
REMARK VINA RESULT:      -1.0      0.600      1.123
REMARK  1 active torsions:
REMARK  status: ('A' for Active; 'I' for Inactive)
REMARK    1  A    between atoms: C4_4  and  C9_9 
ROOT
HETATM    1  C5  UNL     1     -33.021   6.398   2.204  1.00 20.00     0.135 C 
HETATM    2  C6  UNL     1     -34.092   6.152   3.235  1.00 20.00     0.079 C 
HETATM    3  C7  UNL     1     -34.185   7.505   3.926  1.00 20.00     0.008 C 
HETATM    4  C8  UNL     1     -32.771   8.073   3.860  1.00 20.00     0.017 C 
HETATM    5  C9  UNL     1     -32.223   7.653   2.490  1.00 20.00     0.090 C 
HETATM    6  O10 UNL     1     -32.814   5.655   1.252  1.00 20.00    -0.297 OA
ENDROOT
BRANCH   5   7
HETATM    7  C4  UNL     1     -32.355   8.722   1.431  1.00 20.00    -0.023 A 
HETATM    8  C1  UNL     1     -31.870   8.671   0.102  1.00 20.00     0.034 A 
HETATM    9  C2  UNL     1     -32.226   9.865  -0.481  1.00 20.00     0.142 A 
HETATM   10  O11 UNL     1     -32.899  10.646   0.404  1.00 20.00    -0.334 OA
HETATM   11  C3  UNL     1     -32.973   9.944   1.565  1.00 20.00     0.149 A 
ENDBRANCH   5   7
TORSDOF 1
ENDMDL
MODEL 3
REMARK VINA RESULT:       0.1      1.991      4.913
REMARK  1 active torsions:
REMARK  status: ('A' for Active; 'I' for Inactive)
REMARK    1  A    between atoms: C4_4  and  C9_9 
ROOT
HETATM    1  C5  UNL     1     -32.965   6.626   1.775  1.00 20.00     0.135 C 
HETATM    2  C6  UNL     1     -32.006   7.756   2.044  1.00 20.00     0.079 C 
HETATM    3  C7  UNL     1     -32.356   8.136   3.476  1.00 20.00     0.008 C 
HETATM    4  C8  UNL     1     -33.849   7.850   3.600  1.00 20.00     0.017 C 
HETATM    5  C9  UNL     1     -34.092   6.573   2.786  1.00 20.00     0.090 C 
HETATM    6  O10 UNL     1     -32.850   5.849   0.834  1.00 20.00    -0.297 OA
ENDROOT
BRANCH   5   7
HETATM    7  C4  UNL     1     -34.111   5.316   3.622  1.00 20.00    -0.023 A 
HETATM    8  C1  UNL     1     -33.155   4.271   3.613  1.00 20.00     0.034 A 
HETATM    9  C2  UNL     1     -33.590   3.347   4.535  1.00 20.00     0.142 A 
HETATM   10  O11 UNL     1     -34.751   3.757   5.110  1.00 20.00    -0.334 OA
HETATM   11  C3  UNL     1     -35.061   4.955   4.549  1.00 20.00     0.149 A 
ENDBRANCH   5   7
TORSDOF 1
ENDMDL
MODEL 4
REMARK VINA RESULT:       0.5      2.013      4.542
REMARK  1 active torsions:
REMARK  status: ('A' for Active; 'I' for Inactive)
REMARK    1  A    between atoms: C4_4  and  C9_9 
ROOT
HETATM    1  C5  UNL     1     -32.118   7.806   2.397  1.00 20.00     0.135 C 
HETATM    2  C6  UNL     1     -32.239   8.418   1.026  1.00 20.00     0.079 C 
HETATM    3  C7  UNL     1     -33.016   7.350   0.268  1.00 20.00     0.008 C 
HETATM    4  C8  UNL     1     -32.578   6.032   0.897  1.00 20.00     0.017 C 
HETATM    5  C9  UNL     1     -32.422   6.322   2.395  1.00 20.00     0.090 C 
HETATM    6  O10 UNL     1     -31.796   8.439   3.395  1.00 20.00    -0.297 OA
ENDROOT
BRANCH   5   7
HETATM    7  C4  UNL     1     -33.631   5.940   3.215  1.00 20.00    -0.023 A 
HETATM    8  C1  UNL     1     -34.679   6.793   3.639  1.00 20.00     0.034 A 
HETATM    9  C2  UNL     1     -35.549   6.003   4.354  1.00 20.00     0.142 A 
HETATM   10  O11 UNL     1     -35.104   4.720   4.397  1.00 20.00    -0.334 OA
HETATM   11  C3  UNL     1     -33.937   4.690   3.702  1.00 20.00     0.149 A 
ENDBRANCH   5   7
TORSDOF 1
ENDMDL
MODEL 5
REMARK VINA RESULT:       0.6      2.139      4.472
REMARK  1 active torsions:
REMARK  status: ('A' for Active; 'I' for Inactive)
REMARK    1  A    between atoms: C4_4  and  C9_9 
ROOT
HETATM    1  C5  UNL     1     -32.284   6.386   1.558  1.00 20.00     0.135 C 
HETATM    2  C6  UNL     1     -31.256   7.454   1.829  1.00 20.00     0.079 C 
HETATM    3  C7  UNL     1     -31.956   8.312   2.873  1.00 20.00     0.008 C 
HETATM    4  C8  UNL     1     -33.438   8.214   2.526  1.00 20.00     0.017 C 
HETATM    5  C9  UNL     1     -33.659   6.766   2.068  1.00 20.00     0.090 C 
HETATM    6  O10 UNL     1     -32.034   5.336   0.977  1.00 20.00    -0.297 OA
ENDROOT
BRANCH   5   7
HETATM    7  C4  UNL     1     -34.184   5.861   3.157  1.00 20.00    -0.023 A 
HETATM    8  C1  UNL     1     -35.266   6.119   4.033  1.00 20.00     0.034 A 
HETATM    9  C2  UNL     1     -35.371   5.014   4.845  1.00 20.00     0.142 A 
HETATM   10  O11 UNL     1     -34.424   4.094   4.526  1.00 20.00    -0.334 OA
HETATM   11  C3  UNL     1     -33.706   4.617   3.497  1.00 20.00     0.149 A 
ENDBRANCH   5   7
TORSDOF 1
ENDMDL
MODEL 6
REMARK VINA RESULT:       0.7      2.251      5.065
REMARK  1 active torsions:
REMARK  status: ('A' for Active; 'I' for Inactive)
REMARK    1  A    between atoms: C4_4  and  C9_9 
ROOT
HETATM    1  C5  UNL     1     -33.110   6.602   2.336  1.00 20.00     0.135 C 
HETATM    2  C6  UNL     1     -33.088   7.981   2.942  1.00 20.00     0.079 C 
HETATM    3  C7  UNL     1     -33.881   7.778   4.225  1.00 20.00     0.008 C 
HETATM    4  C8  UNL     1     -34.899   6.695   3.885  1.00 20.00     0.017 C 
HETATM    5  C9  UNL     1     -34.164   5.713   2.963  1.00 20.00     0.090 C 
HETATM    6  O10 UNL     1     -32.366   6.249   1.429  1.00 20.00    -0.297 OA
ENDROOT
BRANCH   5   7
HETATM    7  C4  UNL     1     -33.606   4.509   3.684  1.00 20.00    -0.023 A 
HETATM    8  C1  UNL     1     -34.166   3.852   4.807  1.00 20.00     0.034 A 
HETATM    9  C2  UNL     1     -33.311   2.818   5.109  1.00 20.00     0.142 A 
HETATM   10  O11 UNL     1     -32.263   2.796   4.245  1.00 20.00    -0.334 OA
HETATM   11  C3  UNL     1     -32.450   3.828   3.381  1.00 20.00     0.149 A 
ENDBRANCH   5   7
TORSDOF 1
ENDMDL
MODEL 7
REMARK VINA RESULT:       1.1      2.157      3.319
REMARK  1 active torsions:
REMARK  status: ('A' for Active; 'I' for Inactive)
REMARK    1  A    between atoms: C4_4  and  C9_9 
ROOT
HETATM    1  C5  UNL     1     -35.056   5.685   3.756  1.00 20.00     0.135 C 
HETATM    2  C6  UNL     1     -34.914   4.608   4.800  1.00 20.00     0.079 C 
HETATM    3  C7  UNL     1     -33.570   3.990   4.440  1.00 20.00     0.008 C 
HETATM    4  C8  UNL     1     -33.471   4.134   2.925  1.00 20.00     0.017 C 
HETATM    5  C9  UNL     1     -34.098   5.495   2.598  1.00 20.00     0.090 C 
HETATM    6  O10 UNL     1     -35.867   6.600   3.833  1.00 20.00    -0.297 OA
ENDROOT
BRANCH   5   7
HETATM    7  C4  UNL     1     -33.088   6.606   2.446  1.00 20.00    -0.023 A 
HETATM    8  C1  UNL     1     -32.157   6.775   1.393  1.00 20.00     0.034 A 
HETATM    9  C2  UNL     1     -31.453   7.920   1.684  1.00 20.00     0.142 A 
HETATM   10  O11 UNL     1     -31.890   8.466   2.849  1.00 20.00    -0.334 OA
HETATM   11  C3  UNL     1     -32.885   7.661   3.306  1.00 20.00     0.149 A 
ENDBRANCH   5   7
TORSDOF 1
ENDMDL
MODEL 8
REMARK VINA RESULT:       1.2      1.862      2.687
REMARK  1 active torsions:
REMARK  status: ('A' for Active; 'I' for Inactive)
REMARK    1  A    between atoms: C4_4  and  C9_9 
ROOT
HETATM    1  C5  UNL     1     -34.087   5.183   3.992  1.00 20.00     0.135 C 
HETATM    2  C6  UNL     1     -35.583   5.267   4.148  1.00 20.00     0.079 C 
HETATM    3  C7  UNL     1     -35.864   6.712   3.757  1.00 20.00     0.008 C 
HETATM    4  C8  UNL     1     -34.624   7.481   4.199  1.00 20.00     0.017 C 
HETATM    5  C9  UNL     1     -33.438   6.550   3.914  1.00 20.00     0.090 C 
HETATM    6  O10 UNL     1     -33.469   4.126   3.947  1.00 20.00    -0.297 OA
ENDROOT
BRANCH   5   7
HETATM    7  C4  UNL     1     -32.749   6.831   2.600  1.00 20.00    -0.023 A 
HETATM    8  C1  UNL     1     -32.595   5.941   1.510  1.00 20.00     0.034 A 
HETATM    9  C2  UNL     1     -31.907   6.636   0.543  1.00 20.00     0.142 A 
HETATM   10  O11 UNL     1     -31.628   7.896   0.968  1.00 20.00    -0.334 OA
HETATM   11  C3  UNL     1     -32.144   8.007   2.220  1.00 20.00     0.149 A 
ENDBRANCH   5   7
TORSDOF 1
ENDMDL
MODEL 9
REMARK VINA RESULT:       1.5      1.300      4.161
REMARK  1 active torsions:
REMARK  status: ('A' for Active; 'I' for Inactive)
REMARK    1  A    between atoms: C4_4  and  C9_9 
ROOT
HETATM    1  C5  UNL     1     -32.783   9.707   1.188  1.00 20.00     0.135 C 
HETATM    2  C6  UNL     1     -32.245   9.619  -0.217  1.00 20.00     0.079 C 
HETATM    3  C7  UNL     1     -31.516   8.283  -0.195  1.00 20.00     0.008 C 
HETATM    4  C8  UNL     1     -31.005   8.142   1.235  1.00 20.00     0.017 C 
HETATM    5  C9  UNL     1     -32.110   8.726   2.126  1.00 20.00     0.090 C 
HETATM    6  O10 UNL     1     -33.656  10.496   1.531  1.00 20.00    -0.297 OA
ENDROOT
BRANCH   5   7
HETATM    7  C4  UNL     1     -33.040   7.684   2.698  1.00 20.00    -0.023 A 
HETATM    8  C1  UNL     1     -33.937   7.844   3.782  1.00 20.00     0.034 A 
HETATM    9  C2  UNL     1     -34.567   6.632   3.939  1.00 20.00     0.142 A 
HETATM   10  O11 UNL     1     -34.116   5.736   3.022  1.00 20.00    -0.334 OA
HETATM   11  C3  UNL     1     -33.187   6.385   2.271  1.00 20.00     0.149 A 
ENDBRANCH   5   7
TORSDOF 1
ENDMDL
