MODEL 1
REMARK VINA RESULT:      -0.2      0.000      0.000
REMARK  1 active torsions:
REMARK  status: ('A' for Active; 'I' for Inactive)
REMARK    1  A    between atoms: C4_4  and  C8_8 
ROOT
HETATM    1  C5  UNL     1     -34.205   7.634   4.158  1.00 20.00     0.002 C 
HETATM    2  C6  UNL     1     -32.773   8.173   4.031  1.00 20.00     0.011 C 
HETATM    3  C7  UNL     1     -34.416   6.670   2.993  1.00 20.00     0.021 C 
HETATM    4  C8  UNL     1     -32.197   7.603   2.720  1.00 20.00     0.039 C 
HETATM    5  C9  UNL     1     -33.005   6.303   2.555  1.00 20.00     0.090 C 
HETATM    6 CL11 UNL     1     -32.969   5.578   0.939  1.00 20.00    -0.124 Cl
ENDROOT
BRANCH   4   7
HETATM    7  C4  UNL     1     -32.235   8.572   1.549  1.00 20.00    -0.028 A 
HETATM    8  C1  UNL     1     -32.989   9.766   1.456  1.00 20.00     0.034 A 
HETATM    9  C2  UNL     1     -32.704  10.302   0.222  1.00 20.00     0.142 A 
HETATM   10  O10 UNL     1     -31.823   9.514  -0.449  1.00 20.00    -0.334 OA
HETATM   11  C3  UNL     1     -31.543   8.463   0.365  1.00 20.00     0.148 A 
ENDBRANCH   4   7
TORSDOF 1
ENDMDL
MODEL 2
REMARK VINA RESULT:       1.0      2.949      4.579
REMARK  1 active torsions:
REMARK  status: ('A' for Active; 'I' for Inactive)
REMARK    1  A    between atoms: C4_4  and  C8_8 
ROOT
HETATM    1  C5  UNL     1     -31.687   8.093   2.816  1.00 20.00     0.002 C 
HETATM    2  C6  UNL     1     -33.144   8.215   3.282  1.00 20.00     0.011 C 
HETATM    3  C7  UNL     1     -31.656   6.999   1.751  1.00 20.00     0.021 C 
HETATM    4  C8  UNL     1     -33.936   7.106   2.562  1.00 20.00     0.039 C 
HETATM    5  C9  UNL     1     -33.102   6.895   1.286  1.00 20.00     0.090 C 
HETATM    6 CL11 UNL     1     -33.417   5.391   0.404  1.00 20.00    -0.124 Cl
ENDROOT
BRANCH   4   7
HETATM    7  C4  UNL     1     -34.192   5.871   3.411  1.00 20.00    -0.028 A 
HETATM    8  C1  UNL     1     -33.368   4.726   3.518  1.00 20.00     0.034 A 
HETATM    9  C2  UNL     1     -34.003   3.878   4.395  1.00 20.00     0.142 A 
HETATM   10  O10 UNL     1     -35.166   4.430   4.835  1.00 20.00    -0.334 OA
HETATM   11  C3  UNL     1     -35.273   5.642   4.230  1.00 20.00     0.148 A 
ENDBRANCH   4   7
TORSDOF 1
ENDMDL
MODEL 3
REMARK VINA RESULT:       1.0      3.196      4.937
REMARK  1 active torsions:
REMARK  status: ('A' for Active; 'I' for Inactive)
REMARK    1  A    between atoms: C4_4  and  C8_8 
ROOT
HETATM    1  C5  UNL     1     -33.906   7.869   4.109  1.00 20.00     0.002 C 
HETATM    2  C6  UNL     1     -34.910   6.719   3.956  1.00 20.00     0.011 C 
HETATM    3  C7  UNL     1     -32.745   7.567   3.164  1.00 20.00     0.021 C 
HETATM    4  C8  UNL     1     -34.269   5.692   3.002  1.00 20.00     0.039 C 
HETATM    5  C9  UNL     1     -33.328   6.577   2.166  1.00 20.00     0.090 C 
HETATM    6 CL11 UNL     1     -32.072   5.718   1.259  1.00 20.00    -0.124 Cl
ENDROOT
BRANCH   4   7
HETATM    7  C4  UNL     1     -33.630   4.504   3.703  1.00 20.00    -0.028 A 
HETATM    8  C1  UNL     1     -34.133   3.807   4.828  1.00 20.00     0.034 A 
HETATM    9  C2  UNL     1     -33.219   2.817   5.104  1.00 20.00     0.142 A 
HETATM   10  O10 UNL     1     -32.187   2.862   4.221  1.00 20.00    -0.334 OA
HETATM   11  C3  UNL     1     -32.444   3.891   3.373  1.00 20.00     0.148 A 
ENDBRANCH   4   7
TORSDOF 1
ENDMDL
MODEL 4
REMARK VINA RESULT:       1.7      2.857      4.387
REMARK  1 active torsions:
REMARK  status: ('A' for Active; 'I' for Inactive)
REMARK    1  A    between atoms: C4_4  and  C8_8 
ROOT
HETATM    1  C5  UNL     1     -31.424   7.756   2.408  1.00 20.00     0.002 C 
HETATM    2  C6  UNL     1     -32.867   8.146   2.755  1.00 20.00     0.011 C 
HETATM    3  C7  UNL     1     -31.504   6.504   1.539  1.00 20.00     0.021 C 
HETATM    4  C8  UNL     1     -33.778   7.046   2.176  1.00 20.00     0.039 C 
HETATM    5  C9  UNL     1     -32.930   6.513   1.006  1.00 20.00     0.090 C 
HETATM    6 CL11 UNL     1     -33.418   4.937   0.361  1.00 20.00    -0.124 Cl
ENDROOT
BRANCH   4   7
HETATM    7  C4  UNL     1     -34.238   6.017   3.196  1.00 20.00    -0.028 A 
HETATM    8  C1  UNL     1     -35.362   6.110   4.051  1.00 20.00     0.034 A 
HETATM    9  C2  UNL     1     -35.376   4.951   4.791  1.00 20.00     0.142 A 
HETATM   10  O10 UNL     1     -34.332   4.151   4.445  1.00 20.00    -0.334 OA
HETATM   11  C3  UNL     1     -33.645   4.808   3.474  1.00 20.00     0.148 A 
ENDBRANCH   4   7
TORSDOF 1
ENDMDL
MODEL 5
REMARK VINA RESULT:       1.9      2.786      4.332
REMARK  1 active torsions:
REMARK  status: ('A' for Active; 'I' for Inactive)
REMARK    1  A    between atoms: C4_4  and  C8_8 
ROOT
HETATM    1  C5  UNL     1     -32.663   8.116   0.237  1.00 20.00     0.002 C 
HETATM    2  C6  UNL     1     -32.397   6.680   0.709  1.00 20.00     0.011 C 
HETATM    3  C7  UNL     1     -32.517   9.015   1.462  1.00 20.00     0.021 C 
HETATM    4  C8  UNL     1     -32.210   6.741   2.238  1.00 20.00     0.039 C 
HETATM    5  C9  UNL     1     -31.703   8.180   2.440  1.00 20.00     0.090 C 
HETATM    6 CL11 UNL     1     -31.798   8.801   4.097  1.00 20.00    -0.124 Cl
ENDROOT
BRANCH   4   7
HETATM    7  C4  UNL     1     -33.444   6.344   3.033  1.00 20.00    -0.028 A 
HETATM    8  C1  UNL     1     -34.441   7.208   3.545  1.00 20.00     0.034 A 
HETATM    9  C2  UNL     1     -35.351   6.402   4.189  1.00 20.00     0.142 A 
HETATM   10  O10 UNL     1     -34.976   5.098   4.105  1.00 20.00    -0.334 OA
HETATM   11  C3  UNL     1     -33.814   5.072   3.401  1.00 20.00     0.148 A 
ENDBRANCH   4   7
TORSDOF 1
ENDMDL
MODEL 6
REMARK VINA RESULT:       2.2      2.691      4.423
REMARK  1 active torsions:
REMARK  status: ('A' for Active; 'I' for Inactive)
REMARK    1  A    between atoms: C4_4  and  C8_8 
ROOT
HETATM    1  C5  UNL     1     -32.694   8.119   0.247  1.00 20.00     0.002 C 
HETATM    2  C6  UNL     1     -32.476   6.682   0.739  1.00 20.00     0.011 C 
HETATM    3  C7  UNL     1     -32.493   9.032   1.454  1.00 20.00     0.021 C 
HETATM    4  C8  UNL     1     -32.260   6.761   2.263  1.00 20.00     0.039 C 
HETATM    5  C9  UNL     1     -31.694   8.183   2.433  1.00 20.00     0.090 C 
HETATM    6 CL11 UNL     1     -31.737   8.834   4.079  1.00 20.00    -0.124 Cl
ENDROOT
BRANCH   4   7
HETATM    7  C4  UNL     1     -33.495   6.426   3.085  1.00 20.00    -0.028 A 
HETATM    8  C1  UNL     1     -33.959   5.136   3.438  1.00 20.00     0.034 A 
HETATM    9  C2  UNL     1     -35.101   5.330   4.179  1.00 20.00     0.142 A 
HETATM   10  O10 UNL     1     -35.368   6.657   4.304  1.00 20.00    -0.334 OA
HETATM   11  C3  UNL     1     -34.387   7.316   3.635  1.00 20.00     0.148 A 
ENDBRANCH   4   7
TORSDOF 1
ENDMDL
MODEL 7
REMARK VINA RESULT:       2.7      2.243      3.165
REMARK  1 active torsions:
REMARK  status: ('A' for Active; 'I' for Inactive)
REMARK    1  A    between atoms: C4_4  and  C8_8 
ROOT
HETATM    1  C5  UNL     1     -35.618   5.815   4.210  1.00 20.00     0.002 C 
HETATM    2  C6  UNL     1     -35.612   6.673   2.938  1.00 20.00     0.011 C 
HETATM    3  C7  UNL     1     -34.487   6.334   5.095  1.00 20.00     0.021 C 
HETATM    4  C8  UNL     1     -34.398   7.617   3.042  1.00 20.00     0.039 C 
HETATM    5  C9  UNL     1     -34.216   7.736   4.566  1.00 20.00     0.090 C 
HETATM    6 CL11 UNL     1     -32.651   8.367   5.104  1.00 20.00    -0.124 Cl
ENDROOT
BRANCH   4   7
HETATM    7  C4  UNL     1     -33.183   7.158   2.253  1.00 20.00    -0.028 A 
HETATM    8  C1  UNL     1     -32.922   5.852   1.774  1.00 20.00     0.034 A 
HETATM    9  C2  UNL     1     -31.712   5.918   1.123  1.00 20.00     0.142 A 
HETATM   10  O10 UNL     1     -31.213   7.182   1.172  1.00 20.00    -0.334 OA
HETATM   11  C3  UNL     1     -32.114   7.929   1.861  1.00 20.00     0.148 A 
ENDBRANCH   4   7
TORSDOF 1
ENDMDL
MODEL 8
REMARK VINA RESULT:       2.8      2.736      4.460
REMARK  1 active torsions:
REMARK  status: ('A' for Active; 'I' for Inactive)
REMARK    1  A    between atoms: C4_4  and  C8_8 
ROOT
HETATM    1  C5  UNL     1     -32.047   8.521   2.151  1.00 20.00     0.002 C 
HETATM    2  C6  UNL     1     -33.497   8.148   1.814  1.00 20.00     0.011 C 
HETATM    3  C7  UNL     1     -31.231   7.234   2.062  1.00 20.00     0.021 C 
HETATM    4  C8  UNL     1     -33.535   6.616   1.643  1.00 20.00     0.039 C 
HETATM    5  C9  UNL     1     -32.089   6.307   1.213  1.00 20.00     0.090 C 
HETATM    6 CL11 UNL     1     -31.593   4.613   1.354  1.00 20.00    -0.124 Cl
ENDROOT
BRANCH   4   7
HETATM    7  C4  UNL     1     -34.050   5.866   2.861  1.00 20.00    -0.028 A 
HETATM    8  C1  UNL     1     -33.672   4.569   3.285  1.00 20.00     0.034 A 
HETATM    9  C2  UNL     1     -34.396   4.314   4.426  1.00 20.00     0.142 A 
HETATM   10  O10 UNL     1     -35.195   5.370   4.730  1.00 20.00    -0.334 OA
HETATM   11  C3  UNL     1     -34.979   6.310   3.772  1.00 20.00     0.148 A 
ENDBRANCH   4   7
TORSDOF 1
ENDMDL
MODEL 9
REMARK VINA RESULT:       2.8      3.058      3.552
REMARK  1 active torsions:
REMARK  status: ('A' for Active; 'I' for Inactive)
REMARK    1  A    between atoms: C4_4  and  C8_8 
ROOT
HETATM    1  C5  UNL     1     -35.507   6.911   3.799  1.00 20.00     0.002 C 
HETATM    2  C6  UNL     1     -34.061   7.342   3.518  1.00 20.00     0.011 C 
HETATM    3  C7  UNL     1     -35.475   5.407   4.055  1.00 20.00     0.021 C 
HETATM    4  C8  UNL     1     -33.209   6.057   3.499  1.00 20.00     0.039 C 
HETATM    5  C9  UNL     1     -34.023   5.122   4.411  1.00 20.00     0.090 C 
HETATM    6 CL11 UNL     1     -33.627   3.399   4.292  1.00 20.00    -0.124 Cl
ENDROOT
BRANCH   4   7
HETATM    7  C4  UNL     1     -32.898   5.536   2.105  1.00 20.00    -0.028 A 
HETATM    8  C1  UNL     1     -31.653   5.057   1.633  1.00 20.00     0.034 A 
HETATM    9  C2  UNL     1     -31.854   4.697   0.321  1.00 20.00     0.142 A 
HETATM   10  O10 UNL     1     -33.144   4.925  -0.043  1.00 20.00    -0.334 OA
HETATM   11  C3  UNL     1     -33.772   5.436   1.048  1.00 20.00     0.148 A 
ENDBRANCH   4   7
TORSDOF 1
ENDMDL
