MODEL 1
REMARK VINA RESULT:      -0.1      0.000      0.000
REMARK  1 active torsions:
REMARK  status: ('A' for Active; 'I' for Inactive)
REMARK    1  A    between atoms: C4_4  and  C8_8 
ROOT
HETATM    1  C5  UNL     1     -31.327   7.585   1.110  1.00 20.00     0.002 C 
HETATM    2  C6  UNL     1     -31.973   6.329   1.702  1.00 20.00     0.011 C 
HETATM    3  C7  UNL     1     -32.238   8.753   1.486  1.00 20.00     0.021 C 
HETATM    4  C8  UNL     1     -33.368   6.766   2.185  1.00 20.00     0.039 C 
HETATM    5  C9  UNL     1     -33.128   8.230   2.609  1.00 20.00     0.090 C 
HETATM    6 CL11 UNL     1     -32.273   8.360   4.179  1.00 20.00    -0.124 Cl
ENDROOT
BRANCH   4   7
HETATM    7  C4  UNL     1     -34.068   5.877   3.193  1.00 20.00    -0.028 A 
HETATM    8  C1  UNL     1     -35.208   6.200   3.966  1.00 20.00     0.034 A 
HETATM    9  C2  UNL     1     -35.479   5.090   4.730  1.00 20.00     0.142 A 
HETATM   10  O10 UNL     1     -34.577   4.104   4.477  1.00 20.00    -0.334 OA
HETATM   11  C3  UNL     1     -33.723   4.591   3.540  1.00 20.00     0.148 A 
ENDBRANCH   4   7
TORSDOF 1
ENDMDL
MODEL 2
REMARK VINA RESULT:       0.2      0.588      1.140
REMARK  1 active torsions:
REMARK  status: ('A' for Active; 'I' for Inactive)
REMARK    1  A    between atoms: C4_4  and  C8_8 
ROOT
HETATM    1  C5  UNL     1     -31.512   7.920   1.249  1.00 20.00     0.002 C 
HETATM    2  C6  UNL     1     -32.045   6.577   1.754  1.00 20.00     0.011 C 
HETATM    3  C7  UNL     1     -32.490   8.984   1.746  1.00 20.00     0.021 C 
HETATM    4  C8  UNL     1     -33.451   6.869   2.311  1.00 20.00     0.039 C 
HETATM    5  C9  UNL     1     -33.301   8.308   2.848  1.00 20.00     0.090 C 
HETATM    6 CL11 UNL     1     -32.404   8.375   4.398  1.00 20.00    -0.124 Cl
ENDROOT
BRANCH   4   7
HETATM    7  C4  UNL     1     -34.050   5.853   3.262  1.00 20.00    -0.028 A 
HETATM    8  C1  UNL     1     -33.515   4.589   3.606  1.00 20.00     0.034 A 
HETATM    9  C2  UNL     1     -34.401   4.028   4.495  1.00 20.00     0.142 A 
HETATM   10  O10 UNL     1     -35.447   4.866   4.721  1.00 20.00    -0.334 OA
HETATM   11  C3  UNL     1     -35.225   5.975   3.967  1.00 20.00     0.148 A 
ENDBRANCH   4   7
TORSDOF 1
ENDMDL
MODEL 3
REMARK VINA RESULT:       0.4      1.495      1.924
REMARK  1 active torsions:
REMARK  status: ('A' for Active; 'I' for Inactive)
REMARK    1  A    between atoms: C4_4  and  C8_8 
ROOT
HETATM    1  C5  UNL     1     -32.141   8.664   1.255  1.00 20.00     0.002 C 
HETATM    2  C6  UNL     1     -33.186   8.281   2.306  1.00 20.00     0.011 C 
HETATM    3  C7  UNL     1     -31.323   7.403   0.983  1.00 20.00     0.021 C 
HETATM    4  C8  UNL     1     -32.784   6.880   2.801  1.00 20.00     0.039 C 
HETATM    5  C9  UNL     1     -32.155   6.251   1.541  1.00 20.00     0.090 C 
HETATM    6 CL11 UNL     1     -33.383   5.744   0.339  1.00 20.00    -0.124 Cl
ENDROOT
BRANCH   4   7
HETATM    7  C4  UNL     1     -33.844   6.059   3.508  1.00 20.00    -0.028 A 
HETATM    8  C1  UNL     1     -35.110   6.505   3.956  1.00 20.00     0.034 A 
HETATM    9  C2  UNL     1     -35.718   5.415   4.533  1.00 20.00     0.142 A 
HETATM   10  O10 UNL     1     -34.906   4.327   4.469  1.00 20.00    -0.334 OA
HETATM   11  C3  UNL     1     -33.768   4.726   3.843  1.00 20.00     0.148 A 
ENDBRANCH   4   7
TORSDOF 1
ENDMDL
MODEL 4
REMARK VINA RESULT:       0.7      1.597      2.212
REMARK  1 active torsions:
REMARK  status: ('A' for Active; 'I' for Inactive)
REMARK    1  A    between atoms: C4_4  and  C8_8 
ROOT
HETATM    1  C5  UNL     1     -32.231   8.786   1.135  1.00 20.00     0.002 C 
HETATM    2  C6  UNL     1     -33.315   8.388   2.141  1.00 20.00     0.011 C 
HETATM    3  C7  UNL     1     -31.273   7.599   1.045  1.00 20.00     0.021 C 
HETATM    4  C8  UNL     1     -32.817   7.086   2.796  1.00 20.00     0.039 C 
HETATM    5  C9  UNL     1     -32.028   6.419   1.650  1.00 20.00     0.090 C 
HETATM    6 CL11 UNL     1     -33.098   5.680   0.418  1.00 20.00    -0.124 Cl
ENDROOT
BRANCH   4   7
HETATM    7  C4  UNL     1     -33.844   6.223   3.501  1.00 20.00    -0.028 A 
HETATM    8  C1  UNL     1     -33.717   4.855   3.841  1.00 20.00     0.034 A 
HETATM    9  C2  UNL     1     -34.892   4.506   4.464  1.00 20.00     0.142 A 
HETATM   10  O10 UNL     1     -35.733   5.571   4.529  1.00 20.00    -0.334 OA
HETATM   11  C3  UNL     1     -35.087   6.612   3.942  1.00 20.00     0.148 A 
ENDBRANCH   4   7
TORSDOF 1
ENDMDL
MODEL 5
REMARK VINA RESULT:       2.0      2.427      3.827
REMARK  1 active torsions:
REMARK  status: ('A' for Active; 'I' for Inactive)
REMARK    1  A    between atoms: C4_4  and  C8_8 
ROOT
HETATM    1  C5  UNL     1     -33.654   7.887   4.460  1.00 20.00     0.002 C 
HETATM    2  C6  UNL     1     -32.748   7.408   3.322  1.00 20.00     0.011 C 
HETATM    3  C7  UNL     1     -34.980   7.145   4.295  1.00 20.00     0.021 C 
HETATM    4  C8  UNL     1     -33.657   6.596   2.380  1.00 20.00     0.039 C 
HETATM    5  C9  UNL     1     -34.679   5.979   3.357  1.00 20.00     0.090 C 
HETATM    6 CL11 UNL     1     -34.000   4.606   4.287  1.00 20.00    -0.124 Cl
ENDROOT
BRANCH   4   7
HETATM    7  C4  UNL     1     -32.986   5.642   1.414  1.00 20.00    -0.028 A 
HETATM    8  C1  UNL     1     -31.611   5.311   1.360  1.00 20.00     0.034 A 
HETATM    9  C2  UNL     1     -31.474   4.412   0.329  1.00 20.00     0.142 A 
HETATM   10  O10 UNL     1     -32.677   4.168  -0.255  1.00 20.00    -0.334 OA
HETATM   11  C3  UNL     1     -33.592   4.920   0.412  1.00 20.00     0.148 A 
ENDBRANCH   4   7
TORSDOF 1
ENDMDL
MODEL 6
REMARK VINA RESULT:       2.1      2.425      4.429
REMARK  1 active torsions:
REMARK  status: ('A' for Active; 'I' for Inactive)
REMARK    1  A    between atoms: C4_4  and  C8_8 
ROOT
HETATM    1  C5  UNL     1     -34.543   4.301   4.115  1.00 20.00     0.002 C 
HETATM    2  C6  UNL     1     -33.524   4.911   3.148  1.00 20.00     0.011 C 
HETATM    3  C7  UNL     1     -35.201   5.474   4.840  1.00 20.00     0.021 C 
HETATM    4  C8  UNL     1     -33.437   6.403   3.521  1.00 20.00     0.039 C 
HETATM    5  C9  UNL     1     -34.871   6.707   4.004  1.00 20.00     0.090 C 
HETATM    6 CL11 UNL     1     -36.035   6.859   2.650  1.00 20.00    -0.124 Cl
ENDROOT
BRANCH   4   7
HETATM    7  C4  UNL     1     -32.858   7.348   2.487  1.00 20.00    -0.028 A 
HETATM    8  C1  UNL     1     -32.052   7.005   1.377  1.00 20.00     0.034 A 
HETATM    9  C2  UNL     1     -31.770   8.185   0.730  1.00 20.00     0.142 A 
HETATM   10  O10 UNL     1     -32.352   9.232   1.372  1.00 20.00    -0.334 OA
HETATM   11  C3  UNL     1     -33.013   8.714   2.440  1.00 20.00     0.148 A 
ENDBRANCH   4   7
TORSDOF 1
ENDMDL
MODEL 7
REMARK VINA RESULT:       2.1      2.670      4.671
REMARK  1 active torsions:
REMARK  status: ('A' for Active; 'I' for Inactive)
REMARK    1  A    between atoms: C4_4  and  C8_8 
ROOT
HETATM    1  C5  UNL     1     -34.149   7.153   4.884  1.00 20.00     0.002 C 
HETATM    2  C6  UNL     1     -33.191   8.076   4.126  1.00 20.00     0.011 C 
HETATM    3  C7  UNL     1     -35.003   6.458   3.824  1.00 20.00     0.021 C 
HETATM    4  C8  UNL     1     -33.685   8.083   2.667  1.00 20.00     0.039 C 
HETATM    5  C9  UNL     1     -34.261   6.660   2.506  1.00 20.00     0.090 C 
HETATM    6 CL11 UNL     1     -32.983   5.417   2.326  1.00 20.00    -0.124 Cl
ENDROOT
BRANCH   4   7
HETATM    7  C4  UNL     1     -32.711   8.541   1.602  1.00 20.00    -0.028 A 
HETATM    8  C1  UNL     1     -32.837   9.674   0.763  1.00 20.00     0.034 A 
HETATM    9  C2  UNL     1     -31.718   9.684  -0.036  1.00 20.00     0.142 A 
HETATM   10  O10 UNL     1     -30.911   8.630   0.258  1.00 20.00    -0.334 OA
HETATM   11  C3  UNL     1     -31.523   7.940   1.256  1.00 20.00     0.148 A 
ENDBRANCH   4   7
TORSDOF 1
ENDMDL
MODEL 8
REMARK VINA RESULT:       2.2      2.899      4.693
REMARK  1 active torsions:
REMARK  status: ('A' for Active; 'I' for Inactive)
REMARK    1  A    between atoms: C4_4  and  C8_8 
ROOT
HETATM    1  C5  UNL     1     -33.192   4.998   2.182  1.00 20.00     0.002 C 
HETATM    2  C6  UNL     1     -32.904   6.058   1.117  1.00 20.00     0.011 C 
HETATM    3  C7  UNL     1     -33.080   5.704   3.533  1.00 20.00     0.021 C 
HETATM    4  C8  UNL     1     -32.382   7.288   1.883  1.00 20.00     0.039 C 
HETATM    5  C9  UNL     1     -33.150   7.196   3.219  1.00 20.00     0.090 C 
HETATM    6 CL11 UNL     1     -34.860   7.710   3.065  1.00 20.00    -0.124 Cl
ENDROOT
BRANCH   4   7
HETATM    7  C4  UNL     1     -32.424   8.625   1.171  1.00 20.00    -0.028 A 
HETATM    8  C1  UNL     1     -32.339   8.850  -0.224  1.00 20.00     0.034 A 
HETATM    9  C2  UNL     1     -32.423  10.211  -0.397  1.00 20.00     0.142 A 
HETATM   10  O10 UNL     1     -32.554  10.838   0.802  1.00 20.00    -0.334 OA
HETATM   11  C3  UNL     1     -32.555   9.865   1.751  1.00 20.00     0.148 A 
ENDBRANCH   4   7
TORSDOF 1
ENDMDL
