MODEL 1
REMARK VINA RESULT:      -1.4      0.000      0.000
REMARK  3 active torsions:
REMARK  status: ('A' for Active; 'I' for Inactive)
REMARK    1  A    between atoms: C3_3  and  C4_4 
REMARK    2  A    between atoms: C3_3  and  N5_5 
REMARK    3  A    between atoms: C4_4  and  S7_7 
ROOT
HETATM    1  C1  UNL     1     -32.174   8.605   1.168  1.00 20.00     0.157 C 
HETATM    2  N5  UNL     1     -31.919   7.677   1.839  1.00 20.00    -0.275 NA
HETATM    3  S6  UNL     1     -32.489   9.874   0.259  1.00 20.00    -0.055 SA
ENDROOT
BRANCH   2   4
HETATM    4  C3  UNL     1     -33.064   6.821   2.165  1.00 20.00     0.160 C 
BRANCH   4   5
HETATM    5  C4  UNL     1     -33.636   7.261   3.504  1.00 20.00     0.095 C 
BRANCH   5   6
HETATM    6  S7  UNL     1     -35.086   6.262   3.942  1.00 20.00    -0.172 SA
HETATM    7  C2  UNL     1     -34.281   4.646   4.015  1.00 20.00     0.089 C 
ENDBRANCH   5   6
ENDBRANCH   4   5
ENDBRANCH   2   4
TORSDOF 3
ENDMDL
MODEL 2
REMARK VINA RESULT:      -1.3      1.184      1.229
REMARK  3 active torsions:
REMARK  status: ('A' for Active; 'I' for Inactive)
REMARK    1  A    between atoms: C3_3  and  C4_4 
REMARK    2  A    between atoms: C3_3  and  N5_5 
REMARK    3  A    between atoms: C4_4  and  S7_7 
ROOT
HETATM    1  C1  UNL     1     -32.234   8.941   1.071  1.00 20.00     0.157 C 
HETATM    2  N5  UNL     1     -32.045   8.174   1.939  1.00 20.00    -0.275 NA
HETATM    3  S6  UNL     1     -32.488  10.007  -0.085  1.00 20.00    -0.055 SA
ENDROOT
BRANCH   2   4
HETATM    4  C3  UNL     1     -32.105   6.765   1.537  1.00 20.00     0.160 C 
BRANCH   4   5
HETATM    5  C4  UNL     1     -33.298   6.114   2.220  1.00 20.00     0.095 C 
BRANCH   5   6
HETATM    6  S7  UNL     1     -33.891   7.141   3.593  1.00 20.00    -0.172 SA
HETATM    7  C2  UNL     1     -35.318   6.143   4.073  1.00 20.00     0.089 C 
ENDBRANCH   5   6
ENDBRANCH   4   5
ENDBRANCH   2   4
TORSDOF 3
ENDMDL
MODEL 3
REMARK VINA RESULT:      -0.7      2.698      4.479
REMARK  3 active torsions:
REMARK  status: ('A' for Active; 'I' for Inactive)
REMARK    1  A    between atoms: C3_3  and  C4_4 
REMARK    2  A    between atoms: C3_3  and  N5_5 
REMARK    3  A    between atoms: C4_4  and  S7_7 
ROOT
HETATM    1  C1  UNL     1     -34.502   4.594   4.381  1.00 20.00     0.157 C 
HETATM    2  N5  UNL     1     -35.243   5.504   4.400  1.00 20.00    -0.275 NA
HETATM    3  S6  UNL     1     -33.513   3.346   4.380  1.00 20.00    -0.055 SA
ENDROOT
BRANCH   2   4
HETATM    4  C3  UNL     1     -34.963   6.545   3.407  1.00 20.00     0.160 C 
BRANCH   4   5
HETATM    5  C4  UNL     1     -33.683   7.266   3.802  1.00 20.00     0.095 C 
BRANCH   5   6
HETATM    6  S7  UNL     1     -32.664   7.611   2.341  1.00 20.00    -0.172 SA
HETATM    7  C2  UNL     1     -32.701   5.964   1.599  1.00 20.00     0.089 C 
ENDBRANCH   5   6
ENDBRANCH   4   5
ENDBRANCH   2   4
TORSDOF 3
ENDMDL
MODEL 4
REMARK VINA RESULT:      -0.7      2.061      4.658
REMARK  3 active torsions:
REMARK  status: ('A' for Active; 'I' for Inactive)
REMARK    1  A    between atoms: C3_3  and  C4_4 
REMARK    2  A    between atoms: C3_3  and  N5_5 
REMARK    3  A    between atoms: C4_4  and  S7_7 
ROOT
HETATM    1  C1  UNL     1     -34.442   5.290   4.028  1.00 20.00     0.157 C 
HETATM    2  N5  UNL     1     -34.871   6.366   3.837  1.00 20.00    -0.275 NA
HETATM    3  S6  UNL     1     -33.890   3.820   4.293  1.00 20.00    -0.055 SA
ENDROOT
BRANCH   2   4
HETATM    4  C3  UNL     1     -33.864   7.381   3.514  1.00 20.00     0.160 C 
BRANCH   4   5
HETATM    5  C4  UNL     1     -33.212   7.017   2.189  1.00 20.00     0.095 C 
BRANCH   5   6
HETATM    6  S7  UNL     1     -31.748   8.046   1.892  1.00 20.00    -0.172 SA
HETATM    7  C2  UNL     1     -32.481   9.219   0.729  1.00 20.00     0.089 C 
ENDBRANCH   5   6
ENDBRANCH   4   5
ENDBRANCH   2   4
TORSDOF 3
ENDMDL
MODEL 5
REMARK VINA RESULT:      -0.7      1.388      4.388
REMARK  3 active torsions:
REMARK  status: ('A' for Active; 'I' for Inactive)
REMARK    1  A    between atoms: C3_3  and  C4_4 
REMARK    2  A    between atoms: C3_3  and  N5_5 
REMARK    3  A    between atoms: C4_4  and  S7_7 
ROOT
HETATM    1  C1  UNL     1     -33.713   6.257   2.695  1.00 20.00     0.157 C 
HETATM    2  N5  UNL     1     -33.021   6.015   1.777  1.00 20.00    -0.275 NA
HETATM    3  S6  UNL     1     -34.672   6.563   3.928  1.00 20.00    -0.055 SA
ENDROOT
BRANCH   2   4
HETATM    4  C3  UNL     1     -31.812   6.838   1.685  1.00 20.00     0.160 C 
BRANCH   4   5
HETATM    5  C4  UNL     1     -32.214   8.303   1.740  1.00 20.00     0.095 C 
BRANCH   5   6
HETATM    6  S7  UNL     1     -31.989   9.091   0.120  1.00 20.00    -0.172 SA
HETATM    7  C2  UNL     1     -32.754  10.685   0.494  1.00 20.00     0.089 C 
ENDBRANCH   5   6
ENDBRANCH   4   5
ENDBRANCH   2   4
TORSDOF 3
ENDMDL
MODEL 6
REMARK VINA RESULT:      -0.6      1.301      4.587
REMARK  3 active torsions:
REMARK  status: ('A' for Active; 'I' for Inactive)
REMARK    1  A    between atoms: C3_3  and  C4_4 
REMARK    2  A    between atoms: C3_3  and  N5_5 
REMARK    3  A    between atoms: C4_4  and  S7_7 
ROOT
HETATM    1  C1  UNL     1     -34.195   6.843   3.647  1.00 20.00     0.157 C 
HETATM    2  N5  UNL     1     -33.355   7.578   3.284  1.00 20.00    -0.275 NA
HETATM    3  S6  UNL     1     -35.338   5.863   4.166  1.00 20.00    -0.055 SA
ENDROOT
BRANCH   2   4
HETATM    4  C3  UNL     1     -32.720   7.209   2.015  1.00 20.00     0.160 C 
BRANCH   4   5
HETATM    5  C4  UNL     1     -31.698   8.275   1.653  1.00 20.00     0.095 C 
BRANCH   5   6
HETATM    6  S7  UNL     1     -32.048   8.968   0.013  1.00 20.00    -0.172 SA
HETATM    7  C2  UNL     1     -32.682  10.577   0.536  1.00 20.00     0.089 C 
ENDBRANCH   5   6
ENDBRANCH   4   5
ENDBRANCH   2   4
TORSDOF 3
ENDMDL
MODEL 7
REMARK VINA RESULT:      -0.6      2.133      2.605
REMARK  3 active torsions:
REMARK  status: ('A' for Active; 'I' for Inactive)
REMARK    1  A    between atoms: C3_3  and  C4_4 
REMARK    2  A    between atoms: C3_3  and  N5_5 
REMARK    3  A    between atoms: C4_4  and  S7_7 
ROOT
HETATM    1  C1  UNL     1     -33.219   7.517   3.144  1.00 20.00     0.157 C 
HETATM    2  N5  UNL     1     -33.941   7.320   4.048  1.00 20.00    -0.275 NA
HETATM    3  S6  UNL     1     -32.222   7.803   1.936  1.00 20.00    -0.055 SA
ENDROOT
BRANCH   2   4
HETATM    4  C3  UNL     1     -35.092   6.466   3.742  1.00 20.00     0.160 C 
BRANCH   4   5
HETATM    5  C4  UNL     1     -34.920   5.138   4.464  1.00 20.00     0.095 C 
BRANCH   5   6
HETATM    6  S7  UNL     1     -33.790   4.052   3.549  1.00 20.00    -0.172 SA
HETATM    7  C2  UNL     1     -33.220   3.039   4.933  1.00 20.00     0.089 C 
ENDBRANCH   5   6
ENDBRANCH   4   5
ENDBRANCH   2   4
TORSDOF 3
ENDMDL
MODEL 8
REMARK VINA RESULT:      -0.2      2.633      4.748
REMARK  3 active torsions:
REMARK  status: ('A' for Active; 'I' for Inactive)
REMARK    1  A    between atoms: C3_3  and  C4_4 
REMARK    2  A    between atoms: C3_3  and  N5_5 
REMARK    3  A    between atoms: C4_4  and  S7_7 
ROOT
HETATM    1  C1  UNL     1     -34.080   4.353   4.290  1.00 20.00     0.157 C 
HETATM    2  N5  UNL     1     -34.712   5.317   4.067  1.00 20.00    -0.275 NA
HETATM    3  S6  UNL     1     -33.247   3.033   4.608  1.00 20.00    -0.055 SA
ENDROOT
BRANCH   2   4
HETATM    4  C3  UNL     1     -34.002   6.360   3.322  1.00 20.00     0.160 C 
BRANCH   4   5
HETATM    5  C4  UNL     1     -33.405   5.742   2.067  1.00 20.00     0.095 C 
BRANCH   5   6
HETATM    6  S7  UNL     1     -32.005   6.730   1.469  1.00 20.00    -0.172 SA
HETATM    7  C2  UNL     1     -32.273   8.205   2.478  1.00 20.00     0.089 C 
ENDBRANCH   5   6
ENDBRANCH   4   5
ENDBRANCH   2   4
TORSDOF 3
ENDMDL
MODEL 9
REMARK VINA RESULT:       0.0      2.974      4.729
REMARK  3 active torsions:
REMARK  status: ('A' for Active; 'I' for Inactive)
REMARK    1  A    between atoms: C3_3  and  C4_4 
REMARK    2  A    between atoms: C3_3  and  N5_5 
REMARK    3  A    between atoms: C4_4  and  S7_7 
ROOT
HETATM    1  C1  UNL     1     -34.369   4.175   4.500  1.00 20.00     0.157 C 
HETATM    2  N5  UNL     1     -35.286   4.905   4.453  1.00 20.00    -0.275 NA
HETATM    3  S6  UNL     1     -33.143   3.160   4.575  1.00 20.00    -0.055 SA
ENDROOT
BRANCH   2   4
HETATM    4  C3  UNL     1     -34.969   6.263   3.999  1.00 20.00     0.160 C 
BRANCH   4   5
HETATM    5  C4  UNL     1     -33.878   6.181   2.943  1.00 20.00     0.095 C 
BRANCH   5   6
HETATM    6  S7  UNL     1     -32.828   7.661   2.991  1.00 20.00    -0.172 SA
HETATM    7  C2  UNL     1     -33.193   8.190   4.679  1.00 20.00     0.089 C 
ENDBRANCH   5   6
ENDBRANCH   4   5
ENDBRANCH   2   4
TORSDOF 3
ENDMDL
