MODEL 1
REMARK VINA RESULT:      -1.1      0.000      0.000
REMARK  2 active torsions:
REMARK  status: ('A' for Active; 'I' for Inactive)
REMARK    1  A    between atoms: C7_7  and  N9_9 
REMARK    2  A    between atoms: C8_8  and  N9_9 
ROOT
HETATM    1  C1  UNL     1     -33.762   3.826   4.264  1.00 20.00     0.015 C 
HETATM    2  C2  UNL     1     -34.022   4.948   3.923  1.00 20.00    -0.076 C 
HETATM    3  C5  UNL     1     -35.857   6.547   3.575  1.00 20.00     0.063 C 
HETATM    4  C6  UNL     1     -33.627   7.327   4.420  1.00 20.00     0.063 C 
HETATM    5  C8  UNL     1     -34.341   6.328   3.503  1.00 20.00     0.212 C 
ENDROOT
BRANCH   5   6
HETATM    6  N9  UNL     1     -33.888   6.524   2.140  1.00 20.00     0.108 N 
HETATM    7  H24 UNL     1     -34.229   7.422   1.792  1.00 20.00     0.318 HD
BRANCH   6   8
HETATM    8  C7  UNL     1     -32.431   6.508   2.061  1.00 20.00     0.214 C 
HETATM    9  C3  UNL     1     -31.944   7.874   1.601  1.00 20.00     0.042 C 
HETATM   10  C4  UNL     1     -32.001   5.405   1.105  1.00 20.00     0.042 C 
ENDBRANCH   6   8
ENDBRANCH   5   6
TORSDOF 2
ENDMDL
MODEL 2
REMARK VINA RESULT:      -1.0      1.432      4.369
REMARK  2 active torsions:
REMARK  status: ('A' for Active; 'I' for Inactive)
REMARK    1  A    between atoms: C7_7  and  N9_9 
REMARK    2  A    between atoms: C8_8  and  N9_9 
ROOT
HETATM    1  C1  UNL     1     -32.395   9.825  -0.106  1.00 20.00     0.015 C 
HETATM    2  C2  UNL     1     -32.383   9.033   0.798  1.00 20.00    -0.076 C 
HETATM    3  C5  UNL     1     -32.208   6.643   1.346  1.00 20.00     0.063 C 
HETATM    4  C6  UNL     1     -31.210   8.376   2.860  1.00 20.00     0.063 C 
HETATM    5  C8  UNL     1     -32.369   8.060   1.909  1.00 20.00     0.212 C 
ENDROOT
BRANCH   5   6
HETATM    6  N9  UNL     1     -33.620   8.152   2.635  1.00 20.00     0.108 N 
HETATM    7  H24 UNL     1     -34.394   7.902   2.016  1.00 20.00     0.318 HD
BRANCH   6   8
HETATM    8  C7  UNL     1     -33.628   7.258   3.788  1.00 20.00     0.214 C 
HETATM    9  C3  UNL     1     -34.895   6.416   3.754  1.00 20.00     0.042 C 
HETATM   10  C4  UNL     1     -33.538   8.090   5.058  1.00 20.00     0.042 C 
ENDBRANCH   6   8
ENDBRANCH   5   6
TORSDOF 2
ENDMDL
MODEL 3
REMARK VINA RESULT:      -0.9      1.258      3.713
REMARK  2 active torsions:
REMARK  status: ('A' for Active; 'I' for Inactive)
REMARK    1  A    between atoms: C7_7  and  N9_9 
REMARK    2  A    between atoms: C8_8  and  N9_9 
ROOT
HETATM    1  C1  UNL     1     -31.810   8.571   1.452  1.00 20.00     0.015 C 
HETATM    2  C2  UNL     1     -32.246   7.457   1.565  1.00 20.00    -0.076 C 
HETATM    3  C5  UNL     1     -33.981   5.909   0.767  1.00 20.00     0.063 C 
HETATM    4  C6  UNL     1     -31.694   5.067   1.358  1.00 20.00     0.063 C 
HETATM    5  C8  UNL     1     -32.782   6.088   1.705  1.00 20.00     0.212 C 
ENDROOT
BRANCH   5   6
HETATM    6  N9  UNL     1     -33.207   5.885   3.076  1.00 20.00     0.108 N 
HETATM    7  H24 UNL     1     -32.426   6.075   3.708  1.00 20.00     0.318 HD
BRANCH   6   8
HETATM    8  C7  UNL     1     -34.319   6.764   3.420  1.00 20.00     0.214 C 
HETATM    9  C3  UNL     1     -33.824   7.842   4.373  1.00 20.00     0.042 C 
HETATM   10  C4  UNL     1     -35.432   5.932   4.039  1.00 20.00     0.042 C 
ENDBRANCH   6   8
ENDBRANCH   5   6
TORSDOF 2
ENDMDL
MODEL 4
REMARK VINA RESULT:      -0.7      1.398      3.784
REMARK  2 active torsions:
REMARK  status: ('A' for Active; 'I' for Inactive)
REMARK    1  A    between atoms: C7_7  and  N9_9 
REMARK    2  A    between atoms: C8_8  and  N9_9 
ROOT
HETATM    1  C1  UNL     1     -32.149   5.435   1.148  1.00 20.00     0.015 C 
HETATM    2  C2  UNL     1     -32.242   6.580   1.501  1.00 20.00    -0.076 C 
HETATM    3  C5  UNL     1     -31.186   8.334   2.861  1.00 20.00     0.063 C 
HETATM    4  C6  UNL     1     -32.343   8.909   0.710  1.00 20.00     0.063 C 
HETATM    5  C8  UNL     1     -32.357   7.987   1.934  1.00 20.00     0.212 C 
ENDROOT
BRANCH   5   6
HETATM    6  N9  UNL     1     -33.607   8.161   2.648  1.00 20.00     0.108 N 
HETATM    7  H24 UNL     1     -34.389   7.946   2.026  1.00 20.00     0.318 HD
BRANCH   6   8
HETATM    8  C7  UNL     1     -33.675   7.286   3.814  1.00 20.00     0.214 C 
HETATM    9  C3  UNL     1     -34.976   6.499   3.769  1.00 20.00     0.042 C 
HETATM   10  C4  UNL     1     -33.571   8.133   5.073  1.00 20.00     0.042 C 
ENDBRANCH   6   8
ENDBRANCH   5   6
TORSDOF 2
ENDMDL
MODEL 5
REMARK VINA RESULT:      -0.5      0.406      2.104
REMARK  2 active torsions:
REMARK  status: ('A' for Active; 'I' for Inactive)
REMARK    1  A    between atoms: C7_7  and  N9_9 
REMARK    2  A    between atoms: C8_8  and  N9_9 
ROOT
HETATM    1  C1  UNL     1     -33.226   8.251   5.039  1.00 20.00     0.015 C 
HETATM    2  C2  UNL     1     -33.718   7.400   4.349  1.00 20.00    -0.076 C 
HETATM    3  C5  UNL     1     -33.865   4.973   3.983  1.00 20.00     0.063 C 
HETATM    4  C6  UNL     1     -35.851   6.449   3.570  1.00 20.00     0.063 C 
HETATM    5  C8  UNL     1     -34.323   6.354   3.500  1.00 20.00     0.212 C 
ENDROOT
BRANCH   5   6
HETATM    6  N9  UNL     1     -33.896   6.553   2.128  1.00 20.00     0.108 N 
HETATM    7  H24 UNL     1     -34.209   7.469   1.802  1.00 20.00     0.318 HD
BRANCH   6   8
HETATM    8  C7  UNL     1     -32.444   6.480   2.012  1.00 20.00     0.214 C 
HETATM    9  C3  UNL     1     -31.912   7.832   1.560  1.00 20.00     0.042 C 
HETATM   10  C4  UNL     1     -32.082   5.375   1.031  1.00 20.00     0.042 C 
ENDBRANCH   6   8
ENDBRANCH   5   6
TORSDOF 2
ENDMDL
MODEL 6
REMARK VINA RESULT:      -0.4      1.350      4.227
REMARK  2 active torsions:
REMARK  status: ('A' for Active; 'I' for Inactive)
REMARK    1  A    between atoms: C7_7  and  N9_9 
REMARK    2  A    between atoms: C8_8  and  N9_9 
ROOT
HETATM    1  C1  UNL     1     -32.531   9.915   0.155  1.00 20.00     0.015 C 
HETATM    2  C2  UNL     1     -32.423   9.012   0.940  1.00 20.00    -0.076 C 
HETATM    3  C5  UNL     1     -31.251   6.900   1.395  1.00 20.00     0.063 C 
HETATM    4  C6  UNL     1     -31.859   8.452   3.270  1.00 20.00     0.063 C 
HETATM    5  C8  UNL     1     -32.292   7.903   1.906  1.00 20.00     0.212 C 
ENDROOT
BRANCH   5   6
HETATM    6  N9  UNL     1     -33.574   7.241   2.044  1.00 20.00     0.108 N 
HETATM    7  H24 UNL     1     -33.684   6.550   1.299  1.00 20.00     0.318 HD
BRANCH   6   8
HETATM    8  C7  UNL     1     -33.684   6.569   3.334  1.00 20.00     0.214 C 
HETATM    9  C3  UNL     1     -33.569   5.066   3.123  1.00 20.00     0.042 C 
HETATM   10  C4  UNL     1     -35.011   6.947   3.976  1.00 20.00     0.042 C 
ENDBRANCH   6   8
ENDBRANCH   5   6
TORSDOF 2
ENDMDL
MODEL 7
REMARK VINA RESULT:      -0.2      1.876      3.462
REMARK  2 active torsions:
REMARK  status: ('A' for Active; 'I' for Inactive)
REMARK    1  A    between atoms: C7_7  and  N9_9 
REMARK    2  A    between atoms: C8_8  and  N9_9 
ROOT
HETATM    1  C1  UNL     1     -34.306   7.283   4.013  1.00 20.00     0.015 C 
HETATM    2  C2  UNL     1     -33.485   7.418   3.147  1.00 20.00    -0.076 C 
HETATM    3  C5  UNL     1     -31.234   8.277   2.658  1.00 20.00     0.063 C 
HETATM    4  C6  UNL     1     -32.089   6.214   1.515  1.00 20.00     0.063 C 
HETATM    5  C8  UNL     1     -32.475   7.585   2.083  1.00 20.00     0.212 C 
ENDROOT
BRANCH   5   6
HETATM    6  N9  UNL     1     -33.035   8.399   1.023  1.00 20.00     0.108 N 
HETATM    7  H24 UNL     1     -33.911   8.820   1.341  1.00 20.00     0.318 HD
BRANCH   6   8
HETATM    8  C7  UNL     1     -32.115   9.461   0.630  1.00 20.00     0.214 C 
HETATM    9  C3  UNL     1     -32.850  10.793   0.663  1.00 20.00     0.042 C 
HETATM   10  C4  UNL     1     -31.568   9.152  -0.755  1.00 20.00     0.042 C 
ENDBRANCH   6   8
ENDBRANCH   5   6
TORSDOF 2
ENDMDL
MODEL 8
REMARK VINA RESULT:       0.2      1.303      1.984
REMARK  2 active torsions:
REMARK  status: ('A' for Active; 'I' for Inactive)
REMARK    1  A    between atoms: C7_7  and  N9_9 
REMARK    2  A    between atoms: C8_8  and  N9_9 
ROOT
HETATM    1  C1  UNL     1     -35.374   5.487   4.211  1.00 20.00     0.015 C 
HETATM    2  C2  UNL     1     -34.686   6.465   4.093  1.00 20.00    -0.076 C 
HETATM    3  C5  UNL     1     -34.591   8.725   3.130  1.00 20.00     0.063 C 
HETATM    4  C6  UNL     1     -33.494   8.228   5.330  1.00 20.00     0.063 C 
HETATM    5  C8  UNL     1     -33.840   7.667   3.947  1.00 20.00     0.212 C 
ENDROOT
BRANCH   5   6
HETATM    6  N9  UNL     1     -32.616   7.304   3.260  1.00 20.00     0.108 N 
HETATM    7  H24 UNL     1     -32.303   6.386   3.582  1.00 20.00     0.318 HD
BRANCH   6   8
HETATM    8  C7  UNL     1     -32.816   7.257   1.816  1.00 20.00     0.214 C 
HETATM    9  C3  UNL     1     -32.643   5.823   1.337  1.00 20.00     0.042 C 
HETATM   10  C4  UNL     1     -31.824   8.198   1.149  1.00 20.00     0.042 C 
ENDBRANCH   6   8
ENDBRANCH   5   6
TORSDOF 2
ENDMDL
MODEL 9
REMARK VINA RESULT:       0.2      1.220      3.487
REMARK  2 active torsions:
REMARK  status: ('A' for Active; 'I' for Inactive)
REMARK    1  A    between atoms: C7_7  and  N9_9 
REMARK    2  A    between atoms: C8_8  and  N9_9 
ROOT
HETATM    1  C1  UNL     1     -31.274   4.365   0.741  1.00 20.00     0.015 C 
HETATM    2  C2  UNL     1     -31.973   5.241   1.173  1.00 20.00    -0.076 C 
HETATM    3  C5  UNL     1     -32.045   7.634   1.734  1.00 20.00     0.063 C 
HETATM    4  C6  UNL     1     -34.074   6.475   0.820  1.00 20.00     0.063 C 
HETATM    5  C8  UNL     1     -32.833   6.318   1.704  1.00 20.00     0.212 C 
ENDROOT
BRANCH   5   6
HETATM    6  N9  UNL     1     -33.247   5.973   3.050  1.00 20.00     0.108 N 
HETATM    7  H24 UNL     1     -32.467   6.115   3.695  1.00 20.00     0.318 HD
BRANCH   6   8
HETATM    8  C7  UNL     1     -34.374   6.792   3.481  1.00 20.00     0.214 C 
HETATM    9  C3  UNL     1     -33.870   7.876   4.422  1.00 20.00     0.042 C 
HETATM   10  C4  UNL     1     -35.405   5.897   4.153  1.00 20.00     0.042 C 
ENDBRANCH   6   8
ENDBRANCH   5   6
TORSDOF 2
ENDMDL
