MODEL 1
REMARK VINA RESULT:      -0.5      0.000      0.000
REMARK  3 active torsions:
REMARK  status: ('A' for Active; 'I' for Inactive)
REMARK    1  A    between atoms: C2_2  and  C3_3 
REMARK    2  A    between atoms: C3_3  and  C11_11 
REMARK    3  A    between atoms: C11_11  and  C12_12 
ROOT
HETATM    1  C3  UNL     1     -32.358   6.442   1.696  1.00 20.00     0.159 C 
HETATM    2  O13 UNL     1     -32.013   5.644   0.827  1.00 20.00    -0.292 OA
ENDROOT
BRANCH   1   3
HETATM    3  C2  UNL     1     -33.349   6.036   2.695  1.00 20.00    -0.016 C 
HETATM    4  C1  UNL     1     -34.166   6.980   3.184  1.00 20.00    -0.016 C 
HETATM    5  C4  UNL     1     -35.228   6.681   4.203  1.00 20.00     0.028 C 
HETATM    6  C6  UNL     1     -35.486   5.183   4.389  1.00 20.00     0.004 C 
HETATM    7  C7  UNL     1     -34.182   4.391   4.416  1.00 20.00     0.005 C 
HETATM    8  C5  UNL     1     -33.379   4.601   3.129  1.00 20.00     0.042 C 
ENDBRANCH   1   3
BRANCH   1   9
HETATM    9  C11 UNL     1     -31.797   7.859   1.805  1.00 20.00     0.059 C 
HETATM   10  C8  UNL     1     -32.098   8.441   3.188  1.00 20.00     0.018 C 
BRANCH   9  11
HETATM   11  C12 UNL     1     -32.287   8.730   0.621  1.00 20.00    -0.012 C 
HETATM   12  C9  UNL     1     -32.778  10.118   1.043  1.00 20.00     0.010 C 
HETATM   13  C10 UNL     1     -31.207   8.869  -0.456  1.00 20.00     0.010 C 
ENDBRANCH   9  11
ENDBRANCH   1   9
TORSDOF 3
ENDMDL
MODEL 2
REMARK VINA RESULT:      -0.3      1.524      5.008
REMARK  3 active torsions:
REMARK  status: ('A' for Active; 'I' for Inactive)
REMARK    1  A    between atoms: C2_2  and  C3_3 
REMARK    2  A    between atoms: C3_3  and  C11_11 
REMARK    3  A    between atoms: C11_11  and  C12_12 
ROOT
HETATM    1  C3  UNL     1     -33.170   7.721   3.355  1.00 20.00     0.159 C 
HETATM    2  O13 UNL     1     -32.774   8.087   4.460  1.00 20.00    -0.292 OA
ENDROOT
BRANCH   1   3
HETATM    3  C2  UNL     1     -32.759   8.463   2.160  1.00 20.00    -0.016 C 
HETATM    4  C1  UNL     1     -31.736   7.974   1.444  1.00 20.00    -0.016 C 
HETATM    5  C4  UNL     1     -31.234   8.642   0.195  1.00 20.00     0.028 C 
HETATM    6  C6  UNL     1     -32.178   9.724  -0.337  1.00 20.00     0.004 C 
HETATM    7  C7  UNL     1     -32.735  10.583   0.795  1.00 20.00     0.005 C 
HETATM    8  C5  UNL     1     -33.487   9.729   1.821  1.00 20.00     0.042 C 
ENDBRANCH   1   3
BRANCH   1   9
HETATM    9  C11 UNL     1     -34.074   6.507   3.147  1.00 20.00     0.059 C 
HETATM   10  C8  UNL     1     -35.221   6.524   4.160  1.00 20.00     0.018 C 
BRANCH   9  11
HETATM   11  C12 UNL     1     -33.238   5.202   3.146  1.00 20.00    -0.012 C 
HETATM   12  C9  UNL     1     -33.913   4.041   3.883  1.00 20.00     0.010 C 
HETATM   13  C10 UNL     1     -32.879   4.770   1.721  1.00 20.00     0.010 C 
ENDBRANCH   9  11
ENDBRANCH   1   9
TORSDOF 3
ENDMDL
MODEL 3
REMARK VINA RESULT:      -0.2      1.424      2.280
REMARK  3 active torsions:
REMARK  status: ('A' for Active; 'I' for Inactive)
REMARK    1  A    between atoms: C2_2  and  C3_3 
REMARK    2  A    between atoms: C3_3  and  C11_11 
REMARK    3  A    between atoms: C11_11  and  C12_12 
ROOT
HETATM    1  C3  UNL     1     -32.139   8.221   2.339  1.00 20.00     0.159 C 
HETATM    2  O13 UNL     1     -31.402   8.808   3.128  1.00 20.00    -0.292 OA
ENDROOT
BRANCH   1   3
HETATM    3  C2  UNL     1     -33.051   7.189   2.836  1.00 20.00    -0.016 C 
HETATM    4  C1  UNL     1     -32.944   5.958   2.314  1.00 20.00    -0.016 C 
HETATM    5  C4  UNL     1     -33.816   4.817   2.753  1.00 20.00     0.028 C 
HETATM    6  C6  UNL     1     -34.599   5.109   4.037  1.00 20.00     0.004 C 
HETATM    7  C7  UNL     1     -35.170   6.524   4.030  1.00 20.00     0.005 C 
HETATM    8  C5  UNL     1     -34.061   7.569   3.877  1.00 20.00     0.042 C 
ENDBRANCH   1   3
BRANCH   1   9
HETATM    9  C11 UNL     1     -32.169   8.517   0.840  1.00 20.00     0.059 C 
HETATM   10  C8  UNL     1     -30.750   8.484   0.267  1.00 20.00     0.018 C 
BRANCH   9  11
HETATM   11  C12 UNL     1     -32.943   9.830   0.562  1.00 20.00    -0.012 C 
HETATM   12  C9  UNL     1     -32.419  11.032   1.354  1.00 20.00     0.010 C 
HETATM   13  C10 UNL     1     -32.959  10.164  -0.933  1.00 20.00     0.010 C 
ENDBRANCH   9  11
ENDBRANCH   1   9
TORSDOF 3
ENDMDL
MODEL 4
REMARK VINA RESULT:      -0.1      1.386      1.971
REMARK  3 active torsions:
REMARK  status: ('A' for Active; 'I' for Inactive)
REMARK    1  A    between atoms: C2_2  and  C3_3 
REMARK    2  A    between atoms: C3_3  and  C11_11 
REMARK    3  A    between atoms: C11_11  and  C12_12 
ROOT
HETATM    1  C3  UNL     1     -31.839   8.162   2.009  1.00 20.00     0.159 C 
HETATM    2  O13 UNL     1     -30.823   8.476   2.625  1.00 20.00    -0.292 OA
ENDROOT
BRANCH   1   3
HETATM    3  C2  UNL     1     -32.891   7.406   2.691  1.00 20.00    -0.016 C 
HETATM    4  C1  UNL     1     -33.517   7.996   3.720  1.00 20.00    -0.016 C 
HETATM    5  C4  UNL     1     -34.618   7.323   4.488  1.00 20.00     0.028 C 
HETATM    6  C6  UNL     1     -35.154   6.062   3.803  1.00 20.00     0.004 C 
HETATM    7  C7  UNL     1     -34.022   5.216   3.227  1.00 20.00     0.005 C 
HETATM    8  C5  UNL     1     -33.191   6.015   2.218  1.00 20.00     0.042 C 
ENDBRANCH   1   3
BRANCH   1   9
HETATM    9  C11 UNL     1     -32.080   8.532   0.546  1.00 20.00     0.059 C 
HETATM   10  C8  UNL     1     -30.750   8.598  -0.208  1.00 20.00     0.018 C 
BRANCH   9  11
HETATM   11  C12 UNL     1     -32.941   9.817   0.446  1.00 20.00    -0.012 C 
HETATM   12  C9  UNL     1     -32.493  10.930   1.397  1.00 20.00     0.010 C 
HETATM   13  C10 UNL     1     -32.984  10.349  -0.990  1.00 20.00     0.010 C 
ENDBRANCH   9  11
ENDBRANCH   1   9
TORSDOF 3
ENDMDL
MODEL 5
REMARK VINA RESULT:       0.2      1.509      5.131
REMARK  3 active torsions:
REMARK  status: ('A' for Active; 'I' for Inactive)
REMARK    1  A    between atoms: C2_2  and  C3_3 
REMARK    2  A    between atoms: C3_3  and  C11_11 
REMARK    3  A    between atoms: C11_11  and  C12_12 
ROOT
HETATM    1  C3  UNL     1     -32.765   7.621   3.169  1.00 20.00     0.159 C 
HETATM    2  O13 UNL     1     -32.720   8.153   4.276  1.00 20.00    -0.292 OA
ENDROOT
BRANCH   1   3
HETATM    3  C2  UNL     1     -32.510   8.427   1.972  1.00 20.00    -0.016 C 
HETATM    4  C1  UNL     1     -31.521   8.035   1.155  1.00 20.00    -0.016 C 
HETATM    5  C4  UNL     1     -31.175   8.774  -0.105  1.00 20.00     0.028 C 
HETATM    6  C6  UNL     1     -32.232   9.803  -0.516  1.00 20.00     0.004 C 
HETATM    7  C7  UNL     1     -32.747  10.585   0.689  1.00 20.00     0.005 C 
HETATM    8  C5  UNL     1     -33.348   9.649   1.742  1.00 20.00     0.042 C 
ENDBRANCH   1   3
BRANCH   1   9
HETATM    9  C11 UNL     1     -33.066   6.138   2.961  1.00 20.00     0.059 C 
HETATM   10  C8  UNL     1     -33.479   5.882   1.510  1.00 20.00     0.018 C 
BRANCH   9  11
HETATM   11  C12 UNL     1     -34.084   5.638   4.017  1.00 20.00    -0.012 C 
HETATM   12  C9  UNL     1     -35.495   6.201   3.823  1.00 20.00     0.010 C 
HETATM   13  C10 UNL     1     -34.140   4.108   4.059  1.00 20.00     0.010 C 
ENDBRANCH   9  11
ENDBRANCH   1   9
TORSDOF 3
ENDMDL
MODEL 6
REMARK VINA RESULT:       0.2      1.412      2.356
REMARK  3 active torsions:
REMARK  status: ('A' for Active; 'I' for Inactive)
REMARK    1  A    between atoms: C2_2  and  C3_3 
REMARK    2  A    between atoms: C3_3  and  C11_11 
REMARK    3  A    between atoms: C11_11  and  C12_12 
ROOT
HETATM    1  C3  UNL     1     -32.319   8.020   2.531  1.00 20.00     0.159 C 
HETATM    2  O13 UNL     1     -31.605   8.652   3.307  1.00 20.00    -0.292 OA
ENDROOT
BRANCH   1   3
HETATM    3  C2  UNL     1     -33.249   7.020   3.059  1.00 20.00    -0.016 C 
HETATM    4  C1  UNL     1     -33.044   5.738   2.721  1.00 20.00    -0.016 C 
HETATM    5  C4  UNL     1     -33.925   4.624   3.210  1.00 20.00     0.028 C 
HETATM    6  C6  UNL     1     -34.859   5.043   4.350  1.00 20.00     0.004 C 
HETATM    7  C7  UNL     1     -35.469   6.418   4.092  1.00 20.00     0.005 C 
HETATM    8  C5  UNL     1     -34.383   7.484   3.923  1.00 20.00     0.042 C 
ENDBRANCH   1   3
BRANCH   1   9
HETATM    9  C11 UNL     1     -32.302   8.228   1.017  1.00 20.00     0.059 C 
HETATM   10  C8  UNL     1     -31.163   7.424   0.387  1.00 20.00     0.018 C 
BRANCH   9  11
HETATM   11  C12 UNL     1     -32.285   9.740   0.677  1.00 20.00    -0.012 C 
HETATM   12  C9  UNL     1     -32.422  10.034  -0.819  1.00 20.00     0.010 C 
HETATM   13  C10 UNL     1     -33.365  10.500   1.454  1.00 20.00     0.010 C 
ENDBRANCH   9  11
ENDBRANCH   1   9
TORSDOF 3
ENDMDL
MODEL 7
REMARK VINA RESULT:       0.4      1.531      4.826
REMARK  3 active torsions:
REMARK  status: ('A' for Active; 'I' for Inactive)
REMARK    1  A    between atoms: C2_2  and  C3_3 
REMARK    2  A    between atoms: C3_3  and  C11_11 
REMARK    3  A    between atoms: C11_11  and  C12_12 
ROOT
HETATM    1  C3  UNL     1     -33.230   7.692   3.400  1.00 20.00     0.159 C 
HETATM    2  O13 UNL     1     -32.928   8.119   4.513  1.00 20.00    -0.292 OA
ENDROOT
BRANCH   1   3
HETATM    3  C2  UNL     1     -32.715   8.366   2.206  1.00 20.00    -0.016 C 
HETATM    4  C1  UNL     1     -33.337   9.484   1.804  1.00 20.00    -0.016 C 
HETATM    5  C4  UNL     1     -32.893  10.266   0.601  1.00 20.00     0.028 C 
HETATM    6  C6  UNL     1     -31.512   9.851   0.082  1.00 20.00     0.004 C 
HETATM    7  C7  UNL     1     -31.348   8.334   0.087  1.00 20.00     0.005 C 
HETATM    8  C5  UNL     1     -31.544   7.759   1.493  1.00 20.00     0.042 C 
ENDBRANCH   1   3
BRANCH   1   9
HETATM    9  C11 UNL     1     -34.120   6.470   3.184  1.00 20.00     0.059 C 
HETATM   10  C8  UNL     1     -35.272   6.470   4.191  1.00 20.00     0.018 C 
BRANCH   9  11
HETATM   11  C12 UNL     1     -33.270   5.173   3.181  1.00 20.00    -0.012 C 
HETATM   12  C9  UNL     1     -33.919   4.013   3.941  1.00 20.00     0.010 C 
HETATM   13  C10 UNL     1     -32.930   4.731   1.754  1.00 20.00     0.010 C 
ENDBRANCH   9  11
ENDBRANCH   1   9
TORSDOF 3
ENDMDL
MODEL 8
REMARK VINA RESULT:       0.6      1.014      4.555
REMARK  3 active torsions:
REMARK  status: ('A' for Active; 'I' for Inactive)
REMARK    1  A    between atoms: C2_2  and  C3_3 
REMARK    2  A    between atoms: C3_3  and  C11_11 
REMARK    3  A    between atoms: C11_11  and  C12_12 
ROOT
HETATM    1  C3  UNL     1     -32.821   5.897   1.802  1.00 20.00     0.159 C 
HETATM    2  O13 UNL     1     -32.692   4.933   1.050  1.00 20.00    -0.292 OA
ENDROOT
BRANCH   1   3
HETATM    3  C2  UNL     1     -32.538   7.244   1.302  1.00 20.00    -0.016 C 
HETATM    4  C1  UNL     1     -33.073   7.598   0.124  1.00 20.00    -0.016 C 
HETATM    5  C4  UNL     1     -32.862   8.955  -0.483  1.00 20.00     0.028 C 
HETATM    6  C6  UNL     1     -32.258   9.970   0.492  1.00 20.00     0.004 C 
HETATM    7  C7  UNL     1     -31.144   9.345   1.326  1.00 20.00     0.005 C 
HETATM    8  C5  UNL     1     -31.654   8.138   2.119  1.00 20.00     0.042 C 
ENDBRANCH   1   3
BRANCH   1   9
HETATM    9  C11 UNL     1     -33.279   5.773   3.254  1.00 20.00     0.059 C 
HETATM   10  C8  UNL     1     -33.657   4.323   3.566  1.00 20.00     0.018 C 
BRANCH   9  11
HETATM   11  C12 UNL     1     -34.392   6.806   3.563  1.00 20.00    -0.012 C 
HETATM   12  C9  UNL     1     -35.711   6.172   4.012  1.00 20.00     0.010 C 
HETATM   13  C10 UNL     1     -33.930   7.830   4.604  1.00 20.00     0.010 C 
ENDBRANCH   9  11
ENDBRANCH   1   9
TORSDOF 3
ENDMDL
MODEL 9
REMARK VINA RESULT:       0.8      1.192      4.921
REMARK  3 active torsions:
REMARK  status: ('A' for Active; 'I' for Inactive)
REMARK    1  A    between atoms: C2_2  and  C3_3 
REMARK    2  A    between atoms: C3_3  and  C11_11 
REMARK    3  A    between atoms: C11_11  and  C12_12 
ROOT
HETATM    1  C3  UNL     1     -33.168   7.133   2.583  1.00 20.00     0.159 C 
HETATM    2  O13 UNL     1     -32.876   5.960   2.356  1.00 20.00    -0.292 OA
ENDROOT
BRANCH   1   3
HETATM    3  C2  UNL     1     -32.733   8.177   1.652  1.00 20.00    -0.016 C 
HETATM    4  C1  UNL     1     -31.690   7.907   0.855  1.00 20.00    -0.016 C 
HETATM    5  C4  UNL     1     -31.162   8.894  -0.146  1.00 20.00     0.028 C 
HETATM    6  C6  UNL     1     -32.100  10.082  -0.381  1.00 20.00     0.004 C 
HETATM    7  C7  UNL     1     -32.690  10.593   0.931  1.00 20.00     0.005 C 
HETATM    8  C5  UNL     1     -33.461   9.488   1.660  1.00 20.00     0.042 C 
ENDBRANCH   1   3
BRANCH   1   9
HETATM    9  C11 UNL     1     -33.984   7.574   3.797  1.00 20.00     0.059 C 
HETATM   10  C8  UNL     1     -33.056   7.871   4.977  1.00 20.00     0.018 C 
BRANCH   9  11
HETATM   11  C12 UNL     1     -35.103   6.546   4.102  1.00 20.00    -0.012 C 
HETATM   12  C9  UNL     1     -36.257   6.579   3.097  1.00 20.00     0.010 C 
HETATM   13  C10 UNL     1     -34.543   5.124   4.200  1.00 20.00     0.010 C 
ENDBRANCH   9  11
ENDBRANCH   1   9
TORSDOF 3
ENDMDL
