MODEL 1
REMARK VINA RESULT:      -1.7      0.000      0.000
REMARK  4 active torsions:
REMARK  status: ('A' for Active; 'I' for Inactive)
REMARK    1  A    between atoms: C4_4  and  C6_6 
REMARK    2  A    between atoms: C6_6  and  C8_8 
REMARK    3  A    between atoms: C7_7  and  C8_8 
REMARK    4  A    between atoms: C8_8  and  N9_9 
ROOT
HETATM    1  C1  UNL     1     -32.001   8.906   1.080  1.00 20.00     0.158 C 
HETATM    2  N9  UNL     1     -31.548   8.183   1.884  1.00 20.00    -0.270 NA
HETATM    3  S10 UNL     1     -32.586   9.907  -0.013  1.00 20.00    -0.055 SA
ENDROOT
BRANCH   2   4
HETATM    4  C8  UNL     1     -32.439   7.090   2.296  1.00 20.00     0.109 C 
BRANCH   4   5
HETATM    5  C6  UNL     1     -33.710   7.695   2.902  1.00 20.00     0.032 C 
BRANCH   5   6
HETATM    6  C4  UNL     1     -34.256   6.870   4.061  1.00 20.00    -0.013 A 
HETATM    7  C2  UNL     1     -35.618   6.239   3.966  1.00 20.00     0.005 A 
HETATM    8  C3  UNL     1     -34.387   5.378   3.931  1.00 20.00     0.005 A 
ENDBRANCH   5   6
ENDBRANCH   4   5
BRANCH   4   9
HETATM    9  C7  UNL     1     -32.773   6.240   1.065  1.00 20.00     0.023 C 
HETATM   10  C5  UNL     1     -32.026   4.937   1.045  1.00 20.00     0.007 C 
ENDBRANCH   4   9
ENDBRANCH   2   4
TORSDOF 4
ENDMDL
MODEL 2
REMARK VINA RESULT:      -1.4      2.378      4.226
REMARK  4 active torsions:
REMARK  status: ('A' for Active; 'I' for Inactive)
REMARK    1  A    between atoms: C4_4  and  C6_6 
REMARK    2  A    between atoms: C6_6  and  C8_8 
REMARK    3  A    between atoms: C7_7  and  C8_8 
REMARK    4  A    between atoms: C8_8  and  N9_9 
ROOT
HETATM    1  C1  UNL     1     -34.051   6.906   3.600  1.00 20.00     0.158 C 
HETATM    2  N9  UNL     1     -33.109   7.515   3.258  1.00 20.00    -0.270 NA
HETATM    3  S10 UNL     1     -35.327   6.093   4.099  1.00 20.00    -0.055 SA
ENDROOT
BRANCH   2   4
HETATM    4  C8  UNL     1     -32.727   7.313   1.853  1.00 20.00     0.109 C 
BRANCH   4   5
HETATM    5  C6  UNL     1     -31.904   8.522   1.391  1.00 20.00     0.032 C 
BRANCH   5   6
HETATM    6  C4  UNL     1     -32.770   9.627   0.799  1.00 20.00    -0.013 A 
HETATM    7  C2  UNL     1     -32.136  10.881   0.262  1.00 20.00     0.005 A 
HETATM    8  C3  UNL     1     -32.756   9.889  -0.681  1.00 20.00     0.005 A 
ENDBRANCH   5   6
ENDBRANCH   4   5
BRANCH   4   9
HETATM    9  C7  UNL     1     -31.906   6.022   1.749  1.00 20.00     0.023 C 
HETATM   10  C5  UNL     1     -32.515   5.029   0.802  1.00 20.00     0.007 C 
ENDBRANCH   4   9
ENDBRANCH   2   4
TORSDOF 4
ENDMDL
MODEL 3
REMARK VINA RESULT:      -1.2      3.284      4.846
REMARK  4 active torsions:
REMARK  status: ('A' for Active; 'I' for Inactive)
REMARK    1  A    between atoms: C4_4  and  C6_6 
REMARK    2  A    between atoms: C6_6  and  C8_8 
REMARK    3  A    between atoms: C7_7  and  C8_8 
REMARK    4  A    between atoms: C8_8  and  N9_9 
ROOT
HETATM    1  C1  UNL     1     -33.842   4.051   4.132  1.00 20.00     0.158 C 
HETATM    2  N9  UNL     1     -34.437   4.937   3.647  1.00 20.00    -0.270 NA
HETATM    3  S10 UNL     1     -33.065   2.826   4.790  1.00 20.00    -0.055 SA
ENDROOT
BRANCH   2   4
HETATM    4  C8  UNL     1     -33.638   6.144   3.393  1.00 20.00     0.109 C 
BRANCH   4   5
HETATM    5  C6  UNL     1     -33.358   6.239   1.888  1.00 20.00     0.032 C 
BRANCH   5   6
HETATM    6  C4  UNL     1     -32.028   6.917   1.583  1.00 20.00    -0.013 A 
HETATM    7  C2  UNL     1     -31.998   8.235   0.859  1.00 20.00     0.005 A 
HETATM    8  C3  UNL     1     -31.630   8.168   2.315  1.00 20.00     0.005 A 
ENDBRANCH   5   6
ENDBRANCH   4   5
BRANCH   4   9
HETATM    9  C7  UNL     1     -34.427   7.366   3.879  1.00 20.00     0.023 C 
HETATM   10  C5  UNL     1     -33.735   8.089   4.998  1.00 20.00     0.007 C 
ENDBRANCH   4   9
ENDBRANCH   2   4
TORSDOF 4
ENDMDL
MODEL 4
REMARK VINA RESULT:      -0.9      2.152      4.195
REMARK  4 active torsions:
REMARK  status: ('A' for Active; 'I' for Inactive)
REMARK    1  A    between atoms: C4_4  and  C6_6 
REMARK    2  A    between atoms: C6_6  and  C8_8 
REMARK    3  A    between atoms: C7_7  and  C8_8 
REMARK    4  A    between atoms: C8_8  and  N9_9 
ROOT
HETATM    1  C1  UNL     1     -32.506   5.550   1.252  1.00 20.00     0.158 C 
HETATM    2  N9  UNL     1     -33.242   6.335   1.717  1.00 20.00    -0.270 NA
HETATM    3  S10 UNL     1     -31.531   4.471   0.599  1.00 20.00    -0.055 SA
ENDROOT
BRANCH   2   4
HETATM    4  C8  UNL     1     -32.651   7.190   2.754  1.00 20.00     0.109 C 
BRANCH   4   5
HETATM    5  C6  UNL     1     -31.934   8.362   2.074  1.00 20.00     0.032 C 
BRANCH   5   6
HETATM    6  C4  UNL     1     -32.752   8.970   0.942  1.00 20.00    -0.013 A 
HETATM    7  C2  UNL     1     -32.697  10.450   0.677  1.00 20.00     0.005 A 
HETATM    8  C3  UNL     1     -32.068   9.489  -0.293  1.00 20.00     0.005 A 
ENDBRANCH   5   6
ENDBRANCH   4   5
BRANCH   4   9
HETATM    9  C7  UNL     1     -33.772   7.695   3.671  1.00 20.00     0.023 C 
HETATM   10  C5  UNL     1     -34.828   6.655   3.915  1.00 20.00     0.007 C 
ENDBRANCH   4   9
ENDBRANCH   2   4
TORSDOF 4
ENDMDL
MODEL 5
REMARK VINA RESULT:      -0.7      2.786      4.613
REMARK  4 active torsions:
REMARK  status: ('A' for Active; 'I' for Inactive)
REMARK    1  A    between atoms: C4_4  and  C6_6 
REMARK    2  A    between atoms: C6_6  and  C8_8 
REMARK    3  A    between atoms: C7_7  and  C8_8 
REMARK    4  A    between atoms: C8_8  and  N9_9 
ROOT
HETATM    1  C1  UNL     1     -33.405   5.287   2.798  1.00 20.00     0.158 C 
HETATM    2  N9  UNL     1     -33.012   6.084   2.033  1.00 20.00    -0.270 NA
HETATM    3  S10 UNL     1     -33.948   4.182   3.809  1.00 20.00    -0.055 SA
ENDROOT
BRANCH   2   4
HETATM    4  C8  UNL     1     -32.503   7.320   2.644  1.00 20.00     0.109 C 
BRANCH   4   5
HETATM    5  C6  UNL     1     -31.835   8.167   1.554  1.00 20.00     0.032 C 
BRANCH   5   6
HETATM    6  C4  UNL     1     -32.820   9.082   0.839  1.00 20.00    -0.013 A 
HETATM    7  C2  UNL     1     -32.514  10.547   0.678  1.00 20.00     0.005 A 
HETATM    8  C3  UNL     1     -32.489   9.638  -0.519  1.00 20.00     0.005 A 
ENDBRANCH   5   6
ENDBRANCH   4   5
BRANCH   4   9
HETATM    9  C7  UNL     1     -33.679   8.074   3.276  1.00 20.00     0.023 C 
HETATM   10  C5  UNL     1     -33.631   8.061   4.777  1.00 20.00     0.007 C 
ENDBRANCH   4   9
ENDBRANCH   2   4
TORSDOF 4
ENDMDL
MODEL 6
REMARK VINA RESULT:      -0.5      0.879      3.238
REMARK  4 active torsions:
REMARK  status: ('A' for Active; 'I' for Inactive)
REMARK    1  A    between atoms: C4_4  and  C6_6 
REMARK    2  A    between atoms: C6_6  and  C8_8 
REMARK    3  A    between atoms: C7_7  and  C8_8 
REMARK    4  A    between atoms: C8_8  and  N9_9 
ROOT
HETATM    1  C1  UNL     1     -32.298   8.898   1.292  1.00 20.00     0.158 C 
HETATM    2  N9  UNL     1     -32.183   8.122   2.162  1.00 20.00    -0.270 NA
HETATM    3  S10 UNL     1     -32.422   9.966   0.116  1.00 20.00    -0.055 SA
ENDROOT
BRANCH   2   4
HETATM    4  C8  UNL     1     -33.335   7.227   2.341  1.00 20.00     0.109 C 
BRANCH   4   5
HETATM    5  C6  UNL     1     -32.866   5.779   2.152  1.00 20.00     0.032 C 
BRANCH   5   6
HETATM    6  C4  UNL     1     -32.447   5.484   0.717  1.00 20.00    -0.013 A 
HETATM    7  C2  UNL     1     -31.530   4.329   0.419  1.00 20.00     0.005 A 
HETATM    8  C3  UNL     1     -32.975   4.267   0.010  1.00 20.00     0.005 A 
ENDBRANCH   5   6
ENDBRANCH   4   5
BRANCH   4   9
HETATM    9  C7  UNL     1     -33.903   7.436   3.750  1.00 20.00     0.023 C 
HETATM   10  C5  UNL     1     -35.031   6.494   4.061  1.00 20.00     0.007 C 
ENDBRANCH   4   9
ENDBRANCH   2   4
TORSDOF 4
ENDMDL
MODEL 7
REMARK VINA RESULT:      -0.5      1.282      2.538
REMARK  4 active torsions:
REMARK  status: ('A' for Active; 'I' for Inactive)
REMARK    1  A    between atoms: C4_4  and  C6_6 
REMARK    2  A    between atoms: C6_6  and  C8_8 
REMARK    3  A    between atoms: C7_7  and  C8_8 
REMARK    4  A    between atoms: C8_8  and  N9_9 
ROOT
HETATM    1  C1  UNL     1     -32.341   8.534   1.455  1.00 20.00     0.158 C 
HETATM    2  N9  UNL     1     -32.258   7.771   2.341  1.00 20.00    -0.270 NA
HETATM    3  S10 UNL     1     -32.423   9.586   0.261  1.00 20.00    -0.055 SA
ENDROOT
BRANCH   2   4
HETATM    4  C8  UNL     1     -33.376   6.823   2.440  1.00 20.00     0.109 C 
BRANCH   4   5
HETATM    5  C6  UNL     1     -32.814   5.434   2.765  1.00 20.00     0.032 C 
BRANCH   5   6
HETATM    6  C4  UNL     1     -33.891   4.461   3.228  1.00 20.00    -0.013 A 
HETATM    7  C2  UNL     1     -33.522   3.256   4.049  1.00 20.00     0.005 A 
HETATM    8  C3  UNL     1     -34.277   4.393   4.679  1.00 20.00     0.005 A 
ENDBRANCH   5   6
ENDBRANCH   4   5
BRANCH   4   9
HETATM    9  C7  UNL     1     -34.326   7.300   3.546  1.00 20.00     0.023 C 
HETATM   10  C5  UNL     1     -33.601   7.975   4.674  1.00 20.00     0.007 C 
ENDBRANCH   4   9
ENDBRANCH   2   4
TORSDOF 4
ENDMDL
MODEL 8
REMARK VINA RESULT:      -0.5      2.164      3.290
REMARK  4 active torsions:
REMARK  status: ('A' for Active; 'I' for Inactive)
REMARK    1  A    between atoms: C4_4  and  C6_6 
REMARK    2  A    between atoms: C6_6  and  C8_8 
REMARK    3  A    between atoms: C7_7  and  C8_8 
REMARK    4  A    between atoms: C8_8  and  N9_9 
ROOT
HETATM    1  C1  UNL     1     -32.442   6.967   1.566  1.00 20.00     0.158 C 
HETATM    2  N9  UNL     1     -32.894   5.895   1.423  1.00 20.00    -0.270 NA
HETATM    3  S10 UNL     1     -31.812   8.422   1.728  1.00 20.00    -0.055 SA
ENDROOT
BRANCH   2   4
HETATM    4  C8  UNL     1     -33.659   5.395   2.573  1.00 20.00     0.109 C 
BRANCH   4   5
HETATM    5  C6  UNL     1     -32.810   4.353   3.311  1.00 20.00     0.032 C 
BRANCH   5   6
HETATM    6  C4  UNL     1     -33.617   3.555   4.328  1.00 20.00    -0.013 A 
HETATM    7  C2  UNL     1     -33.309   2.102   4.567  1.00 20.00     0.005 A 
HETATM    8  C3  UNL     1     -32.988   3.122   5.622  1.00 20.00     0.005 A 
ENDBRANCH   5   6
ENDBRANCH   4   5
BRANCH   4   9
HETATM    9  C7  UNL     1     -33.993   6.577   3.492  1.00 20.00     0.023 C 
HETATM   10  C5  UNL     1     -35.401   6.524   4.008  1.00 20.00     0.007 C 
ENDBRANCH   4   9
ENDBRANCH   2   4
TORSDOF 4
ENDMDL
MODEL 9
REMARK VINA RESULT:       0.1      1.969      2.990
REMARK  4 active torsions:
REMARK  status: ('A' for Active; 'I' for Inactive)
REMARK    1  A    between atoms: C4_4  and  C6_6 
REMARK    2  A    between atoms: C6_6  and  C8_8 
REMARK    3  A    between atoms: C7_7  and  C8_8 
REMARK    4  A    between atoms: C8_8  and  N9_9 
ROOT
HETATM    1  C1  UNL     1     -32.694   6.265   1.734  1.00 20.00     0.158 C 
HETATM    2  N9  UNL     1     -33.370   5.380   2.100  1.00 20.00    -0.270 NA
HETATM    3  S10 UNL     1     -31.778   7.456   1.204  1.00 20.00    -0.055 SA
ENDROOT
BRANCH   2   4
HETATM    4  C8  UNL     1     -33.658   5.384   3.541  1.00 20.00     0.109 C 
BRANCH   4   5
HETATM    5  C6  UNL     1     -34.750   6.424   3.820  1.00 20.00     0.032 C 
BRANCH   5   6
HETATM    6  C4  UNL     1     -34.184   7.819   4.052  1.00 20.00    -0.013 A 
HETATM    7  C2  UNL     1     -34.046   8.357   5.450  1.00 20.00     0.005 A 
HETATM    8  C3  UNL     1     -32.820   7.990   4.662  1.00 20.00     0.005 A 
ENDBRANCH   5   6
ENDBRANCH   4   5
BRANCH   4   9
HETATM    9  C7  UNL     1     -34.123   3.981   3.952  1.00 20.00     0.023 C 
HETATM   10  C5  UNL     1     -33.073   3.229   4.718  1.00 20.00     0.007 C 
ENDBRANCH   4   9
ENDBRANCH   2   4
TORSDOF 4
ENDMDL
