MODEL 1
REMARK VINA RESULT:      -2.1      0.000      0.000
REMARK  3 active torsions:
REMARK  status: ('A' for Active; 'I' for Inactive)
REMARK    1  A    between atoms: C2_2  and  C6_6 
REMARK    2  A    between atoms: C2_2  and  C7_7 
REMARK    3  A    between atoms: C7_7  and  C8_8 
ROOT
HETATM    1  C1  UNL     1     -34.159   4.058   4.467  1.00 20.00     0.066 C 
HETATM    2  C6  UNL     1     -35.245   5.031   4.632  1.00 20.00     0.202 C 
HETATM    3  N9  UNL     1     -33.303   3.285   4.341  1.00 20.00    -0.197 NA
ENDROOT
BRANCH   2   4
HETATM    4  C2  UNL     1     -35.069   6.251   3.746  1.00 20.00     0.143 C 
HETATM    5  O10 UNL     1     -36.013   6.793   3.169  1.00 20.00    -0.297 OA
BRANCH   4   6
HETATM    6  C7  UNL     1     -33.644   6.799   3.630  1.00 20.00     0.055 C 
HETATM    7  C3  UNL     1     -33.585   8.089   4.448  1.00 20.00     0.018 C 
BRANCH   6   8
HETATM    8  C8  UNL     1     -33.240   6.985   2.146  1.00 20.00    -0.012 C 
HETATM    9  C4  UNL     1     -32.772   5.658   1.534  1.00 20.00     0.010 C 
HETATM   10  C5  UNL     1     -32.133   8.030   1.972  1.00 20.00     0.010 C 
ENDBRANCH   6   8
ENDBRANCH   4   6
ENDBRANCH   2   4
TORSDOF 3
ENDMDL
MODEL 2
REMARK VINA RESULT:      -2.0      3.262      4.954
REMARK  3 active torsions:
REMARK  status: ('A' for Active; 'I' for Inactive)
REMARK    1  A    between atoms: C2_2  and  C6_6 
REMARK    2  A    between atoms: C2_2  and  C7_7 
REMARK    3  A    between atoms: C7_7  and  C8_8 
ROOT
HETATM    1  C1  UNL     1     -32.360   9.516   0.436  1.00 20.00     0.066 C 
HETATM    2  C6  UNL     1     -32.033   8.136   0.812  1.00 20.00     0.202 C 
HETATM    3  N9  UNL     1     -32.617  10.606   0.134  1.00 20.00    -0.197 NA
ENDROOT
BRANCH   2   4
HETATM    4  C2  UNL     1     -32.020   7.933   2.317  1.00 20.00     0.143 C 
HETATM    5  O10 UNL     1     -31.383   8.662   3.078  1.00 20.00    -0.297 OA
BRANCH   4   6
HETATM    6  C7  UNL     1     -32.876   6.781   2.847  1.00 20.00     0.055 C 
HETATM    7  C3  UNL     1     -33.190   5.864   1.665  1.00 20.00     0.018 C 
BRANCH   6   8
HETATM    8  C8  UNL     1     -34.138   7.315   3.570  1.00 20.00    -0.012 C 
HETATM    9  C4  UNL     1     -33.764   8.008   4.887  1.00 20.00     0.010 C 
HETATM   10  C5  UNL     1     -35.153   6.205   3.865  1.00 20.00     0.010 C 
ENDBRANCH   6   8
ENDBRANCH   4   6
ENDBRANCH   2   4
TORSDOF 3
ENDMDL
MODEL 3
REMARK VINA RESULT:      -1.7      2.831      4.506
REMARK  3 active torsions:
REMARK  status: ('A' for Active; 'I' for Inactive)
REMARK    1  A    between atoms: C2_2  and  C6_6 
REMARK    2  A    between atoms: C2_2  and  C7_7 
REMARK    3  A    between atoms: C7_7  and  C8_8 
ROOT
HETATM    1  C1  UNL     1     -32.155   8.759   0.934  1.00 20.00     0.066 C 
HETATM    2  C6  UNL     1     -31.672   7.622   1.726  1.00 20.00     0.202 C 
HETATM    3  N9  UNL     1     -32.534   9.660   0.309  1.00 20.00    -0.197 NA
ENDROOT
BRANCH   2   4
HETATM    4  C2  UNL     1     -32.680   6.490   1.790  1.00 20.00     0.143 C 
HETATM    5  O10 UNL     1     -33.056   5.879   0.788  1.00 20.00    -0.297 OA
BRANCH   4   6
HETATM    6  C7  UNL     1     -33.188   6.120   3.186  1.00 20.00     0.055 C 
HETATM    7  C3  UNL     1     -33.599   4.648   3.145  1.00 20.00     0.018 C 
BRANCH   6   8
HETATM    8  C8  UNL     1     -34.328   7.069   3.632  1.00 20.00    -0.012 C 
HETATM    9  C4  UNL     1     -33.857   8.000   4.757  1.00 20.00     0.010 C 
HETATM   10  C5  UNL     1     -35.569   6.306   4.105  1.00 20.00     0.010 C 
ENDBRANCH   6   8
ENDBRANCH   4   6
ENDBRANCH   2   4
TORSDOF 3
ENDMDL
MODEL 4
REMARK VINA RESULT:      -1.6      2.899      4.427
REMARK  3 active torsions:
REMARK  status: ('A' for Active; 'I' for Inactive)
REMARK    1  A    between atoms: C2_2  and  C6_6 
REMARK    2  A    between atoms: C2_2  and  C7_7 
REMARK    3  A    between atoms: C7_7  and  C8_8 
ROOT
HETATM    1  C1  UNL     1     -32.117   9.031   0.853  1.00 20.00     0.066 C 
HETATM    2  C6  UNL     1     -31.721   8.028   1.848  1.00 20.00     0.202 C 
HETATM    3  N9  UNL     1     -32.427   9.827   0.068  1.00 20.00    -0.197 NA
ENDROOT
BRANCH   2   4
HETATM    4  C2  UNL     1     -32.723   6.893   1.957  1.00 20.00     0.143 C 
HETATM    5  O10 UNL     1     -32.642   5.869   1.275  1.00 20.00    -0.297 OA
BRANCH   4   6
HETATM    6  C7  UNL     1     -33.835   7.074   2.993  1.00 20.00     0.055 C 
HETATM    7  C3  UNL     1     -33.222   7.787   4.198  1.00 20.00     0.018 C 
BRANCH   6   8
HETATM    8  C8  UNL     1     -34.492   5.716   3.344  1.00 20.00    -0.012 C 
HETATM    9  C4  UNL     1     -35.595   5.896   4.397  1.00 20.00     0.010 C 
HETATM   10  C5  UNL     1     -33.475   4.693   3.861  1.00 20.00     0.010 C 
ENDBRANCH   6   8
ENDBRANCH   4   6
ENDBRANCH   2   4
TORSDOF 3
ENDMDL
MODEL 5
REMARK VINA RESULT:      -1.4      1.326      2.257
REMARK  3 active torsions:
REMARK  status: ('A' for Active; 'I' for Inactive)
REMARK    1  A    between atoms: C2_2  and  C6_6 
REMARK    2  A    between atoms: C2_2  and  C7_7 
REMARK    3  A    between atoms: C7_7  and  C8_8 
ROOT
HETATM    1  C1  UNL     1     -34.559   4.917   4.180  1.00 20.00     0.066 C 
HETATM    2  C6  UNL     1     -35.006   6.265   3.813  1.00 20.00     0.202 C 
HETATM    3  N9  UNL     1     -34.209   3.849   4.470  1.00 20.00    -0.197 NA
ENDROOT
BRANCH   2   4
HETATM    4  C2  UNL     1     -33.848   7.206   3.539  1.00 20.00     0.143 C 
HETATM    5  O10 UNL     1     -33.298   7.857   4.429  1.00 20.00    -0.297 OA
BRANCH   4   6
HETATM    6  C7  UNL     1     -33.370   7.281   2.087  1.00 20.00     0.055 C 
HETATM    7  C3  UNL     1     -32.880   5.887   1.697  1.00 20.00     0.018 C 
BRANCH   6   8
HETATM    8  C8  UNL     1     -32.300   8.387   1.911  1.00 20.00    -0.012 C 
HETATM    9  C4  UNL     1     -32.631   9.286   0.712  1.00 20.00     0.010 C 
HETATM   10  C5  UNL     1     -30.893   7.811   1.725  1.00 20.00     0.010 C 
ENDBRANCH   6   8
ENDBRANCH   4   6
ENDBRANCH   2   4
TORSDOF 3
ENDMDL
MODEL 6
REMARK VINA RESULT:      -1.2      3.223      4.597
REMARK  3 active torsions:
REMARK  status: ('A' for Active; 'I' for Inactive)
REMARK    1  A    between atoms: C2_2  and  C6_6 
REMARK    2  A    between atoms: C2_2  and  C7_7 
REMARK    3  A    between atoms: C7_7  and  C8_8 
ROOT
HETATM    1  C1  UNL     1     -32.301   9.570   0.534  1.00 20.00     0.066 C 
HETATM    2  C6  UNL     1     -31.845   8.278   1.060  1.00 20.00     0.202 C 
HETATM    3  N9  UNL     1     -32.660  10.590   0.114  1.00 20.00    -0.197 NA
ENDROOT
BRANCH   2   4
HETATM    4  C2  UNL     1     -32.258   8.062   2.504  1.00 20.00     0.143 C 
HETATM    5  O10 UNL     1     -31.685   8.611   3.447  1.00 20.00    -0.297 OA
BRANCH   4   6
HETATM    6  C7  UNL     1     -33.459   7.140   2.730  1.00 20.00     0.055 C 
HETATM    7  C3  UNL     1     -34.112   7.558   4.047  1.00 20.00     0.018 C 
BRANCH   6   8
HETATM    8  C8  UNL     1     -33.031   5.652   2.694  1.00 20.00    -0.012 C 
HETATM    9  C4  UNL     1     -32.929   5.145   1.249  1.00 20.00     0.010 C 
HETATM   10  C5  UNL     1     -33.997   4.750   3.469  1.00 20.00     0.010 C 
ENDBRANCH   6   8
ENDBRANCH   4   6
ENDBRANCH   2   4
TORSDOF 3
ENDMDL
MODEL 7
REMARK VINA RESULT:      -0.9      1.301      1.466
REMARK  3 active torsions:
REMARK  status: ('A' for Active; 'I' for Inactive)
REMARK    1  A    between atoms: C2_2  and  C6_6 
REMARK    2  A    between atoms: C2_2  and  C7_7 
REMARK    3  A    between atoms: C7_7  and  C8_8 
ROOT
HETATM    1  C1  UNL     1     -34.515   4.934   4.069  1.00 20.00     0.066 C 
HETATM    2  C6  UNL     1     -35.012   6.267   3.710  1.00 20.00     0.202 C 
HETATM    3  N9  UNL     1     -34.126   3.878   4.352  1.00 20.00    -0.197 NA
ENDROOT
BRANCH   2   4
HETATM    4  C2  UNL     1     -34.027   7.367   4.062  1.00 20.00     0.143 C 
HETATM    5  O10 UNL     1     -34.261   8.217   4.922  1.00 20.00    -0.297 OA
BRANCH   4   6
HETATM    6  C7  UNL     1     -32.696   7.345   3.305  1.00 20.00     0.055 C 
HETATM    7  C3  UNL     1     -31.921   8.599   3.711  1.00 20.00     0.018 C 
BRANCH   6   8
HETATM    8  C8  UNL     1     -32.927   7.225   1.779  1.00 20.00    -0.012 C 
HETATM    9  C4  UNL     1     -32.495   5.845   1.265  1.00 20.00     0.010 C 
HETATM   10  C5  UNL     1     -32.179   8.305   0.990  1.00 20.00     0.010 C 
ENDBRANCH   6   8
ENDBRANCH   4   6
ENDBRANCH   2   4
TORSDOF 3
ENDMDL
MODEL 8
REMARK VINA RESULT:      -0.9      1.952      2.868
REMARK  3 active torsions:
REMARK  status: ('A' for Active; 'I' for Inactive)
REMARK    1  A    between atoms: C2_2  and  C6_6 
REMARK    2  A    between atoms: C2_2  and  C7_7 
REMARK    3  A    between atoms: C7_7  and  C8_8 
ROOT
HETATM    1  C1  UNL     1     -34.716   6.201   3.907  1.00 20.00     0.066 C 
HETATM    2  C6  UNL     1     -33.927   7.338   3.419  1.00 20.00     0.202 C 
HETATM    3  N9  UNL     1     -35.340   5.304   4.296  1.00 20.00    -0.197 NA
ENDROOT
BRANCH   2   4
HETATM    4  C2  UNL     1     -32.991   6.952   2.289  1.00 20.00     0.143 C 
HETATM    5  O10 UNL     1     -33.096   5.889   1.675  1.00 20.00    -0.297 OA
BRANCH   4   6
HETATM    6  C7  UNL     1     -31.916   7.979   1.925  1.00 20.00     0.055 C 
HETATM    7  C3  UNL     1     -31.658   8.828   3.169  1.00 20.00     0.018 C 
BRANCH   6   8
HETATM    8  C8  UNL     1     -32.336   8.806   0.685  1.00 20.00    -0.012 C 
HETATM    9  C4  UNL     1     -31.201   8.864  -0.347  1.00 20.00     0.010 C 
HETATM   10  C5  UNL     1     -32.746  10.237   1.052  1.00 20.00     0.010 C 
ENDBRANCH   6   8
ENDBRANCH   4   6
ENDBRANCH   2   4
TORSDOF 3
ENDMDL
MODEL 9
REMARK VINA RESULT:      -0.5      1.254      2.275
REMARK  3 active torsions:
REMARK  status: ('A' for Active; 'I' for Inactive)
REMARK    1  A    between atoms: C2_2  and  C6_6 
REMARK    2  A    between atoms: C2_2  and  C7_7 
REMARK    3  A    between atoms: C7_7  and  C8_8 
ROOT
HETATM    1  C1  UNL     1     -33.100   3.238   4.871  1.00 20.00     0.066 C 
HETATM    2  C6  UNL     1     -33.569   3.711   3.563  1.00 20.00     0.202 C 
HETATM    3  N9  UNL     1     -32.729   2.860   5.903  1.00 20.00    -0.197 NA
ENDROOT
BRANCH   2   4
HETATM    4  C2  UNL     1     -34.364   5.000   3.664  1.00 20.00     0.143 C 
HETATM    5  O10 UNL     1     -35.289   5.148   4.463  1.00 20.00    -0.297 OA
BRANCH   4   6
HETATM    6  C7  UNL     1     -33.929   6.133   2.731  1.00 20.00     0.055 C 
HETATM    7  C3  UNL     1     -33.147   5.501   1.580  1.00 20.00     0.018 C 
BRANCH   6   8
HETATM    8  C8  UNL     1     -33.131   7.213   3.504  1.00 20.00    -0.012 C 
HETATM    9  C4  UNL     1     -34.070   8.110   4.321  1.00 20.00     0.010 C 
HETATM   10  C5  UNL     1     -32.289   8.092   2.573  1.00 20.00     0.010 C 
ENDBRANCH   6   8
ENDBRANCH   4   6
ENDBRANCH   2   4
TORSDOF 3
ENDMDL
