MODEL 1
REMARK VINA RESULT:       0.3      0.000      0.000
REMARK  1 active torsions:
REMARK  status: ('A' for Active; 'I' for Inactive)
REMARK    1  A    between atoms: C10_10  and  N11_11 
ROOT
HETATM    1  C1  UNL     1     -32.768  10.100   0.238  1.00 20.00     0.015 C 
HETATM    2  C2  UNL     1     -32.420   9.239   0.999  1.00 20.00    -0.076 C 
HETATM    3  C8  UNL     1     -30.956   7.280   1.254  1.00 20.00     0.063 C 
HETATM    4  C9  UNL     1     -31.385   8.814   3.192  1.00 20.00     0.063 C 
HETATM    5  C10 UNL     1     -31.992   8.181   1.936  1.00 20.00     0.214 C 
ENDROOT
BRANCH   5   6
HETATM    6  N11 UNL     1     -33.158   7.381   2.316  1.00 20.00     0.110 N 
HETATM    7  C6  UNL     1     -33.576   7.707   3.688  1.00 20.00     0.282 C 
HETATM    8  C4  UNL     1     -34.844   6.955   4.078  1.00 20.00     0.108 C 
HETATM    9  C3  UNL     1     -34.678   5.475   3.831  1.00 20.00     0.130 C 
HETATM   10  C5  UNL     1     -34.080   5.091   2.499  1.00 20.00     0.108 C 
HETATM   11  O12 UNL     1     -35.106   4.633   4.617  1.00 20.00    -0.298 OA
HETATM   12  C7  UNL     1     -32.854   5.947   2.197  1.00 20.00     0.282 C 
ENDBRANCH   5   6
TORSDOF 1
ENDMDL
MODEL 2
REMARK VINA RESULT:       2.2      1.331      2.519
REMARK  1 active torsions:
REMARK  status: ('A' for Active; 'I' for Inactive)
REMARK    1  A    between atoms: C10_10  and  N11_11 
ROOT
HETATM    1  C1  UNL     1     -31.626   8.573   1.304  1.00 20.00     0.015 C 
HETATM    2  C2  UNL     1     -32.025   7.441   1.345  1.00 20.00    -0.076 C 
HETATM    3  C8  UNL     1     -33.583   5.841   0.316  1.00 20.00     0.063 C 
HETATM    4  C9  UNL     1     -31.348   5.080   1.166  1.00 20.00     0.063 C 
HETATM    5  C10 UNL     1     -32.513   6.048   1.395  1.00 20.00     0.214 C 
ENDROOT
BRANCH   5   6
HETATM    6  N11 UNL     1     -33.096   5.795   2.713  1.00 20.00     0.110 N 
HETATM    7  C6  UNL     1     -33.459   4.376   2.848  1.00 20.00     0.282 C 
HETATM    8  C4  UNL     1     -33.984   4.065   4.246  1.00 20.00     0.108 C 
HETATM    9  C3  UNL     1     -35.100   5.013   4.614  1.00 20.00     0.130 C 
HETATM   10  C5  UNL     1     -34.847   6.473   4.327  1.00 20.00     0.108 C 
HETATM   11  O12 UNL     1     -36.103   4.634   5.213  1.00 20.00    -0.298 OA
HETATM   12  C7  UNL     1     -34.274   6.651   2.924  1.00 20.00     0.282 C 
ENDBRANCH   5   6
TORSDOF 1
ENDMDL
MODEL 3
REMARK VINA RESULT:       2.6      2.384      4.563
REMARK  1 active torsions:
REMARK  status: ('A' for Active; 'I' for Inactive)
REMARK    1  A    between atoms: C10_10  and  N11_11 
ROOT
HETATM    1  C1  UNL     1     -33.973   3.623   4.424  1.00 20.00     0.015 C 
HETATM    2  C2  UNL     1     -34.140   4.782   4.155  1.00 20.00    -0.076 C 
HETATM    3  C8  UNL     1     -35.599   6.356   2.956  1.00 20.00     0.063 C 
HETATM    4  C9  UNL     1     -34.505   7.019   5.115  1.00 20.00     0.063 C 
HETATM    5  C10 UNL     1     -34.345   6.207   3.826  1.00 20.00     0.214 C 
ENDROOT
BRANCH   5   6
HETATM    6  N11 UNL     1     -33.180   6.698   3.089  1.00 20.00     0.110 N 
HETATM    7  C6  UNL     1     -33.130   8.168   3.134  1.00 20.00     0.282 C 
HETATM    8  C4  UNL     1     -31.875   8.703   2.452  1.00 20.00     0.108 C 
HETATM    9  C3  UNL     1     -31.748   8.135   1.059  1.00 20.00     0.130 C 
HETATM   10  C5  UNL     1     -31.971   6.647   0.929  1.00 20.00     0.108 C 
HETATM   11  O12 UNL     1     -31.375   8.820   0.109  1.00 20.00    -0.298 OA
HETATM   12  C7  UNL     1     -33.221   6.226   1.696  1.00 20.00     0.282 C 
ENDBRANCH   5   6
TORSDOF 1
ENDMDL
MODEL 4
REMARK VINA RESULT:       3.2      2.338      4.697
REMARK  1 active torsions:
REMARK  status: ('A' for Active; 'I' for Inactive)
REMARK    1  A    between atoms: C10_10  and  N11_11 
ROOT
HETATM    1  C1  UNL     1     -33.781   3.805   4.240  1.00 20.00     0.015 C 
HETATM    2  C2  UNL     1     -34.112   4.942   4.037  1.00 20.00    -0.076 C 
HETATM    3  C8  UNL     1     -36.036   6.405   3.586  1.00 20.00     0.063 C 
HETATM    4  C9  UNL     1     -34.113   7.217   4.978  1.00 20.00     0.063 C 
HETATM    5  C10 UNL     1     -34.517   6.340   3.789  1.00 20.00     0.214 C 
ENDROOT
BRANCH   5   6
HETATM    6  N11 UNL     1     -33.844   6.824   2.583  1.00 20.00     0.110 N 
HETATM    7  C6  UNL     1     -32.752   5.914   2.207  1.00 20.00     0.282 C 
HETATM    8  C4  UNL     1     -32.093   6.344   0.900  1.00 20.00     0.108 C 
HETATM    9  C3  UNL     1     -31.675   7.793   0.972  1.00 20.00     0.130 C 
HETATM   10  C5  UNL     1     -32.704   8.751   1.525  1.00 20.00     0.108 C 
HETATM   11  O12 UNL     1     -30.608   8.186   0.505  1.00 20.00    -0.298 OA
HETATM   12  C7  UNL     1     -33.330   8.186   2.797  1.00 20.00     0.282 C 
ENDBRANCH   5   6
TORSDOF 1
ENDMDL
MODEL 5
REMARK VINA RESULT:       3.2      0.494      1.777
REMARK  1 active torsions:
REMARK  status: ('A' for Active; 'I' for Inactive)
REMARK    1  A    between atoms: C10_10  and  N11_11 
ROOT
HETATM    1  C1  UNL     1     -31.246   9.176   4.095  1.00 20.00     0.015 C 
HETATM    2  C2  UNL     1     -31.691   8.659   3.106  1.00 20.00    -0.076 C 
HETATM    3  C8  UNL     1     -32.812   9.100   0.961  1.00 20.00     0.063 C 
HETATM    4  C9  UNL     1     -31.130   7.249   1.167  1.00 20.00     0.063 C 
HETATM    5  C10 UNL     1     -32.237   8.023   1.890  1.00 20.00     0.214 C 
ENDROOT
BRANCH   5   6
HETATM    6  N11 UNL     1     -33.300   7.094   2.274  1.00 20.00     0.110 N 
HETATM    7  C6  UNL     1     -33.917   7.519   3.540  1.00 20.00     0.282 C 
HETATM    8  C4  UNL     1     -35.090   6.621   3.918  1.00 20.00     0.108 C 
HETATM    9  C3  UNL     1     -34.671   5.171   3.905  1.00 20.00     0.130 C 
HETATM   10  C5  UNL     1     -33.874   4.724   2.703  1.00 20.00     0.108 C 
HETATM   11  O12 UNL     1     -35.051   4.377   4.763  1.00 20.00    -0.298 OA
HETATM   12  C7  UNL     1     -32.768   5.728   2.393  1.00 20.00     0.282 C 
ENDBRANCH   5   6
TORSDOF 1
ENDMDL
MODEL 6
REMARK VINA RESULT:       3.3      0.896      1.671
REMARK  1 active torsions:
REMARK  status: ('A' for Active; 'I' for Inactive)
REMARK    1  A    between atoms: C10_10  and  N11_11 
ROOT
HETATM    1  C1  UNL     1     -32.977  10.089   0.705  1.00 20.00     0.015 C 
HETATM    2  C2  UNL     1     -32.402   9.114   1.108  1.00 20.00    -0.076 C 
HETATM    3  C8  UNL     1     -31.489   6.927   0.452  1.00 20.00     0.063 C 
HETATM    4  C9  UNL     1     -30.336   8.323   2.189  1.00 20.00     0.063 C 
HETATM    5  C10 UNL     1     -31.693   7.917   1.605  1.00 20.00     0.214 C 
ENDROOT
BRANCH   5   6
HETATM    6  N11 UNL     1     -32.498   7.286   2.651  1.00 20.00     0.110 N 
HETATM    7  C6  UNL     1     -33.117   6.052   2.145  1.00 20.00     0.282 C 
HETATM    8  C4  UNL     1     -33.888   5.324   3.242  1.00 20.00     0.108 C 
HETATM    9  C3  UNL     1     -34.864   6.261   3.911  1.00 20.00     0.130 C 
HETATM   10  C5  UNL     1     -34.324   7.619   4.291  1.00 20.00     0.108 C 
HETATM   11  O12 UNL     1     -35.996   5.901   4.230  1.00 20.00    -0.298 OA
HETATM   12  C7  UNL     1     -33.528   8.219   3.135  1.00 20.00     0.282 C 
ENDBRANCH   5   6
TORSDOF 1
ENDMDL
