MODEL 1
REMARK VINA RESULT:      -2.0      0.000      0.000
REMARK  4 active torsions:
REMARK  status: ('A' for Active; 'I' for Inactive)
REMARK    1  A    between atoms: C4_4  and  C6_6 
REMARK    2  A    between atoms: C6_6  and  C8_8 
REMARK    3  A    between atoms: C7_7  and  C8_8 
REMARK    4  A    between atoms: C8_8  and  N9_9 
ROOT
HETATM    1  C1  UNL     1     -34.071   7.103   3.628  1.00 20.00     0.158 C 
HETATM    2  N9  UNL     1     -33.242   7.853   3.271  1.00 20.00    -0.270 NA
HETATM    3  S10 UNL     1     -35.211   6.112   4.132  1.00 20.00    -0.055 SA
ENDROOT
BRANCH   2   4
HETATM    4  C8  UNL     1     -32.250   7.278   2.353  1.00 20.00     0.109 C 
BRANCH   4   5
HETATM    5  C6  UNL     1     -31.670   8.407   1.492  1.00 20.00     0.032 C 
BRANCH   5   6
HETATM    6  C4  UNL     1     -32.745   9.177   0.736  1.00 20.00    -0.013 A 
HETATM    7  C2  UNL     1     -32.710  10.680   0.692  1.00 20.00     0.005 A 
HETATM    8  C3  UNL     1     -32.407   9.884  -0.547  1.00 20.00     0.005 A 
ENDBRANCH   5   6
ENDBRANCH   4   5
BRANCH   4   9
HETATM    9  C7  UNL     1     -32.944   6.226   1.480  1.00 20.00     0.023 C 
HETATM   10  C5  UNL     1     -32.020   5.112   1.076  1.00 20.00     0.007 C 
ENDBRANCH   4   9
ENDBRANCH   2   4
TORSDOF 4
ENDMDL
MODEL 2
REMARK VINA RESULT:      -1.7      2.439      4.337
REMARK  4 active torsions:
REMARK  status: ('A' for Active; 'I' for Inactive)
REMARK    1  A    between atoms: C4_4  and  C6_6 
REMARK    2  A    between atoms: C6_6  and  C8_8 
REMARK    3  A    between atoms: C7_7  and  C8_8 
REMARK    4  A    between atoms: C8_8  and  N9_9 
ROOT
HETATM    1  C1  UNL     1     -32.127   9.048   0.976  1.00 20.00     0.158 C 
HETATM    2  N9  UNL     1     -31.813   8.227   1.751  1.00 20.00    -0.270 NA
HETATM    3  S10 UNL     1     -32.524  10.184  -0.068  1.00 20.00    -0.055 SA
ENDROOT
BRANCH   2   4
HETATM    4  C8  UNL     1     -32.717   7.071   1.818  1.00 20.00     0.109 C 
BRANCH   4   5
HETATM    5  C6  UNL     1     -33.427   7.084   3.177  1.00 20.00     0.032 C 
BRANCH   5   6
HETATM    6  C4  UNL     1     -34.582   6.093   3.243  1.00 20.00    -0.013 A 
HETATM    7  C2  UNL     1     -34.472   4.856   4.091  1.00 20.00     0.005 A 
HETATM    8  C3  UNL     1     -35.400   5.967   4.498  1.00 20.00     0.005 A 
ENDBRANCH   5   6
ENDBRANCH   4   5
BRANCH   4   9
HETATM    9  C7  UNL     1     -31.890   5.791   1.647  1.00 20.00     0.023 C 
HETATM   10  C5  UNL     1     -32.448   4.881   0.592  1.00 20.00     0.007 C 
ENDBRANCH   4   9
ENDBRANCH   2   4
TORSDOF 4
ENDMDL
MODEL 3
REMARK VINA RESULT:      -1.0      3.177      5.647
REMARK  4 active torsions:
REMARK  status: ('A' for Active; 'I' for Inactive)
REMARK    1  A    between atoms: C4_4  and  C6_6 
REMARK    2  A    between atoms: C6_6  and  C8_8 
REMARK    3  A    between atoms: C7_7  and  C8_8 
REMARK    4  A    between atoms: C8_8  and  N9_9 
ROOT
HETATM    1  C1  UNL     1     -32.657   6.828   1.786  1.00 20.00     0.158 C 
HETATM    2  N9  UNL     1     -33.222   5.841   2.073  1.00 20.00    -0.270 NA
HETATM    3  S10 UNL     1     -31.888   8.157   1.361  1.00 20.00    -0.055 SA
ENDROOT
BRANCH   2   4
HETATM    4  C8  UNL     1     -33.602   5.743   3.489  1.00 20.00     0.109 C 
BRANCH   4   5
HETATM    5  C6  UNL     1     -34.137   4.330   3.753  1.00 20.00     0.032 C 
BRANCH   5   6
HETATM    6  C4  UNL     1     -33.034   3.346   4.120  1.00 20.00    -0.013 A 
HETATM    7  C2  UNL     1     -32.731   3.050   5.563  1.00 20.00     0.005 A 
HETATM    8  C3  UNL     1     -33.382   2.003   4.701  1.00 20.00     0.005 A 
ENDBRANCH   5   6
ENDBRANCH   4   5
BRANCH   4   9
HETATM    9  C7  UNL     1     -34.674   6.798   3.783  1.00 20.00     0.023 C 
HETATM   10  C5  UNL     1     -34.152   7.933   4.615  1.00 20.00     0.007 C 
ENDBRANCH   4   9
ENDBRANCH   2   4
TORSDOF 4
ENDMDL
MODEL 4
REMARK VINA RESULT:      -0.8      2.396      3.610
REMARK  4 active torsions:
REMARK  status: ('A' for Active; 'I' for Inactive)
REMARK    1  A    between atoms: C4_4  and  C6_6 
REMARK    2  A    between atoms: C6_6  and  C8_8 
REMARK    3  A    between atoms: C7_7  and  C8_8 
REMARK    4  A    between atoms: C8_8  and  N9_9 
ROOT
HETATM    1  C1  UNL     1     -34.193   4.011   4.528  1.00 20.00     0.158 C 
HETATM    2  N9  UNL     1     -34.984   4.875   4.471  1.00 20.00    -0.270 NA
HETATM    3  S10 UNL     1     -33.137   2.823   4.634  1.00 20.00    -0.055 SA
ENDROOT
BRANCH   2   4
HETATM    4  C8  UNL     1     -34.701   5.898   3.455  1.00 20.00     0.109 C 
BRANCH   4   5
HETATM    5  C6  UNL     1     -33.254   5.726   2.979  1.00 20.00     0.032 C 
BRANCH   5   6
HETATM    6  C4  UNL     1     -32.973   6.473   1.681  1.00 20.00    -0.013 A 
HETATM    7  C2  UNL     1     -32.017   7.634   1.666  1.00 20.00     0.005 A 
HETATM    8  C3  UNL     1     -31.636   6.338   1.005  1.00 20.00     0.005 A 
ENDBRANCH   5   6
ENDBRANCH   4   5
BRANCH   4   9
HETATM    9  C7  UNL     1     -34.910   7.281   4.081  1.00 20.00     0.023 C 
HETATM   10  C5  UNL     1     -33.697   7.770   4.818  1.00 20.00     0.007 C 
ENDBRANCH   4   9
ENDBRANCH   2   4
TORSDOF 4
ENDMDL
MODEL 5
REMARK VINA RESULT:      -0.5      1.073      1.073
REMARK  4 active torsions:
REMARK  status: ('A' for Active; 'I' for Inactive)
REMARK    1  A    between atoms: C4_4  and  C6_6 
REMARK    2  A    between atoms: C6_6  and  C8_8 
REMARK    3  A    between atoms: C7_7  and  C8_8 
REMARK    4  A    between atoms: C8_8  and  N9_9 
ROOT
HETATM    1  C1  UNL     1     -34.049   5.647   3.708  1.00 20.00     0.158 C 
HETATM    2  N9  UNL     1     -33.870   6.702   3.229  1.00 20.00    -0.270 NA
HETATM    3  S10 UNL     1     -34.326   4.225   4.372  1.00 20.00    -0.055 SA
ENDROOT
BRANCH   2   4
HETATM    4  C8  UNL     1     -32.593   6.841   2.516  1.00 20.00     0.109 C 
BRANCH   4   5
HETATM    5  C6  UNL     1     -32.317   8.334   2.294  1.00 20.00     0.032 C 
BRANCH   5   6
HETATM    6  C4  UNL     1     -32.653   8.785   0.879  1.00 20.00    -0.013 A 
HETATM    7  C2  UNL     1     -32.802  10.248   0.565  1.00 20.00     0.005 A 
HETATM    8  C3  UNL     1     -31.616   9.485   0.043  1.00 20.00     0.005 A 
ENDBRANCH   5   6
ENDBRANCH   4   5
BRANCH   4   9
HETATM    9  C7  UNL     1     -32.695   6.099   1.178  1.00 20.00     0.023 C 
HETATM   10  C5  UNL     1     -31.625   5.058   1.014  1.00 20.00     0.007 C 
ENDBRANCH   4   9
ENDBRANCH   2   4
TORSDOF 4
ENDMDL
MODEL 6
REMARK VINA RESULT:      -0.4      0.827      3.325
REMARK  4 active torsions:
REMARK  status: ('A' for Active; 'I' for Inactive)
REMARK    1  A    between atoms: C4_4  and  C6_6 
REMARK    2  A    between atoms: C6_6  and  C8_8 
REMARK    3  A    between atoms: C7_7  and  C8_8 
REMARK    4  A    between atoms: C8_8  and  N9_9 
ROOT
HETATM    1  C1  UNL     1     -33.917   7.328   3.588  1.00 20.00     0.158 C 
HETATM    2  N9  UNL     1     -33.030   8.031   3.280  1.00 20.00    -0.270 NA
HETATM    3  S10 UNL     1     -35.116   6.383   4.042  1.00 20.00    -0.055 SA
ENDROOT
BRANCH   2   4
HETATM    4  C8  UNL     1     -32.759   8.078   1.837  1.00 20.00     0.109 C 
BRANCH   4   5
HETATM    5  C6  UNL     1     -31.629   7.090   1.521  1.00 20.00     0.032 C 
BRANCH   5   6
HETATM    6  C4  UNL     1     -32.085   5.639   1.588  1.00 20.00    -0.013 A 
HETATM    7  C2  UNL     1     -33.163   5.140   0.666  1.00 20.00     0.005 A 
HETATM    8  C3  UNL     1     -31.742   4.686   0.477  1.00 20.00     0.005 A 
ENDBRANCH   5   6
ENDBRANCH   4   5
BRANCH   4   9
HETATM    9  C7  UNL     1     -32.356   9.508   1.460  1.00 20.00     0.023 C 
HETATM   10  C5  UNL     1     -32.504   9.780  -0.009  1.00 20.00     0.007 C 
ENDBRANCH   4   9
ENDBRANCH   2   4
TORSDOF 4
ENDMDL
MODEL 7
REMARK VINA RESULT:      -0.3      1.436      2.214
REMARK  4 active torsions:
REMARK  status: ('A' for Active; 'I' for Inactive)
REMARK    1  A    between atoms: C4_4  and  C6_6 
REMARK    2  A    between atoms: C6_6  and  C8_8 
REMARK    3  A    between atoms: C7_7  and  C8_8 
REMARK    4  A    between atoms: C8_8  and  N9_9 
ROOT
HETATM    1  C1  UNL     1     -33.162   5.066   2.753  1.00 20.00     0.158 C 
HETATM    2  N9  UNL     1     -32.715   5.813   1.966  1.00 20.00    -0.270 NA
HETATM    3  S10 UNL     1     -33.750   4.024   3.804  1.00 20.00    -0.055 SA
ENDROOT
BRANCH   2   4
HETATM    4  C8  UNL     1     -33.103   7.216   2.166  1.00 20.00     0.109 C 
BRANCH   4   5
HETATM    5  C6  UNL     1     -32.084   8.111   1.450  1.00 20.00     0.032 C 
BRANCH   5   6
HETATM    6  C4  UNL     1     -32.742   9.089   0.486  1.00 20.00    -0.013 A 
HETATM    7  C2  UNL     1     -32.689  10.568   0.754  1.00 20.00     0.005 A 
HETATM    8  C3  UNL     1     -31.896   9.981  -0.381  1.00 20.00     0.005 A 
ENDBRANCH   5   6
ENDBRANCH   4   5
BRANCH   4   9
HETATM    9  C7  UNL     1     -33.125   7.508   3.671  1.00 20.00     0.023 C 
HETATM   10  C5  UNL     1     -34.518   7.680   4.205  1.00 20.00     0.007 C 
ENDBRANCH   4   9
ENDBRANCH   2   4
TORSDOF 4
ENDMDL
MODEL 8
REMARK VINA RESULT:      -0.1      2.259      4.084
REMARK  4 active torsions:
REMARK  status: ('A' for Active; 'I' for Inactive)
REMARK    1  A    between atoms: C4_4  and  C6_6 
REMARK    2  A    between atoms: C6_6  and  C8_8 
REMARK    3  A    between atoms: C7_7  and  C8_8 
REMARK    4  A    between atoms: C8_8  and  N9_9 
ROOT
HETATM    1  C1  UNL     1     -32.168   8.904   1.552  1.00 20.00     0.158 C 
HETATM    2  N9  UNL     1     -31.952   8.433   2.604  1.00 20.00    -0.270 NA
HETATM    3  S10 UNL     1     -32.435   9.570   0.130  1.00 20.00    -0.055 SA
ENDROOT
BRANCH   2   4
HETATM    4  C8  UNL     1     -32.759   7.247   2.921  1.00 20.00     0.109 C 
BRANCH   4   5
HETATM    5  C6  UNL     1     -33.198   6.590   1.606  1.00 20.00     0.032 C 
BRANCH   5   6
HETATM    6  C4  UNL     1     -32.701   5.156   1.476  1.00 20.00    -0.013 A 
HETATM    7  C2  UNL     1     -32.844   4.420   0.172  1.00 20.00     0.005 A 
HETATM    8  C3  UNL     1     -31.483   4.851   0.647  1.00 20.00     0.005 A 
ENDBRANCH   5   6
ENDBRANCH   4   5
BRANCH   4   9
HETATM    9  C7  UNL     1     -33.975   7.688   3.744  1.00 20.00     0.023 C 
HETATM   10  C5  UNL     1     -34.949   6.569   3.977  1.00 20.00     0.007 C 
ENDBRANCH   4   9
ENDBRANCH   2   4
TORSDOF 4
ENDMDL
MODEL 9
REMARK VINA RESULT:      -0.1      2.973      5.175
REMARK  4 active torsions:
REMARK  status: ('A' for Active; 'I' for Inactive)
REMARK    1  A    between atoms: C4_4  and  C6_6 
REMARK    2  A    between atoms: C6_6  and  C8_8 
REMARK    3  A    between atoms: C7_7  and  C8_8 
REMARK    4  A    between atoms: C8_8  and  N9_9 
ROOT
HETATM    1  C1  UNL     1     -34.144   7.479   4.302  1.00 20.00     0.158 C 
HETATM    2  N9  UNL     1     -34.947   6.845   3.729  1.00 20.00    -0.270 NA
HETATM    3  S10 UNL     1     -33.080   8.366   5.088  1.00 20.00    -0.055 SA
ENDROOT
BRANCH   2   4
HETATM    4  C8  UNL     1     -34.444   5.585   3.165  1.00 20.00     0.109 C 
BRANCH   4   5
HETATM    5  C6  UNL     1     -34.459   4.517   4.266  1.00 20.00     0.032 C 
BRANCH   5   6
HETATM    6  C4  UNL     1     -33.236   3.611   4.218  1.00 20.00    -0.013 A 
HETATM    7  C2  UNL     1     -32.645   3.067   5.489  1.00 20.00     0.005 A 
HETATM    8  C3  UNL     1     -33.366   2.148   4.542  1.00 20.00     0.005 A 
ENDBRANCH   5   6
ENDBRANCH   4   5
BRANCH   4   9
HETATM    9  C7  UNL     1     -33.019   5.814   2.647  1.00 20.00     0.023 C 
HETATM   10  C5  UNL     1     -32.910   5.628   1.161  1.00 20.00     0.007 C 
ENDBRANCH   4   9
ENDBRANCH   2   4
TORSDOF 4
ENDMDL
