MODEL 1
REMARK VINA RESULT:      -1.7      0.000      0.000
REMARK  3 active torsions:
REMARK  status: ('A' for Active; 'I' for Inactive)
REMARK    1  A    between atoms: C4_4  and  C8_8 
REMARK    2  A    between atoms: C8_8  and  N10_10 
REMARK    3  A    between atoms: C9_9  and  N10_10 
ROOT
HETATM    1  C1  UNL     1     -33.863   3.855   4.376  1.00 20.00     0.015 C 
HETATM    2  C2  UNL     1     -34.016   4.976   3.973  1.00 20.00    -0.076 C 
HETATM    3  C6  UNL     1     -35.704   6.643   3.325  1.00 20.00     0.063 C 
HETATM    4  C7  UNL     1     -33.583   7.348   4.464  1.00 20.00     0.063 C 
HETATM    5  C9  UNL     1     -34.206   6.355   3.480  1.00 20.00     0.212 C 
ENDROOT
BRANCH   5   6
HETATM    6  N10 UNL     1     -33.555   6.488   2.190  1.00 20.00     0.115 N 
HETATM    7  H23 UNL     1     -33.333   5.562   1.822  1.00 20.00     0.319 HD
BRANCH   6   8
HETATM    8  C8  UNL     1     -32.322   7.262   2.300  1.00 20.00     0.365 C 
BRANCH   8   9
HETATM    9  C4  UNL     1     -32.347   8.416   1.397  1.00 20.00    -0.077 C 
HETATM   10  C3  UNL     1     -32.373   9.364   0.660  1.00 20.00    -0.109 C 
HETATM   11  C5  UNL     1     -32.404  10.518  -0.237  1.00 20.00     0.112 C 
ENDBRANCH   8   9
ENDBRANCH   6   8
ENDBRANCH   5   6
TORSDOF 3
ENDMDL
MODEL 2
REMARK VINA RESULT:      -0.9      0.384      1.993
REMARK  3 active torsions:
REMARK  status: ('A' for Active; 'I' for Inactive)
REMARK    1  A    between atoms: C4_4  and  C8_8 
REMARK    2  A    between atoms: C8_8  and  N10_10 
REMARK    3  A    between atoms: C9_9  and  N10_10 
ROOT
HETATM    1  C1  UNL     1     -33.259   8.252   5.015  1.00 20.00     0.015 C 
HETATM    2  C2  UNL     1     -33.700   7.379   4.319  1.00 20.00    -0.076 C 
HETATM    3  C6  UNL     1     -33.911   4.940   4.082  1.00 20.00     0.063 C 
HETATM    4  C7  UNL     1     -35.761   6.461   3.335  1.00 20.00     0.063 C 
HETATM    5  C9  UNL     1     -34.243   6.303   3.465  1.00 20.00     0.212 C 
ENDROOT
BRANCH   5   6
HETATM    6  N10 UNL     1     -33.640   6.396   2.148  1.00 20.00     0.115 N 
HETATM    7  H23 UNL     1     -33.504   5.458   1.768  1.00 20.00     0.319 HD
BRANCH   6   8
HETATM    8  C8  UNL     1     -32.348   7.074   2.207  1.00 20.00     0.365 C 
BRANCH   8   9
HETATM    9  C4  UNL     1     -32.357   8.285   1.382  1.00 20.00    -0.077 C 
HETATM   10  C3  UNL     1     -32.369   9.279   0.707  1.00 20.00    -0.109 C 
HETATM   11  C5  UNL     1     -32.384  10.489  -0.114  1.00 20.00     0.112 C 
ENDBRANCH   8   9
ENDBRANCH   6   8
ENDBRANCH   5   6
TORSDOF 3
ENDMDL
MODEL 3
REMARK VINA RESULT:      -0.6      0.905      5.070
REMARK  3 active torsions:
REMARK  status: ('A' for Active; 'I' for Inactive)
REMARK    1  A    between atoms: C4_4  and  C8_8 
REMARK    2  A    between atoms: C8_8  and  N10_10 
REMARK    3  A    between atoms: C9_9  and  N10_10 
ROOT
HETATM    1  C1  UNL     1     -32.478   9.881   0.192  1.00 20.00     0.015 C 
HETATM    2  C2  UNL     1     -32.429   8.984   0.988  1.00 20.00    -0.076 C 
HETATM    3  C6  UNL     1     -31.289   6.877   1.544  1.00 20.00     0.063 C 
HETATM    4  C7  UNL     1     -32.044   8.438   3.357  1.00 20.00     0.063 C 
HETATM    5  C9  UNL     1     -32.368   7.881   1.968  1.00 20.00     0.212 C 
ENDROOT
BRANCH   5   6
HETATM    6  N10 UNL     1     -33.656   7.214   2.010  1.00 20.00     0.115 N 
HETATM    7  H23 UNL     1     -34.355   7.791   1.540  1.00 20.00     0.319 HD
BRANCH   6   8
HETATM    8  C8  UNL     1     -34.084   6.980   3.386  1.00 20.00     0.365 C 
BRANCH   8   9
HETATM    9  C4  UNL     1     -33.904   5.574   3.758  1.00 20.00    -0.077 C 
HETATM   10  C3  UNL     1     -33.751   4.423   4.065  1.00 20.00    -0.109 C 
HETATM   11  C5  UNL     1     -33.565   3.022   4.439  1.00 20.00     0.112 C 
ENDBRANCH   8   9
ENDBRANCH   6   8
ENDBRANCH   5   6
TORSDOF 3
ENDMDL
MODEL 4
REMARK VINA RESULT:      -0.3      1.157      5.088
REMARK  3 active torsions:
REMARK  status: ('A' for Active; 'I' for Inactive)
REMARK    1  A    between atoms: C4_4  and  C8_8 
REMARK    2  A    between atoms: C8_8  and  N10_10 
REMARK    3  A    between atoms: C9_9  and  N10_10 
ROOT
HETATM    1  C1  UNL     1     -31.975   9.156   0.806  1.00 20.00     0.015 C 
HETATM    2  C2  UNL     1     -32.356   8.105   1.245  1.00 20.00    -0.076 C 
HETATM    3  C6  UNL     1     -33.983   6.289   0.926  1.00 20.00     0.063 C 
HETATM    4  C7  UNL     1     -31.674   5.801   1.777  1.00 20.00     0.063 C 
HETATM    5  C9  UNL     1     -32.824   6.812   1.783  1.00 20.00     0.212 C 
ENDROOT
BRANCH   5   6
HETATM    6  N10 UNL     1     -33.282   7.006   3.146  1.00 20.00     0.115 N 
HETATM    7  H23 UNL     1     -32.532   6.762   3.796  1.00 20.00     0.319 HD
BRANCH   6   8
HETATM    8  C8  UNL     1     -34.446   6.175   3.435  1.00 20.00     0.365 C 
BRANCH   8   9
HETATM    9  C4  UNL     1     -34.038   4.848   3.903  1.00 20.00    -0.077 C 
HETATM   10  C3  UNL     1     -33.698   3.762   4.288  1.00 20.00    -0.109 C 
HETATM   11  C5  UNL     1     -33.284   2.440   4.758  1.00 20.00     0.112 C 
ENDBRANCH   8   9
ENDBRANCH   6   8
ENDBRANCH   5   6
TORSDOF 3
ENDMDL
MODEL 5
REMARK VINA RESULT:      -0.1      1.455      2.117
REMARK  3 active torsions:
REMARK  status: ('A' for Active; 'I' for Inactive)
REMARK    1  A    between atoms: C4_4  and  C8_8 
REMARK    2  A    between atoms: C8_8  and  N10_10 
REMARK    3  A    between atoms: C9_9  and  N10_10 
ROOT
HETATM    1  C1  UNL     1     -34.064   4.246   4.000  1.00 20.00     0.015 C 
HETATM    2  C2  UNL     1     -33.605   4.929   3.126  1.00 20.00    -0.076 C 
HETATM    3  C6  UNL     1     -31.649   5.248   1.670  1.00 20.00     0.063 C 
HETATM    4  C7  UNL     1     -33.961   5.734   0.827  1.00 20.00     0.063 C 
HETATM    5  C9  UNL     1     -33.040   5.769   2.050  1.00 20.00     0.212 C 
ENDROOT
BRANCH   5   6
HETATM    6  N10 UNL     1     -32.929   7.135   2.526  1.00 20.00     0.115 N 
HETATM    7  H23 UNL     1     -33.760   7.661   2.249  1.00 20.00     0.319 HD
BRANCH   6   8
HETATM    8  C8  UNL     1     -31.748   7.791   1.974  1.00 20.00     0.365 C 
BRANCH   8   9
HETATM    9  C4  UNL     1     -32.128   8.839   1.022  1.00 20.00    -0.077 C 
HETATM   10  C3  UNL     1     -32.446   9.697   0.245  1.00 20.00    -0.109 C 
HETATM   11  C5  UNL     1     -32.832  10.743  -0.701  1.00 20.00     0.112 C 
ENDBRANCH   8   9
ENDBRANCH   6   8
ENDBRANCH   5   6
TORSDOF 3
ENDMDL
MODEL 6
REMARK VINA RESULT:       0.1      1.267      4.713
REMARK  3 active torsions:
REMARK  status: ('A' for Active; 'I' for Inactive)
REMARK    1  A    between atoms: C4_4  and  C8_8 
REMARK    2  A    between atoms: C8_8  and  N10_10 
REMARK    3  A    between atoms: C9_9  and  N10_10 
ROOT
HETATM    1  C1  UNL     1     -31.992   5.391   1.001  1.00 20.00     0.015 C 
HETATM    2  C2  UNL     1     -32.147   6.453   1.540  1.00 20.00    -0.076 C 
HETATM    3  C6  UNL     1     -30.977   8.317   2.637  1.00 20.00     0.063 C 
HETATM    4  C7  UNL     1     -33.016   8.736   1.236  1.00 20.00     0.063 C 
HETATM    5  C9  UNL     1     -32.338   7.759   2.202  1.00 20.00     0.212 C 
ENDROOT
BRANCH   5   6
HETATM    6  N10 UNL     1     -33.180   7.579   3.369  1.00 20.00     0.115 N 
HETATM    7  H23 UNL     1     -32.621   7.211   4.140  1.00 20.00     0.319 HD
BRANCH   6   8
HETATM    8  C8  UNL     1     -34.274   6.653   3.092  1.00 20.00     0.365 C 
BRANCH   8   9
HETATM    9  C4  UNL     1     -33.995   5.331   3.658  1.00 20.00    -0.077 C 
HETATM   10  C3  UNL     1     -33.760   4.248   4.121  1.00 20.00    -0.109 C 
HETATM   11  C5  UNL     1     -33.474   2.930   4.687  1.00 20.00     0.112 C 
ENDBRANCH   8   9
ENDBRANCH   6   8
ENDBRANCH   5   6
TORSDOF 3
ENDMDL
MODEL 7
REMARK VINA RESULT:       0.2      1.411      4.473
REMARK  3 active torsions:
REMARK  status: ('A' for Active; 'I' for Inactive)
REMARK    1  A    between atoms: C4_4  and  C8_8 
REMARK    2  A    between atoms: C8_8  and  N10_10 
REMARK    3  A    between atoms: C9_9  and  N10_10 
ROOT
HETATM    1  C1  UNL     1     -32.349   5.499   1.227  1.00 20.00     0.015 C 
HETATM    2  C2  UNL     1     -32.262   6.681   1.420  1.00 20.00    -0.076 C 
HETATM    3  C6  UNL     1     -30.981   8.414   2.604  1.00 20.00     0.063 C 
HETATM    4  C7  UNL     1     -31.936   8.862   0.328  1.00 20.00     0.063 C 
HETATM    5  C9  UNL     1     -32.154   8.134   1.657  1.00 20.00     0.212 C 
ENDROOT
BRANCH   5   6
HETATM    6  N10 UNL     1     -33.385   8.607   2.263  1.00 20.00     0.115 N 
HETATM    7  H23 UNL     1     -33.479   9.612   2.109  1.00 20.00     0.319 HD
BRANCH   6   8
HETATM    8  C8  UNL     1     -33.400   8.346   3.699  1.00 20.00     0.365 C 
BRANCH   8   9
HETATM    9  C4  UNL     1     -34.182   7.144   4.004  1.00 20.00    -0.077 C 
HETATM   10  C3  UNL     1     -34.819   6.157   4.251  1.00 20.00    -0.109 C 
HETATM   11  C5  UNL     1     -35.594   4.953   4.552  1.00 20.00     0.112 C 
ENDBRANCH   8   9
ENDBRANCH   6   8
ENDBRANCH   5   6
TORSDOF 3
ENDMDL
MODEL 8
REMARK VINA RESULT:       0.3      1.358      4.518
REMARK  3 active torsions:
REMARK  status: ('A' for Active; 'I' for Inactive)
REMARK    1  A    between atoms: C4_4  and  C8_8 
REMARK    2  A    between atoms: C8_8  and  N10_10 
REMARK    3  A    between atoms: C9_9  and  N10_10 
ROOT
HETATM    1  C1  UNL     1     -34.185   7.738   4.036  1.00 20.00     0.015 C 
HETATM    2  C2  UNL     1     -33.310   7.799   3.216  1.00 20.00    -0.076 C 
HETATM    3  C6  UNL     1     -32.693   8.743   1.031  1.00 20.00     0.063 C 
HETATM    4  C7  UNL     1     -30.974   8.477   2.838  1.00 20.00     0.063 C 
HETATM    5  C9  UNL     1     -32.233   7.875   2.208  1.00 20.00     0.212 C 
ENDROOT
BRANCH   5   6
HETATM    6  N10 UNL     1     -31.936   6.537   1.733  1.00 20.00     0.115 N 
HETATM    7  H23 UNL     1     -31.492   6.592   0.814  1.00 20.00     0.319 HD
BRANCH   6   8
HETATM    8  C8  UNL     1     -33.149   5.733   1.625  1.00 20.00     0.365 C 
BRANCH   8   9
HETATM    9  C4  UNL     1     -33.242   4.776   2.731  1.00 20.00    -0.077 C 
HETATM   10  C3  UNL     1     -33.311   3.991   3.637  1.00 20.00    -0.109 C 
HETATM   11  C5  UNL     1     -33.396   3.037   4.742  1.00 20.00     0.112 C 
ENDBRANCH   8   9
ENDBRANCH   6   8
ENDBRANCH   5   6
TORSDOF 3
ENDMDL
MODEL 9
REMARK VINA RESULT:       0.5      1.202      1.715
REMARK  3 active torsions:
REMARK  status: ('A' for Active; 'I' for Inactive)
REMARK    1  A    between atoms: C4_4  and  C8_8 
REMARK    2  A    between atoms: C8_8  and  N10_10 
REMARK    3  A    between atoms: C9_9  and  N10_10 
ROOT
HETATM    1  C1  UNL     1     -33.194   5.318   0.726  1.00 20.00     0.015 C 
HETATM    2  C2  UNL     1     -33.506   5.760   1.798  1.00 20.00    -0.076 C 
HETATM    3  C6  UNL     1     -35.379   6.674   3.105  1.00 20.00     0.063 C 
HETATM    4  C7  UNL     1     -33.624   5.259   4.205  1.00 20.00     0.063 C 
HETATM    5  C9  UNL     1     -33.891   6.302   3.117  1.00 20.00     0.212 C 
ENDROOT
BRANCH   5   6
HETATM    6  N10 UNL     1     -33.101   7.488   3.389  1.00 20.00     0.115 N 
HETATM    7  H23 UNL     1     -33.689   8.319   3.300  1.00 20.00     0.319 HD
BRANCH   6   8
HETATM    8  C8  UNL     1     -31.981   7.600   2.460  1.00 20.00     0.365 C 
BRANCH   8   9
HETATM    9  C4  UNL     1     -32.234   8.641   1.459  1.00 20.00    -0.077 C 
HETATM   10  C3  UNL     1     -32.444   9.489   0.635  1.00 20.00    -0.109 C 
HETATM   11  C5  UNL     1     -32.700  10.522  -0.368  1.00 20.00     0.112 C 
ENDBRANCH   8   9
ENDBRANCH   6   8
ENDBRANCH   5   6
TORSDOF 3
ENDMDL
