MODEL 1
REMARK VINA RESULT:      -2.1      0.000      0.000
REMARK  3 active torsions:
REMARK  status: ('A' for Active; 'I' for Inactive)
REMARK    1  A    between atoms: C4_4  and  C6_6 
REMARK    2  A    between atoms: C6_6  and  C7_7 
REMARK    3  A    between atoms: C7_7  and  N8_8 
ROOT
HETATM    1  C1  UNL     1     -32.173   8.894   1.031  1.00 20.00     0.158 C 
HETATM    2  N8  UNL     1     -31.913   8.032   1.782  1.00 20.00    -0.271 NA
HETATM    3  S9  UNL     1     -32.498  10.080   0.019  1.00 20.00    -0.055 SA
ENDROOT
BRANCH   2   4
HETATM    4  C7  UNL     1     -32.874   6.923   1.802  1.00 20.00     0.106 C 
HETATM    5  C5  UNL     1     -32.134   5.651   1.406  1.00 20.00     0.034 C 
BRANCH   4   6
HETATM    6  C6  UNL     1     -33.475   6.801   3.204  1.00 20.00     0.031 C 
BRANCH   6   7
HETATM    7  C4  UNL     1     -34.516   5.693   3.298  1.00 20.00    -0.013 A 
HETATM    8  C2  UNL     1     -34.322   4.551   4.256  1.00 20.00     0.005 A 
HETATM    9  C3  UNL     1     -35.390   5.576   4.514  1.00 20.00     0.005 A 
ENDBRANCH   6   7
ENDBRANCH   4   6
ENDBRANCH   2   4
TORSDOF 3
ENDMDL
MODEL 2
REMARK VINA RESULT:      -2.1      2.599      4.655
REMARK  3 active torsions:
REMARK  status: ('A' for Active; 'I' for Inactive)
REMARK    1  A    between atoms: C4_4  and  C6_6 
REMARK    2  A    between atoms: C6_6  and  C7_7 
REMARK    3  A    between atoms: C7_7  and  N8_8 
ROOT
HETATM    1  C1  UNL     1     -34.135   6.972   3.566  1.00 20.00     0.158 C 
HETATM    2  N8  UNL     1     -33.382   7.760   3.133  1.00 20.00    -0.271 NA
HETATM    3  S9  UNL     1     -35.177   5.928   4.167  1.00 20.00    -0.055 SA
ENDROOT
BRANCH   2   4
HETATM    4  C7  UNL     1     -32.288   7.190   2.339  1.00 20.00     0.106 C 
HETATM    5  C5  UNL     1     -32.855   6.045   1.508  1.00 20.00     0.034 C 
BRANCH   4   6
HETATM    6  C6  UNL     1     -31.692   8.281   1.444  1.00 20.00     0.031 C 
BRANCH   6   7
HETATM    7  C4  UNL     1     -32.761   9.129   0.768  1.00 20.00    -0.013 A 
HETATM    8  C2  UNL     1     -32.631  10.627   0.736  1.00 20.00     0.005 A 
HETATM    9  C3  UNL     1     -32.464   9.830  -0.528  1.00 20.00     0.005 A 
ENDBRANCH   6   7
ENDBRANCH   4   6
ENDBRANCH   2   4
TORSDOF 3
ENDMDL
MODEL 3
REMARK VINA RESULT:      -2.0      0.972      1.192
REMARK  3 active torsions:
REMARK  status: ('A' for Active; 'I' for Inactive)
REMARK    1  A    between atoms: C4_4  and  C6_6 
REMARK    2  A    between atoms: C6_6  and  C7_7 
REMARK    3  A    between atoms: C7_7  and  N8_8 
ROOT
HETATM    1  C1  UNL     1     -32.085   8.464   1.152  1.00 20.00     0.158 C 
HETATM    2  N8  UNL     1     -31.847   7.507   1.785  1.00 20.00    -0.271 NA
HETATM    3  S9  UNL     1     -32.386   9.782   0.308  1.00 20.00    -0.055 SA
ENDROOT
BRANCH   2   4
HETATM    4  C7  UNL     1     -32.629   6.320   1.422  1.00 20.00     0.106 C 
HETATM    5  C5  UNL     1     -31.673   5.285   0.839  1.00 20.00     0.034 C 
BRANCH   4   6
HETATM    6  C6  UNL     1     -33.336   5.780   2.668  1.00 20.00     0.031 C 
BRANCH   6   7
HETATM    7  C4  UNL     1     -34.473   6.682   3.129  1.00 20.00    -0.013 A 
HETATM    8  C2  UNL     1     -35.328   6.284   4.300  1.00 20.00     0.005 A 
HETATM    9  C3  UNL     1     -34.366   7.431   4.428  1.00 20.00     0.005 A 
ENDBRANCH   6   7
ENDBRANCH   4   6
ENDBRANCH   2   4
TORSDOF 3
ENDMDL
MODEL 4
REMARK VINA RESULT:      -1.5      3.237      4.774
REMARK  3 active torsions:
REMARK  status: ('A' for Active; 'I' for Inactive)
REMARK    1  A    between atoms: C4_4  and  C6_6 
REMARK    2  A    between atoms: C6_6  and  C7_7 
REMARK    3  A    between atoms: C7_7  and  N8_8 
ROOT
HETATM    1  C1  UNL     1     -34.554   4.840   4.232  1.00 20.00     0.158 C 
HETATM    2  N8  UNL     1     -35.263   5.768   4.131  1.00 20.00    -0.271 NA
HETATM    3  S9  UNL     1     -33.617   3.560   4.380  1.00 20.00    -0.055 SA
ENDROOT
BRANCH   2   4
HETATM    4  C7  UNL     1     -34.617   6.982   3.619  1.00 20.00     0.106 C 
HETATM    5  C5  UNL     1     -33.970   7.704   4.795  1.00 20.00     0.034 C 
BRANCH   4   6
HETATM    6  C6  UNL     1     -33.574   6.593   2.567  1.00 20.00     0.031 C 
BRANCH   6   7
HETATM    7  C4  UNL     1     -32.454   7.619   2.450  1.00 20.00    -0.013 A 
HETATM    8  C2  UNL     1     -31.419   7.490   1.367  1.00 20.00     0.005 A 
HETATM    9  C3  UNL     1     -32.437   8.595   1.307  1.00 20.00     0.005 A 
ENDBRANCH   6   7
ENDBRANCH   4   6
ENDBRANCH   2   4
TORSDOF 3
ENDMDL
MODEL 5
REMARK VINA RESULT:      -1.2      1.897      2.942
REMARK  3 active torsions:
REMARK  status: ('A' for Active; 'I' for Inactive)
REMARK    1  A    between atoms: C4_4  and  C6_6 
REMARK    2  A    between atoms: C6_6  and  C7_7 
REMARK    3  A    between atoms: C7_7  and  N8_8 
ROOT
HETATM    1  C1  UNL     1     -32.774   6.848   2.019  1.00 20.00     0.158 C 
HETATM    2  N8  UNL     1     -33.387   5.888   2.295  1.00 20.00    -0.271 NA
HETATM    3  S9  UNL     1     -31.937   8.141   1.612  1.00 20.00    -0.055 SA
ENDROOT
BRANCH   2   4
HETATM    4  C7  UNL     1     -33.909   5.866   3.666  1.00 20.00     0.106 C 
HETATM    5  C5  UNL     1     -35.094   6.822   3.736  1.00 20.00     0.034 C 
BRANCH   4   6
HETATM    6  C6  UNL     1     -34.328   4.437   4.024  1.00 20.00     0.031 C 
BRANCH   6   7
HETATM    7  C4  UNL     1     -33.136   3.507   4.202  1.00 20.00    -0.013 A 
HETATM    8  C2  UNL     1     -32.754   3.019   5.573  1.00 20.00     0.005 A 
HETATM    9  C3  UNL     1     -33.348   2.066   4.574  1.00 20.00     0.005 A 
ENDBRANCH   6   7
ENDBRANCH   4   6
ENDBRANCH   2   4
TORSDOF 3
ENDMDL
MODEL 6
REMARK VINA RESULT:      -1.1      1.051      1.601
REMARK  3 active torsions:
REMARK  status: ('A' for Active; 'I' for Inactive)
REMARK    1  A    between atoms: C4_4  and  C6_6 
REMARK    2  A    between atoms: C6_6  and  C7_7 
REMARK    3  A    between atoms: C7_7  and  N8_8 
ROOT
HETATM    1  C1  UNL     1     -32.183   9.079   0.588  1.00 20.00     0.158 C 
HETATM    2  N8  UNL     1     -31.761   7.997   0.751  1.00 20.00    -0.271 NA
HETATM    3  S9  UNL     1     -32.747  10.547   0.335  1.00 20.00    -0.055 SA
ENDROOT
BRANCH   2   4
HETATM    4  C7  UNL     1     -31.993   7.442   2.090  1.00 20.00     0.106 C 
HETATM    5  C5  UNL     1     -31.928   8.588   3.093  1.00 20.00     0.034 C 
BRANCH   4   6
HETATM    6  C6  UNL     1     -33.361   6.756   2.122  1.00 20.00     0.031 C 
BRANCH   6   7
HETATM    7  C4  UNL     1     -33.900   6.595   3.537  1.00 20.00    -0.013 A 
HETATM    8  C2  UNL     1     -35.380   6.494   3.777  1.00 20.00     0.005 A 
HETATM    9  C3  UNL     1     -34.503   5.290   3.974  1.00 20.00     0.005 A 
ENDBRANCH   6   7
ENDBRANCH   4   6
ENDBRANCH   2   4
TORSDOF 3
ENDMDL
MODEL 7
REMARK VINA RESULT:      -0.3      3.242      4.740
REMARK  3 active torsions:
REMARK  status: ('A' for Active; 'I' for Inactive)
REMARK    1  A    between atoms: C4_4  and  C6_6 
REMARK    2  A    between atoms: C6_6  and  C7_7 
REMARK    3  A    between atoms: C7_7  and  N8_8 
ROOT
HETATM    1  C1  UNL     1     -33.563   4.184   3.733  1.00 20.00     0.158 C 
HETATM    2  N8  UNL     1     -33.754   4.953   2.869  1.00 20.00    -0.271 NA
HETATM    3  S9  UNL     1     -33.285   3.119   4.885  1.00 20.00    -0.055 SA
ENDROOT
BRANCH   2   4
HETATM    4  C7  UNL     1     -34.485   6.160   3.273  1.00 20.00     0.106 C 
HETATM    5  C5  UNL     1     -35.366   5.802   4.464  1.00 20.00     0.034 C 
BRANCH   4   6
HETATM    6  C6  UNL     1     -33.484   7.260   3.636  1.00 20.00     0.031 C 
BRANCH   6   7
HETATM    7  C4  UNL     1     -32.930   7.972   2.408  1.00 20.00    -0.013 A 
HETATM    8  C2  UNL     1     -31.481   8.370   2.354  1.00 20.00     0.005 A 
HETATM    9  C3  UNL     1     -31.988   7.257   1.480  1.00 20.00     0.005 A 
ENDBRANCH   6   7
ENDBRANCH   4   6
ENDBRANCH   2   4
TORSDOF 3
ENDMDL
MODEL 8
REMARK VINA RESULT:      -0.2      1.903      2.621
REMARK  3 active torsions:
REMARK  status: ('A' for Active; 'I' for Inactive)
REMARK    1  A    between atoms: C4_4  and  C6_6 
REMARK    2  A    between atoms: C6_6  and  C7_7 
REMARK    3  A    between atoms: C7_7  and  N8_8 
ROOT
HETATM    1  C1  UNL     1     -33.058   7.638   3.050  1.00 20.00     0.158 C 
HETATM    2  N8  UNL     1     -33.867   7.095   3.702  1.00 20.00    -0.271 NA
HETATM    3  S9  UNL     1     -31.955   8.400   2.189  1.00 20.00    -0.055 SA
ENDROOT
BRANCH   2   4
HETATM    4  C7  UNL     1     -34.366   5.836   3.137  1.00 20.00     0.106 C 
HETATM    5  C5  UNL     1     -33.427   5.418   2.012  1.00 20.00     0.034 C 
BRANCH   4   6
HETATM    6  C6  UNL     1     -34.418   4.774   4.239  1.00 20.00     0.031 C 
BRANCH   6   7
HETATM    7  C4  UNL     1     -33.296   3.751   4.115  1.00 20.00    -0.013 A 
HETATM    8  C2  UNL     1     -32.581   3.260   5.343  1.00 20.00     0.005 A 
HETATM    9  C3  UNL     1     -33.503   2.340   4.591  1.00 20.00     0.005 A 
ENDBRANCH   6   7
ENDBRANCH   4   6
ENDBRANCH   2   4
TORSDOF 3
ENDMDL
MODEL 9
REMARK VINA RESULT:      -0.0      2.556      4.530
REMARK  3 active torsions:
REMARK  status: ('A' for Active; 'I' for Inactive)
REMARK    1  A    between atoms: C4_4  and  C6_6 
REMARK    2  A    between atoms: C6_6  and  C7_7 
REMARK    3  A    between atoms: C7_7  and  N8_8 
ROOT
HETATM    1  C1  UNL     1     -32.955   5.652   1.979  1.00 20.00     0.158 C 
HETATM    2  N8  UNL     1     -33.531   6.101   2.896  1.00 20.00    -0.271 NA
HETATM    3  S9  UNL     1     -32.179   5.011   0.744  1.00 20.00    -0.055 SA
ENDROOT
BRANCH   2   4
HETATM    4  C7  UNL     1     -33.596   7.566   2.923  1.00 20.00     0.106 C 
HETATM    5  C5  UNL     1     -33.683   8.008   4.379  1.00 20.00     0.034 C 
BRANCH   4   6
HETATM    6  C6  UNL     1     -32.349   8.140   2.244  1.00 20.00     0.031 C 
BRANCH   6   7
HETATM    7  C4  UNL     1     -32.662   8.783   0.899  1.00 20.00    -0.013 A 
HETATM    8  C2  UNL     1     -32.595  10.276   0.741  1.00 20.00     0.005 A 
HETATM    9  C3  UNL     1     -31.562   9.404   0.084  1.00 20.00     0.005 A 
ENDBRANCH   6   7
ENDBRANCH   4   6
ENDBRANCH   2   4
TORSDOF 3
ENDMDL
