MODEL 1
REMARK VINA RESULT:      -0.4      0.000      0.000
REMARK  3 active torsions:
REMARK  status: ('A' for Active; 'I' for Inactive)
REMARK    1  A    between atoms: C7_7  and  C8_8 
REMARK    2  A    between atoms: C8_8  and  N11_11 
REMARK    3  A    between atoms: C9_9  and  N11_11 
ROOT
HETATM    1  C1  UNL     1     -31.968   8.698   1.101  1.00 20.00     0.015 C 
HETATM    2  C2  UNL     1     -32.255   7.550   1.315  1.00 20.00    -0.076 C 
HETATM    3  C5  UNL     1     -33.894   5.785   0.825  1.00 20.00     0.063 C 
HETATM    4  C6  UNL     1     -31.466   5.227   1.120  1.00 20.00     0.063 C 
HETATM    5  C9  UNL     1     -32.607   6.142   1.578  1.00 20.00     0.213 C 
ENDROOT
BRANCH   5   6
HETATM    6  N11 UNL     1     -32.817   5.964   3.001  1.00 20.00     0.122 N 
HETATM    7  H25 UNL     1     -32.067   5.390   3.391  1.00 20.00     0.319 HD
BRANCH   6   8
HETATM    8  C8  UNL     1     -34.096   5.315   3.269  1.00 20.00     0.327 C 
HETATM    9  C3  UNL     1     -33.895   4.068   4.022  1.00 20.00     0.095 C 
HETATM   10  N10 UNL     1     -33.736   3.083   4.612  1.00 20.00    -0.195 NA
BRANCH   8  11
HETATM   11  C7  UNL     1     -35.071   6.269   3.969  1.00 20.00     0.046 C 
HETATM   12  C4  UNL     1     -34.484   7.632   4.324  1.00 20.00     0.008 C 
ENDBRANCH   8  11
ENDBRANCH   6   8
ENDBRANCH   5   6
TORSDOF 3
ENDMDL
MODEL 2
REMARK VINA RESULT:      -0.1      1.627      3.958
REMARK  3 active torsions:
REMARK  status: ('A' for Active; 'I' for Inactive)
REMARK    1  A    between atoms: C7_7  and  C8_8 
REMARK    2  A    between atoms: C8_8  and  N11_11 
REMARK    3  A    between atoms: C9_9  and  N11_11 
ROOT
HETATM    1  C1  UNL     1     -33.810   3.960   4.176  1.00 20.00     0.015 C 
HETATM    2  C2  UNL     1     -34.075   5.093   3.874  1.00 20.00    -0.076 C 
HETATM    3  C5  UNL     1     -35.923   6.670   3.494  1.00 20.00     0.063 C 
HETATM    4  C6  UNL     1     -33.766   7.452   4.509  1.00 20.00     0.063 C 
HETATM    5  C9  UNL     1     -34.401   6.484   3.504  1.00 20.00     0.213 C 
ENDROOT
BRANCH   5   6
HETATM    6  N11 UNL     1     -33.873   6.758   2.182  1.00 20.00     0.122 N 
HETATM    7  H25 UNL     1     -34.307   6.130   1.502  1.00 20.00     0.319 HD
BRANCH   6   8
HETATM    8  C8  UNL     1     -32.427   6.571   2.141  1.00 20.00     0.327 C 
HETATM    9  C3  UNL     1     -32.071   5.502   1.196  1.00 20.00     0.095 C 
HETATM   10  N10 UNL     1     -31.789   4.657   0.454  1.00 20.00    -0.195 NA
BRANCH   8  11
HETATM   11  C7  UNL     1     -31.702   7.887   1.835  1.00 20.00     0.046 C 
HETATM   12  C4  UNL     1     -32.485   8.854   0.952  1.00 20.00     0.008 C 
ENDBRANCH   8  11
ENDBRANCH   6   8
ENDBRANCH   5   6
TORSDOF 3
ENDMDL
MODEL 3
REMARK VINA RESULT:       0.2      1.056      1.243
REMARK  3 active torsions:
REMARK  status: ('A' for Active; 'I' for Inactive)
REMARK    1  A    between atoms: C7_7  and  C8_8 
REMARK    2  A    between atoms: C8_8  and  N11_11 
REMARK    3  A    between atoms: C9_9  and  N11_11 
ROOT
HETATM    1  C1  UNL     1     -31.783   8.659   1.258  1.00 20.00     0.015 C 
HETATM    2  C2  UNL     1     -32.181   7.537   1.427  1.00 20.00    -0.076 C 
HETATM    3  C5  UNL     1     -33.929   5.931   0.790  1.00 20.00     0.063 C 
HETATM    4  C6  UNL     1     -31.584   5.157   1.231  1.00 20.00     0.063 C 
HETATM    5  C9  UNL     1     -32.670   6.160   1.634  1.00 20.00     0.213 C 
ENDROOT
BRANCH   5   6
HETATM    6  N11 UNL     1     -32.990   5.978   3.036  1.00 20.00     0.122 N 
HETATM    7  H25 UNL     1     -32.942   4.985   3.273  1.00 20.00     0.319 HD
BRANCH   6   8
HETATM    8  C8  UNL     1     -34.328   6.472   3.341  1.00 20.00     0.327 C 
HETATM    9  C3  UNL     1     -35.059   5.504   4.171  1.00 20.00     0.095 C 
HETATM   10  N10 UNL     1     -35.638   4.739   4.823  1.00 20.00    -0.195 NA
BRANCH   8  11
HETATM   11  C7  UNL     1     -34.278   7.867   3.977  1.00 20.00     0.046 C 
HETATM   12  C4  UNL     1     -33.152   8.064   4.988  1.00 20.00     0.008 C 
ENDBRANCH   8  11
ENDBRANCH   6   8
ENDBRANCH   5   6
TORSDOF 3
ENDMDL
MODEL 4
REMARK VINA RESULT:       0.5      2.127      2.853
REMARK  3 active torsions:
REMARK  status: ('A' for Active; 'I' for Inactive)
REMARK    1  A    between atoms: C7_7  and  C8_8 
REMARK    2  A    between atoms: C8_8  and  N11_11 
REMARK    3  A    between atoms: C9_9  and  N11_11 
ROOT
HETATM    1  C1  UNL     1     -32.358   9.862  -0.211  1.00 20.00     0.015 C 
HETATM    2  C2  UNL     1     -32.355   9.064   0.689  1.00 20.00    -0.076 C 
HETATM    3  C5  UNL     1     -32.174   6.672   1.225  1.00 20.00     0.063 C 
HETATM    4  C6  UNL     1     -31.210   8.402   2.765  1.00 20.00     0.063 C 
HETATM    5  C9  UNL     1     -32.352   8.085   1.793  1.00 20.00     0.213 C 
ENDROOT
BRANCH   5   6
HETATM    6  N11 UNL     1     -33.615   8.164   2.500  1.00 20.00     0.122 N 
HETATM    7  H25 UNL     1     -33.748   9.111   2.861  1.00 20.00     0.319 HD
BRANCH   6   8
HETATM    8  C8  UNL     1     -33.656   7.224   3.614  1.00 20.00     0.327 C 
HETATM    9  C3  UNL     1     -33.354   7.909   4.879  1.00 20.00     0.095 C 
HETATM   10  N10 UNL     1     -33.111   8.448   5.877  1.00 20.00    -0.195 NA
BRANCH   8  11
HETATM   11  C7  UNL     1     -34.992   6.472   3.662  1.00 20.00     0.046 C 
HETATM   12  C4  UNL     1     -34.930   5.108   4.342  1.00 20.00     0.008 C 
ENDBRANCH   8  11
ENDBRANCH   6   8
ENDBRANCH   5   6
TORSDOF 3
ENDMDL
MODEL 5
REMARK VINA RESULT:       0.7      0.432      1.952
REMARK  3 active torsions:
REMARK  status: ('A' for Active; 'I' for Inactive)
REMARK    1  A    between atoms: C7_7  and  C8_8 
REMARK    2  A    between atoms: C8_8  and  N11_11 
REMARK    3  A    between atoms: C9_9  and  N11_11 
ROOT
HETATM    1  C1  UNL     1     -31.192   4.262   0.507  1.00 20.00     0.015 C 
HETATM    2  C2  UNL     1     -31.840   5.160   0.976  1.00 20.00    -0.076 C 
HETATM    3  C5  UNL     1     -31.904   7.591   1.333  1.00 20.00     0.063 C 
HETATM    4  C6  UNL     1     -34.014   6.311   0.883  1.00 20.00     0.063 C 
HETATM    5  C9  UNL     1     -32.636   6.262   1.551  1.00 20.00     0.213 C 
ENDROOT
BRANCH   5   6
HETATM    6  N11 UNL     1     -32.803   6.031   2.973  1.00 20.00     0.122 N 
HETATM    7  H25 UNL     1     -32.062   5.415   3.311  1.00 20.00     0.319 HD
BRANCH   6   8
HETATM    8  C8  UNL     1     -34.095   5.418   3.259  1.00 20.00     0.327 C 
HETATM    9  C3  UNL     1     -33.916   4.149   3.980  1.00 20.00     0.095 C 
HETATM   10  N10 UNL     1     -33.775   3.146   4.544  1.00 20.00    -0.195 NA
BRANCH   8  11
HETATM   11  C7  UNL     1     -35.021   6.387   4.005  1.00 20.00     0.046 C 
HETATM   12  C4  UNL     1     -34.384   7.727   4.361  1.00 20.00     0.008 C 
ENDBRANCH   8  11
ENDBRANCH   6   8
ENDBRANCH   5   6
TORSDOF 3
ENDMDL
MODEL 6
REMARK VINA RESULT:       0.7      1.804      4.077
REMARK  3 active torsions:
REMARK  status: ('A' for Active; 'I' for Inactive)
REMARK    1  A    between atoms: C7_7  and  C8_8 
REMARK    2  A    between atoms: C8_8  and  N11_11 
REMARK    3  A    between atoms: C9_9  and  N11_11 
ROOT
HETATM    1  C1  UNL     1     -33.871   4.235   3.828  1.00 20.00     0.015 C 
HETATM    2  C2  UNL     1     -33.489   4.837   2.861  1.00 20.00    -0.076 C 
HETATM    3  C5  UNL     1     -31.489   5.522   1.606  1.00 20.00     0.063 C 
HETATM    4  C6  UNL     1     -33.618   4.959   0.406  1.00 20.00     0.063 C 
HETATM    5  C9  UNL     1     -33.019   5.577   1.673  1.00 20.00     0.213 C 
ENDROOT
BRANCH   5   6
HETATM    6  N11 UNL     1     -33.447   6.958   1.777  1.00 20.00     0.122 N 
HETATM    7  H25 UNL     1     -33.903   7.243   0.908  1.00 20.00     0.319 HD
BRANCH   6   8
HETATM    8  C8  UNL     1     -32.316   7.844   2.028  1.00 20.00     0.327 C 
HETATM    9  C3  UNL     1     -32.275   8.925   1.033  1.00 20.00     0.095 C 
HETATM   10  N10 UNL     1     -32.240   9.776   0.246  1.00 20.00    -0.195 NA
BRANCH   8  11
HETATM   11  C7  UNL     1     -32.332   8.375   3.467  1.00 20.00     0.046 C 
HETATM   12  C4  UNL     1     -33.610   8.073   4.243  1.00 20.00     0.008 C 
ENDBRANCH   8  11
ENDBRANCH   6   8
ENDBRANCH   5   6
TORSDOF 3
ENDMDL
MODEL 7
REMARK VINA RESULT:       0.7      2.065      3.183
REMARK  3 active torsions:
REMARK  status: ('A' for Active; 'I' for Inactive)
REMARK    1  A    between atoms: C7_7  and  C8_8 
REMARK    2  A    between atoms: C8_8  and  N11_11 
REMARK    3  A    between atoms: C9_9  and  N11_11 
ROOT
HETATM    1  C1  UNL     1     -32.123   5.366   1.121  1.00 20.00     0.015 C 
HETATM    2  C2  UNL     1     -32.215   6.524   1.430  1.00 20.00    -0.076 C 
HETATM    3  C5  UNL     1     -31.161   8.325   2.729  1.00 20.00     0.063 C 
HETATM    4  C6  UNL     1     -32.307   8.822   0.553  1.00 20.00     0.063 C 
HETATM    5  C9  UNL     1     -32.328   7.946   1.809  1.00 20.00     0.213 C 
ENDROOT
BRANCH   5   6
HETATM    6  N11 UNL     1     -33.580   8.150   2.511  1.00 20.00     0.122 N 
HETATM    7  H25 UNL     1     -33.639   9.117   2.835  1.00 20.00     0.319 HD
BRANCH   6   8
HETATM    8  C8  UNL     1     -33.692   7.259   3.661  1.00 20.00     0.327 C 
HETATM    9  C3  UNL     1     -33.381   7.979   4.904  1.00 20.00     0.095 C 
HETATM   10  N10 UNL     1     -33.131   8.545   5.885  1.00 20.00    -0.195 NA
BRANCH   8  11
HETATM   11  C7  UNL     1     -35.067   6.579   3.708  1.00 20.00     0.046 C 
HETATM   12  C4  UNL     1     -35.066   5.188   4.336  1.00 20.00     0.008 C 
ENDBRANCH   8  11
ENDBRANCH   6   8
ENDBRANCH   5   6
TORSDOF 3
ENDMDL
MODEL 8
REMARK VINA RESULT:       0.8      1.825      2.794
REMARK  3 active torsions:
REMARK  status: ('A' for Active; 'I' for Inactive)
REMARK    1  A    between atoms: C7_7  and  C8_8 
REMARK    2  A    between atoms: C8_8  and  N11_11 
REMARK    3  A    between atoms: C9_9  and  N11_11 
ROOT
HETATM    1  C1  UNL     1     -32.625   9.910   0.172  1.00 20.00     0.015 C 
HETATM    2  C2  UNL     1     -32.426   9.007   0.941  1.00 20.00    -0.076 C 
HETATM    3  C5  UNL     1     -30.871   7.192   1.517  1.00 20.00     0.063 C 
HETATM    4  C6  UNL     1     -32.092   8.445   3.314  1.00 20.00     0.063 C 
HETATM    5  C9  UNL     1     -32.180   7.900   1.885  1.00 20.00     0.213 C 
ENDROOT
BRANCH   5   6
HETATM    6  N11 UNL     1     -33.277   6.956   1.802  1.00 20.00     0.122 N 
HETATM    7  H25 UNL     1     -34.147   7.456   1.606  1.00 20.00     0.319 HD
BRANCH   6   8
HETATM    8  C8  UNL     1     -33.431   6.215   3.049  1.00 20.00     0.327 C 
HETATM    9  C3  UNL     1     -34.777   6.411   3.605  1.00 20.00     0.095 C 
HETATM   10  N10 UNL     1     -35.838   6.569   4.046  1.00 20.00    -0.195 NA
BRANCH   8  11
HETATM   11  C7  UNL     1     -33.087   4.731   2.863  1.00 20.00     0.046 C 
HETATM   12  C4  UNL     1     -33.650   3.808   3.939  1.00 20.00     0.008 C 
ENDBRANCH   8  11
ENDBRANCH   6   8
ENDBRANCH   5   6
TORSDOF 3
ENDMDL
MODEL 9
REMARK VINA RESULT:       0.9      1.836      4.694
REMARK  3 active torsions:
REMARK  status: ('A' for Active; 'I' for Inactive)
REMARK    1  A    between atoms: C7_7  and  C8_8 
REMARK    2  A    between atoms: C8_8  and  N11_11 
REMARK    3  A    between atoms: C9_9  and  N11_11 
ROOT
HETATM    1  C1  UNL     1     -34.976   5.414   3.980  1.00 20.00     0.015 C 
HETATM    2  C2  UNL     1     -34.435   6.487   3.970  1.00 20.00    -0.076 C 
HETATM    3  C5  UNL     1     -34.669   8.825   3.248  1.00 20.00     0.063 C 
HETATM    4  C6  UNL     1     -33.498   8.263   5.393  1.00 20.00     0.063 C 
HETATM    5  C9  UNL     1     -33.771   7.805   3.957  1.00 20.00     0.213 C 
ENDROOT
BRANCH   5   6
HETATM    6  N11 UNL     1     -32.513   7.694   3.245  1.00 20.00     0.122 N 
HETATM    7  H25 UNL     1     -31.977   8.557   3.357  1.00 20.00     0.319 HD
BRANCH   6   8
HETATM    8  C8  UNL     1     -32.731   7.455   1.823  1.00 20.00     0.327 C 
HETATM    9  C3  UNL     1     -32.385   8.650   1.039  1.00 20.00     0.095 C 
HETATM   10  N10 UNL     1     -32.116   9.593   0.421  1.00 20.00    -0.195 NA
BRANCH   8  11
HETATM   11  C7  UNL     1     -31.980   6.205   1.345  1.00 20.00     0.046 C 
HETATM   12  C4  UNL     1     -32.875   5.086   0.823  1.00 20.00     0.008 C 
ENDBRANCH   8  11
ENDBRANCH   6   8
ENDBRANCH   5   6
TORSDOF 3
ENDMDL
