MODEL 1
REMARK VINA RESULT:      -0.6      0.000      0.000
REMARK  3 active torsions:
REMARK  status: ('A' for Active; 'I' for Inactive)
REMARK    1  A    between atoms: C1_1  and  C7_7 
REMARK       I    between atoms: C1_1  and  N9_9 
REMARK    2  A    between atoms: C7_7  and  C8_8 
REMARK    3  A    between atoms: N9_9  and  O11_11 
ROOT
HETATM    1  C1  UNL     1     -32.825   6.702   1.754  1.00 20.00     0.247 C 
HETATM    2  C5  UNL     1     -31.539   8.558   2.808  1.00 20.00     0.189 C 
HETATM    3  N9  UNL     1     -32.047   7.832   1.658  1.00 20.00    -0.231 N 
HETATM    4  O10 UNL     1     -33.247   6.099   0.762  1.00 20.00    -0.271 OA
ENDROOT
BRANCH   1   5
HETATM    5  C7  UNL     1     -33.175   6.217   3.170  1.00 20.00     0.079 C 
HETATM    6  C2  UNL     1     -33.331   4.693   3.182  1.00 20.00     0.020 C 
BRANCH   5   7
HETATM    7  C8  UNL     1     -34.413   6.982   3.713  1.00 20.00    -0.010 C 
HETATM    8  C3  UNL     1     -34.031   7.901   4.879  1.00 20.00     0.010 C 
HETATM    9  C4  UNL     1     -35.565   6.066   4.133  1.00 20.00     0.010 C 
ENDBRANCH   5   7
ENDBRANCH   1   5
BRANCH   3  10
HETATM   10  O11 UNL     1     -31.659   8.410   0.435  1.00 20.00    -0.281 OA
HETATM   11  C6  UNL     1     -32.350   9.644   0.261  1.00 20.00     0.238 C 
ENDBRANCH   3  10
TORSDOF 3
ENDMDL
MODEL 2
REMARK VINA RESULT:       0.3      1.543      4.113
REMARK  3 active torsions:
REMARK  status: ('A' for Active; 'I' for Inactive)
REMARK    1  A    between atoms: C1_1  and  C7_7 
REMARK       I    between atoms: C1_1  and  N9_9 
REMARK    2  A    between atoms: C7_7  and  C8_8 
REMARK    3  A    between atoms: N9_9  and  O11_11 
ROOT
HETATM    1  C1  UNL     1     -32.630   6.778   1.933  1.00 20.00     0.247 C 
HETATM    2  C5  UNL     1     -33.692   7.942   3.863  1.00 20.00     0.189 C 
HETATM    3  N9  UNL     1     -33.482   6.785   3.013  1.00 20.00    -0.231 N 
HETATM    4  O10 UNL     1     -32.465   5.783   1.222  1.00 20.00    -0.271 OA
ENDROOT
BRANCH   1   5
HETATM    5  C7  UNL     1     -31.859   8.078   1.648  1.00 20.00     0.079 C 
HETATM    6  C2  UNL     1     -31.375   8.702   2.960  1.00 20.00     0.020 C 
BRANCH   5   7
HETATM    7  C8  UNL     1     -32.714   9.034   0.772  1.00 20.00    -0.010 C 
HETATM    8  C3  UNL     1     -32.271   8.990  -0.694  1.00 20.00     0.010 C 
HETATM    9  C4  UNL     1     -32.719  10.482   1.269  1.00 20.00     0.010 C 
ENDBRANCH   5   7
ENDBRANCH   1   5
BRANCH   3  10
HETATM   10  O11 UNL     1     -34.241   5.670   3.413  1.00 20.00    -0.281 OA
HETATM   11  C6  UNL     1     -35.388   6.118   4.129  1.00 20.00     0.238 C 
ENDBRANCH   3  10
TORSDOF 3
ENDMDL
MODEL 3
REMARK VINA RESULT:       0.4      1.686      2.567
REMARK  3 active torsions:
REMARK  status: ('A' for Active; 'I' for Inactive)
REMARK    1  A    between atoms: C1_1  and  C7_7 
REMARK       I    between atoms: C1_1  and  N9_9 
REMARK    2  A    between atoms: C7_7  and  C8_8 
REMARK    3  A    between atoms: N9_9  and  O11_11 
ROOT
HETATM    1  C1  UNL     1     -33.487   7.048   3.203  1.00 20.00     0.247 C 
HETATM    2  C5  UNL     1     -32.678   5.946   1.120  1.00 20.00     0.189 C 
HETATM    3  N9  UNL     1     -32.609   6.968   2.148  1.00 20.00    -0.231 N 
HETATM    4  O10 UNL     1     -33.410   7.926   4.067  1.00 20.00    -0.271 OA
ENDROOT
BRANCH   1   5
HETATM    5  C7  UNL     1     -34.579   5.968   3.282  1.00 20.00     0.079 C 
HETATM    6  C2  UNL     1     -35.962   6.621   3.346  1.00 20.00     0.020 C 
BRANCH   5   7
HETATM    7  C8  UNL     1     -34.288   4.990   4.454  1.00 20.00    -0.010 C 
HETATM    8  C3  UNL     1     -33.668   3.684   3.947  1.00 20.00     0.010 C 
HETATM    9  C4  UNL     1     -35.517   4.680   5.313  1.00 20.00     0.010 C 
ENDBRANCH   5   7
ENDBRANCH   1   5
BRANCH   3  10
HETATM   10  O11 UNL     1     -31.546   7.869   1.949  1.00 20.00    -0.281 OA
HETATM   11  C6  UNL     1     -31.942   8.856   1.000  1.00 20.00     0.238 C 
ENDBRANCH   3  10
TORSDOF 3
ENDMDL
MODEL 4
REMARK VINA RESULT:       0.6      1.144      1.918
REMARK  3 active torsions:
REMARK  status: ('A' for Active; 'I' for Inactive)
REMARK    1  A    between atoms: C1_1  and  C7_7 
REMARK       I    between atoms: C1_1  and  N9_9 
REMARK    2  A    between atoms: C7_7  and  C8_8 
REMARK    3  A    between atoms: N9_9  and  O11_11 
ROOT
HETATM    1  C1  UNL     1     -32.486   7.676   1.965  1.00 20.00     0.247 C 
HETATM    2  C5  UNL     1     -33.178  10.037   1.572  1.00 20.00     0.189 C 
HETATM    3  N9  UNL     1     -32.395   8.854   1.262  1.00 20.00    -0.231 N 
HETATM    4  O10 UNL     1     -31.811   6.681   1.685  1.00 20.00    -0.271 OA
ENDROOT
BRANCH   1   5
HETATM    5  C7  UNL     1     -33.494   7.633   3.125  1.00 20.00     0.079 C 
HETATM    6  C2  UNL     1     -32.789   7.942   4.449  1.00 20.00     0.020 C 
BRANCH   5   7
HETATM    7  C8  UNL     1     -34.267   6.286   3.121  1.00 20.00    -0.010 C 
HETATM    8  C3  UNL     1     -35.488   6.342   4.045  1.00 20.00     0.010 C 
HETATM    9  C4  UNL     1     -33.398   5.079   3.485  1.00 20.00     0.010 C 
ENDBRANCH   5   7
ENDBRANCH   1   5
BRANCH   3  10
HETATM   10  O11 UNL     1     -31.535   9.042   0.165  1.00 20.00    -0.281 OA
HETATM   11  C6  UNL     1     -32.066  10.064  -0.675  1.00 20.00     0.238 C 
ENDBRANCH   3  10
TORSDOF 3
ENDMDL
MODEL 5
REMARK VINA RESULT:       0.6      1.693      2.016
REMARK  3 active torsions:
REMARK  status: ('A' for Active; 'I' for Inactive)
REMARK    1  A    between atoms: C1_1  and  C7_7 
REMARK       I    between atoms: C1_1  and  N9_9 
REMARK    2  A    between atoms: C7_7  and  C8_8 
REMARK    3  A    between atoms: N9_9  and  O11_11 
ROOT
HETATM    1  C1  UNL     1     -33.215   7.580   2.814  1.00 20.00     0.247 C 
HETATM    2  C5  UNL     1     -31.480   7.498   1.027  1.00 20.00     0.189 C 
HETATM    3  N9  UNL     1     -32.400   8.205   1.899  1.00 20.00    -0.231 N 
HETATM    4  O10 UNL     1     -33.991   8.200   3.546  1.00 20.00    -0.271 OA
ENDROOT
BRANCH   1   5
HETATM    5  C7  UNL     1     -33.108   6.049   2.908  1.00 20.00     0.079 C 
HETATM    6  C2  UNL     1     -33.369   5.417   1.538  1.00 20.00     0.020 C 
BRANCH   5   7
HETATM    7  C8  UNL     1     -34.029   5.511   4.037  1.00 20.00    -0.010 C 
HETATM    8  C3  UNL     1     -33.951   3.984   4.139  1.00 20.00     0.010 C 
HETATM    9  C4  UNL     1     -35.490   5.946   3.897  1.00 20.00     0.010 C 
ENDBRANCH   5   7
ENDBRANCH   1   5
BRANCH   3  10
HETATM   10  O11 UNL     1     -32.368   9.599   1.709  1.00 20.00    -0.281 OA
HETATM   11  C6  UNL     1     -32.437   9.882   0.314  1.00 20.00     0.238 C 
ENDBRANCH   3  10
TORSDOF 3
ENDMDL
MODEL 6
REMARK VINA RESULT:       0.7      2.111      4.450
REMARK  3 active torsions:
REMARK  status: ('A' for Active; 'I' for Inactive)
REMARK    1  A    between atoms: C1_1  and  C7_7 
REMARK       I    between atoms: C1_1  and  N9_9 
REMARK    2  A    between atoms: C7_7  and  C8_8 
REMARK    3  A    between atoms: N9_9  and  O11_11 
ROOT
HETATM    1  C1  UNL     1     -33.104   7.495   2.812  1.00 20.00     0.247 C 
HETATM    2  C5  UNL     1     -32.963   5.339   1.570  1.00 20.00     0.189 C 
HETATM    3  N9  UNL     1     -33.488   6.188   2.625  1.00 20.00    -0.231 N 
HETATM    4  O10 UNL     1     -33.563   8.200   3.715  1.00 20.00    -0.271 OA
ENDROOT
BRANCH   1   5
HETATM    5  C7  UNL     1     -32.076   8.066   1.822  1.00 20.00     0.079 C 
HETATM    6  C2  UNL     1     -30.889   8.667   2.582  1.00 20.00     0.020 C 
BRANCH   5   7
HETATM    7  C8  UNL     1     -32.761   9.055   0.839  1.00 20.00    -0.010 C 
HETATM    8  C3  UNL     1     -32.180   8.930  -0.572  1.00 20.00     0.010 C 
HETATM    9  C4  UNL     1     -32.700  10.515   1.296  1.00 20.00     0.010 C 
ENDBRANCH   5   7
ENDBRANCH   1   5
BRANCH   3  10
HETATM   10  O11 UNL     1     -34.433   5.530   3.434  1.00 20.00    -0.281 OA
HETATM   11  C6  UNL     1     -33.889   4.288   3.871  1.00 20.00     0.238 C 
ENDBRANCH   3  10
TORSDOF 3
ENDMDL
MODEL 7
REMARK VINA RESULT:       1.1      1.582      2.606
REMARK  3 active torsions:
REMARK  status: ('A' for Active; 'I' for Inactive)
REMARK    1  A    between atoms: C1_1  and  C7_7 
REMARK       I    between atoms: C1_1  and  N9_9 
REMARK    2  A    between atoms: C7_7  and  C8_8 
REMARK    3  A    between atoms: N9_9  and  O11_11 
ROOT
HETATM    1  C1  UNL     1     -33.389   7.295   3.285  1.00 20.00     0.247 C 
HETATM    2  C5  UNL     1     -32.691   6.742   0.957  1.00 20.00     0.189 C 
HETATM    3  N9  UNL     1     -32.695   7.591   2.135  1.00 20.00    -0.231 N 
HETATM    4  O10 UNL     1     -33.379   8.031   4.276  1.00 20.00    -0.271 OA
ENDROOT
BRANCH   1   5
HETATM    5  C7  UNL     1     -34.180   5.976   3.299  1.00 20.00     0.079 C 
HETATM    6  C2  UNL     1     -35.462   6.140   4.120  1.00 20.00     0.020 C 
BRANCH   5   7
HETATM    7  C8  UNL     1     -33.273   4.807   3.771  1.00 20.00    -0.010 C 
HETATM    8  C3  UNL     1     -32.505   4.190   2.598  1.00 20.00     0.010 C 
HETATM    9  C4  UNL     1     -34.030   3.711   4.527  1.00 20.00     0.010 C 
ENDBRANCH   5   7
ENDBRANCH   1   5
BRANCH   3  10
HETATM   10  O11 UNL     1     -31.910   8.748   1.975  1.00 20.00    -0.281 OA
HETATM   11  C6  UNL     1     -32.250   9.376   0.742  1.00 20.00     0.238 C 
ENDBRANCH   3  10
TORSDOF 3
ENDMDL
MODEL 8
REMARK VINA RESULT:       1.2      2.685      4.711
REMARK  3 active torsions:
REMARK  status: ('A' for Active; 'I' for Inactive)
REMARK    1  A    between atoms: C1_1  and  C7_7 
REMARK       I    between atoms: C1_1  and  N9_9 
REMARK    2  A    between atoms: C7_7  and  C8_8 
REMARK    3  A    between atoms: N9_9  and  O11_11 
ROOT
HETATM    1  C1  UNL     1     -34.202   5.705   3.830  1.00 20.00     0.247 C 
HETATM    2  C5  UNL     1     -32.169   4.270   3.968  1.00 20.00     0.189 C 
HETATM    3  N9  UNL     1     -33.605   4.482   4.025  1.00 20.00    -0.231 N 
HETATM    4  O10 UNL     1     -35.425   5.863   3.882  1.00 20.00    -0.271 OA
ENDROOT
BRANCH   1   5
HETATM    5  C7  UNL     1     -33.274   6.890   3.518  1.00 20.00     0.079 C 
HETATM    6  C2  UNL     1     -33.738   8.137   4.276  1.00 20.00     0.020 C 
BRANCH   5   7
HETATM    7  C8  UNL     1     -33.154   7.094   1.982  1.00 20.00    -0.010 C 
HETATM    8  C3  UNL     1     -32.809   5.780   1.273  1.00 20.00     0.010 C 
HETATM    9  C4  UNL     1     -32.148   8.177   1.584  1.00 20.00     0.010 C 
ENDBRANCH   5   7
ENDBRANCH   1   5
BRANCH   3  10
HETATM   10  O11 UNL     1     -34.319   3.301   4.299  1.00 20.00    -0.281 OA
HETATM   11  C6  UNL     1     -33.401   2.274   4.667  1.00 20.00     0.238 C 
ENDBRANCH   3  10
TORSDOF 3
ENDMDL
MODEL 9
REMARK VINA RESULT:       1.3      2.416      4.388
REMARK  3 active torsions:
REMARK  status: ('A' for Active; 'I' for Inactive)
REMARK    1  A    between atoms: C1_1  and  C7_7 
REMARK       I    between atoms: C1_1  and  N9_9 
REMARK    2  A    between atoms: C7_7  and  C8_8 
REMARK    3  A    between atoms: N9_9  and  O11_11 
ROOT
HETATM    1  C1  UNL     1     -33.281   4.881   2.853  1.00 20.00     0.247 C 
HETATM    2  C5  UNL     1     -35.207   5.033   4.427  1.00 20.00     0.189 C 
HETATM    3  N9  UNL     1     -34.068   4.345   3.844  1.00 20.00    -0.231 N 
HETATM    4  O10 UNL     1     -32.317   4.279   2.371  1.00 20.00    -0.271 OA
ENDROOT
BRANCH   1   5
HETATM    5  C7  UNL     1     -33.639   6.295   2.369  1.00 20.00     0.079 C 
HETATM    6  C2  UNL     1     -33.454   6.396   0.852  1.00 20.00     0.020 C 
BRANCH   5   7
HETATM    7  C8  UNL     1     -32.844   7.360   3.173  1.00 20.00    -0.010 C 
HETATM    8  C3  UNL     1     -33.753   8.114   4.148  1.00 20.00     0.010 C 
HETATM    9  C4  UNL     1     -32.089   8.358   2.290  1.00 20.00     0.010 C 
ENDBRANCH   5   7
ENDBRANCH   1   5
BRANCH   3  10
HETATM   10  O11 UNL     1     -33.857   3.072   4.405  1.00 20.00    -0.281 OA
HETATM   11  C6  UNL     1     -32.776   3.143   5.332  1.00 20.00     0.238 C 
ENDBRANCH   3  10
TORSDOF 3
ENDMDL
