MODEL 1
REMARK VINA RESULT:      -2.6      0.000      0.000
REMARK  2 active torsions:
REMARK  status: ('A' for Active; 'I' for Inactive)
REMARK    1  A    between atoms: C4_4  and  C5_5 
REMARK    2  A    between atoms: C5_5  and  N6_6 
ROOT
HETATM    1  C1  UNL     1     -35.376   6.103   4.115  1.00 20.00     0.012 C 
HETATM    2  C2  UNL     1     -34.451   6.781   3.761  1.00 20.00    -0.116 C 
HETATM    3  C4  UNL     1     -33.320   7.616   3.332  1.00 20.00     0.115 C 
ENDROOT
BRANCH   3   4
HETATM    4  C5  UNL     1     -32.674   7.086   2.058  1.00 20.00     0.162 C 
BRANCH   4   5
HETATM    5  N6  UNL     1     -31.644   8.022   1.598  1.00 20.00    -0.275 NA
HETATM    6  C3  UNL     1     -32.043   8.911   0.943  1.00 20.00     0.157 C 
HETATM    7  S7  UNL     1     -32.555  10.128   0.054  1.00 20.00    -0.055 SA
ENDBRANCH   4   5
ENDBRANCH   3   4
TORSDOF 2
ENDMDL
MODEL 2
REMARK VINA RESULT:      -2.3      2.673      4.312
REMARK  2 active torsions:
REMARK  status: ('A' for Active; 'I' for Inactive)
REMARK    1  A    between atoms: C4_4  and  C5_5 
REMARK    2  A    between atoms: C5_5  and  N6_6 
ROOT
HETATM    1  C1  UNL     1     -32.646  10.167  -0.055  1.00 20.00     0.012 C 
HETATM    2  C2  UNL     1     -32.168   9.314   0.641  1.00 20.00    -0.116 C 
HETATM    3  C4  UNL     1     -31.577   8.272   1.494  1.00 20.00     0.115 C 
ENDROOT
BRANCH   3   4
HETATM    4  C5  UNL     1     -32.610   7.241   1.930  1.00 20.00     0.162 C 
BRANCH   4   5
HETATM    5  N6  UNL     1     -33.209   7.647   3.205  1.00 20.00    -0.275 NA
HETATM    6  C3  UNL     1     -34.086   6.962   3.578  1.00 20.00     0.157 C 
HETATM    7  S7  UNL     1     -35.278   6.051   4.109  1.00 20.00    -0.055 SA
ENDBRANCH   4   5
ENDBRANCH   3   4
TORSDOF 2
ENDMDL
MODEL 3
REMARK VINA RESULT:      -2.1      2.102      2.727
REMARK  2 active torsions:
REMARK  status: ('A' for Active; 'I' for Inactive)
REMARK    1  A    between atoms: C4_4  and  C5_5 
REMARK    2  A    between atoms: C5_5  and  N6_6 
ROOT
HETATM    1  C1  UNL     1     -33.522   3.268   4.480  1.00 20.00     0.012 C 
HETATM    2  C2  UNL     1     -34.229   4.229   4.348  1.00 20.00    -0.116 C 
HETATM    3  C4  UNL     1     -35.101   5.403   4.187  1.00 20.00     0.115 C 
ENDROOT
BRANCH   3   4
HETATM    4  C5  UNL     1     -34.329   6.620   3.692  1.00 20.00     0.162 C 
BRANCH   4   5
HETATM    5  N6  UNL     1     -33.466   6.237   2.571  1.00 20.00    -0.275 NA
HETATM    6  C3  UNL     1     -32.785   7.098   2.157  1.00 20.00     0.157 C 
HETATM    7  S7  UNL     1     -31.849   8.247   1.575  1.00 20.00    -0.055 SA
ENDBRANCH   4   5
ENDBRANCH   3   4
TORSDOF 2
ENDMDL
MODEL 4
REMARK VINA RESULT:      -2.1      2.590      4.027
REMARK  2 active torsions:
REMARK  status: ('A' for Active; 'I' for Inactive)
REMARK    1  A    between atoms: C4_4  and  C5_5 
REMARK    2  A    between atoms: C5_5  and  N6_6 
ROOT
HETATM    1  C1  UNL     1     -32.391   9.948  -0.050  1.00 20.00     0.012 C 
HETATM    2  C2  UNL     1     -32.280   9.162   0.850  1.00 20.00    -0.116 C 
HETATM    3  C4  UNL     1     -32.144   8.205   1.959  1.00 20.00     0.115 C 
ENDROOT
BRANCH   3   4
HETATM    4  C5  UNL     1     -31.855   6.795   1.458  1.00 20.00     0.162 C 
BRANCH   4   5
HETATM    5  N6  UNL     1     -32.962   5.905   1.817  1.00 20.00    -0.275 NA
HETATM    6  C3  UNL     1     -33.632   6.285   2.704  1.00 20.00     0.157 C 
HETATM    7  S7  UNL     1     -34.558   6.774   3.903  1.00 20.00    -0.055 SA
ENDBRANCH   4   5
ENDBRANCH   3   4
TORSDOF 2
ENDMDL
MODEL 5
REMARK VINA RESULT:      -1.8      3.929      4.994
REMARK  2 active torsions:
REMARK  status: ('A' for Active; 'I' for Inactive)
REMARK    1  A    between atoms: C4_4  and  C5_5 
REMARK    2  A    between atoms: C5_5  and  N6_6 
ROOT
HETATM    1  C1  UNL     1     -31.995   8.045   1.755  1.00 20.00     0.012 C 
HETATM    2  C2  UNL     1     -32.652   7.100   2.098  1.00 20.00    -0.116 C 
HETATM    3  C4  UNL     1     -33.453   5.939   2.513  1.00 20.00     0.115 C 
ENDROOT
BRANCH   3   4
HETATM    4  C5  UNL     1     -34.394   6.281   3.662  1.00 20.00     0.162 C 
BRANCH   4   5
HETATM    5  N6  UNL     1     -34.978   5.052   4.206  1.00 20.00    -0.275 NA
HETATM    6  C3  UNL     1     -34.216   4.174   4.370  1.00 20.00     0.157 C 
HETATM    7  S7  UNL     1     -33.204   2.967   4.603  1.00 20.00    -0.055 SA
ENDBRANCH   4   5
ENDBRANCH   3   4
TORSDOF 2
ENDMDL
MODEL 6
REMARK VINA RESULT:      -1.3      1.207      2.137
REMARK  2 active torsions:
REMARK  status: ('A' for Active; 'I' for Inactive)
REMARK    1  A    between atoms: C4_4  and  C5_5 
REMARK    2  A    between atoms: C5_5  and  N6_6 
ROOT
HETATM    1  C1  UNL     1     -32.240   4.940   0.982  1.00 20.00     0.012 C 
HETATM    2  C2  UNL     1     -32.801   5.658   1.763  1.00 20.00    -0.116 C 
HETATM    3  C4  UNL     1     -33.495   6.532   2.721  1.00 20.00     0.115 C 
ENDROOT
BRANCH   3   4
HETATM    4  C5  UNL     1     -32.816   7.891   2.842  1.00 20.00     0.162 C 
BRANCH   4   5
HETATM    5  N6  UNL     1     -31.898   8.089   1.717  1.00 20.00    -0.275 NA
HETATM    6  C3  UNL     1     -32.177   8.979   1.004  1.00 20.00     0.157 C 
HETATM    7  S7  UNL     1     -32.531  10.178   0.019  1.00 20.00    -0.055 SA
ENDBRANCH   4   5
ENDBRANCH   3   4
TORSDOF 2
ENDMDL
MODEL 7
REMARK VINA RESULT:      -1.2      2.077      2.219
REMARK  2 active torsions:
REMARK  status: ('A' for Active; 'I' for Inactive)
REMARK    1  A    between atoms: C4_4  and  C5_5 
REMARK    2  A    between atoms: C5_5  and  N6_6 
ROOT
HETATM    1  C1  UNL     1     -35.328   5.366   4.366  1.00 20.00     0.012 C 
HETATM    2  C2  UNL     1     -34.907   6.449   4.065  1.00 20.00    -0.116 C 
HETATM    3  C4  UNL     1     -34.397   7.778   3.695  1.00 20.00     0.115 C 
ENDROOT
BRANCH   3   4
HETATM    4  C5  UNL     1     -32.874   7.825   3.709  1.00 20.00     0.162 C 
BRANCH   4   5
HETATM    5  N6  UNL     1     -32.367   7.880   2.335  1.00 20.00    -0.275 NA
HETATM    6  C3  UNL     1     -32.350   6.848   1.774  1.00 20.00     0.157 C 
HETATM    7  S7  UNL     1     -32.315   5.464   0.989  1.00 20.00    -0.055 SA
ENDBRANCH   4   5
ENDBRANCH   3   4
TORSDOF 2
ENDMDL
MODEL 8
REMARK VINA RESULT:      -1.1      2.782      4.043
REMARK  2 active torsions:
REMARK  status: ('A' for Active; 'I' for Inactive)
REMARK    1  A    between atoms: C4_4  and  C5_5 
REMARK    2  A    between atoms: C5_5  and  N6_6 
ROOT
HETATM    1  C1  UNL     1     -32.669  10.274   0.011  1.00 20.00     0.012 C 
HETATM    2  C2  UNL     1     -32.273   9.347   0.663  1.00 20.00    -0.116 C 
HETATM    3  C4  UNL     1     -31.782   8.211   1.457  1.00 20.00     0.115 C 
ENDROOT
BRANCH   3   4
HETATM    4  C5  UNL     1     -32.657   7.950   2.677  1.00 20.00     0.162 C 
BRANCH   4   5
HETATM    5  N6  UNL     1     -33.369   6.680   2.513  1.00 20.00    -0.275 NA
HETATM    6  C3  UNL     1     -32.850   5.913   1.792  1.00 20.00     0.157 C 
HETATM    7  S7  UNL     1     -32.168   4.853   0.819  1.00 20.00    -0.055 SA
ENDBRANCH   4   5
ENDBRANCH   3   4
TORSDOF 2
ENDMDL
MODEL 9
REMARK VINA RESULT:      -1.0      1.852      2.376
REMARK  2 active torsions:
REMARK  status: ('A' for Active; 'I' for Inactive)
REMARK    1  A    between atoms: C4_4  and  C5_5 
REMARK    2  A    between atoms: C5_5  and  N6_6 
ROOT
HETATM    1  C1  UNL     1     -33.544   8.304   5.063  1.00 20.00     0.012 C 
HETATM    2  C2  UNL     1     -34.052   7.454   4.383  1.00 20.00    -0.116 C 
HETATM    3  C4  UNL     1     -34.679   6.416   3.551  1.00 20.00     0.115 C 
ENDROOT
BRANCH   3   4
HETATM    4  C5  UNL     1     -33.678   5.350   3.123  1.00 20.00     0.162 C 
BRANCH   4   5
HETATM    5  N6  UNL     1     -33.168   5.660   1.784  1.00 20.00    -0.275 NA
HETATM    6  C3  UNL     1     -32.590   6.678   1.699  1.00 20.00     0.157 C 
HETATM    7  S7  UNL     1     -31.802   8.054   1.555  1.00 20.00    -0.055 SA
ENDBRANCH   4   5
ENDBRANCH   3   4
TORSDOF 2
ENDMDL
