MODEL 1
REMARK VINA RESULT:      -0.2      0.000      0.000
REMARK  1 active torsions:
REMARK  status: ('A' for Active; 'I' for Inactive)
REMARK    1  A    between atoms: C7_7  and  N9_9 
ROOT
HETATM    1  C1  UNL     1     -32.275   9.337   0.572  1.00 20.00     0.089 C 
HETATM    2  C7  UNL     1     -31.776   8.201   1.345  1.00 20.00     0.396 C 
HETATM    3  N8  UNL     1     -32.668  10.240  -0.041  1.00 20.00    -0.195 NA
ENDROOT
BRANCH   2   4
HETATM    4  N9  UNL     1     -32.856   7.572   2.104  1.00 20.00     0.107 N 
HETATM    5  C2  UNL     1     -33.098   8.330   3.345  1.00 20.00     0.284 C 
HETATM    6  C3  UNL     1     -33.773   7.572   4.491  1.00 20.00     0.104 C 
HETATM    7  S10 UNL     1     -35.058   6.447   3.901  1.00 20.00    -0.165 SA
HETATM    8  C4  UNL     1     -34.061   5.508   2.699  1.00 20.00     0.109 C 
HETATM    9  C5  UNL     1     -32.692   6.129   2.344  1.00 20.00     0.229 C 
HETATM   10  C6  UNL     1     -32.126   5.345   1.147  1.00 20.00     0.043 C 
ENDBRANCH   2   4
TORSDOF 1
ENDMDL
MODEL 2
REMARK VINA RESULT:       0.1      2.430      4.636
REMARK  1 active torsions:
REMARK  status: ('A' for Active; 'I' for Inactive)
REMARK    1  A    between atoms: C7_7  and  N9_9 
ROOT
HETATM    1  C1  UNL     1     -34.338   4.521   4.176  1.00 20.00     0.089 C 
HETATM    2  C7  UNL     1     -34.906   5.821   3.827  1.00 20.00     0.396 C 
HETATM    3  N8  UNL     1     -33.890   3.488   4.456  1.00 20.00    -0.195 NA
ENDROOT
BRANCH   2   4
HETATM    4  N9  UNL     1     -33.977   6.592   3.002  1.00 20.00     0.107 N 
HETATM    5  C2  UNL     1     -33.321   5.701   2.027  1.00 20.00     0.284 C 
HETATM    6  C3  UNL     1     -31.977   6.170   1.464  1.00 20.00     0.104 C 
HETATM    7  S10 UNL     1     -31.950   7.951   1.160  1.00 20.00    -0.165 SA
HETATM    8  C4  UNL     1     -32.447   8.514   2.821  1.00 20.00     0.109 C 
HETATM    9  C5  UNL     1     -33.016   7.419   3.750  1.00 20.00     0.229 C 
HETATM   10  C6  UNL     1     -33.607   8.122   4.984  1.00 20.00     0.043 C 
ENDBRANCH   2   4
TORSDOF 1
ENDMDL
MODEL 3
REMARK VINA RESULT:       1.0      2.498      4.319
REMARK  1 active torsions:
REMARK  status: ('A' for Active; 'I' for Inactive)
REMARK    1  A    between atoms: C7_7  and  N9_9 
ROOT
HETATM    1  C1  UNL     1     -33.450   3.511   4.326  1.00 20.00     0.089 C 
HETATM    2  C7  UNL     1     -34.092   4.330   3.299  1.00 20.00     0.396 C 
HETATM    3  N8  UNL     1     -32.944   2.859   5.141  1.00 20.00    -0.195 NA
ENDROOT
BRANCH   2   4
HETATM    4  N9  UNL     1     -33.454   5.642   3.205  1.00 20.00     0.107 N 
HETATM    5  C2  UNL     1     -34.255   6.639   3.939  1.00 20.00     0.284 C 
HETATM    6  C3  UNL     1     -34.073   8.102   3.530  1.00 20.00     0.104 C 
HETATM    7  S10 UNL     1     -32.351   8.493   3.143  1.00 20.00    -0.165 SA
HETATM    8  C4  UNL     1     -32.054   7.193   1.900  1.00 20.00     0.109 C 
HETATM    9  C5  UNL     1     -33.121   6.078   1.839  1.00 20.00     0.229 C 
HETATM   10  C6  UNL     1     -32.572   4.964   0.932  1.00 20.00     0.043 C 
ENDBRANCH   2   4
TORSDOF 1
ENDMDL
MODEL 4
REMARK VINA RESULT:       2.1      1.288      2.472
REMARK  1 active torsions:
REMARK  status: ('A' for Active; 'I' for Inactive)
REMARK    1  A    between atoms: C7_7  and  N9_9 
ROOT
HETATM    1  C1  UNL     1     -32.199   9.139   1.082  1.00 20.00     0.089 C 
HETATM    2  C7  UNL     1     -31.917   8.672   2.438  1.00 20.00     0.396 C 
HETATM    3  N8  UNL     1     -32.421   9.513   0.007  1.00 20.00    -0.195 NA
ENDROOT
BRANCH   2   4
HETATM    4  N9  UNL     1     -32.444   7.324   2.645  1.00 20.00     0.107 N 
HETATM    5  C2  UNL     1     -32.195   6.502   1.446  1.00 20.00     0.284 C 
HETATM    6  C3  UNL     1     -33.105   5.288   1.246  1.00 20.00     0.104 C 
HETATM    7  S10 UNL     1     -33.480   4.452   2.803  1.00 20.00    -0.165 SA
HETATM    8  C4  UNL     1     -34.124   5.884   3.728  1.00 20.00     0.109 C 
HETATM    9  C5  UNL     1     -33.846   7.264   3.092  1.00 20.00     0.229 C 
HETATM   10  C6  UNL     1     -34.230   8.335   4.127  1.00 20.00     0.043 C 
ENDBRANCH   2   4
TORSDOF 1
ENDMDL
MODEL 5
REMARK VINA RESULT:       2.7      1.877      3.075
REMARK  1 active torsions:
REMARK  status: ('A' for Active; 'I' for Inactive)
REMARK    1  A    between atoms: C7_7  and  N9_9 
ROOT
HETATM    1  C1  UNL     1     -33.518   5.205   0.268  1.00 20.00     0.089 C 
HETATM    2  C7  UNL     1     -32.393   5.333   1.192  1.00 20.00     0.396 C 
HETATM    3  N8  UNL     1     -34.409   5.101  -0.468  1.00 20.00    -0.195 NA
ENDROOT
BRANCH   2   4
HETATM    4  N9  UNL     1     -32.746   6.183   2.328  1.00 20.00     0.107 N 
HETATM    5  C2  UNL     1     -33.980   5.681   2.961  1.00 20.00     0.284 C 
HETATM    6  C3  UNL     1     -34.788   6.687   3.783  1.00 20.00     0.104 C 
HETATM    7  S10 UNL     1     -33.727   7.805   4.727  1.00 20.00    -0.165 SA
HETATM    8  C4  UNL     1     -32.700   8.422   3.354  1.00 20.00     0.109 C 
HETATM    9  C5  UNL     1     -32.806   7.625   2.035  1.00 20.00     0.229 C 
HETATM   10  C6  UNL     1     -31.695   8.130   1.099  1.00 20.00     0.043 C 
ENDBRANCH   2   4
TORSDOF 1
ENDMDL
