MODEL 1
REMARK VINA RESULT:       0.7      0.000      0.000
REMARK  2 active torsions:
REMARK  status: ('A' for Active; 'I' for Inactive)
REMARK    1  A    between atoms: C6_6  and  C8_8 
REMARK    2  A    between atoms: C7_7  and  O11_11 
ROOT
HETATM    1  C3  UNL     1     -33.818   6.133   2.539  1.00 20.00     0.058 C 
HETATM    2  C4  UNL     1     -32.026   6.959   1.007  1.00 20.00     0.069 C 
HETATM    3  C5  UNL     1     -33.719   7.455   3.280  1.00 20.00     0.171 C 
HETATM    4  C7  UNL     1     -32.493   5.790   1.871  1.00 20.00     0.123 C 
HETATM    5  C8  UNL     1     -32.021   8.298   1.772  1.00 20.00     0.063 C 
HETATM    6  C9  UNL     1     -30.876   8.363   2.798  1.00 20.00     0.046 C 
HETATM    7  O10 UNL     1     -33.286   8.506   2.420  1.00 20.00    -0.380 OA
ENDROOT
BRANCH   5   8
HETATM    8  C6  UNL     1     -31.848   9.435   0.783  1.00 20.00     0.020 A 
HETATM    9  C1  UNL     1     -32.790   9.574  -0.383  1.00 20.00     0.008 A 
HETATM   10  C2  UNL     1     -32.840  10.564   0.747  1.00 20.00     0.008 A 
ENDBRANCH   5   8
BRANCH   4  11
HETATM   11  O11 UNL     1     -32.648   4.641   1.046  1.00 20.00    -0.395 OA
HETATM   12  H27 UNL     1     -31.755   4.342   0.814  1.00 20.00     0.210 HD
ENDBRANCH   4  11
TORSDOF 2
ENDMDL
MODEL 2
REMARK VINA RESULT:       0.9      1.099      1.389
REMARK  2 active torsions:
REMARK  status: ('A' for Active; 'I' for Inactive)
REMARK    1  A    between atoms: C6_6  and  C8_8 
REMARK    2  A    between atoms: C7_7  and  O11_11 
ROOT
HETATM    1  C3  UNL     1     -34.471   6.459   3.884  1.00 20.00     0.058 C 
HETATM    2  C4  UNL     1     -32.933   6.337   1.919  1.00 20.00     0.069 C 
HETATM    3  C5  UNL     1     -34.130   7.935   3.991  1.00 20.00     0.171 C 
HETATM    4  C7  UNL     1     -33.324   5.687   3.244  1.00 20.00     0.123 C 
HETATM    5  C8  UNL     1     -32.678   7.852   2.053  1.00 20.00     0.063 C 
HETATM    6  C9  UNL     1     -31.361   8.144   2.793  1.00 20.00     0.046 C 
HETATM    7  O10 UNL     1     -33.780   8.485   2.723  1.00 20.00    -0.380 OA
ENDROOT
BRANCH   5   8
HETATM    8  C6  UNL     1     -32.601   8.467   0.669  1.00 20.00     0.020 A 
HETATM    9  C1  UNL     1     -32.587   9.962   0.504  1.00 20.00     0.008 A 
HETATM   10  C2  UNL     1     -31.346   9.162   0.218  1.00 20.00     0.008 A 
ENDBRANCH   5   8
BRANCH   4  11
HETATM   11  O11 UNL     1     -33.722   4.343   2.998  1.00 20.00    -0.395 OA
HETATM   12  H27 UNL     1     -33.334   4.089   2.146  1.00 20.00     0.210 HD
ENDBRANCH   4  11
TORSDOF 2
ENDMDL
MODEL 3
REMARK VINA RESULT:       0.9      2.070      3.005
REMARK  2 active torsions:
REMARK  status: ('A' for Active; 'I' for Inactive)
REMARK    1  A    between atoms: C6_6  and  C8_8 
REMARK    2  A    between atoms: C7_7  and  O11_11 
ROOT
HETATM    1  C3  UNL     1     -35.329   4.753   4.417  1.00 20.00     0.058 C 
HETATM    2  C4  UNL     1     -33.150   5.256   3.305  1.00 20.00     0.069 C 
HETATM    3  C5  UNL     1     -35.666   6.229   4.304  1.00 20.00     0.171 C 
HETATM    4  C7  UNL     1     -33.821   4.548   4.480  1.00 20.00     0.123 C 
HETATM    5  C8  UNL     1     -33.583   6.730   3.174  1.00 20.00     0.063 C 
HETATM    6  C9  UNL     1     -32.973   7.604   4.284  1.00 20.00     0.046 C 
HETATM    7  O10 UNL     1     -35.016   6.831   3.187  1.00 20.00    -0.380 OA
ENDROOT
BRANCH   5   8
HETATM    8  C6  UNL     1     -33.123   7.265   1.831  1.00 20.00     0.020 A 
HETATM    9  C1  UNL     1     -31.868   8.087   1.732  1.00 20.00     0.008 A 
HETATM   10  C2  UNL     1     -31.901   6.694   1.167  1.00 20.00     0.008 A 
ENDBRANCH   5   8
BRANCH   4  11
HETATM   11  O11 UNL     1     -33.517   3.160   4.416  1.00 20.00    -0.395 OA
HETATM   12  H27 UNL     1     -34.281   2.690   4.785  1.00 20.00     0.210 HD
ENDBRANCH   4  11
TORSDOF 2
ENDMDL
MODEL 4
REMARK VINA RESULT:       1.5      1.856      3.282
REMARK  2 active torsions:
REMARK  status: ('A' for Active; 'I' for Inactive)
REMARK    1  A    between atoms: C6_6  and  C8_8 
REMARK    2  A    between atoms: C7_7  and  O11_11 
ROOT
HETATM    1  C3  UNL     1     -34.155   4.473   4.188  1.00 20.00     0.058 C 
HETATM    2  C4  UNL     1     -33.982   6.684   3.040  1.00 20.00     0.069 C 
HETATM    3  C5  UNL     1     -33.181   3.924   3.162  1.00 20.00     0.171 C 
HETATM    4  C7  UNL     1     -34.941   5.644   3.612  1.00 20.00     0.123 C 
HETATM    5  C8  UNL     1     -32.954   6.072   2.067  1.00 20.00     0.063 C 
HETATM    6  C9  UNL     1     -33.603   5.672   0.731  1.00 20.00     0.046 C 
HETATM    7  O10 UNL     1     -32.309   4.939   2.671  1.00 20.00    -0.380 OA
ENDROOT
BRANCH   5   8
HETATM    8  C6  UNL     1     -31.866   7.092   1.788  1.00 20.00     0.020 A 
HETATM    9  C1  UNL     1     -32.199   8.386   1.097  1.00 20.00     0.008 A 
HETATM   10  C2  UNL     1     -31.827   8.386   2.554  1.00 20.00     0.008 A 
ENDBRANCH   5   8
BRANCH   4  11
HETATM   11  O11 UNL     1     -35.725   6.252   4.633  1.00 20.00    -0.395 OA
HETATM   12  H27 UNL     1     -35.313   6.014   5.479  1.00 20.00     0.210 HD
ENDBRANCH   4  11
TORSDOF 2
ENDMDL
MODEL 5
REMARK VINA RESULT:       1.5      2.191      4.601
REMARK  2 active torsions:
REMARK  status: ('A' for Active; 'I' for Inactive)
REMARK    1  A    between atoms: C6_6  and  C8_8 
REMARK    2  A    between atoms: C7_7  and  O11_11 
ROOT
HETATM    1  C3  UNL     1     -32.405   8.243   3.574  1.00 20.00     0.058 C 
HETATM    2  C4  UNL     1     -33.350   6.175   2.538  1.00 20.00     0.069 C 
HETATM    3  C5  UNL     1     -33.507   8.160   4.615  1.00 20.00     0.171 C 
HETATM    4  C7  UNL     1     -32.848   7.591   2.270  1.00 20.00     0.123 C 
HETATM    5  C8  UNL     1     -34.406   6.123   3.661  1.00 20.00     0.063 C 
HETATM    6  C9  UNL     1     -35.753   6.709   3.203  1.00 20.00     0.046 C 
HETATM    7  O10 UNL     1     -33.929   6.814   4.826  1.00 20.00    -0.380 OA
ENDROOT
BRANCH   5   8
HETATM    8  C6  UNL     1     -34.622   4.679   4.072  1.00 20.00     0.020 A 
HETATM    9  C1  UNL     1     -33.647   3.616   3.646  1.00 20.00     0.008 A 
HETATM   10  C2  UNL     1     -33.718   4.038   5.088  1.00 20.00     0.008 A 
ENDBRANCH   5   8
BRANCH   4  11
HETATM   11  O11 UNL     1     -31.752   7.528   1.364  1.00 20.00    -0.395 OA
HETATM   12  H27 UNL     1     -31.712   6.614   1.039  1.00 20.00     0.210 HD
ENDBRANCH   4  11
TORSDOF 2
ENDMDL
MODEL 6
REMARK VINA RESULT:       1.9      1.659      3.931
REMARK  2 active torsions:
REMARK  status: ('A' for Active; 'I' for Inactive)
REMARK    1  A    between atoms: C6_6  and  C8_8 
REMARK    2  A    between atoms: C7_7  and  O11_11 
ROOT
HETATM    1  C3  UNL     1     -31.977   7.652   0.832  1.00 20.00     0.058 C 
HETATM    2  C4  UNL     1     -33.582   8.805   2.360  1.00 20.00     0.069 C 
HETATM    3  C5  UNL     1     -31.867   6.548   1.868  1.00 20.00     0.171 C 
HETATM    4  C7  UNL     1     -32.337   8.977   1.493  1.00 20.00     0.123 C 
HETATM    5  C8  UNL     1     -33.464   7.621   3.340  1.00 20.00     0.063 C 
HETATM    6  C9  UNL     1     -32.486   7.925   4.488  1.00 20.00     0.046 C 
HETATM    7  O10 UNL     1     -33.061   6.433   2.639  1.00 20.00    -0.380 OA
ENDROOT
BRANCH   5   8
HETATM    8  C6  UNL     1     -34.830   7.330   3.933  1.00 20.00     0.020 A 
HETATM    9  C1  UNL     1     -35.874   6.616   3.118  1.00 20.00     0.008 A 
HETATM   10  C2  UNL     1     -35.220   5.920   4.279  1.00 20.00     0.008 A 
ENDBRANCH   5   8
BRANCH   4  11
HETATM   11  O11 UNL     1     -32.600   9.960   0.498  1.00 20.00    -0.395 OA
HETATM   12  H27 UNL     1     -31.882   9.898  -0.151  1.00 20.00     0.210 HD
ENDBRANCH   4  11
TORSDOF 2
ENDMDL
MODEL 7
REMARK VINA RESULT:       3.1      1.662      4.077
REMARK  2 active torsions:
REMARK  status: ('A' for Active; 'I' for Inactive)
REMARK    1  A    between atoms: C6_6  and  C8_8 
REMARK    2  A    between atoms: C7_7  and  O11_11 
ROOT
HETATM    1  C3  UNL     1     -32.000   9.979  -0.437  1.00 20.00     0.058 C 
HETATM    2  C4  UNL     1     -33.185   8.995   1.529  1.00 20.00     0.069 C 
HETATM    3  C5  UNL     1     -30.863   9.008  -0.171  1.00 20.00     0.171 C 
HETATM    4  C7  UNL     1     -32.753  10.292   0.849  1.00 20.00     0.123 C 
HETATM    5  C8  UNL     1     -32.019   8.001   1.705  1.00 20.00     0.063 C 
HETATM    6  C9  UNL     1     -31.038   8.460   2.798  1.00 20.00     0.046 C 
HETATM    7  O10 UNL     1     -31.329   7.816   0.458  1.00 20.00    -0.380 OA
ENDROOT
BRANCH   5   8
HETATM    8  C6  UNL     1     -32.577   6.645   2.096  1.00 20.00     0.020 A 
HETATM    9  C1  UNL     1     -33.313   5.809   1.085  1.00 20.00     0.008 A 
HETATM   10  C2  UNL     1     -31.951   5.387   1.562  1.00 20.00     0.008 A 
ENDBRANCH   5   8
BRANCH   4  11
HETATM   11  O11 UNL     1     -33.911  11.066   0.557  1.00 20.00    -0.395 OA
HETATM   12  H27 UNL     1     -33.764  11.944   0.944  1.00 20.00     0.210 HD
ENDBRANCH   4  11
TORSDOF 2
ENDMDL
MODEL 8
REMARK VINA RESULT:       3.2      2.712      3.875
REMARK  2 active torsions:
REMARK  status: ('A' for Active; 'I' for Inactive)
REMARK    1  A    between atoms: C6_6  and  C8_8 
REMARK    2  A    between atoms: C7_7  and  O11_11 
ROOT
HETATM    1  C3  UNL     1     -32.981   4.282   2.539  1.00 20.00     0.058 C 
HETATM    2  C4  UNL     1     -33.995   5.531   4.450  1.00 20.00     0.069 C 
HETATM    3  C5  UNL     1     -33.322   5.467   1.654  1.00 20.00     0.171 C 
HETATM    4  C7  UNL     1     -33.945   4.194   3.715  1.00 20.00     0.123 C 
HETATM    5  C8  UNL     1     -34.259   6.719   3.504  1.00 20.00     0.063 C 
HETATM    6  C9  UNL     1     -35.713   6.736   3.002  1.00 20.00     0.046 C 
HETATM    7  O10 UNL     1     -33.346   6.685   2.395  1.00 20.00    -0.380 OA
ENDROOT
BRANCH   5   8
HETATM    8  C6  UNL     1     -33.990   8.015   4.246  1.00 20.00     0.020 A 
HETATM    9  C1  UNL     1     -33.218   8.001   5.537  1.00 20.00     0.008 A 
HETATM   10  C2  UNL     1     -32.598   8.583   4.296  1.00 20.00     0.008 A 
ENDBRANCH   5   8
BRANCH   4  11
HETATM   11  O11 UNL     1     -33.514   3.185   4.622  1.00 20.00    -0.395 OA
HETATM   12  H27 UNL     1     -33.526   3.583   5.507  1.00 20.00     0.210 HD
ENDBRANCH   4  11
TORSDOF 2
ENDMDL
MODEL 9
REMARK VINA RESULT:       3.2      2.248      3.576
REMARK  2 active torsions:
REMARK  status: ('A' for Active; 'I' for Inactive)
REMARK    1  A    between atoms: C6_6  and  C8_8 
REMARK    2  A    between atoms: C7_7  and  O11_11 
ROOT
HETATM    1  C3  UNL     1     -33.965   7.595   3.825  1.00 20.00     0.058 C 
HETATM    2  C4  UNL     1     -34.215   5.530   2.443  1.00 20.00     0.069 C 
HETATM    3  C5  UNL     1     -32.663   7.864   3.092  1.00 20.00     0.171 C 
HETATM    4  C7  UNL     1     -34.266   6.102   3.857  1.00 20.00     0.123 C 
HETATM    5  C8  UNL     1     -32.913   5.897   1.701  1.00 20.00     0.063 C 
HETATM    6  C9  UNL     1     -31.705   5.121   2.253  1.00 20.00     0.046 C 
HETATM    7  O10 UNL     1     -32.678   7.312   1.777  1.00 20.00    -0.380 OA
ENDROOT
BRANCH   5   8
HETATM    8  C6  UNL     1     -33.070   5.563   0.229  1.00 20.00     0.020 A 
HETATM    9  C1  UNL     1     -33.447   4.170  -0.196  1.00 20.00     0.008 A 
HETATM   10  C2  UNL     1     -34.433   5.295  -0.346  1.00 20.00     0.008 A 
ENDBRANCH   5   8
BRANCH   4  11
HETATM   11  O11 UNL     1     -35.564   5.881   4.396  1.00 20.00    -0.395 OA
HETATM   12  H27 UNL     1     -36.198   6.071   3.686  1.00 20.00     0.210 HD
ENDBRANCH   4  11
TORSDOF 2
ENDMDL
