MODEL 1
REMARK VINA RESULT:      -1.7      0.000      0.000
REMARK  1 active torsions:
REMARK  status: ('A' for Active; 'I' for Inactive)
REMARK    1  A    between atoms: C6_6  and  C7_7 
ROOT
HETATM    1  C3  UNL     1     -33.297   5.509   2.403  1.00 20.00     0.046 C 
HETATM    2  C4  UNL     1     -33.166   7.880   3.199  1.00 20.00     0.052 C 
HETATM    3  C5  UNL     1     -32.372   5.899   1.260  1.00 20.00     0.169 C 
HETATM    4  C7  UNL     1     -32.179   8.164   2.062  1.00 20.00     0.126 C 
HETATM    5  C8  UNL     1     -34.102   6.719   2.863  1.00 20.00     0.086 C 
HETATM    6  O9  UNL     1     -31.509   6.973   1.629  1.00 20.00    -0.385 OA
HETATM    7 CL10 UNL     1     -35.093   6.296   4.286  1.00 20.00    -0.125 Cl
ENDROOT
BRANCH   4   8
HETATM    8  C6  UNL     1     -32.794   8.901   0.903  1.00 20.00     0.015 A 
HETATM    9  C1  UNL     1     -32.592  10.383   0.753  1.00 20.00     0.007 A 
HETATM   10  C2  UNL     1     -31.924   9.433  -0.202  1.00 20.00     0.007 A 
ENDBRANCH   4   8
TORSDOF 1
ENDMDL
MODEL 2
REMARK VINA RESULT:       0.3      2.145      3.059
REMARK  1 active torsions:
REMARK  status: ('A' for Active; 'I' for Inactive)
REMARK    1  A    between atoms: C6_6  and  C7_7 
ROOT
HETATM    1  C3  UNL     1     -34.903   5.069   4.466  1.00 20.00     0.046 C 
HETATM    2  C4  UNL     1     -33.288   4.718   2.584  1.00 20.00     0.052 C 
HETATM    3  C5  UNL     1     -35.042   6.512   4.005  1.00 20.00     0.169 C 
HETATM    4  C7  UNL     1     -33.547   6.163   2.146  1.00 20.00     0.126 C 
HETATM    5  C8  UNL     1     -33.531   4.524   4.080  1.00 20.00     0.086 C 
HETATM    6  O9  UNL     1     -34.821   6.637   2.601  1.00 20.00    -0.385 OA
HETATM    7 CL10 UNL     1     -33.413   2.795   4.505  1.00 20.00    -0.125 Cl
ENDROOT
BRANCH   4   8
HETATM    8  C6  UNL     1     -32.442   7.112   2.522  1.00 20.00     0.015 A 
HETATM    9  C1  UNL     1     -31.567   7.716   1.459  1.00 20.00     0.007 A 
HETATM   10  C2  UNL     1     -32.558   8.575   2.194  1.00 20.00     0.007 A 
ENDBRANCH   4   8
TORSDOF 1
ENDMDL
