MODEL 1
REMARK VINA RESULT:       0.1      0.000      0.000
REMARK  2 active torsions:
REMARK  status: ('A' for Active; 'I' for Inactive)
REMARK    1  A    between atoms: C5_5  and  C8_8 
REMARK    2  A    between atoms: C5_5  and  O10_10 
ROOT
HETATM    1  C1  UNL     1     -33.079   6.356   2.467  1.00 20.00     0.064 C 
HETATM    2  C2  UNL     1     -33.480   8.838   2.330  1.00 20.00     0.069 C 
HETATM    3  C3  UNL     1     -31.816   6.510   1.613  1.00 20.00     0.171 C 
HETATM    4  C4  UNL     1     -32.694   8.637   1.022  1.00 20.00     0.120 C 
HETATM    5  C5  UNL     1     -33.369   7.626   3.271  1.00 20.00     0.062 C 
HETATM    6  C6  UNL     1     -32.277   9.967   0.413  1.00 20.00     0.039 C 
HETATM    7  O9  UNL     1     -31.521   7.865   1.271  1.00 20.00    -0.386 OA
ENDROOT
BRANCH   5   8
HETATM    8  C8  UNL     1     -34.627   7.477   4.124  1.00 20.00     0.033 C 
HETATM    9  C7  UNL     1     -35.220   6.115   3.990  1.00 20.00     0.008 C 
ENDBRANCH   5   8
BRANCH   5  10
HETATM   10  O10 UNL     1     -32.268   7.861   4.158  1.00 20.00    -0.390 OA
HETATM   11  H26 UNL     1     -31.830   7.006   4.280  1.00 20.00     0.210 HD
ENDBRANCH   5  10
TORSDOF 2
ENDMDL
MODEL 2
REMARK VINA RESULT:       0.2      2.016      4.425
REMARK  2 active torsions:
REMARK  status: ('A' for Active; 'I' for Inactive)
REMARK    1  A    between atoms: C5_5  and  C8_8 
REMARK    2  A    between atoms: C5_5  and  O10_10 
ROOT
HETATM    1  C1  UNL     1     -35.067   6.667   2.949  1.00 20.00     0.064 C 
HETATM    2  C2  UNL     1     -33.047   5.171   3.102  1.00 20.00     0.069 C 
HETATM    3  C3  UNL     1     -35.649   6.014   4.207  1.00 20.00     0.171 C 
HETATM    4  C4  UNL     1     -34.078   4.276   3.812  1.00 20.00     0.120 C 
HETATM    5  C5  UNL     1     -33.537   6.623   2.952  1.00 20.00     0.062 C 
HETATM    6  C6  UNL     1     -33.409   3.099   4.505  1.00 20.00     0.039 C 
HETATM    7  O9  UNL     1     -34.789   5.033   4.789  1.00 20.00    -0.386 OA
ENDROOT
BRANCH   5   8
HETATM    8  C8  UNL     1     -32.952   7.273   1.700  1.00 20.00     0.033 C 
HETATM    9  C7  UNL     1     -31.745   8.088   2.020  1.00 20.00     0.008 C 
ENDBRANCH   5   8
BRANCH   5  10
HETATM   10  O10 UNL     1     -33.065   7.361   4.086  1.00 20.00    -0.390 OA
HETATM   11  H26 UNL     1     -33.845   7.560   4.624  1.00 20.00     0.210 HD
ENDBRANCH   5  10
TORSDOF 2
ENDMDL
MODEL 3
REMARK VINA RESULT:       0.5      1.790      2.847
REMARK  2 active torsions:
REMARK  status: ('A' for Active; 'I' for Inactive)
REMARK    1  A    between atoms: C5_5  and  C8_8 
REMARK    2  A    between atoms: C5_5  and  O10_10 
ROOT
HETATM    1  C1  UNL     1     -34.062   7.122   4.818  1.00 20.00     0.064 C 
HETATM    2  C2  UNL     1     -33.506   5.922   2.675  1.00 20.00     0.069 C 
HETATM    3  C3  UNL     1     -33.673   8.457   4.175  1.00 20.00     0.171 C 
HETATM    4  C4  UNL     1     -32.574   7.138   2.533  1.00 20.00     0.120 C 
HETATM    5  C5  UNL     1     -34.565   6.123   3.774  1.00 20.00     0.062 C 
HETATM    6  C6  UNL     1     -31.989   7.230   1.131  1.00 20.00     0.039 C 
HETATM    7  O9  UNL     1     -33.294   8.339   2.802  1.00 20.00    -0.386 OA
ENDROOT
BRANCH   5   8
HETATM    8  C8  UNL     1     -34.954   4.790   4.411  1.00 20.00     0.033 C 
HETATM    9  C7  UNL     1     -33.851   3.793   4.308  1.00 20.00     0.008 C 
ENDBRANCH   5   8
BRANCH   5  10
HETATM   10  O10 UNL     1     -35.738   6.667   3.155  1.00 20.00    -0.390 OA
HETATM   11  H26 UNL     1     -35.913   6.120   2.376  1.00 20.00     0.210 HD
ENDBRANCH   5  10
TORSDOF 2
ENDMDL
MODEL 4
REMARK VINA RESULT:       0.5      1.379      3.459
REMARK  2 active torsions:
REMARK  status: ('A' for Active; 'I' for Inactive)
REMARK    1  A    between atoms: C5_5  and  C8_8 
REMARK    2  A    between atoms: C5_5  and  O10_10 
ROOT
HETATM    1  C1  UNL     1     -33.872   8.068   2.730  1.00 20.00     0.064 C 
HETATM    2  C2  UNL     1     -32.091   7.195   1.181  1.00 20.00     0.069 C 
HETATM    3  C3  UNL     1     -33.971   6.692   3.398  1.00 20.00     0.171 C 
HETATM    4  C4  UNL     1     -32.834   5.880   1.476  1.00 20.00     0.120 C 
HETATM    5  C5  UNL     1     -32.474   8.317   2.163  1.00 20.00     0.062 C 
HETATM    6  C6  UNL     1     -32.051   4.674   0.979  1.00 20.00     0.039 C 
HETATM    7  O9  UNL     1     -33.039   5.741   2.880  1.00 20.00    -0.386 OA
ENDROOT
BRANCH   5   8
HETATM    8  C8  UNL     1     -32.372   9.687   1.496  1.00 20.00     0.033 C 
HETATM    9  C7  UNL     1     -32.431   9.578   0.010  1.00 20.00     0.008 C 
ENDBRANCH   5   8
BRANCH   5  10
HETATM   10  O10 UNL     1     -31.534   8.289   3.245  1.00 20.00    -0.390 OA
HETATM   11  H26 UNL     1     -30.717   7.917   2.885  1.00 20.00     0.210 HD
ENDBRANCH   5  10
TORSDOF 2
ENDMDL
MODEL 5
REMARK VINA RESULT:       0.6      1.427      3.697
REMARK  2 active torsions:
REMARK  status: ('A' for Active; 'I' for Inactive)
REMARK    1  A    between atoms: C5_5  and  C8_8 
REMARK    2  A    between atoms: C5_5  and  O10_10 
ROOT
HETATM    1  C1  UNL     1     -31.557   6.719   1.577  1.00 20.00     0.064 C 
HETATM    2  C2  UNL     1     -33.487   7.924   2.655  1.00 20.00     0.069 C 
HETATM    3  C3  UNL     1     -32.302   5.388   1.724  1.00 20.00     0.171 C 
HETATM    4  C4  UNL     1     -33.669   6.535   3.292  1.00 20.00     0.120 C 
HETATM    5  C5  UNL     1     -32.530   7.894   1.450  1.00 20.00     0.062 C 
HETATM    6  C6  UNL     1     -35.007   6.423   4.009  1.00 20.00     0.039 C 
HETATM    7  O9  UNL     1     -33.608   5.526   2.287  1.00 20.00    -0.386 OA
ENDROOT
BRANCH   5   8
HETATM    8  C8  UNL     1     -31.792   9.223   1.303  1.00 20.00     0.033 C 
HETATM    9  C7  UNL     1     -32.445  10.102   0.291  1.00 20.00     0.008 C 
ENDBRANCH   5   8
BRANCH   5  10
HETATM   10  O10 UNL     1     -33.320   7.702   0.270  1.00 20.00    -0.390 OA
HETATM   11  H26 UNL     1     -33.833   8.514   0.152  1.00 20.00     0.210 HD
ENDBRANCH   5  10
TORSDOF 2
ENDMDL
MODEL 6
REMARK VINA RESULT:       0.8      1.224      3.891
REMARK  2 active torsions:
REMARK  status: ('A' for Active; 'I' for Inactive)
REMARK    1  A    between atoms: C5_5  and  C8_8 
REMARK    2  A    between atoms: C5_5  and  O10_10 
ROOT
HETATM    1  C1  UNL     1     -33.618   8.679   2.535  1.00 20.00     0.064 C 
HETATM    2  C2  UNL     1     -32.734   6.388   1.981  1.00 20.00     0.069 C 
HETATM    3  C3  UNL     1     -34.084   8.173   3.904  1.00 20.00     0.171 C 
HETATM    4  C4  UNL     1     -33.838   5.998   2.979  1.00 20.00     0.120 C 
HETATM    5  C5  UNL     1     -32.408   7.892   2.028  1.00 20.00     0.062 C 
HETATM    6  C6  UNL     1     -33.726   4.537   3.390  1.00 20.00     0.039 C 
HETATM    7  O9  UNL     1     -33.745   6.806   4.150  1.00 20.00    -0.386 OA
ENDROOT
BRANCH   5   8
HETATM    8  C8  UNL     1     -31.941   8.394   0.663  1.00 20.00     0.033 C 
HETATM    9  C7  UNL     1     -32.462   9.762   0.376  1.00 20.00     0.008 C 
ENDBRANCH   5   8
BRANCH   5  10
HETATM   10  O10 UNL     1     -31.328   8.076   2.952  1.00 20.00    -0.390 OA
HETATM   11  H26 UNL     1     -31.637   7.732   3.802  1.00 20.00     0.210 HD
ENDBRANCH   5  10
TORSDOF 2
ENDMDL
MODEL 7
REMARK VINA RESULT:       1.0      1.613      2.712
REMARK  2 active torsions:
REMARK  status: ('A' for Active; 'I' for Inactive)
REMARK    1  A    between atoms: C5_5  and  C8_8 
REMARK    2  A    between atoms: C5_5  and  O10_10 
ROOT
HETATM    1  C1  UNL     1     -33.408   7.465   3.975  1.00 20.00     0.064 C 
HETATM    2  C2  UNL     1     -33.569   5.422   2.512  1.00 20.00     0.069 C 
HETATM    3  C3  UNL     1     -32.656   8.205   2.864  1.00 20.00     0.171 C 
HETATM    4  C4  UNL     1     -32.295   6.053   1.925  1.00 20.00     0.120 C 
HETATM    5  C5  UNL     1     -34.351   6.404   3.403  1.00 20.00     0.062 C 
HETATM    6  C6  UNL     1     -31.889   5.377   0.623  1.00 20.00     0.039 C 
HETATM    7  O9  UNL     1     -32.511   7.439   1.667  1.00 20.00    -0.386 OA
ENDROOT
BRANCH   5   8
HETATM    8  C8  UNL     1     -35.102   5.664   4.508  1.00 20.00     0.033 C 
HETATM    9  C7  UNL     1     -34.576   4.281   4.695  1.00 20.00     0.008 C 
ENDBRANCH   5   8
BRANCH   5  10
HETATM   10  O10 UNL     1     -35.324   7.060   2.581  1.00 20.00    -0.390 OA
HETATM   11  H26 UNL     1     -34.828   7.518   1.887  1.00 20.00     0.210 HD
ENDBRANCH   5  10
TORSDOF 2
ENDMDL
MODEL 8
REMARK VINA RESULT:       1.3      1.645      1.784
REMARK  2 active torsions:
REMARK  status: ('A' for Active; 'I' for Inactive)
REMARK    1  A    between atoms: C5_5  and  C8_8 
REMARK    2  A    between atoms: C5_5  and  O10_10 
ROOT
HETATM    1  C1  UNL     1     -34.039   5.774   1.628  1.00 20.00     0.064 C 
HETATM    2  C2  UNL     1     -33.192   7.513   3.240  1.00 20.00     0.069 C 
HETATM    3  C3  UNL     1     -32.659   5.713   0.964  1.00 20.00     0.171 C 
HETATM    4  C4  UNL     1     -32.243   7.780   2.059  1.00 20.00     0.120 C 
HETATM    5  C5  UNL     1     -33.934   6.171   3.101  1.00 20.00     0.062 C 
HETATM    6  C6  UNL     1     -31.102   8.704   2.460  1.00 20.00     0.039 C 
HETATM    7  O9  UNL     1     -31.688   6.553   1.592  1.00 20.00    -0.386 OA
ENDROOT
BRANCH   5   8
HETATM    8  C8  UNL     1     -35.308   6.233   3.767  1.00 20.00     0.033 C 
HETATM    9  C7  UNL     1     -35.506   5.101   4.718  1.00 20.00     0.008 C 
ENDBRANCH   5   8
BRANCH   5  10
HETATM   10  O10 UNL     1     -33.164   5.175   3.785  1.00 20.00    -0.390 OA
HETATM   11  H26 UNL     1     -33.606   5.025   4.633  1.00 20.00     0.210 HD
ENDBRANCH   5  10
TORSDOF 2
ENDMDL
MODEL 9
REMARK VINA RESULT:       1.6      1.733      3.410
REMARK  2 active torsions:
REMARK  status: ('A' for Active; 'I' for Inactive)
REMARK    1  A    between atoms: C5_5  and  C8_8 
REMARK    2  A    between atoms: C5_5  and  O10_10 
ROOT
HETATM    1  C1  UNL     1     -32.331   7.164   0.744  1.00 20.00     0.064 C 
HETATM    2  C2  UNL     1     -33.678   5.989   2.518  1.00 20.00     0.069 C 
HETATM    3  C3  UNL     1     -31.873   8.202   1.775  1.00 20.00     0.171 C 
HETATM    4  C4  UNL     1     -33.678   7.413   3.102  1.00 20.00     0.120 C 
HETATM    5  C5  UNL     1     -32.632   5.816   1.402  1.00 20.00     0.062 C 
HETATM    6  C6  UNL     1     -34.196   7.427   4.533  1.00 20.00     0.039 C 
HETATM    7  O9  UNL     1     -32.355   7.944   3.095  1.00 20.00    -0.386 OA
ENDROOT
BRANCH   5   8
HETATM    8  C8  UNL     1     -33.089   4.779   0.378  1.00 20.00     0.033 C 
HETATM    9  C7  UNL     1     -34.322   5.222  -0.335  1.00 20.00     0.008 C 
ENDBRANCH   5   8
BRANCH   5  10
HETATM   10  O10 UNL     1     -31.427   5.328   2.005  1.00 20.00    -0.390 OA
HETATM   11  H26 UNL     1     -30.869   5.011   1.280  1.00 20.00     0.210 HD
ENDBRANCH   5  10
TORSDOF 2
ENDMDL
