MODEL 1
REMARK VINA RESULT:       0.4      0.000      0.000
REMARK  2 active torsions:
REMARK  status: ('A' for Active; 'I' for Inactive)
REMARK    1  A    between atoms: C4_4  and  S10_10 
REMARK    2  A    between atoms: C5_5  and  C8_8 
ROOT
HETATM    1  C1  UNL     1     -33.328   5.579   2.121  1.00 20.00     0.041 C 
HETATM    2  C2  UNL     1     -33.607   7.981   2.774  1.00 20.00     0.052 C 
HETATM    3  C3  UNL     1     -32.052   5.984   1.394  1.00 20.00     0.170 C 
HETATM    4  C4  UNL     1     -33.605   6.536   3.279  1.00 20.00     0.049 C 
HETATM    5  C5  UNL     1     -32.331   8.314   1.973  1.00 20.00     0.058 C 
HETATM    6  C6  UNL     1     -31.094   8.438   2.877  1.00 20.00     0.046 C 
HETATM    7  O9  UNL     1     -32.114   7.336   0.945  1.00 20.00    -0.381 OA
ENDROOT
BRANCH   5   8
HETATM    8  C8  UNL     1     -32.527   9.651   1.245  1.00 20.00     0.033 C 
HETATM    9  C7  UNL     1     -32.365   9.498  -0.228  1.00 20.00     0.008 C 
ENDBRANCH   5   8
BRANCH   4  10
HETATM   10  S10 UNL     1     -35.206   6.140   4.059  1.00 20.00    -0.177 SA
HETATM   11  H26 UNL     1     -35.309   4.912   3.533  1.00 20.00     0.102 HD
ENDBRANCH   4  10
TORSDOF 2
ENDMDL
MODEL 2
REMARK VINA RESULT:       0.7      1.958      3.037
REMARK  2 active torsions:
REMARK  status: ('A' for Active; 'I' for Inactive)
REMARK    1  A    between atoms: C4_4  and  S10_10 
REMARK    2  A    between atoms: C5_5  and  C8_8 
ROOT
HETATM    1  C1  UNL     1     -34.675   5.269   4.438  1.00 20.00     0.041 C 
HETATM    2  C2  UNL     1     -32.675   4.993   2.955  1.00 20.00     0.052 C 
HETATM    3  C3  UNL     1     -35.045   6.496   3.615  1.00 20.00     0.170 C 
HETATM    4  C4  UNL     1     -33.874   4.283   3.589  1.00 20.00     0.049 C 
HETATM    5  C5  UNL     1     -33.094   6.275   2.205  1.00 20.00     0.058 C 
HETATM    6  C6  UNL     1     -33.836   5.964   0.896  1.00 20.00     0.046 C 
HETATM    7  O9  UNL     1     -33.889   7.115   3.054  1.00 20.00    -0.381 OA
ENDROOT
BRANCH   5   8
HETATM    8  C8  UNL     1     -31.839   7.091   1.862  1.00 20.00     0.033 C 
HETATM    9  C7  UNL     1     -32.190   8.472   1.429  1.00 20.00     0.008 C 
ENDBRANCH   5   8
BRANCH   4  10
HETATM   10  S10 UNL     1     -33.308   2.882   4.611  1.00 20.00    -0.177 SA
HETATM   11  H26 UNL     1     -33.674   1.929   3.744  1.00 20.00     0.102 HD
ENDBRANCH   4  10
TORSDOF 2
ENDMDL
MODEL 3
REMARK VINA RESULT:       1.9      1.316      2.635
REMARK  2 active torsions:
REMARK  status: ('A' for Active; 'I' for Inactive)
REMARK    1  A    between atoms: C4_4  and  S10_10 
REMARK    2  A    between atoms: C5_5  and  C8_8 
ROOT
HETATM    1  C1  UNL     1     -33.300   7.858   4.672  1.00 20.00     0.041 C 
HETATM    2  C2  UNL     1     -33.408   6.748   2.429  1.00 20.00     0.052 C 
HETATM    3  C3  UNL     1     -32.207   8.758   4.110  1.00 20.00     0.170 C 
HETATM    4  C4  UNL     1     -34.227   7.389   3.553  1.00 20.00     0.049 C 
HETATM    5  C5  UNL     1     -32.262   7.666   1.954  1.00 20.00     0.058 C 
HETATM    6  C6  UNL     1     -32.778   8.865   1.144  1.00 20.00     0.046 C 
HETATM    7  O9  UNL     1     -31.477   8.107   3.073  1.00 20.00    -0.381 OA
ENDROOT
BRANCH   5   8
HETATM    8  C8  UNL     1     -31.307   6.860   1.063  1.00 20.00     0.033 C 
HETATM    9  C7  UNL     1     -31.722   5.432   0.973  1.00 20.00     0.008 C 
ENDBRANCH   5   8
BRANCH   4  10
HETATM   10  S10 UNL     1     -35.449   6.198   4.199  1.00 20.00    -0.177 SA
HETATM   11  H26 UNL     1     -34.746   5.867   5.291  1.00 20.00     0.102 HD
ENDBRANCH   4  10
TORSDOF 2
ENDMDL
MODEL 4
REMARK VINA RESULT:       2.2      2.342      4.135
REMARK  2 active torsions:
REMARK  status: ('A' for Active; 'I' for Inactive)
REMARK    1  A    between atoms: C4_4  and  S10_10 
REMARK    2  A    between atoms: C5_5  and  C8_8 
ROOT
HETATM    1  C1  UNL     1     -32.163   7.058   1.775  1.00 20.00     0.041 C 
HETATM    2  C2  UNL     1     -33.352   7.071   3.979  1.00 20.00     0.052 C 
HETATM    3  C3  UNL     1     -33.170   6.017   1.302  1.00 20.00     0.170 C 
HETATM    4  C4  UNL     1     -32.782   7.941   2.857  1.00 20.00     0.049 C 
HETATM    5  C5  UNL     1     -34.300   5.980   3.439  1.00 20.00     0.058 C 
HETATM    6  C6  UNL     1     -35.639   6.560   2.959  1.00 20.00     0.046 C 
HETATM    7  O9  UNL     1     -33.662   5.237   2.389  1.00 20.00    -0.381 OA
ENDROOT
BRANCH   5   8
HETATM    8  C8  UNL     1     -34.590   4.966   4.555  1.00 20.00     0.033 C 
HETATM    9  C7  UNL     1     -33.809   3.711   4.367  1.00 20.00     0.008 C 
ENDBRANCH   5   8
BRANCH   4  10
HETATM   10  S10 UNL     1     -31.534   9.093   3.524  1.00 20.00    -0.177 SA
HETATM   11  H26 UNL     1     -31.106   8.276   4.495  1.00 20.00     0.102 HD
ENDBRANCH   4  10
TORSDOF 2
ENDMDL
MODEL 5
REMARK VINA RESULT:       2.2      2.144      3.552
REMARK  2 active torsions:
REMARK  status: ('A' for Active; 'I' for Inactive)
REMARK    1  A    between atoms: C4_4  and  S10_10 
REMARK    2  A    between atoms: C5_5  and  C8_8 
ROOT
HETATM    1  C1  UNL     1     -31.997   7.476   0.923  1.00 20.00     0.041 C 
HETATM    2  C2  UNL     1     -33.248   6.083   2.587  1.00 20.00     0.052 C 
HETATM    3  C3  UNL     1     -32.391   8.701   1.738  1.00 20.00     0.170 C 
HETATM    4  C4  UNL     1     -31.933   6.241   1.819  1.00 20.00     0.049 C 
HETATM    5  C5  UNL     1     -33.644   7.378   3.327  1.00 20.00     0.058 C 
HETATM    6  C6  UNL     1     -32.750   7.645   4.548  1.00 20.00     0.046 C 
HETATM    7  O9  UNL     1     -33.622   8.496   2.426  1.00 20.00    -0.381 OA
ENDROOT
BRANCH   5   8
HETATM    8  C8  UNL     1     -35.095   7.257   3.812  1.00 20.00     0.033 C 
HETATM    9  C7  UNL     1     -35.422   5.859   4.208  1.00 20.00     0.008 C 
ENDBRANCH   5   8
BRANCH   4  10
HETATM   10  S10 UNL     1     -31.603   4.750   0.821  1.00 20.00    -0.177 SA
HETATM   11  H26 UNL     1     -32.743   4.122   1.140  1.00 20.00     0.102 HD
ENDBRANCH   4  10
TORSDOF 2
ENDMDL
MODEL 6
REMARK VINA RESULT:       2.4      1.591      3.153
REMARK  2 active torsions:
REMARK  status: ('A' for Active; 'I' for Inactive)
REMARK    1  A    between atoms: C4_4  and  S10_10 
REMARK    2  A    between atoms: C5_5  and  C8_8 
ROOT
HETATM    1  C1  UNL     1     -33.882   7.483   3.763  1.00 20.00     0.041 C 
HETATM    2  C2  UNL     1     -33.456   5.214   2.792  1.00 20.00     0.052 C 
HETATM    3  C3  UNL     1     -33.081   8.066   2.606  1.00 20.00     0.170 C 
HETATM    4  C4  UNL     1     -34.522   6.159   3.351  1.00 20.00     0.049 C 
HETATM    5  C5  UNL     1     -32.618   5.880   1.681  1.00 20.00     0.058 C 
HETATM    6  C6  UNL     1     -33.414   6.050   0.378  1.00 20.00     0.046 C 
HETATM    7  O9  UNL     1     -32.104   7.143   2.131  1.00 20.00    -0.381 OA
ENDROOT
BRANCH   5   8
HETATM    8  C8  UNL     1     -31.391   5.008   1.383  1.00 20.00     0.033 C 
HETATM    9  C7  UNL     1     -31.563   4.241   0.118  1.00 20.00     0.008 C 
ENDBRANCH   5   8
BRANCH   4  10
HETATM   10  S10 UNL     1     -35.361   5.390   4.777  1.00 20.00    -0.177 SA
HETATM   11  H26 UNL     1     -34.242   4.951   5.369  1.00 20.00     0.102 HD
ENDBRANCH   4  10
TORSDOF 2
ENDMDL
MODEL 7
REMARK VINA RESULT:       2.5      2.438      3.689
REMARK  2 active torsions:
REMARK  status: ('A' for Active; 'I' for Inactive)
REMARK    1  A    between atoms: C4_4  and  S10_10 
REMARK    2  A    between atoms: C5_5  and  C8_8 
ROOT
HETATM    1  C1  UNL     1     -32.251   6.193   1.411  1.00 20.00     0.041 C 
HETATM    2  C2  UNL     1     -33.188   8.057   2.797  1.00 20.00     0.052 C 
HETATM    3  C3  UNL     1     -33.189   5.248   2.151  1.00 20.00     0.170 C 
HETATM    4  C4  UNL     1     -32.837   7.603   1.378  1.00 20.00     0.049 C 
HETATM    5  C5  UNL     1     -34.070   7.026   3.532  1.00 20.00     0.058 C 
HETATM    6  C6  UNL     1     -35.507   6.999   2.988  1.00 20.00     0.046 C 
HETATM    7  O9  UNL     1     -33.476   5.721   3.465  1.00 20.00    -0.381 OA
ENDROOT
BRANCH   5   8
HETATM    8  C8  UNL     1     -34.128   7.386   5.023  1.00 20.00     0.033 C 
HETATM    9  C7  UNL     1     -33.072   8.371   5.387  1.00 20.00     0.008 C 
ENDBRANCH   5   8
BRANCH   4  10
HETATM   10  S10 UNL     1     -31.652   8.764   0.619  1.00 20.00    -0.177 SA
HETATM   11  H26 UNL     1     -32.226   8.767  -0.591  1.00 20.00     0.102 HD
ENDBRANCH   4  10
TORSDOF 2
ENDMDL
MODEL 8
REMARK VINA RESULT:       2.6      1.498      2.298
REMARK  2 active torsions:
REMARK  status: ('A' for Active; 'I' for Inactive)
REMARK    1  A    between atoms: C4_4  and  S10_10 
REMARK    2  A    between atoms: C5_5  and  C8_8 
ROOT
HETATM    1  C1  UNL     1     -33.317   7.674   4.870  1.00 20.00     0.041 C 
HETATM    2  C2  UNL     1     -33.394   7.038   2.448  1.00 20.00     0.052 C 
HETATM    3  C3  UNL     1     -32.331   8.772   4.492  1.00 20.00     0.170 C 
HETATM    4  C4  UNL     1     -34.232   7.353   3.690  1.00 20.00     0.049 C 
HETATM    5  C5  UNL     1     -32.355   8.141   2.158  1.00 20.00     0.058 C 
HETATM    6  C6  UNL     1     -33.006   9.424   1.618  1.00 20.00     0.046 C 
HETATM    7  O9  UNL     1     -31.578   8.420   3.333  1.00 20.00    -0.381 OA
ENDROOT
BRANCH   5   8
HETATM    8  C8  UNL     1     -31.358   7.631   1.108  1.00 20.00     0.033 C 
HETATM    9  C7  UNL     1     -31.206   8.599  -0.014  1.00 20.00     0.008 C 
ENDBRANCH   5   8
BRANCH   4  10
HETATM   10  S10 UNL     1     -35.316   5.942   4.093  1.00 20.00    -0.177 SA
HETATM   11  H26 UNL     1     -35.146   5.307   2.926  1.00 20.00     0.102 HD
ENDBRANCH   4  10
TORSDOF 2
ENDMDL
MODEL 9
REMARK VINA RESULT:       2.9      2.542      4.183
REMARK  2 active torsions:
REMARK  status: ('A' for Active; 'I' for Inactive)
REMARK    1  A    between atoms: C4_4  and  S10_10 
REMARK    2  A    between atoms: C5_5  and  C8_8 
ROOT
HETATM    1  C1  UNL     1     -31.972   8.893   3.091  1.00 20.00     0.041 C 
HETATM    2  C2  UNL     1     -33.630   7.373   1.990  1.00 20.00     0.052 C 
HETATM    3  C3  UNL     1     -32.253   8.159   4.397  1.00 20.00     0.170 C 
HETATM    4  C4  UNL     1     -32.224   7.971   1.900  1.00 20.00     0.049 C 
HETATM    5  C5  UNL     1     -33.892   6.716   3.361  1.00 20.00     0.058 C 
HETATM    6  C6  UNL     1     -33.121   5.397   3.529  1.00 20.00     0.046 C 
HETATM    7  O9  UNL     1     -33.576   7.629   4.422  1.00 20.00    -0.381 OA
ENDROOT
BRANCH   5   8
HETATM    8  C8  UNL     1     -35.391   6.415   3.497  1.00 20.00     0.033 C 
HETATM    9  C7  UNL     1     -35.641   5.324   4.481  1.00 20.00     0.008 C 
ENDBRANCH   5   8
BRANCH   4  10
HETATM   10  S10 UNL     1     -32.028   8.889   0.336  1.00 20.00    -0.177 SA
HETATM   11  H26 UNL     1     -30.696   8.755   0.270  1.00 20.00     0.102 HD
ENDBRANCH   4  10
TORSDOF 2
ENDMDL
