MODEL 1
REMARK VINA RESULT:       1.8      0.000      0.000
REMARK  0 active torsions:
REMARK  status: ('A' for Active; 'I' for Inactive)
ROOT
HETATM    1  C1  UNL     1     -32.415   9.227   0.735  1.00 20.00     0.085 C 
HETATM    2  C2  UNL     1     -32.094   6.816   1.145  1.00 20.00     0.067 C 
HETATM    3  C3  UNL     1     -33.741   8.136   2.514  1.00 20.00     0.078 C 
HETATM    4  C4  UNL     1     -32.299   5.674   2.131  1.00 20.00     0.171 C 
HETATM    5  C5  UNL     1     -32.393   8.182   1.775  1.00 20.00     0.130 C 
HETATM    6  C6  UNL     1     -33.988   6.871   3.371  1.00 20.00     0.056 C 
HETATM    7  C7  UNL     1     -35.501   6.748   3.630  1.00 20.00     0.045 C 
HETATM    8  C8  UNL     1     -33.293   6.911   4.740  1.00 20.00     0.045 C 
HETATM    9  N9  UNL     1     -32.433  10.050  -0.083  1.00 20.00    -0.195 NA
HETATM   10  O10 UNL     1     -33.623   5.684   2.655  1.00 20.00    -0.381 OA
HETATM   11 CL11 UNL     1     -31.065   8.655   2.887  1.00 20.00    -0.103 Cl
ENDROOT
TORSDOF 0
ENDMDL
MODEL 2
REMARK VINA RESULT:       3.7      2.602      3.204
REMARK  0 active torsions:
REMARK  status: ('A' for Active; 'I' for Inactive)
ROOT
HETATM    1  C1  UNL     1     -31.936   5.080   1.022  1.00 20.00     0.085 C 
HETATM    2  C2  UNL     1     -32.220   7.220   2.215  1.00 20.00     0.067 C 
HETATM    3  C3  UNL     1     -33.791   5.301   2.642  1.00 20.00     0.078 C 
HETATM    4  C4  UNL     1     -33.176   8.088   3.021  1.00 20.00     0.171 C 
HETATM    5  C5  UNL     1     -32.928   6.014   1.586  1.00 20.00     0.130 C 
HETATM    6  C6  UNL     1     -34.619   6.230   3.562  1.00 20.00     0.056 C 
HETATM    7  C7  UNL     1     -35.017   5.438   4.821  1.00 20.00     0.045 C 
HETATM    8  C8  UNL     1     -35.915   6.741   2.916  1.00 20.00     0.045 C 
HETATM    9  N9  UNL     1     -31.156   4.344   0.578  1.00 20.00    -0.195 NA
HETATM   10  O10 UNL     1     -33.826   7.327   4.035  1.00 20.00    -0.381 OA
HETATM   11 CL11 UNL     1     -33.925   6.540   0.189  1.00 20.00    -0.103 Cl
ENDROOT
TORSDOF 0
ENDMDL
MODEL 3
REMARK VINA RESULT:       4.1      2.535      3.672
REMARK  0 active torsions:
REMARK  status: ('A' for Active; 'I' for Inactive)
ROOT
HETATM    1  C1  UNL     1     -33.373   4.782   0.349  1.00 20.00     0.085 C 
HETATM    2  C2  UNL     1     -33.815   5.883   2.512  1.00 20.00     0.067 C 
HETATM    3  C3  UNL     1     -32.542   7.084   0.704  1.00 20.00     0.078 C 
HETATM    4  C4  UNL     1     -33.413   7.015   3.447  1.00 20.00     0.171 C 
HETATM    5  C5  UNL     1     -32.828   5.717   1.350  1.00 20.00     0.130 C 
HETATM    6  C6  UNL     1     -32.311   8.252   1.692  1.00 20.00     0.056 C 
HETATM    7  C7  UNL     1     -32.526   9.577   0.936  1.00 20.00     0.045 C 
HETATM    8  C8  UNL     1     -30.893   8.288   2.281  1.00 20.00     0.045 C 
HETATM    9  N9  UNL     1     -33.803   4.047  -0.439  1.00 20.00    -0.195 NA
HETATM   10  O10 UNL     1     -33.291   8.244   2.737  1.00 20.00    -0.381 OA
HETATM   11 CL11 UNL     1     -31.311   4.951   1.930  1.00 20.00    -0.103 Cl
ENDROOT
TORSDOF 0
ENDMDL
MODEL 4
REMARK VINA RESULT:       4.5      3.087      4.062
REMARK  0 active torsions:
REMARK  status: ('A' for Active; 'I' for Inactive)
ROOT
HETATM    1  C1  UNL     1     -34.680   5.323   4.113  1.00 20.00     0.085 C 
HETATM    2  C2  UNL     1     -33.318   5.318   2.057  1.00 20.00     0.067 C 
HETATM    3  C3  UNL     1     -33.281   7.298   3.609  1.00 20.00     0.078 C 
HETATM    4  C4  UNL     1     -32.548   6.175   1.062  1.00 20.00     0.171 C 
HETATM    5  C5  UNL     1     -34.147   6.167   3.028  1.00 20.00     0.130 C 
HETATM    6  C6  UNL     1     -32.376   8.034   2.592  1.00 20.00     0.056 C 
HETATM    7  C7  UNL     1     -31.261   8.759   3.369  1.00 20.00     0.045 C 
HETATM    8  C8  UNL     1     -33.117   9.093   1.763  1.00 20.00     0.045 C 
HETATM    9  N9  UNL     1     -35.100   4.659   4.967  1.00 20.00    -0.195 NA
HETATM   10  O10 UNL     1     -31.702   7.103   1.734  1.00 20.00    -0.381 OA
HETATM   11 CL11 UNL     1     -35.592   6.829   2.194  1.00 20.00    -0.103 Cl
ENDROOT
TORSDOF 0
ENDMDL
MODEL 5
REMARK VINA RESULT:       4.6      2.757      3.901
REMARK  0 active torsions:
REMARK  status: ('A' for Active; 'I' for Inactive)
ROOT
HETATM    1  C1  UNL     1     -34.013   7.732   4.639  1.00 20.00     0.085 C 
HETATM    2  C2  UNL     1     -34.035   5.282   4.353  1.00 20.00     0.067 C 
HETATM    3  C3  UNL     1     -33.121   6.772   2.542  1.00 20.00     0.078 C 
HETATM    4  C4  UNL     1     -33.948   4.136   3.354  1.00 20.00     0.171 C 
HETATM    5  C5  UNL     1     -34.172   6.642   3.658  1.00 20.00     0.130 C 
HETATM    6  C6  UNL     1     -32.936   5.518   1.654  1.00 20.00     0.056 C 
HETATM    7  C7  UNL     1     -31.573   5.622   0.945  1.00 20.00     0.045 C 
HETATM    8  C8  UNL     1     -34.008   5.374   0.563  1.00 20.00     0.045 C 
HETATM    9  N9  UNL     1     -33.887   8.590   5.410  1.00 20.00    -0.195 NA
HETATM   10  O10 UNL     1     -32.865   4.328   2.450  1.00 20.00    -0.381 OA
HETATM   11 CL11 UNL     1     -35.832   6.839   3.004  1.00 20.00    -0.103 Cl
ENDROOT
TORSDOF 0
ENDMDL
MODEL 6
REMARK VINA RESULT:       4.6      2.730      4.026
REMARK  0 active torsions:
REMARK  status: ('A' for Active; 'I' for Inactive)
ROOT
HETATM    1  C1  UNL     1     -34.366   6.705   3.266  1.00 20.00     0.085 C 
HETATM    2  C2  UNL     1     -32.201   7.824   3.646  1.00 20.00     0.067 C 
HETATM    3  C3  UNL     1     -33.469   8.188   1.503  1.00 20.00     0.078 C 
HETATM    4  C4  UNL     1     -31.029   8.542   2.990  1.00 20.00     0.171 C 
HETATM    5  C5  UNL     1     -33.132   7.178   2.613  1.00 20.00     0.130 C 
HETATM    6  C6  UNL     1     -32.277   9.027   0.982  1.00 20.00     0.056 C 
HETATM    7  C7  UNL     1     -32.834  10.274   0.271  1.00 20.00     0.045 C 
HETATM    8  C8  UNL     1     -31.395   8.281  -0.031  1.00 20.00     0.045 C 
HETATM    9  N9  UNL     1     -35.338   6.334   3.780  1.00 20.00    -0.195 NA
HETATM   10  O10 UNL     1     -31.485   9.526   2.067  1.00 20.00    -0.381 OA
HETATM   11 CL11 UNL     1     -32.369   5.703   1.930  1.00 20.00    -0.103 Cl
ENDROOT
TORSDOF 0
ENDMDL
MODEL 7
REMARK VINA RESULT:       4.6      2.702      3.989
REMARK  0 active torsions:
REMARK  status: ('A' for Active; 'I' for Inactive)
ROOT
HETATM    1  C1  UNL     1     -35.637   6.615   3.275  1.00 20.00     0.085 C 
HETATM    2  C2  UNL     1     -33.762   7.730   4.426  1.00 20.00     0.067 C 
HETATM    3  C3  UNL     1     -33.713   7.395   1.933  1.00 20.00     0.078 C 
HETATM    4  C4  UNL     1     -32.302   8.151   4.326  1.00 20.00     0.171 C 
HETATM    5  C5  UNL     1     -34.175   6.804   3.275  1.00 20.00     0.130 C 
HETATM    6  C6  UNL     1     -32.278   7.975   1.918  1.00 20.00     0.056 C 
HETATM    7  C7  UNL     1     -32.151   8.929   0.716  1.00 20.00     0.045 C 
HETATM    8  C8  UNL     1     -31.185   6.907   1.770  1.00 20.00     0.045 C 
HETATM    9  N9  UNL     1     -36.788   6.467   3.274  1.00 20.00    -0.195 NA
HETATM   10  O10 UNL     1     -32.038   8.784   3.077  1.00 20.00    -0.381 OA
HETATM   11 CL11 UNL     1     -33.490   5.163   3.524  1.00 20.00    -0.103 Cl
ENDROOT
TORSDOF 0
ENDMDL
