MODEL 1
REMARK VINA RESULT:      -0.3      0.000      0.000
REMARK  2 active torsions:
REMARK  status: ('A' for Active; 'I' for Inactive)
REMARK    1  A    between atoms: C4_4  and  O10_10 
REMARK    2  A    between atoms: C5_5  and  C8_8 
ROOT
HETATM    1  C1  UNL     1     -33.688   5.407   2.666  1.00 20.00     0.058 C 
HETATM    2  C2  UNL     1     -33.193   7.765   3.321  1.00 20.00     0.069 C 
HETATM    3  C3  UNL     1     -32.793   5.611   1.456  1.00 20.00     0.171 C 
HETATM    4  C4  UNL     1     -34.295   6.730   3.117  1.00 20.00     0.123 C 
HETATM    5  C5  UNL     1     -32.254   7.883   2.104  1.00 20.00     0.059 C 
HETATM    6  C6  UNL     1     -31.029   8.687   2.497  1.00 20.00     0.046 C 
HETATM    7  O9  UNL     1     -31.782   6.584   1.713  1.00 20.00    -0.380 OA
ENDROOT
BRANCH   5   8
HETATM    8  C8  UNL     1     -32.941   8.584   0.919  1.00 20.00     0.033 C 
HETATM    9  C7  UNL     1     -32.149   9.755   0.447  1.00 20.00     0.008 C 
ENDBRANCH   5   8
BRANCH   4  10
HETATM   10  O10 UNL     1     -34.994   6.551   4.343  1.00 20.00    -0.395 OA
HETATM   11  H26 UNL     1     -35.900   6.291   4.113  1.00 20.00     0.210 HD
ENDBRANCH   4  10
TORSDOF 2
ENDMDL
MODEL 2
REMARK VINA RESULT:       0.9      1.661      3.882
REMARK  2 active torsions:
REMARK  status: ('A' for Active; 'I' for Inactive)
REMARK    1  A    between atoms: C4_4  and  O10_10 
REMARK    2  A    between atoms: C5_5  and  C8_8 
ROOT
HETATM    1  C1  UNL     1     -32.140   7.259   1.485  1.00 20.00     0.058 C 
HETATM    2  C2  UNL     1     -33.418   7.556   3.610  1.00 20.00     0.069 C 
HETATM    3  C3  UNL     1     -32.736   5.866   1.383  1.00 20.00     0.171 C 
HETATM    4  C4  UNL     1     -32.055   7.704   2.939  1.00 20.00     0.123 C 
HETATM    5  C5  UNL     1     -34.029   6.154   3.412  1.00 20.00     0.059 C 
HETATM    6  C6  UNL     1     -35.487   6.184   3.830  1.00 20.00     0.046 C 
HETATM    7  O9  UNL     1     -34.009   5.795   2.021  1.00 20.00    -0.380 OA
ENDROOT
BRANCH   5   8
HETATM    8  C8  UNL     1     -33.300   5.091   4.251  1.00 20.00     0.033 C 
HETATM    9  C7  UNL     1     -33.985   3.769   4.169  1.00 20.00     0.008 C 
ENDBRANCH   5   8
BRANCH   4  10
HETATM   10  O10 UNL     1     -31.652   9.067   3.008  1.00 20.00    -0.395 OA
HETATM   11  H26 UNL     1     -30.688   9.079   2.896  1.00 20.00     0.210 HD
ENDBRANCH   4  10
TORSDOF 2
ENDMDL
MODEL 3
REMARK VINA RESULT:       1.0      1.768      3.001
REMARK  2 active torsions:
REMARK  status: ('A' for Active; 'I' for Inactive)
REMARK    1  A    between atoms: C4_4  and  O10_10 
REMARK    2  A    between atoms: C5_5  and  C8_8 
ROOT
HETATM    1  C1  UNL     1     -35.133   4.922   4.490  1.00 20.00     0.058 C 
HETATM    2  C2  UNL     1     -33.222   4.767   2.890  1.00 20.00     0.069 C 
HETATM    3  C3  UNL     1     -35.362   6.340   3.997  1.00 20.00     0.171 C 
HETATM    4  C4  UNL     1     -33.672   4.524   4.327  1.00 20.00     0.123 C 
HETATM    5  C5  UNL     1     -33.548   6.191   2.397  1.00 20.00     0.059 C 
HETATM    6  C6  UNL     1     -33.357   6.253   0.894  1.00 20.00     0.046 C 
HETATM    7  O9  UNL     1     -34.928   6.501   2.648  1.00 20.00    -0.380 OA
ENDROOT
BRANCH   5   8
HETATM    8  C8  UNL     1     -32.634   7.243   3.051  1.00 20.00     0.033 C 
HETATM    9  C7  UNL     1     -31.960   8.090   2.026  1.00 20.00     0.008 C 
ENDBRANCH   5   8
BRANCH   4  10
HETATM   10  O10 UNL     1     -33.507   3.145   4.636  1.00 20.00    -0.395 OA
HETATM   11  H26 UNL     1     -33.547   3.068   5.602  1.00 20.00     0.210 HD
ENDBRANCH   4  10
TORSDOF 2
ENDMDL
MODEL 4
REMARK VINA RESULT:       1.2      1.361      2.560
REMARK  2 active torsions:
REMARK  status: ('A' for Active; 'I' for Inactive)
REMARK    1  A    between atoms: C4_4  and  O10_10 
REMARK    2  A    between atoms: C5_5  and  C8_8 
ROOT
HETATM    1  C1  UNL     1     -33.877   7.700   4.668  1.00 20.00     0.058 C 
HETATM    2  C2  UNL     1     -34.025   7.260   2.214  1.00 20.00     0.069 C 
HETATM    3  C3  UNL     1     -32.445   8.158   4.446  1.00 20.00     0.171 C 
HETATM    4  C4  UNL     1     -34.291   6.691   3.605  1.00 20.00     0.123 C 
HETATM    5  C5  UNL     1     -32.586   7.792   2.055  1.00 20.00     0.059 C 
HETATM    6  C6  UNL     1     -32.496   8.606   0.778  1.00 20.00     0.046 C 
HETATM    7  O9  UNL     1     -32.263   8.684   3.134  1.00 20.00    -0.380 OA
ENDROOT
BRANCH   5   8
HETATM    8  C8  UNL     1     -31.561   6.648   1.979  1.00 20.00     0.033 C 
HETATM    9  C7  UNL     1     -32.091   5.493   1.200  1.00 20.00     0.008 C 
ENDBRANCH   5   8
BRANCH   4  10
HETATM   10  O10 UNL     1     -35.678   6.399   3.726  1.00 20.00    -0.395 OA
HETATM   11  H26 UNL     1     -35.773   5.440   3.613  1.00 20.00     0.210 HD
ENDBRANCH   4  10
TORSDOF 2
ENDMDL
MODEL 5
REMARK VINA RESULT:       1.5      1.557      3.466
REMARK  2 active torsions:
REMARK  status: ('A' for Active; 'I' for Inactive)
REMARK    1  A    between atoms: C4_4  and  O10_10 
REMARK    2  A    between atoms: C5_5  and  C8_8 
ROOT
HETATM    1  C1  UNL     1     -32.001   6.739   1.105  1.00 20.00     0.058 C 
HETATM    2  C2  UNL     1     -33.678   8.074   2.387  1.00 20.00     0.069 C 
HETATM    3  C3  UNL     1     -32.258   5.592   2.067  1.00 20.00     0.171 C 
HETATM    4  C4  UNL     1     -32.279   8.078   1.777  1.00 20.00     0.123 C 
HETATM    5  C5  UNL     1     -33.930   6.850   3.289  1.00 20.00     0.059 C 
HETATM    6  C6  UNL     1     -35.411   6.758   3.600  1.00 20.00     0.046 C 
HETATM    7  O9  UNL     1     -33.581   5.641   2.596  1.00 20.00    -0.380 OA
ENDROOT
BRANCH   5   8
HETATM    8  C8  UNL     1     -33.156   6.951   4.615  1.00 20.00     0.033 C 
HETATM    9  C7  UNL     1     -33.263   8.315   5.206  1.00 20.00     0.008 C 
ENDBRANCH   5   8
BRANCH   4  10
HETATM   10  O10 UNL     1     -32.196   9.128   0.820  1.00 20.00    -0.395 OA
HETATM   11  H26 UNL     1     -32.574   8.785  -0.005  1.00 20.00     0.210 HD
ENDBRANCH   4  10
TORSDOF 2
ENDMDL
MODEL 6
REMARK VINA RESULT:       1.6      1.600      3.381
REMARK  2 active torsions:
REMARK  status: ('A' for Active; 'I' for Inactive)
REMARK    1  A    between atoms: C4_4  and  O10_10 
REMARK    2  A    between atoms: C5_5  and  C8_8 
ROOT
HETATM    1  C1  UNL     1     -31.954   7.246   1.001  1.00 20.00     0.058 C 
HETATM    2  C2  UNL     1     -32.742   6.141   3.098  1.00 20.00     0.069 C 
HETATM    3  C3  UNL     1     -32.609   8.526   1.492  1.00 20.00     0.171 C 
HETATM    4  C4  UNL     1     -32.658   6.025   1.579  1.00 20.00     0.123 C 
HETATM    5  C5  UNL     1     -33.334   7.489   3.559  1.00 20.00     0.059 C 
HETATM    6  C6  UNL     1     -33.100   7.650   5.049  1.00 20.00     0.046 C 
HETATM    7  O9  UNL     1     -32.652   8.577   2.916  1.00 20.00    -0.380 OA
ENDROOT
BRANCH   5   8
HETATM    8  C8  UNL     1     -34.846   7.569   3.289  1.00 20.00     0.033 C 
HETATM    9  C7  UNL     1     -35.563   6.392   3.856  1.00 20.00     0.008 C 
ENDBRANCH   5   8
BRANCH   4  10
HETATM   10  O10 UNL     1     -31.935   4.845   1.246  1.00 20.00    -0.395 OA
HETATM   11  H26 UNL     1     -31.478   5.025   0.409  1.00 20.00     0.210 HD
ENDBRANCH   4  10
TORSDOF 2
ENDMDL
MODEL 7
REMARK VINA RESULT:       1.7      1.201      3.127
REMARK  2 active torsions:
REMARK  status: ('A' for Active; 'I' for Inactive)
REMARK    1  A    between atoms: C4_4  and  O10_10 
REMARK    2  A    between atoms: C5_5  and  C8_8 
ROOT
HETATM    1  C1  UNL     1     -32.656   8.486   2.970  1.00 20.00     0.058 C 
HETATM    2  C2  UNL     1     -33.875   6.336   2.610  1.00 20.00     0.069 C 
HETATM    3  C3  UNL     1     -31.747   8.102   1.815  1.00 20.00     0.171 C 
HETATM    4  C4  UNL     1     -33.220   7.243   3.647  1.00 20.00     0.123 C 
HETATM    5  C5  UNL     1     -32.951   6.039   1.412  1.00 20.00     0.059 C 
HETATM    6  C6  UNL     1     -33.766   5.403   0.302  1.00 20.00     0.046 C 
HETATM    7  O9  UNL     1     -32.418   7.262   0.880  1.00 20.00    -0.380 OA
ENDROOT
BRANCH   5   8
HETATM    8  C8  UNL     1     -31.811   5.079   1.795  1.00 20.00     0.033 C 
HETATM    9  C7  UNL     1     -31.272   4.369   0.600  1.00 20.00     0.008 C 
ENDBRANCH   5   8
BRANCH   4  10
HETATM   10  O10 UNL     1     -34.194   7.617   4.614  1.00 20.00    -0.395 OA
HETATM   11  H26 UNL     1     -34.699   6.816   4.826  1.00 20.00     0.210 HD
ENDBRANCH   4  10
TORSDOF 2
ENDMDL
MODEL 8
REMARK VINA RESULT:       1.8      1.554      3.848
REMARK  2 active torsions:
REMARK  status: ('A' for Active; 'I' for Inactive)
REMARK    1  A    between atoms: C4_4  and  O10_10 
REMARK    2  A    between atoms: C5_5  and  C8_8 
ROOT
HETATM    1  C1  UNL     1     -31.180   9.186   0.740  1.00 20.00     0.058 C 
HETATM    2  C2  UNL     1     -33.263   7.815   0.592  1.00 20.00     0.069 C 
HETATM    3  C3  UNL     1     -30.823   8.411   1.997  1.00 20.00     0.171 C 
HETATM    4  C4  UNL     1     -32.690   9.229   0.544  1.00 20.00     0.123 C 
HETATM    5  C5  UNL     1     -32.809   7.032   1.840  1.00 20.00     0.059 C 
HETATM    6  C6  UNL     1     -33.158   5.567   1.661  1.00 20.00     0.046 C 
HETATM    7  O9  UNL     1     -31.381   7.100   1.977  1.00 20.00    -0.380 OA
ENDROOT
BRANCH   5   8
HETATM    8  C8  UNL     1     -33.496   7.546   3.117  1.00 20.00     0.033 C 
HETATM    9  C7  UNL     1     -34.473   6.553   3.647  1.00 20.00     0.008 C 
ENDBRANCH   5   8
BRANCH   4  10
HETATM   10  O10 UNL     1     -33.001   9.810  -0.717  1.00 20.00    -0.395 OA
HETATM   11  H26 UNL     1     -32.669   9.200  -1.394  1.00 20.00     0.210 HD
ENDBRANCH   4  10
TORSDOF 2
ENDMDL
MODEL 9
REMARK VINA RESULT:       2.0      1.677      3.262
REMARK  2 active torsions:
REMARK  status: ('A' for Active; 'I' for Inactive)
REMARK    1  A    between atoms: C4_4  and  O10_10 
REMARK    2  A    between atoms: C5_5  and  C8_8 
ROOT
HETATM    1  C1  UNL     1     -33.355   7.464   3.753  1.00 20.00     0.058 C 
HETATM    2  C2  UNL     1     -31.883   6.960   1.800  1.00 20.00     0.069 C 
HETATM    3  C3  UNL     1     -34.233   6.302   3.323  1.00 20.00     0.171 C 
HETATM    4  C4  UNL     1     -32.624   8.059   2.556  1.00 20.00     0.123 C 
HETATM    5  C5  UNL     1     -32.788   5.760   1.456  1.00 20.00     0.059 C 
HETATM    6  C6  UNL     1     -31.924   4.603   0.992  1.00 20.00     0.046 C 
HETATM    7  O9  UNL     1     -33.482   5.309   2.629  1.00 20.00    -0.380 OA
ENDROOT
BRANCH   5   8
HETATM    8  C8  UNL     1     -33.788   6.103   0.338  1.00 20.00     0.033 C 
HETATM    9  C7  UNL     1     -34.233   4.879  -0.388  1.00 20.00     0.008 C 
ENDBRANCH   5   8
BRANCH   4  10
HETATM   10  O10 UNL     1     -31.684   9.032   2.995  1.00 20.00    -0.395 OA
HETATM   11  H26 UNL     1     -31.027   9.125   2.287  1.00 20.00     0.210 HD
ENDBRANCH   4  10
TORSDOF 2
ENDMDL
