MODEL 1
REMARK VINA RESULT:       0.6      0.000      0.000
REMARK  0 active torsions:
REMARK  status: ('A' for Active; 'I' for Inactive)
ROOT
HETATM    1  C1  UNL     1     -32.359   9.782   0.440  1.00 20.00     0.088 C 
HETATM    2  C2  UNL     1     -32.223   7.619   1.491  1.00 20.00    -0.065 C 
HETATM    3  C3  UNL     1     -32.200   8.375   0.385  1.00 20.00     0.096 C 
HETATM    4  C4  UNL     1     -32.059   6.126   1.474  1.00 20.00     0.061 C 
HETATM    5  C5  UNL     1     -32.440   8.182   2.871  1.00 20.00     0.072 C 
HETATM    6  C6  UNL     1     -33.219   5.478   2.221  1.00 20.00     0.173 C 
HETATM    7  C7  UNL     1     -33.581   7.437   3.593  1.00 20.00     0.057 C 
HETATM    8  C8  UNL     1     -34.963   7.797   3.024  1.00 20.00     0.046 C 
HETATM    9  C9  UNL     1     -33.560   7.807   5.083  1.00 20.00     0.046 C 
HETATM   10  N10 UNL     1     -32.489  10.936   0.478  1.00 20.00    -0.192 NA
HETATM   11  O11 UNL     1     -33.359   6.014   3.539  1.00 20.00    -0.380 OA
ENDROOT
TORSDOF 0
ENDMDL
MODEL 2
REMARK VINA RESULT:       0.7      2.818      4.373
REMARK  0 active torsions:
REMARK  status: ('A' for Active; 'I' for Inactive)
ROOT
HETATM    1  C1  UNL     1     -35.225   5.966   4.297  1.00 20.00     0.088 C 
HETATM    2  C2  UNL     1     -33.343   7.086   3.295  1.00 20.00    -0.065 C 
HETATM    3  C3  UNL     1     -34.499   7.138   3.970  1.00 20.00     0.096 C 
HETATM    4  C4  UNL     1     -32.545   8.306   2.930  1.00 20.00     0.061 C 
HETATM    5  C5  UNL     1     -32.728   5.801   2.808  1.00 20.00     0.072 C 
HETATM    6  C6  UNL     1     -32.259   8.296   1.432  1.00 20.00     0.173 C 
HETATM    7  C7  UNL     1     -32.403   5.886   1.303  1.00 20.00     0.057 C 
HETATM    8  C8  UNL     1     -33.668   5.831   0.430  1.00 20.00     0.046 C 
HETATM    9  C9  UNL     1     -31.499   4.706   0.916  1.00 20.00     0.046 C 
HETATM   10  N10 UNL     1     -35.825   5.009   4.568  1.00 20.00    -0.192 NA
HETATM   11  O11 UNL     1     -31.638   7.075   1.024  1.00 20.00    -0.380 OA
ENDROOT
TORSDOF 0
ENDMDL
MODEL 3
REMARK VINA RESULT:       3.0      2.543      3.338
REMARK  0 active torsions:
REMARK  status: ('A' for Active; 'I' for Inactive)
ROOT
HETATM    1  C1  UNL     1     -31.946   5.172   0.690  1.00 20.00     0.088 C 
HETATM    2  C2  UNL     1     -32.579   6.995   2.131  1.00 20.00    -0.065 C 
HETATM    3  C3  UNL     1     -31.636   6.322   1.458  1.00 20.00     0.096 C 
HETATM    4  C4  UNL     1     -32.291   8.217   2.956  1.00 20.00     0.061 C 
HETATM    5  C5  UNL     1     -34.028   6.587   2.153  1.00 20.00     0.072 C 
HETATM    6  C6  UNL     1     -32.848   8.025   4.362  1.00 20.00     0.173 C 
HETATM    7  C7  UNL     1     -34.543   6.476   3.603  1.00 20.00     0.057 C 
HETATM    8  C8  UNL     1     -33.988   5.238   4.326  1.00 20.00     0.046 C 
HETATM    9  C9  UNL     1     -36.076   6.379   3.586  1.00 20.00     0.046 C 
HETATM   10  N10 UNL     1     -32.192   4.229   0.059  1.00 20.00    -0.192 NA
HETATM   11  O11 UNL     1     -34.235   7.680   4.334  1.00 20.00    -0.380 OA
ENDROOT
TORSDOF 0
ENDMDL
MODEL 4
REMARK VINA RESULT:       3.3      2.702      3.911
REMARK  0 active torsions:
REMARK  status: ('A' for Active; 'I' for Inactive)
ROOT
HETATM    1  C1  UNL     1     -34.788   5.825   3.872  1.00 20.00     0.088 C 
HETATM    2  C2  UNL     1     -33.178   5.891   2.082  1.00 20.00    -0.065 C 
HETATM    3  C3  UNL     1     -33.767   5.231   3.088  1.00 20.00     0.096 C 
HETATM    4  C4  UNL     1     -32.093   5.297   1.229  1.00 20.00     0.061 C 
HETATM    5  C5  UNL     1     -33.522   7.308   1.710  1.00 20.00     0.072 C 
HETATM    6  C6  UNL     1     -30.889   6.231   1.213  1.00 20.00     0.173 C 
HETATM    7  C7  UNL     1     -32.252   8.181   1.648  1.00 20.00     0.057 C 
HETATM    8  C8  UNL     1     -31.684   8.486   3.044  1.00 20.00     0.046 C 
HETATM    9  C9  UNL     1     -32.590   9.514   0.963  1.00 20.00     0.046 C 
HETATM   10  N10 UNL     1     -35.624   6.306   4.518  1.00 20.00    -0.192 NA
HETATM   11  O11 UNL     1     -31.257   7.554   0.815  1.00 20.00    -0.380 OA
ENDROOT
TORSDOF 0
ENDMDL
MODEL 5
REMARK VINA RESULT:       3.3      3.043      4.185
REMARK  0 active torsions:
REMARK  status: ('A' for Active; 'I' for Inactive)
ROOT
HETATM    1  C1  UNL     1     -33.331   3.703   3.972  1.00 20.00     0.088 C 
HETATM    2  C2  UNL     1     -32.994   5.538   2.449  1.00 20.00    -0.065 C 
HETATM    3  C3  UNL     1     -32.636   4.331   2.908  1.00 20.00     0.096 C 
HETATM    4  C4  UNL     1     -32.283   6.237   1.325  1.00 20.00     0.061 C 
HETATM    5  C5  UNL     1     -34.132   6.336   3.025  1.00 20.00     0.072 C 
HETATM    6  C6  UNL     1     -31.881   7.638   1.770  1.00 20.00     0.173 C 
HETATM    7  C7  UNL     1     -33.672   7.762   3.391  1.00 20.00     0.057 C 
HETATM    8  C8  UNL     1     -32.777   7.783   4.641  1.00 20.00     0.046 C 
HETATM    9  C9  UNL     1     -34.905   8.635   3.665  1.00 20.00     0.046 C 
HETATM   10  N10 UNL     1     -33.895   3.182   4.843  1.00 20.00    -0.192 NA
HETATM   11  O11 UNL     1     -33.001   8.372   2.270  1.00 20.00    -0.380 OA
ENDROOT
TORSDOF 0
ENDMDL
MODEL 6
REMARK VINA RESULT:       3.5      3.392      4.940
REMARK  0 active torsions:
REMARK  status: ('A' for Active; 'I' for Inactive)
ROOT
HETATM    1  C1  UNL     1     -33.465   3.207   4.502  1.00 20.00     0.088 C 
HETATM    2  C2  UNL     1     -34.287   5.442   4.140  1.00 20.00    -0.065 C 
HETATM    3  C3  UNL     1     -34.501   4.175   4.518  1.00 20.00     0.096 C 
HETATM    4  C4  UNL     1     -35.357   6.496   4.143  1.00 20.00     0.061 C 
HETATM    5  C5  UNL     1     -32.955   5.943   3.648  1.00 20.00     0.072 C 
HETATM    6  C6  UNL     1     -35.424   7.157   2.771  1.00 20.00     0.173 C 
HETATM    7  C7  UNL     1     -33.107   6.658   2.290  1.00 20.00     0.057 C 
HETATM    8  C8  UNL     1     -33.373   5.673   1.140  1.00 20.00     0.046 C 
HETATM    9  C9  UNL     1     -31.814   7.426   1.978  1.00 20.00     0.046 C 
HETATM   10  N10 UNL     1     -32.622   2.409   4.491  1.00 20.00    -0.192 NA
HETATM   11  O11 UNL     1     -34.146   7.654   2.365  1.00 20.00    -0.380 OA
ENDROOT
TORSDOF 0
ENDMDL
