MODEL 1
REMARK VINA RESULT:      -0.2      0.000      0.000
REMARK  2 active torsions:
REMARK  status: ('A' for Active; 'I' for Inactive)
REMARK    1  A    between atoms: C5_5  and  C8_8 
REMARK    2  A    between atoms: C8_8  and  C9_9 
ROOT
HETATM    1  C1  UNL     1     -33.483   5.190   2.563  1.00 20.00     0.046 C 
HETATM    2  C2  UNL     1     -33.336   7.526   3.456  1.00 20.00     0.052 C 
HETATM    3  C3  UNL     1     -32.542   5.618   1.445  1.00 20.00     0.169 C 
HETATM    4  C4  UNL     1     -34.279   6.389   3.066  1.00 20.00     0.086 C 
HETATM    5  C5  UNL     1     -32.335   7.847   2.341  1.00 20.00     0.123 C 
HETATM    6  O10 UNL     1     -31.673   6.668   1.865  1.00 20.00    -0.386 OA
HETATM    7 CL11 UNL     1     -35.289   5.918   4.461  1.00 20.00    -0.125 Cl
ENDROOT
BRANCH   5   8
HETATM    8  C8  UNL     1     -32.933   8.635   1.207  1.00 20.00     0.035 C 
BRANCH   8   9
HETATM    9  C9  UNL     1     -31.948   9.626   0.563  1.00 20.00    -0.020 C 
HETATM   10  C6  UNL     1     -31.264   9.046  -0.676  1.00 20.00     0.009 C 
HETATM   11  C7  UNL     1     -32.680  10.917   0.192  1.00 20.00     0.009 C 
ENDBRANCH   8   9
ENDBRANCH   5   8
TORSDOF 2
ENDMDL
MODEL 2
REMARK VINA RESULT:       0.7      1.981      2.853
REMARK  2 active torsions:
REMARK  status: ('A' for Active; 'I' for Inactive)
REMARK    1  A    between atoms: C5_5  and  C8_8 
REMARK    2  A    between atoms: C8_8  and  C9_9 
ROOT
HETATM    1  C1  UNL     1     -35.129   4.874   4.618  1.00 20.00     0.046 C 
HETATM    2  C2  UNL     1     -33.421   4.997   2.791  1.00 20.00     0.052 C 
HETATM    3  C3  UNL     1     -35.482   6.323   4.310  1.00 20.00     0.169 C 
HETATM    4  C4  UNL     1     -33.678   4.595   4.242  1.00 20.00     0.086 C 
HETATM    5  C5  UNL     1     -33.893   6.425   2.499  1.00 20.00     0.123 C 
HETATM    6  O10 UNL     1     -35.240   6.640   2.941  1.00 20.00    -0.386 OA
HETATM    7 CL11 UNL     1     -33.299   2.868   4.481  1.00 20.00    -0.125 Cl
ENDROOT
BRANCH   5   8
HETATM    8  C8  UNL     1     -32.966   7.483   3.033  1.00 20.00     0.035 C 
BRANCH   8   9
HETATM    9  C9  UNL     1     -31.923   7.959   2.006  1.00 20.00    -0.020 C 
HETATM   10  C6  UNL     1     -31.473   6.837   1.069  1.00 20.00     0.009 C 
HETATM   11  C7  UNL     1     -32.494   9.118   1.187  1.00 20.00     0.009 C 
ENDBRANCH   8   9
ENDBRANCH   5   8
TORSDOF 2
ENDMDL
MODEL 3
REMARK VINA RESULT:       1.4      2.195      4.741
REMARK  2 active torsions:
REMARK  status: ('A' for Active; 'I' for Inactive)
REMARK    1  A    between atoms: C5_5  and  C8_8 
REMARK    2  A    between atoms: C8_8  and  C9_9 
ROOT
HETATM    1  C1  UNL     1     -32.360   8.234   2.853  1.00 20.00     0.046 C 
HETATM    2  C2  UNL     1     -34.221   6.705   3.539  1.00 20.00     0.052 C 
HETATM    3  C3  UNL     1     -31.935   7.175   1.845  1.00 20.00     0.169 C 
HETATM    4  C4  UNL     1     -33.071   7.581   4.033  1.00 20.00     0.086 C 
HETATM    5  C5  UNL     1     -33.769   5.730   2.447  1.00 20.00     0.123 C 
HETATM    6  O10 UNL     1     -33.046   6.398   1.404  1.00 20.00    -0.386 OA
HETATM    7 CL11 UNL     1     -33.683   8.828   5.154  1.00 20.00    -0.125 Cl
ENDROOT
BRANCH   5   8
HETATM    8  C8  UNL     1     -33.001   4.550   2.976  1.00 20.00     0.035 C 
BRANCH   8   9
HETATM    9  C9  UNL     1     -33.826   3.654   3.918  1.00 20.00    -0.020 C 
HETATM   10  C6  UNL     1     -32.949   2.889   4.910  1.00 20.00     0.009 C 
HETATM   11  C7  UNL     1     -34.846   4.503   4.678  1.00 20.00     0.009 C 
ENDBRANCH   8   9
ENDBRANCH   5   8
TORSDOF 2
ENDMDL
MODEL 4
REMARK VINA RESULT:       1.8      2.209      4.819
REMARK  2 active torsions:
REMARK  status: ('A' for Active; 'I' for Inactive)
REMARK    1  A    between atoms: C5_5  and  C8_8 
REMARK    2  A    between atoms: C8_8  and  C9_9 
ROOT
HETATM    1  C1  UNL     1     -32.316   8.187   2.850  1.00 20.00     0.046 C 
HETATM    2  C2  UNL     1     -34.262   6.741   3.480  1.00 20.00     0.052 C 
HETATM    3  C3  UNL     1     -31.935   7.131   1.822  1.00 20.00     0.169 C 
HETATM    4  C4  UNL     1     -33.074   7.545   4.007  1.00 20.00     0.086 C 
HETATM    5  C5  UNL     1     -33.848   5.769   2.370  1.00 20.00     0.123 C 
HETATM    6  O10 UNL     1     -33.080   6.423   1.351  1.00 20.00    -0.386 OA
HETATM    7 CL11 UNL     1     -33.633   8.796   5.150  1.00 20.00    -0.125 Cl
ENDROOT
BRANCH   5   8
HETATM    8  C8  UNL     1     -33.149   4.539   2.879  1.00 20.00     0.035 C 
BRANCH   8   9
HETATM    9  C9  UNL     1     -33.549   4.157   4.315  1.00 20.00    -0.020 C 
HETATM   10  C6  UNL     1     -35.021   4.449   4.608  1.00 20.00     0.009 C 
HETATM   11  C7  UNL     1     -33.258   2.674   4.556  1.00 20.00     0.009 C 
ENDBRANCH   8   9
ENDBRANCH   5   8
TORSDOF 2
ENDMDL
MODEL 5
REMARK VINA RESULT:       2.0      2.293      4.882
REMARK  2 active torsions:
REMARK  status: ('A' for Active; 'I' for Inactive)
REMARK    1  A    between atoms: C5_5  and  C8_8 
REMARK    2  A    between atoms: C8_8  and  C9_9 
ROOT
HETATM    1  C1  UNL     1     -31.816   7.887   1.506  1.00 20.00     0.046 C 
HETATM    2  C2  UNL     1     -33.271   7.303   3.459  1.00 20.00     0.052 C 
HETATM    3  C3  UNL     1     -32.226   6.563   0.875  1.00 20.00     0.169 C 
HETATM    4  C4  UNL     1     -31.889   7.789   3.026  1.00 20.00     0.086 C 
HETATM    5  C5  UNL     1     -33.689   6.029   2.716  1.00 20.00     0.123 C 
HETATM    6  O10 UNL     1     -33.529   6.164   1.298  1.00 20.00    -0.386 OA
HETATM    7 CL11 UNL     1     -31.532   9.374   3.764  1.00 20.00    -0.125 Cl
ENDROOT
BRANCH   5   8
HETATM    8  C8  UNL     1     -33.012   4.788   3.228  1.00 20.00     0.035 C 
BRANCH   8   9
HETATM    9  C9  UNL     1     -33.958   3.843   3.991  1.00 20.00    -0.020 C 
HETATM   10  C6  UNL     1     -33.220   2.979   5.014  1.00 20.00     0.009 C 
HETATM   11  C7  UNL     1     -35.048   4.656   4.691  1.00 20.00     0.009 C 
ENDBRANCH   8   9
ENDBRANCH   5   8
TORSDOF 2
ENDMDL
MODEL 6
REMARK VINA RESULT:       2.0      2.280      5.182
REMARK  2 active torsions:
REMARK  status: ('A' for Active; 'I' for Inactive)
REMARK    1  A    between atoms: C5_5  and  C8_8 
REMARK    2  A    between atoms: C8_8  and  C9_9 
ROOT
HETATM    1  C1  UNL     1     -32.820   7.674   2.562  1.00 20.00     0.046 C 
HETATM    2  C2  UNL     1     -34.313   6.089   3.799  1.00 20.00     0.052 C 
HETATM    3  C3  UNL     1     -32.326   6.487   1.748  1.00 20.00     0.169 C 
HETATM    4  C4  UNL     1     -33.285   7.210   3.938  1.00 20.00     0.086 C 
HETATM    5  C5  UNL     1     -33.816   4.966   2.881  1.00 20.00     0.123 C 
HETATM    6  O10 UNL     1     -33.327   5.477   1.634  1.00 20.00    -0.386 OA
HETATM    7 CL11 UNL     1     -33.983   8.578   4.848  1.00 20.00    -0.125 Cl
ENDROOT
BRANCH   5   8
HETATM    8  C8  UNL     1     -32.808   4.060   3.534  1.00 20.00     0.035 C 
BRANCH   8   9
HETATM    9  C9  UNL     1     -33.386   3.240   4.701  1.00 20.00    -0.020 C 
HETATM   10  C6  UNL     1     -33.399   1.739   4.408  1.00 20.00     0.009 C 
HETATM   11  C7  UNL     1     -32.582   3.512   5.973  1.00 20.00     0.009 C 
ENDBRANCH   8   9
ENDBRANCH   5   8
TORSDOF 2
ENDMDL
MODEL 7
REMARK VINA RESULT:       2.1      2.330      4.284
REMARK  2 active torsions:
REMARK  status: ('A' for Active; 'I' for Inactive)
REMARK    1  A    between atoms: C5_5  and  C8_8 
REMARK    2  A    between atoms: C8_8  and  C9_9 
ROOT
HETATM    1  C1  UNL     1     -31.079   7.793   0.987  1.00 20.00     0.046 C 
HETATM    2  C2  UNL     1     -33.548   7.402   1.144  1.00 20.00     0.052 C 
HETATM    3  C3  UNL     1     -30.878   6.407   1.583  1.00 20.00     0.169 C 
HETATM    4  C4  UNL     1     -32.410   8.375   1.449  1.00 20.00     0.086 C 
HETATM    5  C5  UNL     1     -33.252   5.993   1.667  1.00 20.00     0.123 C 
HETATM    6  O10 UNL     1     -31.957   5.535   1.255  1.00 20.00    -0.386 OA
HETATM    7 CL11 UNL     1     -32.709   9.944   0.652  1.00 20.00    -0.125 Cl
ENDROOT
BRANCH   5   8
HETATM    8  C8  UNL     1     -33.435   5.854   3.153  1.00 20.00     0.035 C 
BRANCH   8   9
HETATM    9  C9  UNL     1     -34.580   6.715   3.713  1.00 20.00    -0.020 C 
HETATM   10  C6  UNL     1     -35.644   5.879   4.425  1.00 20.00     0.009 C 
HETATM   11  C7  UNL     1     -34.017   7.763   4.675  1.00 20.00     0.009 C 
ENDBRANCH   8   9
ENDBRANCH   5   8
TORSDOF 2
ENDMDL
MODEL 8
REMARK VINA RESULT:       2.3      2.543      4.748
REMARK  2 active torsions:
REMARK  status: ('A' for Active; 'I' for Inactive)
REMARK    1  A    between atoms: C5_5  and  C8_8 
REMARK    2  A    between atoms: C8_8  and  C9_9 
ROOT
HETATM    1  C1  UNL     1     -32.358   9.761   1.919  1.00 20.00     0.046 C 
HETATM    2  C2  UNL     1     -31.961   7.699   0.554  1.00 20.00     0.052 C 
HETATM    3  C3  UNL     1     -32.532   8.858   3.132  1.00 20.00     0.169 C 
HETATM    4  C4  UNL     1     -32.737   9.011   0.647  1.00 20.00     0.086 C 
HETATM    5  C5  UNL     1     -32.075   6.874   1.840  1.00 20.00     0.123 C 
HETATM    6  O10 UNL     1     -31.774   7.657   3.003  1.00 20.00    -0.386 OA
HETATM    7 CL11 UNL     1     -32.414  10.023  -0.787  1.00 20.00    -0.125 Cl
ENDROOT
BRANCH   5   8
HETATM    8  C8  UNL     1     -33.395   6.167   1.983  1.00 20.00     0.035 C 
BRANCH   8   9
HETATM    9  C9  UNL     1     -33.786   5.889   3.445  1.00 20.00    -0.020 C 
HETATM   10  C6  UNL     1     -35.126   6.525   3.821  1.00 20.00     0.009 C 
HETATM   11  C7  UNL     1     -33.844   4.380   3.689  1.00 20.00     0.009 C 
ENDBRANCH   8   9
ENDBRANCH   5   8
TORSDOF 2
ENDMDL
MODEL 9
REMARK VINA RESULT:       2.3      2.192      4.280
REMARK  2 active torsions:
REMARK  status: ('A' for Active; 'I' for Inactive)
REMARK    1  A    between atoms: C5_5  and  C8_8 
REMARK    2  A    between atoms: C8_8  and  C9_9 
ROOT
HETATM    1  C1  UNL     1     -31.973   7.323   0.909  1.00 20.00     0.046 C 
HETATM    2  C2  UNL     1     -32.629   5.881   2.849  1.00 20.00     0.052 C 
HETATM    3  C3  UNL     1     -32.330   8.534   1.760  1.00 20.00     0.169 C 
HETATM    4  C4  UNL     1     -32.791   6.114   1.348  1.00 20.00     0.086 C 
HETATM    5  C5  UNL     1     -32.891   7.156   3.657  1.00 20.00     0.123 C 
HETATM    6  O10 UNL     1     -32.145   8.270   3.149  1.00 20.00    -0.386 OA
HETATM    7 CL11 UNL     1     -32.284   4.663   0.440  1.00 20.00    -0.125 Cl
ENDROOT
BRANCH   5   8
HETATM    8  C8  UNL     1     -34.351   7.491   3.793  1.00 20.00     0.035 C 
BRANCH   8   9
HETATM    9  C9  UNL     1     -35.283   6.308   3.476  1.00 20.00    -0.020 C 
HETATM   10  C6  UNL     1     -35.474   5.379   4.675  1.00 20.00     0.009 C 
HETATM   11  C7  UNL     1     -36.642   6.831   3.006  1.00 20.00     0.009 C 
ENDBRANCH   8   9
ENDBRANCH   5   8
TORSDOF 2
ENDMDL
