MODEL 1
REMARK VINA RESULT:       4.9      0.000      0.000
REMARK  0 active torsions:
REMARK  status: ('A' for Active; 'I' for Inactive)
ROOT
HETATM    1  C1  UNL     1     -34.607   6.188   3.479  1.00 20.00     0.000 C 
HETATM    2  C2  UNL     1     -33.550   5.099   3.369  1.00 20.00     0.000 C 
HETATM    3  C3  UNL     1     -34.083   7.566   3.864  1.00 20.00     0.003 C 
HETATM    4  C4  UNL     1     -32.859   5.084   2.010  1.00 20.00     0.003 C 
HETATM    5  C5  UNL     1     -32.700   7.977   3.358  1.00 20.00     0.038 C 
HETATM    6  C6  UNL     1     -31.838   6.197   1.784  1.00 20.00     0.038 C 
HETATM    7  C7  UNL     1     -32.466   9.102  -0.709  1.00 20.00     0.046 C 
HETATM    8  C8  UNL     1     -31.220   8.620   1.409  1.00 20.00     0.058 C 
HETATM    9  C9  UNL     1     -33.331   7.909  -0.306  1.00 20.00     0.170 C 
HETATM   10  C10 UNL     1     -31.705   9.719   0.462  1.00 20.00     0.087 C 
HETATM   11  C11 UNL     1     -32.354   7.656   1.882  1.00 20.00     0.062 C 
HETATM   12  O12 UNL     1     -33.540   7.845   1.098  1.00 20.00    -0.380 OA
HETATM   13 CL13 UNL     1     -32.740  10.903   1.317  1.00 20.00    -0.125 Cl
ENDROOT
TORSDOF 0
ENDMDL
MODEL 2
REMARK VINA RESULT:       6.2      1.519      2.006
REMARK  0 active torsions:
REMARK  status: ('A' for Active; 'I' for Inactive)
ROOT
HETATM    1  C1  UNL     1     -36.047   5.773   3.618  1.00 20.00     0.000 C 
HETATM    2  C2  UNL     1     -35.256   4.914   4.594  1.00 20.00     0.000 C 
HETATM    3  C3  UNL     1     -35.655   7.245   3.582  1.00 20.00     0.003 C 
HETATM    4  C4  UNL     1     -33.935   4.424   4.010  1.00 20.00     0.003 C 
HETATM    5  C5  UNL     1     -34.185   7.603   3.803  1.00 20.00     0.038 C 
HETATM    6  C6  UNL     1     -32.829   5.474   3.927  1.00 20.00     0.038 C 
HETATM    7  C7  UNL     1     -31.591   6.906   0.541  1.00 20.00     0.046 C 
HETATM    8  C8  UNL     1     -31.804   7.568   2.947  1.00 20.00     0.058 C 
HETATM    9  C9  UNL     1     -32.676   5.884   0.871  1.00 20.00     0.170 C 
HETATM   10  C10 UNL     1     -31.537   8.070   1.527  1.00 20.00     0.087 C 
HETATM   11  C11 UNL     1     -33.122   6.740   3.080  1.00 20.00     0.062 C 
HETATM   12  O12 UNL     1     -33.636   6.395   1.786  1.00 20.00    -0.380 OA
HETATM   13 CL13 UNL     1     -32.711   9.336   1.054  1.00 20.00    -0.125 Cl
ENDROOT
TORSDOF 0
ENDMDL
MODEL 3
REMARK VINA RESULT:       6.7      1.978      3.242
REMARK  0 active torsions:
REMARK  status: ('A' for Active; 'I' for Inactive)
ROOT
HETATM    1  C1  UNL     1     -33.962   4.161   4.668  1.00 20.00     0.000 C 
HETATM    2  C2  UNL     1     -35.408   4.625   4.568  1.00 20.00     0.000 C 
HETATM    3  C3  UNL     1     -33.199   4.118   3.350  1.00 20.00     0.003 C 
HETATM    4  C4  UNL     1     -35.541   6.144   4.580  1.00 20.00     0.003 C 
HETATM    5  C5  UNL     1     -33.527   5.176   2.295  1.00 20.00     0.038 C 
HETATM    6  C6  UNL     1     -35.150   6.844   3.280  1.00 20.00     0.038 C 
HETATM    7  C7  UNL     1     -31.967   9.041   2.992  1.00 20.00     0.046 C 
HETATM    8  C8  UNL     1     -33.444   7.600   1.574  1.00 20.00     0.058 C 
HETATM    9  C9  UNL     1     -32.541   8.240   4.158  1.00 20.00     0.170 C 
HETATM   10  C10 UNL     1     -32.103   8.332   1.646  1.00 20.00     0.087 C 
HETATM   11  C11 UNL     1     -33.697   6.638   2.778  1.00 20.00     0.062 C 
HETATM   12  O12 UNL     1     -32.745   6.873   3.824  1.00 20.00    -0.380 OA
HETATM   13 CL13 UNL     1     -30.733   7.206   1.399  1.00 20.00    -0.125 Cl
ENDROOT
TORSDOF 0
ENDMDL
MODEL 4
REMARK VINA RESULT:       7.5      2.384      4.021
REMARK  0 active torsions:
REMARK  status: ('A' for Active; 'I' for Inactive)
ROOT
HETATM    1  C1  UNL     1     -31.117   4.427   1.129  1.00 20.00     0.000 C 
HETATM    2  C2  UNL     1     -32.025   4.430  -0.092  1.00 20.00     0.000 C 
HETATM    3  C3  UNL     1     -30.863   5.792   1.755  1.00 20.00     0.003 C 
HETATM    4  C4  UNL     1     -33.505   4.404   0.276  1.00 20.00     0.003 C 
HETATM    5  C5  UNL     1     -31.995   6.819   1.724  1.00 20.00     0.038 C 
HETATM    6  C6  UNL     1     -34.073   5.724   0.791  1.00 20.00     0.038 C 
HETATM    7  C7  UNL     1     -35.131   6.213   4.491  1.00 20.00     0.046 C 
HETATM    8  C8  UNL     1     -34.280   7.536   2.543  1.00 20.00     0.058 C 
HETATM    9  C9  UNL     1     -34.530   5.015   3.761  1.00 20.00     0.170 C 
HETATM   10  C10 UNL     1     -34.538   7.549   4.051  1.00 20.00     0.087 C 
HETATM   11  C11 UNL     1     -33.422   6.321   2.066  1.00 20.00     0.062 C 
HETATM   12  O12 UNL     1     -33.311   5.339   3.105  1.00 20.00    -0.380 OA
HETATM   13 CL13 UNL     1     -33.037   7.890   4.965  1.00 20.00    -0.125 Cl
ENDROOT
TORSDOF 0
ENDMDL
