MODEL 1
REMARK VINA RESULT:      -0.2      0.000      0.000
REMARK  0 active torsions:
REMARK  status: ('A' for Active; 'I' for Inactive)
ROOT
HETATM    1  C1  UNL     1     -33.387   5.444   2.356  1.00 20.00     0.046 C 
HETATM    2  C2  UNL     1     -33.623   7.927   2.574  1.00 20.00     0.057 C 
HETATM    3  C3  UNL     1     -32.054   5.689   1.660  1.00 20.00     0.170 C 
HETATM    4  C4  UNL     1     -33.704   6.591   3.310  1.00 20.00     0.087 C 
HETATM    5  C5  UNL     1     -32.287   8.090   1.822  1.00 20.00     0.055 C 
HETATM    6  C6  UNL     1     -32.390   9.289   0.867  1.00 20.00     0.045 C 
HETATM    7  C7  UNL     1     -31.110   8.335   2.777  1.00 20.00     0.045 C 
HETATM    8  O8  UNL     1     -32.038   6.946   0.989  1.00 20.00    -0.381 OA
HETATM    9 CL9  UNL     1     -35.331   6.372   4.013  1.00 20.00    -0.125 Cl
ENDROOT
TORSDOF 0
ENDMDL
MODEL 2
REMARK VINA RESULT:       0.3      2.141      3.117
REMARK  0 active torsions:
REMARK  status: ('A' for Active; 'I' for Inactive)
ROOT
HETATM    1  C1  UNL     1     -34.835   5.227   4.492  1.00 20.00     0.046 C 
HETATM    2  C2  UNL     1     -32.770   5.085   3.083  1.00 20.00     0.057 C 
HETATM    3  C3  UNL     1     -35.248   6.436   3.665  1.00 20.00     0.170 C 
HETATM    4  C4  UNL     1     -33.944   4.302   3.670  1.00 20.00     0.087 C 
HETATM    5  C5  UNL     1     -33.239   6.342   2.323  1.00 20.00     0.055 C 
HETATM    6  C6  UNL     1     -32.024   7.235   2.031  1.00 20.00     0.045 C 
HETATM    7  C7  UNL     1     -33.913   5.994   0.988  1.00 20.00     0.045 C 
HETATM    8  O8  UNL     1     -34.115   7.128   3.147  1.00 20.00    -0.381 OA
HETATM    9 CL9  UNL     1     -33.345   2.962   4.686  1.00 20.00    -0.125 Cl
ENDROOT
TORSDOF 0
ENDMDL
MODEL 3
REMARK VINA RESULT:       0.4      1.213      2.691
REMARK  0 active torsions:
REMARK  status: ('A' for Active; 'I' for Inactive)
ROOT
HETATM    1  C1  UNL     1     -33.736   7.508   3.748  1.00 20.00     0.046 C 
HETATM    2  C2  UNL     1     -33.571   5.258   2.662  1.00 20.00     0.057 C 
HETATM    3  C3  UNL     1     -32.894   8.059   2.605  1.00 20.00     0.170 C 
HETATM    4  C4  UNL     1     -34.517   6.282   3.287  1.00 20.00     0.087 C 
HETATM    5  C5  UNL     1     -32.686   5.885   1.567  1.00 20.00     0.055 C 
HETATM    6  C6  UNL     1     -31.563   4.902   1.203  1.00 20.00     0.045 C 
HETATM    7  C7  UNL     1     -33.480   6.203   0.291  1.00 20.00     0.045 C 
HETATM    8  O8  UNL     1     -32.030   7.062   2.065  1.00 20.00    -0.381 OA
HETATM    9 CL9  UNL     1     -35.389   5.556   4.665  1.00 20.00    -0.125 Cl
ENDROOT
TORSDOF 0
ENDMDL
MODEL 4
REMARK VINA RESULT:       0.9      1.428      2.308
REMARK  0 active torsions:
REMARK  status: ('A' for Active; 'I' for Inactive)
ROOT
HETATM    1  C1  UNL     1     -33.340   7.818   4.665  1.00 20.00     0.046 C 
HETATM    2  C2  UNL     1     -33.359   6.771   2.391  1.00 20.00     0.057 C 
HETATM    3  C3  UNL     1     -32.258   8.763   4.159  1.00 20.00     0.170 C 
HETATM    4  C4  UNL     1     -34.220   7.355   3.509  1.00 20.00     0.087 C 
HETATM    5  C5  UNL     1     -32.230   7.734   1.971  1.00 20.00     0.055 C 
HETATM    6  C6  UNL     1     -31.230   6.980   1.082  1.00 20.00     0.045 C 
HETATM    7  C7  UNL     1     -32.761   8.940   1.183  1.00 20.00     0.045 C 
HETATM    8  O8  UNL     1     -31.486   8.165   3.121  1.00 20.00    -0.381 OA
HETATM    9 CL9  UNL     1     -35.395   6.138   4.082  1.00 20.00    -0.125 Cl
ENDROOT
TORSDOF 0
ENDMDL
MODEL 5
REMARK VINA RESULT:       1.3      2.588      3.823
REMARK  0 active torsions:
REMARK  status: ('A' for Active; 'I' for Inactive)
ROOT
HETATM    1  C1  UNL     1     -32.228   8.573   3.489  1.00 20.00     0.046 C 
HETATM    2  C2  UNL     1     -33.757   7.058   2.210  1.00 20.00     0.057 C 
HETATM    3  C3  UNL     1     -32.847   8.026   4.768  1.00 20.00     0.170 C 
HETATM    4  C4  UNL     1     -32.315   7.537   2.373  1.00 20.00     0.087 C 
HETATM    5  C5  UNL     1     -34.363   6.589   3.548  1.00 20.00     0.055 C 
HETATM    6  C6  UNL     1     -35.880   6.418   3.381  1.00 20.00     0.045 C 
HETATM    7  C7  UNL     1     -33.775   5.249   4.013  1.00 20.00     0.045 C 
HETATM    8  O8  UNL     1     -34.190   7.598   4.557  1.00 20.00    -0.381 OA
HETATM    9 CL9  UNL     1     -31.720   8.234   0.840  1.00 20.00    -0.125 Cl
ENDROOT
TORSDOF 0
ENDMDL
MODEL 6
REMARK VINA RESULT:       1.3      2.399      3.331
REMARK  0 active torsions:
REMARK  status: ('A' for Active; 'I' for Inactive)
ROOT
HETATM    1  C1  UNL     1     -32.216   6.240   1.416  1.00 20.00     0.046 C 
HETATM    2  C2  UNL     1     -32.845   8.218   2.817  1.00 20.00     0.057 C 
HETATM    3  C3  UNL     1     -33.189   5.414   2.247  1.00 20.00     0.170 C 
HETATM    4  C4  UNL     1     -32.650   7.701   1.392  1.00 20.00     0.087 C 
HETATM    5  C5  UNL     1     -33.774   7.303   3.638  1.00 20.00     0.055 C 
HETATM    6  C6  UNL     1     -33.683   7.694   5.121  1.00 20.00     0.045 C 
HETATM    7  C7  UNL     1     -35.241   7.420   3.199  1.00 20.00     0.045 C 
HETATM    8  O8  UNL     1     -33.328   5.939   3.565  1.00 20.00    -0.381 OA
HETATM    9 CL9  UNL     1     -31.431   8.690   0.539  1.00 20.00    -0.125 Cl
ENDROOT
TORSDOF 0
ENDMDL
MODEL 7
REMARK VINA RESULT:       1.6      2.170      3.276
REMARK  0 active torsions:
REMARK  status: ('A' for Active; 'I' for Inactive)
ROOT
HETATM    1  C1  UNL     1     -32.019   7.482   1.132  1.00 20.00     0.046 C 
HETATM    2  C2  UNL     1     -33.313   5.920   2.600  1.00 20.00     0.057 C 
HETATM    3  C3  UNL     1     -32.539   8.628   1.989  1.00 20.00     0.170 C 
HETATM    4  C4  UNL     1     -31.959   6.196   1.948  1.00 20.00     0.087 C 
HETATM    5  C5  UNL     1     -33.831   7.138   3.389  1.00 20.00     0.055 C 
HETATM    6  C6  UNL     1     -35.307   6.913   3.751  1.00 20.00     0.045 C 
HETATM    7  C7  UNL     1     -33.046   7.363   4.689  1.00 20.00     0.045 C 
HETATM    8  O8  UNL     1     -33.805   8.316   2.567  1.00 20.00    -0.381 OA
HETATM    9 CL9  UNL     1     -31.486   4.827   0.904  1.00 20.00    -0.125 Cl
ENDROOT
TORSDOF 0
ENDMDL
MODEL 8
REMARK VINA RESULT:       1.6      2.203      3.551
REMARK  0 active torsions:
REMARK  status: ('A' for Active; 'I' for Inactive)
ROOT
HETATM    1  C1  UNL     1     -32.162   7.163   2.004  1.00 20.00     0.046 C 
HETATM    2  C2  UNL     1     -33.473   7.157   4.137  1.00 20.00     0.057 C 
HETATM    3  C3  UNL     1     -33.184   6.185   1.439  1.00 20.00     0.170 C 
HETATM    4  C4  UNL     1     -32.801   8.033   3.081  1.00 20.00     0.087 C 
HETATM    5  C5  UNL     1     -34.437   6.132   3.506  1.00 20.00     0.055 C 
HETATM    6  C6  UNL     1     -34.835   5.096   4.569  1.00 20.00     0.045 C 
HETATM    7  C7  UNL     1     -35.717   6.791   2.974  1.00 20.00     0.045 C 
HETATM    8  O8  UNL     1     -33.774   5.394   2.468  1.00 20.00    -0.381 OA
HETATM    9 CL9  UNL     1     -31.567   9.077   3.840  1.00 20.00    -0.125 Cl
ENDROOT
TORSDOF 0
ENDMDL
MODEL 9
REMARK VINA RESULT:       1.6      2.516      3.169
REMARK  0 active torsions:
REMARK  status: ('A' for Active; 'I' for Inactive)
ROOT
HETATM    1  C1  UNL     1     -32.697   4.461   2.620  1.00 20.00     0.046 C 
HETATM    2  C2  UNL     1     -34.614   5.052   4.118  1.00 20.00     0.057 C 
HETATM    3  C3  UNL     1     -32.760   5.881   2.073  1.00 20.00     0.170 C 
HETATM    4  C4  UNL     1     -33.224   4.420   4.050  1.00 20.00     0.087 C 
HETATM    5  C5  UNL     1     -34.641   6.455   3.480  1.00 20.00     0.055 C 
HETATM    6  C6  UNL     1     -36.100   6.899   3.302  1.00 20.00     0.045 C 
HETATM    7  C7  UNL     1     -33.923   7.499   4.347  1.00 20.00     0.045 C 
HETATM    8  O8  UNL     1     -34.078   6.416   2.159  1.00 20.00    -0.381 OA
HETATM    9 CL9  UNL     1     -33.284   2.734   4.635  1.00 20.00    -0.125 Cl
ENDROOT
TORSDOF 0
ENDMDL
