MODEL 1
REMARK VINA RESULT:       0.9      0.000      0.000
REMARK  1 active torsions:
REMARK  status: ('A' for Active; 'I' for Inactive)
REMARK    1  A    between atoms: C4_4  and  S9_9 
ROOT
HETATM    1  C1  UNL     1     -33.447   5.352   2.252  1.00 20.00     0.041 C 
HETATM    2  C2  UNL     1     -33.134   7.628   3.249  1.00 20.00     0.052 C 
HETATM    3  C3  UNL     1     -32.447   5.750   1.174  1.00 20.00     0.170 C 
HETATM    4  C4  UNL     1     -34.161   6.589   2.794  1.00 20.00     0.049 C 
HETATM    5  C5  UNL     1     -32.096   7.933   2.150  1.00 20.00     0.054 C 
HETATM    6  C6  UNL     1     -30.936   8.732   2.761  1.00 20.00     0.045 C 
HETATM    7  C7  UNL     1     -32.693   8.758   1.000  1.00 20.00     0.045 C 
HETATM    8  O8  UNL     1     -31.516   6.716   1.656  1.00 20.00    -0.381 OA
ENDROOT
BRANCH   4   9
HETATM    9  S9  UNL     1     -35.252   6.131   4.183  1.00 20.00    -0.177 SA
HETATM   10  H23 UNL     1     -34.463   5.159   4.657  1.00 20.00     0.102 HD
ENDBRANCH   4   9
TORSDOF 1
ENDMDL
MODEL 2
REMARK VINA RESULT:       1.5      2.360      3.345
REMARK  1 active torsions:
REMARK  status: ('A' for Active; 'I' for Inactive)
REMARK    1  A    between atoms: C4_4  and  S9_9 
ROOT
HETATM    1  C1  UNL     1     -31.993   7.006   1.084  1.00 20.00     0.041 C 
HETATM    2  C2  UNL     1     -33.733   8.269   2.369  1.00 20.00     0.052 C 
HETATM    3  C3  UNL     1     -32.115   5.897   2.121  1.00 20.00     0.170 C 
HETATM    4  C4  UNL     1     -32.357   8.353   1.704  1.00 20.00     0.049 C 
HETATM    5  C5  UNL     1     -33.829   7.080   3.348  1.00 20.00     0.054 C 
HETATM    6  C6  UNL     1     -35.299   6.869   3.739  1.00 20.00     0.045 C 
HETATM    7  C7  UNL     1     -33.020   7.318   4.631  1.00 20.00     0.045 C 
HETATM    8  O8  UNL     1     -33.416   5.866   2.703  1.00 20.00    -0.381 OA
ENDROOT
BRANCH   4   9
HETATM    9  S9  UNL     1     -32.352   9.658   0.429  1.00 20.00    -0.177 SA
HETATM   10  H23 UNL     1     -33.635   9.504   0.075  1.00 20.00     0.102 HD
ENDBRANCH   4   9
TORSDOF 1
ENDMDL
MODEL 3
REMARK VINA RESULT:       1.7      2.406      3.799
REMARK  1 active torsions:
REMARK  status: ('A' for Active; 'I' for Inactive)
REMARK    1  A    between atoms: C4_4  and  S9_9 
ROOT
HETATM    1  C1  UNL     1     -32.412   7.480   2.625  1.00 20.00     0.041 C 
HETATM    2  C2  UNL     1     -33.874   5.451   2.771  1.00 20.00     0.052 C 
HETATM    3  C3  UNL     1     -33.406   8.190   3.535  1.00 20.00     0.170 C 
HETATM    4  C4  UNL     1     -33.116   6.385   1.825  1.00 20.00     0.049 C 
HETATM    5  C5  UNL     1     -34.804   6.227   3.726  1.00 20.00     0.054 C 
HETATM    6  C6  UNL     1     -35.290   5.281   4.833  1.00 20.00     0.045 C 
HETATM    7  C7  UNL     1     -36.035   6.794   3.004  1.00 20.00     0.045 C 
HETATM    8  O8  UNL     1     -34.078   7.271   4.393  1.00 20.00    -0.381 OA
ENDROOT
BRANCH   4   9
HETATM    9  S9  UNL     1     -31.903   5.440   0.844  1.00 20.00    -0.177 SA
HETATM   10  H23 UNL     1     -32.014   4.307   1.550  1.00 20.00     0.102 HD
ENDBRANCH   4   9
TORSDOF 1
ENDMDL
MODEL 4
REMARK VINA RESULT:       1.9      2.385      2.829
REMARK  1 active torsions:
REMARK  status: ('A' for Active; 'I' for Inactive)
REMARK    1  A    between atoms: C4_4  and  S9_9 
ROOT
HETATM    1  C1  UNL     1     -32.806   4.633   2.429  1.00 20.00     0.041 C 
HETATM    2  C2  UNL     1     -33.929   5.530   4.481  1.00 20.00     0.052 C 
HETATM    3  C3  UNL     1     -33.181   5.932   1.727  1.00 20.00     0.170 C 
HETATM    4  C4  UNL     1     -33.805   4.327   3.544  1.00 20.00     0.049 C 
HETATM    5  C5  UNL     1     -34.227   6.834   3.711  1.00 20.00     0.054 C 
HETATM    6  C6  UNL     1     -34.035   8.030   4.653  1.00 20.00     0.045 C 
HETATM    7  C7  UNL     1     -35.664   6.874   3.171  1.00 20.00     0.045 C 
HETATM    8  O8  UNL     1     -33.278   7.016   2.648  1.00 20.00    -0.381 OA
ENDROOT
BRANCH   4   9
HETATM    9  S9  UNL     1     -33.278   2.852   4.478  1.00 20.00    -0.177 SA
HETATM   10  H23 UNL     1     -33.584   1.970   3.518  1.00 20.00     0.102 HD
ENDBRANCH   4   9
TORSDOF 1
ENDMDL
MODEL 5
REMARK VINA RESULT:       1.9      2.285      3.127
REMARK  1 active torsions:
REMARK  status: ('A' for Active; 'I' for Inactive)
REMARK    1  A    between atoms: C4_4  and  S9_9 
ROOT
HETATM    1  C1  UNL     1     -35.222   4.850   4.311  1.00 20.00     0.041 C 
HETATM    2  C2  UNL     1     -33.010   5.301   3.224  1.00 20.00     0.052 C 
HETATM    3  C3  UNL     1     -35.551   6.325   4.120  1.00 20.00     0.170 C 
HETATM    4  C4  UNL     1     -33.711   4.655   4.421  1.00 20.00     0.049 C 
HETATM    5  C5  UNL     1     -33.442   6.769   3.025  1.00 20.00     0.054 C 
HETATM    6  C6  UNL     1     -32.953   7.256   1.654  1.00 20.00     0.045 C 
HETATM    7  C7  UNL     1     -32.857   7.696   4.101  1.00 20.00     0.045 C 
HETATM    8  O8  UNL     1     -34.874   6.870   2.990  1.00 20.00    -0.381 OA
ENDROOT
BRANCH   4   9
HETATM    9  S9  UNL     1     -33.306   2.878   4.504  1.00 20.00    -0.177 SA
HETATM   10  H23 UNL     1     -32.291   3.013   5.367  1.00 20.00     0.102 HD
ENDBRANCH   4   9
TORSDOF 1
ENDMDL
MODEL 6
REMARK VINA RESULT:       2.3      2.051      2.709
REMARK  1 active torsions:
REMARK  status: ('A' for Active; 'I' for Inactive)
REMARK    1  A    between atoms: C4_4  and  S9_9 
ROOT
HETATM    1  C1  UNL     1     -33.498   5.763   2.479  1.00 20.00     0.041 C 
HETATM    2  C2  UNL     1     -32.038   7.140   0.980  1.00 20.00     0.052 C 
HETATM    3  C3  UNL     1     -33.647   6.993   3.367  1.00 20.00     0.170 C 
HETATM    4  C4  UNL     1     -32.169   5.811   1.728  1.00 20.00     0.049 C 
HETATM    5  C5  UNL     1     -32.280   8.350   1.907  1.00 20.00     0.054 C 
HETATM    6  C6  UNL     1     -32.439   9.614   1.051  1.00 20.00     0.045 C 
HETATM    7  C7  UNL     1     -31.117   8.574   2.884  1.00 20.00     0.045 C 
HETATM    8  O8  UNL     1     -33.519   8.198   2.616  1.00 20.00    -0.381 OA
ENDROOT
BRANCH   4   9
HETATM    9  S9  UNL     1     -32.054   4.416   0.558  1.00 20.00    -0.177 SA
HETATM   10  H23 UNL     1     -32.072   3.457   1.493  1.00 20.00     0.102 HD
ENDBRANCH   4   9
TORSDOF 1
ENDMDL
MODEL 7
REMARK VINA RESULT:       2.4      1.181      2.883
REMARK  1 active torsions:
REMARK  status: ('A' for Active; 'I' for Inactive)
REMARK    1  A    between atoms: C4_4  and  S9_9 
ROOT
HETATM    1  C1  UNL     1     -32.517   8.436   2.678  1.00 20.00     0.041 C 
HETATM    2  C2  UNL     1     -33.667   6.218   2.502  1.00 20.00     0.052 C 
HETATM    3  C3  UNL     1     -31.628   8.002   1.520  1.00 20.00     0.170 C 
HETATM    4  C4  UNL     1     -33.006   7.216   3.456  1.00 20.00     0.049 C 
HETATM    5  C5  UNL     1     -32.757   5.876   1.304  1.00 20.00     0.054 C 
HETATM    6  C6  UNL     1     -33.580   5.128   0.245  1.00 20.00     0.045 C 
HETATM    7  C7  UNL     1     -31.573   4.985   1.709  1.00 20.00     0.045 C 
HETATM    8  O8  UNL     1     -32.297   7.077   0.666  1.00 20.00    -0.381 OA
ENDROOT
BRANCH   4   9
HETATM    9  S9  UNL     1     -34.185   7.723   4.752  1.00 20.00    -0.177 SA
HETATM   10  H23 UNL     1     -34.094   9.037   4.509  1.00 20.00     0.102 HD
ENDBRANCH   4   9
TORSDOF 1
ENDMDL
MODEL 8
REMARK VINA RESULT:       2.5      1.647      2.505
REMARK  1 active torsions:
REMARK  status: ('A' for Active; 'I' for Inactive)
REMARK    1  A    between atoms: C4_4  and  S9_9 
ROOT
HETATM    1  C1  UNL     1     -34.595   6.549   3.972  1.00 20.00     0.041 C 
HETATM    2  C2  UNL     1     -32.860   6.253   2.189  1.00 20.00     0.052 C 
HETATM    3  C3  UNL     1     -34.265   8.036   3.966  1.00 20.00     0.170 C 
HETATM    4  C4  UNL     1     -33.380   5.735   3.532  1.00 20.00     0.049 C 
HETATM    5  C5  UNL     1     -32.621   7.777   2.212  1.00 20.00     0.054 C 
HETATM    6  C6  UNL     1     -32.403   8.274   0.776  1.00 20.00     0.045 C 
HETATM    7  C7  UNL     1     -31.388   8.159   3.045  1.00 20.00     0.045 C 
HETATM    8  O8  UNL     1     -33.790   8.461   2.690  1.00 20.00    -0.381 OA
ENDROOT
BRANCH   4   9
HETATM    9  S9  UNL     1     -33.815   3.969   3.400  1.00 20.00    -0.177 SA
HETATM   10  H23 UNL     1     -32.655   3.509   3.886  1.00 20.00     0.102 HD
ENDBRANCH   4   9
TORSDOF 1
ENDMDL
MODEL 9
REMARK VINA RESULT:       2.7      2.223      3.322
REMARK  1 active torsions:
REMARK  status: ('A' for Active; 'I' for Inactive)
REMARK    1  A    between atoms: C4_4  and  S9_9 
ROOT
HETATM    1  C1  UNL     1     -33.392   7.805   3.060  1.00 20.00     0.041 C 
HETATM    2  C2  UNL     1     -31.985   6.986   1.157  1.00 20.00     0.052 C 
HETATM    3  C3  UNL     1     -33.913   6.382   3.212  1.00 20.00     0.170 C 
HETATM    4  C4  UNL     1     -32.970   8.063   1.615  1.00 20.00     0.049 C 
HETATM    5  C5  UNL     1     -32.526   5.563   1.409  1.00 20.00     0.054 C 
HETATM    6  C6  UNL     1     -31.388   4.551   1.220  1.00 20.00     0.045 C 
HETATM    7  C7  UNL     1     -33.662   5.195   0.443  1.00 20.00     0.045 C 
HETATM    8  O8  UNL     1     -32.953   5.424   2.773  1.00 20.00    -0.381 OA
ENDROOT
BRANCH   4   9
HETATM    9  S9  UNL     1     -32.213   9.716   1.463  1.00 20.00    -0.177 SA
HETATM   10  H23 UNL     1     -32.045   9.663   0.135  1.00 20.00     0.102 HD
ENDBRANCH   4   9
TORSDOF 1
ENDMDL
