MODEL 1
REMARK VINA RESULT:       0.8      0.000      0.000
REMARK  1 active torsions:
REMARK  status: ('A' for Active; 'I' for Inactive)
REMARK    1  A    between atoms: C4_4  and  S9_9 
ROOT
HETATM    1  C1  UNL     1     -33.718   5.647   1.828  1.00 20.00     0.041 C 
HETATM    2  C2  UNL     1     -33.245   7.720   3.156  1.00 20.00     0.052 C 
HETATM    3  C3  UNL     1     -32.351   5.756   1.156  1.00 20.00     0.170 C 
HETATM    4  C4  UNL     1     -33.682   6.253   3.224  1.00 20.00     0.049 C 
HETATM    5  C5  UNL     1     -32.100   7.954   2.139  1.00 20.00     0.054 C 
HETATM    6  C6  UNL     1     -30.990   8.788   2.795  1.00 20.00     0.045 C 
HETATM    7  C7  UNL     1     -32.590   8.708   0.893  1.00 20.00     0.045 C 
HETATM    8  O8  UNL     1     -31.488   6.712   1.769  1.00 20.00    -0.381 OA
ENDROOT
BRANCH   4   9
HETATM    9  S9  UNL     1     -35.309   6.109   4.032  1.00 20.00    -0.177 SA
HETATM   10  H23 UNL     1     -35.291   7.328   4.586  1.00 20.00     0.102 HD
ENDBRANCH   4   9
TORSDOF 1
ENDMDL
MODEL 2
REMARK VINA RESULT:       1.1      2.265      3.178
REMARK  1 active torsions:
REMARK  status: ('A' for Active; 'I' for Inactive)
REMARK    1  A    between atoms: C4_4  and  S9_9 
ROOT
HETATM    1  C1  UNL     1     -35.063   4.983   4.666  1.00 20.00     0.041 C 
HETATM    2  C2  UNL     1     -32.929   5.335   3.398  1.00 20.00     0.052 C 
HETATM    3  C3  UNL     1     -35.676   6.207   3.990  1.00 20.00     0.170 C 
HETATM    4  C4  UNL     1     -34.027   4.330   3.762  1.00 20.00     0.049 C 
HETATM    5  C5  UNL     1     -33.490   6.748   3.102  1.00 20.00     0.054 C 
HETATM    6  C6  UNL     1     -32.893   7.276   1.790  1.00 20.00     0.045 C 
HETATM    7  C7  UNL     1     -33.142   7.744   4.220  1.00 20.00     0.045 C 
HETATM    8  O8  UNL     1     -34.908   6.699   2.894  1.00 20.00    -0.381 OA
ENDROOT
BRANCH   4   9
HETATM    9  S9  UNL     1     -33.306   2.860   4.562  1.00 20.00    -0.177 SA
HETATM   10  H23 UNL     1     -32.031   3.238   4.410  1.00 20.00     0.102 HD
ENDBRANCH   4   9
TORSDOF 1
ENDMDL
MODEL 3
REMARK VINA RESULT:       1.9      2.400      3.379
REMARK  1 active torsions:
REMARK  status: ('A' for Active; 'I' for Inactive)
REMARK    1  A    between atoms: C4_4  and  S9_9 
ROOT
HETATM    1  C1  UNL     1     -31.595   7.661   1.400  1.00 20.00     0.041 C 
HETATM    2  C2  UNL     1     -33.695   8.603   2.394  1.00 20.00     0.052 C 
HETATM    3  C3  UNL     1     -31.928   6.287   1.979  1.00 20.00     0.170 C 
HETATM    4  C4  UNL     1     -32.867   8.448   1.114  1.00 20.00     0.049 C 
HETATM    5  C5  UNL     1     -33.714   7.313   3.251  1.00 20.00     0.054 C 
HETATM    6  C6  UNL     1     -35.158   6.983   3.657  1.00 20.00     0.045 C 
HETATM    7  C7  UNL     1     -32.882   7.469   4.534  1.00 20.00     0.045 C 
HETATM    8  O8  UNL     1     -33.256   6.189   2.488  1.00 20.00    -0.381 OA
ENDROOT
BRANCH   4   9
HETATM    9  S9  UNL     1     -32.471  10.081   0.410  1.00 20.00    -0.177 SA
HETATM   10  H23 UNL     1     -31.853  10.550   1.501  1.00 20.00     0.102 HD
ENDBRANCH   4   9
TORSDOF 1
ENDMDL
MODEL 4
REMARK VINA RESULT:       1.9      2.410      3.899
REMARK  1 active torsions:
REMARK  status: ('A' for Active; 'I' for Inactive)
REMARK    1  A    between atoms: C4_4  and  S9_9 
ROOT
HETATM    1  C1  UNL     1     -33.084   8.612   3.295  1.00 20.00     0.041 C 
HETATM    2  C2  UNL     1     -33.400   6.337   2.288  1.00 20.00     0.052 C 
HETATM    3  C3  UNL     1     -33.539   8.083   4.653  1.00 20.00     0.170 C 
HETATM    4  C4  UNL     1     -32.428   7.507   2.478  1.00 20.00     0.049 C 
HETATM    5  C5  UNL     1     -34.215   6.027   3.569  1.00 20.00     0.054 C 
HETATM    6  C6  UNL     1     -34.169   4.519   3.856  1.00 20.00     0.045 C 
HETATM    7  C7  UNL     1     -35.688   6.440   3.420  1.00 20.00     0.045 C 
HETATM    8  O8  UNL     1     -33.627   6.660   4.712  1.00 20.00    -0.381 OA
ENDROOT
BRANCH   4   9
HETATM    9  S9  UNL     1     -31.871   8.141   0.863  1.00 20.00    -0.177 SA
HETATM   10  H23 UNL     1     -33.070   8.601   0.480  1.00 20.00     0.102 HD
ENDBRANCH   4   9
TORSDOF 1
ENDMDL
MODEL 5
REMARK VINA RESULT:       2.0      1.203      2.872
REMARK  1 active torsions:
REMARK  status: ('A' for Active; 'I' for Inactive)
REMARK    1  A    between atoms: C4_4  and  S9_9 
ROOT
HETATM    1  C1  UNL     1     -32.154   8.184   2.934  1.00 20.00     0.041 C 
HETATM    2  C2  UNL     1     -33.564   6.125   2.684  1.00 20.00     0.052 C 
HETATM    3  C3  UNL     1     -31.749   8.094   1.464  1.00 20.00     0.170 C 
HETATM    4  C4  UNL     1     -33.538   7.585   3.148  1.00 20.00     0.049 C 
HETATM    5  C5  UNL     1     -32.779   5.906   1.366  1.00 20.00     0.054 C 
HETATM    6  C6  UNL     1     -33.636   5.094   0.384  1.00 20.00     0.045 C 
HETATM    7  C7  UNL     1     -31.469   5.138   1.604  1.00 20.00     0.045 C 
HETATM    8  O8  UNL     1     -32.519   7.156   0.715  1.00 20.00    -0.381 OA
ENDROOT
BRANCH   4   9
HETATM    9  S9  UNL     1     -34.029   7.705   4.899  1.00 20.00    -0.177 SA
HETATM   10  H23 UNL     1     -33.512   8.924   5.099  1.00 20.00     0.102 HD
ENDBRANCH   4   9
TORSDOF 1
ENDMDL
MODEL 6
REMARK VINA RESULT:       2.3      2.008      2.677
REMARK  1 active torsions:
REMARK  status: ('A' for Active; 'I' for Inactive)
REMARK    1  A    between atoms: C4_4  and  S9_9 
ROOT
HETATM    1  C1  UNL     1     -33.236   5.826   2.925  1.00 20.00     0.041 C 
HETATM    2  C2  UNL     1     -31.962   7.184   1.246  1.00 20.00     0.052 C 
HETATM    3  C3  UNL     1     -33.928   7.089   3.434  1.00 20.00     0.170 C 
HETATM    4  C4  UNL     1     -32.870   5.967   1.454  1.00 20.00     0.049 C 
HETATM    5  C5  UNL     1     -32.399   8.404   2.096  1.00 20.00     0.054 C 
HETATM    6  C6  UNL     1     -32.449   9.658   1.210  1.00 20.00     0.045 C 
HETATM    7  C7  UNL     1     -31.420   8.674   3.250  1.00 20.00     0.045 C 
HETATM    8  O8  UNL     1     -33.730   8.226   2.595  1.00 20.00    -0.381 OA
ENDROOT
BRANCH   4   9
HETATM    9  S9  UNL     1     -32.057   4.455   0.843  1.00 20.00    -0.177 SA
HETATM   10  H23 UNL     1     -32.808   3.604   1.554  1.00 20.00     0.102 HD
ENDBRANCH   4   9
TORSDOF 1
ENDMDL
MODEL 7
REMARK VINA RESULT:       2.3      2.540      3.322
REMARK  1 active torsions:
REMARK  status: ('A' for Active; 'I' for Inactive)
REMARK    1  A    between atoms: C4_4  and  S9_9 
ROOT
HETATM    1  C1  UNL     1     -33.576   4.799   3.386  1.00 20.00     0.041 C 
HETATM    2  C2  UNL     1     -33.159   7.135   2.577  1.00 20.00     0.052 C 
HETATM    3  C3  UNL     1     -34.765   5.288   4.211  1.00 20.00     0.170 C 
HETATM    4  C4  UNL     1     -33.374   5.677   2.159  1.00 20.00     0.049 C 
HETATM    5  C5  UNL     1     -34.090   7.564   3.738  1.00 20.00     0.054 C 
HETATM    6  C6  UNL     1     -34.760   8.903   3.395  1.00 20.00     0.045 C 
HETATM    7  C7  UNL     1     -33.314   7.743   5.054  1.00 20.00     0.045 C 
HETATM    8  O8  UNL     1     -35.159   6.625   3.907  1.00 20.00    -0.381 OA
ENDROOT
BRANCH   4   9
HETATM    9  S9  UNL     1     -31.965   5.084   1.166  1.00 20.00    -0.177 SA
HETATM   10  H23 UNL     1     -32.091   3.797   1.513  1.00 20.00     0.102 HD
ENDBRANCH   4   9
TORSDOF 1
ENDMDL
MODEL 8
REMARK VINA RESULT:       2.5      1.523      2.474
REMARK  1 active torsions:
REMARK  status: ('A' for Active; 'I' for Inactive)
REMARK    1  A    between atoms: C4_4  and  S9_9 
ROOT
HETATM    1  C1  UNL     1     -34.194   6.924   4.276  1.00 20.00     0.041 C 
HETATM    2  C2  UNL     1     -32.686   6.309   2.370  1.00 20.00     0.052 C 
HETATM    3  C3  UNL     1     -34.239   8.369   3.784  1.00 20.00     0.170 C 
HETATM    4  C4  UNL     1     -33.982   5.965   3.112  1.00 20.00     0.049 C 
HETATM    5  C5  UNL     1     -32.477   7.836   2.213  1.00 20.00     0.054 C 
HETATM    6  C6  UNL     1     -32.113   8.160   0.757  1.00 20.00     0.045 C 
HETATM    7  C7  UNL     1     -31.343   8.351   3.114  1.00 20.00     0.045 C 
HETATM    8  O8  UNL     1     -33.694   8.545   2.479  1.00 20.00    -0.381 OA
ENDROOT
BRANCH   4   9
HETATM    9  S9  UNL     1     -33.943   4.239   3.697  1.00 20.00    -0.177 SA
HETATM   10  H23 UNL     1     -32.635   4.053   3.474  1.00 20.00     0.102 HD
ENDBRANCH   4   9
TORSDOF 1
ENDMDL
MODEL 9
REMARK VINA RESULT:       2.7      2.115      3.315
REMARK  1 active torsions:
REMARK  status: ('A' for Active; 'I' for Inactive)
REMARK    1  A    between atoms: C4_4  and  S9_9 
ROOT
HETATM    1  C1  UNL     1     -33.769   7.676   2.712  1.00 20.00     0.041 C 
HETATM    2  C2  UNL     1     -32.054   6.968   1.025  1.00 20.00     0.052 C 
HETATM    3  C3  UNL     1     -33.862   6.242   3.230  1.00 20.00     0.170 C 
HETATM    4  C4  UNL     1     -32.382   7.956   2.149  1.00 20.00     0.049 C 
HETATM    5  C5  UNL     1     -32.526   5.527   1.343  1.00 20.00     0.054 C 
HETATM    6  C6  UNL     1     -31.385   4.537   1.065  1.00 20.00     0.045 C 
HETATM    7  C7  UNL     1     -33.732   5.119   0.481  1.00 20.00     0.045 C 
HETATM    8  O8  UNL     1     -32.833   5.388   2.736  1.00 20.00    -0.381 OA
ENDROOT
BRANCH   4   9
HETATM    9  S9  UNL     1     -32.264   9.671   1.544  1.00 20.00    -0.177 SA
HETATM   10  H23 UNL     1     -33.395  10.094   2.125  1.00 20.00     0.102 HD
ENDBRANCH   4   9
TORSDOF 1
ENDMDL
