MODEL 1
REMARK VINA RESULT:      -1.3      0.000      0.000
REMARK  0 active torsions:
REMARK  status: ('A' for Active; 'I' for Inactive)
ROOT
HETATM    1  C1  UNL     1     -32.302   9.853   0.538  1.00 20.00     0.088 C 
HETATM    2  C2  UNL     1     -32.106   7.619   1.417  1.00 20.00    -0.066 C 
HETATM    3  C3  UNL     1     -31.897   8.499   0.429  1.00 20.00     0.096 C 
HETATM    4  C4  UNL     1     -31.689   6.176   1.333  1.00 20.00     0.061 C 
HETATM    5  C5  UNL     1     -32.811   7.974   2.699  1.00 20.00     0.066 C 
HETATM    6  C6  UNL     1     -32.880   5.283   1.670  1.00 20.00     0.172 C 
HETATM    7  C7  UNL     1     -33.946   6.974   2.951  1.00 20.00     0.121 C 
HETATM    8  C8  UNL     1     -34.594   7.215   4.307  1.00 20.00     0.040 C 
HETATM    9  N9  UNL     1     -32.633  10.963   0.622  1.00 20.00    -0.192 NA
HETATM   10  O10 UNL     1     -33.433   5.633   2.944  1.00 20.00    -0.386 OA
ENDROOT
TORSDOF 0
ENDMDL
MODEL 2
REMARK VINA RESULT:      -0.3      2.788      4.350
REMARK  0 active torsions:
REMARK  status: ('A' for Active; 'I' for Inactive)
ROOT
HETATM    1  C1  UNL     1     -35.211   6.000   4.300  1.00 20.00     0.088 C 
HETATM    2  C2  UNL     1     -33.333   7.114   3.285  1.00 20.00    -0.066 C 
HETATM    3  C3  UNL     1     -34.464   7.167   4.000  1.00 20.00     0.096 C 
HETATM    4  C4  UNL     1     -32.515   8.333   2.950  1.00 20.00     0.061 C 
HETATM    5  C5  UNL     1     -32.780   5.836   2.712  1.00 20.00     0.066 C 
HETATM    6  C6  UNL     1     -32.255   8.372   1.447  1.00 20.00     0.172 C 
HETATM    7  C7  UNL     1     -32.511   6.023   1.215  1.00 20.00     0.121 C 
HETATM    8  C8  UNL     1     -31.822   4.799   0.628  1.00 20.00     0.040 C 
HETATM    9  N9  UNL     1     -35.828   5.048   4.547  1.00 20.00    -0.192 NA
HETATM   10  O10 UNL     1     -31.649   7.152   1.004  1.00 20.00    -0.386 OA
ENDROOT
TORSDOF 0
ENDMDL
MODEL 3
REMARK VINA RESULT:       0.1      2.243      3.511
REMARK  0 active torsions:
REMARK  status: ('A' for Active; 'I' for Inactive)
ROOT
HETATM    1  C1  UNL     1     -32.247   7.626   2.202  1.00 20.00     0.088 C 
HETATM    2  C2  UNL     1     -34.177   6.497   3.095  1.00 20.00    -0.066 C 
HETATM    3  C3  UNL     1     -33.542   7.633   2.778  1.00 20.00     0.096 C 
HETATM    4  C4  UNL     1     -35.552   6.469   3.707  1.00 20.00     0.061 C 
HETATM    5  C5  UNL     1     -33.569   5.133   2.905  1.00 20.00     0.066 C 
HETATM    6  C6  UNL     1     -35.530   5.603   4.964  1.00 20.00     0.172 C 
HETATM    7  C7  UNL     1     -33.658   4.347   4.218  1.00 20.00     0.121 C 
HETATM    8  C8  UNL     1     -33.181   2.914   4.029  1.00 20.00     0.040 C 
HETATM    9  N9  UNL     1     -31.186   7.627   1.731  1.00 20.00    -0.192 NA
HETATM   10  O10 UNL     1     -35.020   4.297   4.673  1.00 20.00    -0.386 OA
ENDROOT
TORSDOF 0
ENDMDL
MODEL 4
REMARK VINA RESULT:       1.0      3.301      4.386
REMARK  0 active torsions:
REMARK  status: ('A' for Active; 'I' for Inactive)
ROOT
HETATM    1  C1  UNL     1     -33.452   3.502   3.887  1.00 20.00     0.088 C 
HETATM    2  C2  UNL     1     -33.272   5.497   2.549  1.00 20.00    -0.066 C 
HETATM    3  C3  UNL     1     -33.026   4.192   2.724  1.00 20.00     0.096 C 
HETATM    4  C4  UNL     1     -32.836   6.258   1.327  1.00 20.00     0.061 C 
HETATM    5  C5  UNL     1     -33.980   6.345   3.572  1.00 20.00     0.066 C 
HETATM    6  C6  UNL     1     -32.070   7.508   1.755  1.00 20.00     0.172 C 
HETATM    7  C7  UNL     1     -33.139   7.590   3.874  1.00 20.00     0.121 C 
HETATM    8  C8  UNL     1     -33.884   8.541   4.798  1.00 20.00     0.040 C 
HETATM    9  N9  UNL     1     -33.796   2.932   4.838  1.00 20.00    -0.192 NA
HETATM   10  O10 UNL     1     -32.851   8.299   2.658  1.00 20.00    -0.386 OA
ENDROOT
TORSDOF 0
ENDMDL
MODEL 5
REMARK VINA RESULT:       1.2      2.638      3.332
REMARK  0 active torsions:
REMARK  status: ('A' for Active; 'I' for Inactive)
ROOT
HETATM    1  C1  UNL     1     -31.785   5.313   0.776  1.00 20.00     0.088 C 
HETATM    2  C2  UNL     1     -32.590   7.119   2.152  1.00 20.00    -0.066 C 
HETATM    3  C3  UNL     1     -31.618   6.569   1.412  1.00 20.00     0.096 C 
HETATM    4  C4  UNL     1     -32.445   8.450   2.840  1.00 20.00     0.061 C 
HETATM    5  C5  UNL     1     -33.914   6.448   2.400  1.00 20.00     0.066 C 
HETATM    6  C6  UNL     1     -32.815   8.301   4.313  1.00 20.00     0.172 C 
HETATM    7  C7  UNL     1     -34.193   6.411   3.907  1.00 20.00     0.121 C 
HETATM    8  C8  UNL     1     -35.585   5.866   4.192  1.00 20.00     0.040 C 
HETATM    9  N9  UNL     1     -31.916   4.285   0.253  1.00 20.00    -0.192 NA
HETATM   10  O10 UNL     1     -34.123   7.737   4.455  1.00 20.00    -0.386 OA
ENDROOT
TORSDOF 0
ENDMDL
