MODEL 1
REMARK VINA RESULT:      -0.3      0.000      0.000
REMARK  2 active torsions:
REMARK  status: ('A' for Active; 'I' for Inactive)
REMARK    1  A    between atoms: C5_5  and  C8_8 
REMARK    2  A    between atoms: C8_8  and  C9_9 
ROOT
HETATM    1  C1  UNL     1     -34.669   5.225   4.453  1.00 20.00     0.046 C 
HETATM    2  C2  UNL     1     -32.691   4.858   2.964  1.00 20.00     0.057 C 
HETATM    3  C3  UNL     1     -35.040   6.411   3.575  1.00 20.00     0.170 C 
HETATM    4  C4  UNL     1     -33.884   4.194   3.649  1.00 20.00     0.087 C 
HETATM    5  C5  UNL     1     -33.109   6.100   2.152  1.00 20.00     0.058 C 
HETATM    6  C6  UNL     1     -33.870   5.726   0.871  1.00 20.00     0.046 C 
HETATM    7  O10 UNL     1     -33.888   6.990   2.966  1.00 20.00    -0.380 OA
HETATM    8 CL11 UNL     1     -33.328   2.874   4.715  1.00 20.00    -0.125 Cl
ENDROOT
BRANCH   5   9
HETATM    9  C8  UNL     1     -31.852   6.886   1.753  1.00 20.00     0.037 C 
BRANCH   9  10
HETATM   10  C9  UNL     1     -32.042   8.377   1.998  1.00 20.00    -0.002 C 
HETATM   11  C7  UNL     1     -32.200   9.128   0.686  1.00 20.00     0.005 C 
ENDBRANCH   9  10
ENDBRANCH   5   9
TORSDOF 2
ENDMDL
MODEL 2
REMARK VINA RESULT:       0.1      1.777      2.887
REMARK  2 active torsions:
REMARK  status: ('A' for Active; 'I' for Inactive)
REMARK    1  A    between atoms: C5_5  and  C8_8 
REMARK    2  A    between atoms: C8_8  and  C9_9 
ROOT
HETATM    1  C1  UNL     1     -33.523   5.431   2.318  1.00 20.00     0.046 C 
HETATM    2  C2  UNL     1     -33.814   7.814   3.027  1.00 20.00     0.057 C 
HETATM    3  C3  UNL     1     -32.236   5.853   1.624  1.00 20.00     0.170 C 
HETATM    4  C4  UNL     1     -33.820   6.358   3.492  1.00 20.00     0.087 C 
HETATM    5  C5  UNL     1     -32.524   8.168   2.260  1.00 20.00     0.058 C 
HETATM    6  C6  UNL     1     -31.305   8.267   3.189  1.00 20.00     0.046 C 
HETATM    7  O10 UNL     1     -32.289   7.217   1.211  1.00 20.00    -0.380 OA
HETATM    8 CL11 UNL     1     -35.402   5.949   4.214  1.00 20.00    -0.125 Cl
ENDROOT
BRANCH   5   9
HETATM    9  C8  UNL     1     -32.710   9.524   1.565  1.00 20.00     0.037 C 
BRANCH   9  10
HETATM   10  C9  UNL     1     -32.037   9.532   0.199  1.00 20.00    -0.002 C 
HETATM   11  C7  UNL     1     -32.873  10.294  -0.816  1.00 20.00     0.005 C 
ENDBRANCH   9  10
ENDBRANCH   5   9
TORSDOF 2
ENDMDL
MODEL 3
REMARK VINA RESULT:       0.5      2.325      4.405
REMARK  2 active torsions:
REMARK  status: ('A' for Active; 'I' for Inactive)
REMARK    1  A    between atoms: C5_5  and  C8_8 
REMARK    2  A    between atoms: C8_8  and  C9_9 
ROOT
HETATM    1  C1  UNL     1     -32.147   7.311   1.887  1.00 20.00     0.046 C 
HETATM    2  C2  UNL     1     -33.273   7.084   4.111  1.00 20.00     0.057 C 
HETATM    3  C3  UNL     1     -33.153   6.311   1.338  1.00 20.00     0.170 C 
HETATM    4  C4  UNL     1     -32.742   8.068   3.070  1.00 20.00     0.087 C 
HETATM    5  C5  UNL     1     -34.225   6.043   3.489  1.00 20.00     0.058 C 
HETATM    6  C6  UNL     1     -35.582   6.654   3.107  1.00 20.00     0.046 C 
HETATM    7  O10 UNL     1     -33.610   5.419   2.352  1.00 20.00    -0.380 OA
HETATM    8 CL11 UNL     1     -31.511   9.135   3.801  1.00 20.00    -0.125 Cl
ENDROOT
BRANCH   5   9
HETATM    9  C8  UNL     1     -34.473   4.918   4.504  1.00 20.00     0.037 C 
BRANCH   9  10
HETATM   10  C9  UNL     1     -33.839   3.615   4.036  1.00 20.00    -0.002 C 
HETATM   11  C7  UNL     1     -32.979   3.006   5.131  1.00 20.00     0.005 C 
ENDBRANCH   9  10
ENDBRANCH   5   9
TORSDOF 2
ENDMDL
MODEL 4
REMARK VINA RESULT:       1.4      2.095      2.889
REMARK  2 active torsions:
REMARK  status: ('A' for Active; 'I' for Inactive)
REMARK    1  A    between atoms: C5_5  and  C8_8 
REMARK    2  A    between atoms: C8_8  and  C9_9 
ROOT
HETATM    1  C1  UNL     1     -34.167   6.318   3.387  1.00 20.00     0.046 C 
HETATM    2  C2  UNL     1     -32.766   8.303   2.788  1.00 20.00     0.057 C 
HETATM    3  C3  UNL     1     -33.530   5.585   2.216  1.00 20.00     0.170 C 
HETATM    4  C4  UNL     1     -33.220   7.386   3.923  1.00 20.00     0.087 C 
HETATM    5  C5  UNL     1     -32.203   7.508   1.594  1.00 20.00     0.058 C 
HETATM    6  C6  UNL     1     -30.826   6.900   1.900  1.00 20.00     0.046 C 
HETATM    7  O10 UNL     1     -33.130   6.489   1.189  1.00 20.00    -0.380 OA
HETATM    8 CL11 UNL     1     -34.026   8.338   5.201  1.00 20.00    -0.125 Cl
ENDROOT
BRANCH   5   9
HETATM    9  C8  UNL     1     -32.056   8.447   0.389  1.00 20.00     0.037 C 
BRANCH   9  10
HETATM   10  C9  UNL     1     -32.446   9.872   0.759  1.00 20.00    -0.002 C 
HETATM   11  C7  UNL     1     -33.014  10.610  -0.442  1.00 20.00     0.005 C 
ENDBRANCH   9  10
ENDBRANCH   5   9
TORSDOF 2
ENDMDL
MODEL 5
REMARK VINA RESULT:       1.9      2.184      3.194
REMARK  2 active torsions:
REMARK  status: ('A' for Active; 'I' for Inactive)
REMARK    1  A    between atoms: C5_5  and  C8_8 
REMARK    2  A    between atoms: C8_8  and  C9_9 
ROOT
HETATM    1  C1  UNL     1     -33.220   7.942   4.705  1.00 20.00     0.046 C 
HETATM    2  C2  UNL     1     -33.517   6.719   2.542  1.00 20.00     0.057 C 
HETATM    3  C3  UNL     1     -32.107   8.738   4.038  1.00 20.00     0.170 C 
HETATM    4  C4  UNL     1     -34.230   7.469   3.666  1.00 20.00     0.087 C 
HETATM    5  C5  UNL     1     -32.348   7.535   1.954  1.00 20.00     0.058 C 
HETATM    6  C6  UNL     1     -32.838   8.717   1.103  1.00 20.00     0.046 C 
HETATM    7  O10 UNL     1     -31.477   7.988   3.001  1.00 20.00    -0.380 OA
HETATM    8 CL11 UNL     1     -35.452   6.416   4.431  1.00 20.00    -0.125 Cl
ENDROOT
BRANCH   5   9
HETATM    9  C8  UNL     1     -31.495   6.622   1.062  1.00 20.00     0.037 C 
BRANCH   9  10
HETATM   10  C9  UNL     1     -32.134   5.247   0.923  1.00 20.00    -0.002 C 
HETATM   11  C7  UNL     1     -31.165   4.258   0.296  1.00 20.00     0.005 C 
ENDBRANCH   9  10
ENDBRANCH   5   9
TORSDOF 2
ENDMDL
MODEL 6
REMARK VINA RESULT:       2.0      1.913      4.074
REMARK  2 active torsions:
REMARK  status: ('A' for Active; 'I' for Inactive)
REMARK    1  A    between atoms: C5_5  and  C8_8 
REMARK    2  A    between atoms: C8_8  and  C9_9 
ROOT
HETATM    1  C1  UNL     1     -31.996   7.597   0.848  1.00 20.00     0.046 C 
HETATM    2  C2  UNL     1     -33.111   6.269   2.653  1.00 20.00     0.057 C 
HETATM    3  C3  UNL     1     -32.353   8.853   1.629  1.00 20.00     0.170 C 
HETATM    4  C4  UNL     1     -31.857   6.408   1.792  1.00 20.00     0.087 C 
HETATM    5  C5  UNL     1     -33.475   7.590   3.359  1.00 20.00     0.058 C 
HETATM    6  C6  UNL     1     -32.504   7.923   4.502  1.00 20.00     0.046 C 
HETATM    7  O10 UNL     1     -33.531   8.666   2.410  1.00 20.00    -0.380 OA
HETATM    8 CL11 UNL     1     -31.581   4.910   0.859  1.00 20.00    -0.125 Cl
ENDROOT
BRANCH   5   9
HETATM    9  C8  UNL     1     -34.888   7.474   3.947  1.00 20.00     0.037 C 
BRANCH   9  10
HETATM   10  C9  UNL     1     -35.514   6.131   3.596  1.00 20.00    -0.002 C 
HETATM   11  C7  UNL     1     -35.332   5.134   4.729  1.00 20.00     0.005 C 
ENDBRANCH   9  10
ENDBRANCH   5   9
TORSDOF 2
ENDMDL
MODEL 7
REMARK VINA RESULT:       2.0      2.950      4.702
REMARK  2 active torsions:
REMARK  status: ('A' for Active; 'I' for Inactive)
REMARK    1  A    between atoms: C5_5  and  C8_8 
REMARK    2  A    between atoms: C8_8  and  C9_9 
ROOT
HETATM    1  C1  UNL     1     -31.782   9.493   1.730  1.00 20.00     0.046 C 
HETATM    2  C2  UNL     1     -33.231   7.678   0.796  1.00 20.00     0.057 C 
HETATM    3  C3  UNL     1     -31.357   8.517   2.818  1.00 20.00     0.170 C 
HETATM    4  C4  UNL     1     -32.181   8.738   0.467  1.00 20.00     0.087 C 
HETATM    5  C5  UNL     1     -32.785   6.766   1.956  1.00 20.00     0.058 C 
HETATM    6  C6  UNL     1     -31.670   5.796   1.537  1.00 20.00     0.046 C 
HETATM    7  O10 UNL     1     -32.375   7.555   3.084  1.00 20.00    -0.380 OA
HETATM    8 CL11 UNL     1     -32.816   9.875  -0.755  1.00 20.00    -0.125 Cl
ENDROOT
BRANCH   5   9
HETATM    9  C8  UNL     1     -33.986   5.939   2.436  1.00 20.00     0.037 C 
BRANCH   9  10
HETATM   10  C9  UNL     1     -34.587   6.537   3.702  1.00 20.00    -0.002 C 
HETATM   11  C7  UNL     1     -35.415   5.504   4.450  1.00 20.00     0.005 C 
ENDBRANCH   9  10
ENDBRANCH   5   9
TORSDOF 2
ENDMDL
MODEL 8
REMARK VINA RESULT:       2.0      2.188      3.034
REMARK  2 active torsions:
REMARK  status: ('A' for Active; 'I' for Inactive)
REMARK    1  A    between atoms: C5_5  and  C8_8 
REMARK    2  A    between atoms: C8_8  and  C9_9 
ROOT
HETATM    1  C1  UNL     1     -33.759   7.596   3.743  1.00 20.00     0.046 C 
HETATM    2  C2  UNL     1     -33.552   5.320   2.721  1.00 20.00     0.057 C 
HETATM    3  C3  UNL     1     -32.899   8.124   2.604  1.00 20.00     0.170 C 
HETATM    4  C4  UNL     1     -34.520   6.352   3.300  1.00 20.00     0.087 C 
HETATM    5  C5  UNL     1     -32.650   5.926   1.627  1.00 20.00     0.058 C 
HETATM    6  C6  UNL     1     -33.421   6.203   0.328  1.00 20.00     0.046 C 
HETATM    7  O10 UNL     1     -32.016   7.121   2.107  1.00 20.00    -0.380 OA
HETATM    8 CL11 UNL     1     -35.413   5.652   4.679  1.00 20.00    -0.125 Cl
ENDROOT
BRANCH   5   9
HETATM    9  C8  UNL     1     -31.514   4.944   1.312  1.00 20.00     0.037 C 
BRANCH   9  10
HETATM   10  C9  UNL     1     -31.784   4.199   0.012  1.00 20.00    -0.002 C 
HETATM   11  C7  UNL     1     -30.556   3.422  -0.436  1.00 20.00     0.005 C 
ENDBRANCH   9  10
ENDBRANCH   5   9
TORSDOF 2
ENDMDL
MODEL 9
REMARK VINA RESULT:       2.3      2.195      4.102
REMARK  2 active torsions:
REMARK  status: ('A' for Active; 'I' for Inactive)
REMARK    1  A    between atoms: C5_5  and  C8_8 
REMARK    2  A    between atoms: C8_8  and  C9_9 
ROOT
HETATM    1  C1  UNL     1     -32.162   8.283   2.936  1.00 20.00     0.046 C 
HETATM    2  C2  UNL     1     -33.710   6.395   3.489  1.00 20.00     0.057 C 
HETATM    3  C3  UNL     1     -31.753   7.510   1.691  1.00 20.00     0.170 C 
HETATM    4  C4  UNL     1     -33.582   7.911   3.348  1.00 20.00     0.087 C 
HETATM    5  C5  UNL     1     -33.208   5.655   2.232  1.00 20.00     0.058 C 
HETATM    6  C6  UNL     1     -34.170   5.811   1.045  1.00 20.00     0.046 C 
HETATM    7  O10 UNL     1     -31.890   6.103   1.881  1.00 20.00    -0.380 OA
HETATM    8 CL11 UNL     1     -34.006   8.710   4.888  1.00 20.00    -0.125 Cl
ENDROOT
BRANCH   5   9
HETATM    9  C8  UNL     1     -33.074   4.159   2.550  1.00 20.00     0.037 C 
BRANCH   9  10
HETATM   10  C9  UNL     1     -33.811   3.808   3.835  1.00 20.00    -0.002 C 
HETATM   11  C7  UNL     1     -33.000   2.840   4.680  1.00 20.00     0.005 C 
ENDBRANCH   9  10
ENDBRANCH   5   9
TORSDOF 2
ENDMDL
