MODEL 1
REMARK VINA RESULT:       0.7      0.000      0.000
REMARK  1 active torsions:
REMARK  status: ('A' for Active; 'I' for Inactive)
REMARK    1  A    between atoms: C5_5  and  C8_8 
ROOT
HETATM    1  C1  UNL     1     -32.280   7.764   1.721  1.00 20.00     0.046 C 
HETATM    2  C2  UNL     1     -34.024   5.966   1.920  1.00 20.00     0.057 C 
HETATM    3  C3  UNL     1     -32.311   7.865   3.237  1.00 20.00     0.170 C 
HETATM    4  C4  UNL     1     -32.724   6.389   1.233  1.00 20.00     0.087 C 
HETATM    5  C5  UNL     1     -34.099   6.249   3.442  1.00 20.00     0.058 C 
HETATM    6  C6  UNL     1     -35.562   6.237   3.861  1.00 20.00     0.046 C 
HETATM    7  O9  UNL     1     -33.606   7.561   3.745  1.00 20.00    -0.380 OA
HETATM    8 CL10 UNL     1     -31.430   5.180   1.474  1.00 20.00    -0.125 Cl
ENDROOT
BRANCH   5   9
HETATM    9  C8  UNL     1     -33.360   5.196   4.286  1.00 20.00     0.033 C 
HETATM   10  C7  UNL     1     -33.933   3.836   4.082  1.00 20.00     0.008 C 
ENDBRANCH   5   9
TORSDOF 1
ENDMDL
MODEL 2
REMARK VINA RESULT:       0.8      1.513      3.725
REMARK  1 active torsions:
REMARK  status: ('A' for Active; 'I' for Inactive)
REMARK    1  A    between atoms: C5_5  and  C8_8 
ROOT
HETATM    1  C1  UNL     1     -33.686   5.476   2.886  1.00 20.00     0.046 C 
HETATM    2  C2  UNL     1     -31.804   6.529   1.595  1.00 20.00     0.057 C 
HETATM    3  C3  UNL     1     -34.144   6.884   3.231  1.00 20.00     0.170 C 
HETATM    4  C4  UNL     1     -32.881   5.442   1.592  1.00 20.00     0.087 C 
HETATM    5  C5  UNL     1     -32.255   7.914   2.125  1.00 20.00     0.058 C 
HETATM    6  C6  UNL     1     -31.014   8.704   2.518  1.00 20.00     0.046 C 
HETATM    7  O9  UNL     1     -33.038   7.776   3.319  1.00 20.00    -0.380 OA
HETATM    8 CL10 UNL     1     -33.955   5.584   0.170  1.00 20.00    -0.125 Cl
ENDROOT
BRANCH   5   9
HETATM    9  C8  UNL     1     -33.023   8.737   1.077  1.00 20.00     0.033 C 
HETATM   10  C7  UNL     1     -32.115   9.656   0.334  1.00 20.00     0.008 C 
ENDBRANCH   5   9
TORSDOF 1
ENDMDL
MODEL 3
REMARK VINA RESULT:       1.3      2.048      3.654
REMARK  1 active torsions:
REMARK  status: ('A' for Active; 'I' for Inactive)
REMARK    1  A    between atoms: C5_5  and  C8_8 
ROOT
HETATM    1  C1  UNL     1     -34.843   5.238   4.343  1.00 20.00     0.046 C 
HETATM    2  C2  UNL     1     -34.538   6.652   2.289  1.00 20.00     0.057 C 
HETATM    3  C3  UNL     1     -33.537   4.550   3.979  1.00 20.00     0.170 C 
HETATM    4  C4  UNL     1     -34.922   6.648   3.769  1.00 20.00     0.087 C 
HETATM    5  C5  UNL     1     -33.303   5.792   1.916  1.00 20.00     0.058 C 
HETATM    6  C6  UNL     1     -33.348   5.508   0.421  1.00 20.00     0.046 C 
HETATM    7  O9  UNL     1     -33.352   4.515   2.568  1.00 20.00    -0.380 OA
HETATM    8 CL10 UNL     1     -33.909   7.778   4.714  1.00 20.00    -0.125 Cl
ENDROOT
BRANCH   5   9
HETATM    9  C8  UNL     1     -31.968   6.492   2.221  1.00 20.00     0.033 C 
HETATM   10  C7  UNL     1     -31.954   7.887   1.696  1.00 20.00     0.008 C 
ENDBRANCH   5   9
TORSDOF 1
ENDMDL
MODEL 4
REMARK VINA RESULT:       1.7      2.164      3.340
REMARK  1 active torsions:
REMARK  status: ('A' for Active; 'I' for Inactive)
REMARK    1  A    between atoms: C5_5  and  C8_8 
ROOT
HETATM    1  C1  UNL     1     -33.353   7.687   3.840  1.00 20.00     0.046 C 
HETATM    2  C2  UNL     1     -33.424   5.342   2.942  1.00 20.00     0.057 C 
HETATM    3  C3  UNL     1     -32.920   8.131   2.452  1.00 20.00     0.170 C 
HETATM    4  C4  UNL     1     -34.144   6.385   3.799  1.00 20.00     0.087 C 
HETATM    5  C5  UNL     1     -32.831   5.865   1.609  1.00 20.00     0.058 C 
HETATM    6  C6  UNL     1     -31.770   4.881   1.137  1.00 20.00     0.046 C 
HETATM    7  O9  UNL     1     -32.159   7.117   1.804  1.00 20.00    -0.380 OA
HETATM    8 CL10 UNL     1     -35.812   6.670   3.224  1.00 20.00    -0.125 Cl
ENDROOT
BRANCH   5   9
HETATM    9  C8  UNL     1     -33.882   5.994   0.494  1.00 20.00     0.033 C 
HETATM   10  C7  UNL     1     -34.007   4.730  -0.286  1.00 20.00     0.008 C 
ENDBRANCH   5   9
TORSDOF 1
ENDMDL
MODEL 5
REMARK VINA RESULT:       2.3      2.037      2.755
REMARK  1 active torsions:
REMARK  status: ('A' for Active; 'I' for Inactive)
REMARK    1  A    between atoms: C5_5  and  C8_8 
ROOT
HETATM    1  C1  UNL     1     -31.651   6.677   1.329  1.00 20.00     0.046 C 
HETATM    2  C2  UNL     1     -32.254   8.414   3.042  1.00 20.00     0.057 C 
HETATM    3  C3  UNL     1     -32.855   5.883   1.812  1.00 20.00     0.170 C 
HETATM    4  C4  UNL     1     -31.809   8.169   1.599  1.00 20.00     0.087 C 
HETATM    5  C5  UNL     1     -33.362   7.466   3.570  1.00 20.00     0.058 C 
HETATM    6  C6  UNL     1     -33.340   7.502   5.092  1.00 20.00     0.046 C 
HETATM    7  O9  UNL     1     -33.094   6.106   3.197  1.00 20.00    -0.380 OA
HETATM    8 CL10 UNL     1     -32.937   8.913   0.429  1.00 20.00    -0.125 Cl
ENDROOT
BRANCH   5   9
HETATM    9  C8  UNL     1     -34.771   7.874   3.111  1.00 20.00     0.033 C 
HETATM   10  C7  UNL     1     -35.779   6.831   3.452  1.00 20.00     0.008 C 
ENDBRANCH   5   9
TORSDOF 1
ENDMDL
MODEL 6
REMARK VINA RESULT:       2.4      2.085      3.931
REMARK  1 active torsions:
REMARK  status: ('A' for Active; 'I' for Inactive)
REMARK    1  A    between atoms: C5_5  and  C8_8 
ROOT
HETATM    1  C1  UNL     1     -33.708   7.034   4.650  1.00 20.00     0.046 C 
HETATM    2  C2  UNL     1     -33.171   6.441   2.268  1.00 20.00     0.057 C 
HETATM    3  C3  UNL     1     -33.093   8.397   4.377  1.00 20.00     0.170 C 
HETATM    4  C4  UNL     1     -34.225   6.377   3.375  1.00 20.00     0.087 C 
HETATM    5  C5  UNL     1     -32.427   7.794   2.130  1.00 20.00     0.058 C 
HETATM    6  C6  UNL     1     -31.133   7.555   1.366  1.00 20.00     0.046 C 
HETATM    7  O9  UNL     1     -32.046   8.303   3.416  1.00 20.00    -0.380 OA
HETATM    8 CL10 UNL     1     -35.767   7.119   2.858  1.00 20.00    -0.125 Cl
ENDROOT
BRANCH   5   9
HETATM    9  C8  UNL     1     -33.239   8.850   1.360  1.00 20.00     0.033 C 
HETATM   10  C7  UNL     1     -32.375   9.622   0.423  1.00 20.00     0.008 C 
ENDBRANCH   5   9
TORSDOF 1
ENDMDL
MODEL 7
REMARK VINA RESULT:       3.1      2.195      3.120
REMARK  1 active torsions:
REMARK  status: ('A' for Active; 'I' for Inactive)
REMARK    1  A    between atoms: C5_5  and  C8_8 
ROOT
HETATM    1  C1  UNL     1     -32.174   5.020   1.148  1.00 20.00     0.046 C 
HETATM    2  C2  UNL     1     -33.720   6.968   1.509  1.00 20.00     0.057 C 
HETATM    3  C3  UNL     1     -31.060   5.889   1.709  1.00 20.00     0.170 C 
HETATM    4  C4  UNL     1     -33.545   5.456   1.655  1.00 20.00     0.087 C 
HETATM    5  C5  UNL     1     -32.495   7.826   1.920  1.00 20.00     0.058 C 
HETATM    6  C6  UNL     1     -32.634   9.199   1.278  1.00 20.00     0.046 C 
HETATM    7  O9  UNL     1     -31.280   7.263   1.406  1.00 20.00    -0.380 OA
HETATM    8 CL10 UNL     1     -33.798   4.924   3.343  1.00 20.00    -0.125 Cl
ENDROOT
BRANCH   5   9
HETATM    9  C8  UNL     1     -32.386   8.027   3.441  1.00 20.00     0.033 C 
HETATM   10  C7  UNL     1     -33.727   8.014   4.089  1.00 20.00     0.008 C 
ENDBRANCH   5   9
TORSDOF 1
ENDMDL
MODEL 8
REMARK VINA RESULT:       3.2      1.879      3.002
REMARK  1 active torsions:
REMARK  status: ('A' for Active; 'I' for Inactive)
REMARK    1  A    between atoms: C5_5  and  C8_8 
ROOT
HETATM    1  C1  UNL     1     -33.836   7.748   3.690  1.00 20.00     0.046 C 
HETATM    2  C2  UNL     1     -33.004   7.481   1.334  1.00 20.00     0.057 C 
HETATM    3  C3  UNL     1     -33.693   6.242   3.837  1.00 20.00     0.170 C 
HETATM    4  C4  UNL     1     -32.905   8.305   2.619  1.00 20.00     0.087 C 
HETATM    5  C5  UNL     1     -33.040   5.943   1.527  1.00 20.00     0.058 C 
HETATM    6  C6  UNL     1     -33.617   5.314   0.267  1.00 20.00     0.046 C 
HETATM    7  O9  UNL     1     -33.924   5.581   2.597  1.00 20.00    -0.380 OA
HETATM    8 CL10 UNL     1     -31.223   8.389   3.218  1.00 20.00    -0.125 Cl
ENDROOT
BRANCH   5   9
HETATM    9  C8  UNL     1     -31.647   5.334   1.760  1.00 20.00     0.033 C 
HETATM   10  C7  UNL     1     -31.268   4.404   0.659  1.00 20.00     0.008 C 
ENDBRANCH   5   9
TORSDOF 1
ENDMDL
MODEL 9
REMARK VINA RESULT:       3.6      1.990      2.895
REMARK  1 active torsions:
REMARK  status: ('A' for Active; 'I' for Inactive)
REMARK    1  A    between atoms: C5_5  and  C8_8 
ROOT
HETATM    1  C1  UNL     1     -34.997   7.923   3.776  1.00 20.00     0.046 C 
HETATM    2  C2  UNL     1     -32.822   7.216   2.736  1.00 20.00     0.057 C 
HETATM    3  C3  UNL     1     -35.377   6.452   3.813  1.00 20.00     0.170 C 
HETATM    4  C4  UNL     1     -33.485   8.120   3.776  1.00 20.00     0.087 C 
HETATM    5  C5  UNL     1     -33.358   5.763   2.672  1.00 20.00     0.058 C 
HETATM    6  C6  UNL     1     -32.974   5.168   1.325  1.00 20.00     0.046 C 
HETATM    7  O9  UNL     1     -34.791   5.743   2.726  1.00 20.00    -0.380 OA
HETATM    8 CL10 UNL     1     -32.809   7.849   5.409  1.00 20.00    -0.125 Cl
ENDROOT
BRANCH   5   9
HETATM    9  C8  UNL     1     -32.772   4.858   3.769  1.00 20.00     0.033 C 
HETATM   10  C7  UNL     1     -33.677   3.712   4.070  1.00 20.00     0.008 C 
ENDBRANCH   5   9
TORSDOF 1
ENDMDL
