MODEL 1
REMARK VINA RESULT:       0.0      0.000      0.000
REMARK  0 active torsions:
REMARK  status: ('A' for Active; 'I' for Inactive)
ROOT
HETATM    1  C1  UNL     1     -33.570   5.382   2.340  1.00 20.00     0.046 C 
HETATM    2  C2  UNL     1     -33.187   7.655   3.317  1.00 20.00     0.057 C 
HETATM    3  C3  UNL     1     -32.562   5.739   1.256  1.00 20.00     0.170 C 
HETATM    4  C4  UNL     1     -34.242   6.641   2.875  1.00 20.00     0.087 C 
HETATM    5  C5  UNL     1     -32.145   7.921   2.212  1.00 20.00     0.055 C 
HETATM    6  C6  UNL     1     -30.961   8.693   2.812  1.00 20.00     0.045 C 
HETATM    7  C7  UNL     1     -32.724   8.753   1.056  1.00 20.00     0.045 C 
HETATM    8  O8  UNL     1     -31.603   6.683   1.726  1.00 20.00    -0.381 OA
HETATM    9 CL9  UNL     1     -35.316   6.233   4.242  1.00 20.00    -0.125 Cl
ENDROOT
TORSDOF 0
ENDMDL
MODEL 2
REMARK VINA RESULT:       0.7      2.372      3.778
REMARK  0 active torsions:
REMARK  status: ('A' for Active; 'I' for Inactive)
ROOT
HETATM    1  C1  UNL     1     -32.410   7.530   2.649  1.00 20.00     0.046 C 
HETATM    2  C2  UNL     1     -33.812   5.461   2.787  1.00 20.00     0.057 C 
HETATM    3  C3  UNL     1     -33.439   8.219   3.536  1.00 20.00     0.170 C 
HETATM    4  C4  UNL     1     -33.064   6.409   1.851  1.00 20.00     0.087 C 
HETATM    5  C5  UNL     1     -34.781   6.216   3.719  1.00 20.00     0.055 C 
HETATM    6  C6  UNL     1     -35.259   5.264   4.825  1.00 20.00     0.045 C 
HETATM    7  C7  UNL     1     -36.015   6.741   2.969  1.00 20.00     0.045 C 
HETATM    8  O8  UNL     1     -34.099   7.287   4.389  1.00 20.00    -0.381 OA
HETATM    9 CL9  UNL     1     -31.830   5.513   0.921  1.00 20.00    -0.125 Cl
ENDROOT
TORSDOF 0
ENDMDL
MODEL 3
REMARK VINA RESULT:       1.1      2.322      3.323
REMARK  0 active torsions:
REMARK  status: ('A' for Active; 'I' for Inactive)
ROOT
HETATM    1  C1  UNL     1     -32.007   6.920   1.112  1.00 20.00     0.046 C 
HETATM    2  C2  UNL     1     -33.728   8.223   2.380  1.00 20.00     0.057 C 
HETATM    3  C3  UNL     1     -32.159   5.816   2.150  1.00 20.00     0.170 C 
HETATM    4  C4  UNL     1     -32.349   8.274   1.724  1.00 20.00     0.087 C 
HETATM    5  C5  UNL     1     -33.856   7.041   3.362  1.00 20.00     0.055 C 
HETATM    6  C6  UNL     1     -35.332   6.862   3.744  1.00 20.00     0.045 C 
HETATM    7  C7  UNL     1     -33.049   7.267   4.650  1.00 20.00     0.045 C 
HETATM    8  O8  UNL     1     -33.464   5.815   2.724  1.00 20.00    -0.381 OA
HETATM    9 CL9  UNL     1     -32.308   9.544   0.470  1.00 20.00    -0.125 Cl
ENDROOT
TORSDOF 0
ENDMDL
MODEL 4
REMARK VINA RESULT:       1.2      2.102      2.763
REMARK  0 active torsions:
REMARK  status: ('A' for Active; 'I' for Inactive)
ROOT
HETATM    1  C1  UNL     1     -33.445   5.643   2.340  1.00 20.00     0.046 C 
HETATM    2  C2  UNL     1     -31.966   7.084   0.924  1.00 20.00     0.057 C 
HETATM    3  C3  UNL     1     -33.666   6.851   3.240  1.00 20.00     0.170 C 
HETATM    4  C4  UNL     1     -32.093   5.742   1.643  1.00 20.00     0.087 C 
HETATM    5  C5  UNL     1     -32.277   8.270   1.859  1.00 20.00     0.055 C 
HETATM    6  C6  UNL     1     -32.436   9.545   1.018  1.00 20.00     0.045 C 
HETATM    7  C7  UNL     1     -31.160   8.507   2.887  1.00 20.00     0.045 C 
HETATM    8  O8  UNL     1     -33.540   8.072   2.516  1.00 20.00    -0.381 OA
HETATM    9 CL9  UNL     1     -31.900   4.399   0.481  1.00 20.00    -0.125 Cl
ENDROOT
TORSDOF 0
ENDMDL
MODEL 5
REMARK VINA RESULT:       1.2      2.256      3.092
REMARK  0 active torsions:
REMARK  status: ('A' for Active; 'I' for Inactive)
ROOT
HETATM    1  C1  UNL     1     -35.265   4.870   4.337  1.00 20.00     0.046 C 
HETATM    2  C2  UNL     1     -33.052   5.238   3.227  1.00 20.00     0.057 C 
HETATM    3  C3  UNL     1     -35.562   6.346   4.109  1.00 20.00     0.170 C 
HETATM    4  C4  UNL     1     -33.762   4.642   4.441  1.00 20.00     0.087 C 
HETATM    5  C5  UNL     1     -33.448   6.710   2.993  1.00 20.00     0.055 C 
HETATM    6  C6  UNL     1     -32.955   7.150   1.607  1.00 20.00     0.045 C 
HETATM    7  C7  UNL     1     -32.834   7.650   4.042  1.00 20.00     0.045 C 
HETATM    8  O8  UNL     1     -34.878   6.845   2.963  1.00 20.00    -0.381 OA
HETATM    9 CL9  UNL     1     -33.411   2.895   4.565  1.00 20.00    -0.125 Cl
ENDROOT
TORSDOF 0
ENDMDL
MODEL 6
REMARK VINA RESULT:       1.2      2.386      2.826
REMARK  0 active torsions:
REMARK  status: ('A' for Active; 'I' for Inactive)
ROOT
HETATM    1  C1  UNL     1     -32.847   4.561   2.473  1.00 20.00     0.046 C 
HETATM    2  C2  UNL     1     -33.972   5.503   4.502  1.00 20.00     0.057 C 
HETATM    3  C3  UNL     1     -33.196   5.854   1.748  1.00 20.00     0.170 C 
HETATM    4  C4  UNL     1     -33.855   4.287   3.583  1.00 20.00     0.087 C 
HETATM    5  C5  UNL     1     -34.246   6.798   3.711  1.00 20.00     0.055 C 
HETATM    6  C6  UNL     1     -34.046   8.005   4.639  1.00 20.00     0.045 C 
HETATM    7  C7  UNL     1     -35.679   6.849   3.160  1.00 20.00     0.045 C 
HETATM    8  O8  UNL     1     -33.287   6.951   2.653  1.00 20.00    -0.381 OA
HETATM    9 CL9  UNL     1     -33.362   2.850   4.521  1.00 20.00    -0.125 Cl
ENDROOT
TORSDOF 0
ENDMDL
MODEL 7
REMARK VINA RESULT:       1.2      1.123      2.852
REMARK  0 active torsions:
REMARK  status: ('A' for Active; 'I' for Inactive)
ROOT
HETATM    1  C1  UNL     1     -32.609   8.440   2.798  1.00 20.00     0.046 C 
HETATM    2  C2  UNL     1     -33.732   6.217   2.544  1.00 20.00     0.057 C 
HETATM    3  C3  UNL     1     -31.673   8.033   1.668  1.00 20.00     0.170 C 
HETATM    4  C4  UNL     1     -33.118   7.205   3.534  1.00 20.00     0.087 C 
HETATM    5  C5  UNL     1     -32.775   5.901   1.377  1.00 20.00     0.055 C 
HETATM    6  C6  UNL     1     -33.551   5.162   0.276  1.00 20.00     0.045 C 
HETATM    7  C7  UNL     1     -31.600   5.014   1.815  1.00 20.00     0.045 C 
HETATM    8  O8  UNL     1     -32.301   7.115   0.776  1.00 20.00    -0.381 OA
HETATM    9 CL9  UNL     1     -34.324   7.676   4.764  1.00 20.00    -0.125 Cl
ENDROOT
TORSDOF 0
ENDMDL
MODEL 8
REMARK VINA RESULT:       1.5      1.616      2.478
REMARK  0 active torsions:
REMARK  status: ('A' for Active; 'I' for Inactive)
ROOT
HETATM    1  C1  UNL     1     -34.567   6.493   3.923  1.00 20.00     0.046 C 
HETATM    2  C2  UNL     1     -32.856   6.257   2.111  1.00 20.00     0.057 C 
HETATM    3  C3  UNL     1     -34.224   7.976   3.976  1.00 20.00     0.170 C 
HETATM    4  C4  UNL     1     -33.367   5.690   3.435  1.00 20.00     0.087 C 
HETATM    5  C5  UNL     1     -32.602   7.775   2.194  1.00 20.00     0.055 C 
HETATM    6  C6  UNL     1     -32.394   8.329   0.777  1.00 20.00     0.045 C 
HETATM    7  C7  UNL     1     -31.356   8.109   3.029  1.00 20.00     0.045 C 
HETATM    8  O8  UNL     1     -33.759   8.449   2.714  1.00 20.00    -0.381 OA
HETATM    9 CL9  UNL     1     -33.816   3.972   3.238  1.00 20.00    -0.125 Cl
ENDROOT
TORSDOF 0
ENDMDL
MODEL 9
REMARK VINA RESULT:       1.7      1.487      2.364
REMARK  0 active torsions:
REMARK  status: ('A' for Active; 'I' for Inactive)
ROOT
HETATM    1  C1  UNL     1     -33.572   7.847   4.585  1.00 20.00     0.046 C 
HETATM    2  C2  UNL     1     -33.790   7.362   2.139  1.00 20.00     0.057 C 
HETATM    3  C3  UNL     1     -32.194   8.426   4.290  1.00 20.00     0.170 C 
HETATM    4  C4  UNL     1     -33.935   6.790   3.549  1.00 20.00     0.087 C 
HETATM    5  C5  UNL     1     -32.406   8.007   1.918  1.00 20.00     0.055 C 
HETATM    6  C6  UNL     1     -32.433   8.822   0.617  1.00 20.00     0.045 C 
HETATM    7  C7  UNL     1     -31.289   6.958   1.806  1.00 20.00     0.045 C 
HETATM    8  O8  UNL     1     -32.120   8.947   2.966  1.00 20.00    -0.381 OA
HETATM    9 CL9  UNL     1     -35.606   6.218   3.813  1.00 20.00    -0.125 Cl
ENDROOT
TORSDOF 0
ENDMDL
