MODEL 1
REMARK VINA RESULT:      -1.3      0.000      0.000
REMARK  1 active torsions:
REMARK  status: ('A' for Active; 'I' for Inactive)
REMARK    1  A    between atoms: C5_5  and  C7_7 
ROOT
HETATM    1  C1  UNL     1     -32.040   6.751   0.944  1.00 20.00     0.046 C 
HETATM    2  C2  UNL     1     -33.478   8.005   2.575  1.00 20.00     0.052 C 
HETATM    3  C3  UNL     1     -32.264   5.512   1.804  1.00 20.00     0.169 C 
HETATM    4  C4  UNL     1     -32.164   8.013   1.796  1.00 20.00     0.086 C 
HETATM    5  C5  UNL     1     -33.620   6.695   3.356  1.00 20.00     0.122 C 
HETATM    6  O8  UNL     1     -33.527   5.577   2.467  1.00 20.00    -0.386 OA
HETATM    7 CL9  UNL     1     -32.061   9.466   0.768  1.00 20.00    -0.125 Cl
ENDROOT
BRANCH   5   8
HETATM    8  C7  UNL     1     -34.969   6.619   4.059  1.00 20.00     0.027 C 
HETATM    9  C6  UNL     1     -35.315   5.217   4.449  1.00 20.00     0.007 C 
ENDBRANCH   5   8
TORSDOF 1
ENDMDL
MODEL 2
REMARK VINA RESULT:      -1.3      1.935      2.334
REMARK  1 active torsions:
REMARK  status: ('A' for Active; 'I' for Inactive)
REMARK    1  A    between atoms: C5_5  and  C7_7 
ROOT
HETATM    1  C1  UNL     1     -31.624   7.161   1.688  1.00 20.00     0.046 C 
HETATM    2  C2  UNL     1     -33.453   5.592   2.388  1.00 20.00     0.052 C 
HETATM    3  C3  UNL     1     -32.431   8.282   2.334  1.00 20.00     0.169 C 
HETATM    4  C4  UNL     1     -32.552   6.036   1.236  1.00 20.00     0.086 C 
HETATM    5  C5  UNL     1     -34.170   6.803   2.994  1.00 20.00     0.122 C 
HETATM    6  O8  UNL     1     -33.215   7.781   3.418  1.00 20.00    -0.386 OA
HETATM    7 CL9  UNL     1     -31.603   4.657   0.626  1.00 20.00    -0.125 Cl
ENDROOT
BRANCH   5   8
HETATM    8  C7  UNL     1     -34.994   6.400   4.210  1.00 20.00     0.027 C 
HETATM    9  C6  UNL     1     -34.988   4.920   4.421  1.00 20.00     0.007 C 
ENDBRANCH   5   8
TORSDOF 1
ENDMDL
MODEL 3
REMARK VINA RESULT:      -1.3      2.037      3.047
REMARK  1 active torsions:
REMARK  status: ('A' for Active; 'I' for Inactive)
REMARK    1  A    between atoms: C5_5  and  C7_7 
ROOT
HETATM    1  C1  UNL     1     -34.339   7.206   3.643  1.00 20.00     0.046 C 
HETATM    2  C2  UNL     1     -32.925   5.244   2.971  1.00 20.00     0.052 C 
HETATM    3  C3  UNL     1     -35.380   6.203   4.128  1.00 20.00     0.169 C 
HETATM    4  C4  UNL     1     -33.494   6.592   2.529  1.00 20.00     0.086 C 
HETATM    5  C5  UNL     1     -34.049   4.340   3.487  1.00 20.00     0.122 C 
HETATM    6  O8  UNL     1     -34.756   4.989   4.549  1.00 20.00    -0.386 OA
HETATM    7 CL9  UNL     1     -32.175   7.700   2.070  1.00 20.00    -0.125 Cl
ENDROOT
BRANCH   5   8
HETATM    8  C7  UNL     1     -33.495   3.031   4.029  1.00 20.00     0.027 C 
HETATM    9  C6  UNL     1     -32.846   3.211   5.364  1.00 20.00     0.007 C 
ENDBRANCH   5   8
TORSDOF 1
ENDMDL
MODEL 4
REMARK VINA RESULT:      -0.8      2.327      3.799
REMARK  1 active torsions:
REMARK  status: ('A' for Active; 'I' for Inactive)
REMARK    1  A    between atoms: C5_5  and  C7_7 
ROOT
HETATM    1  C1  UNL     1     -33.244   5.228   2.784  1.00 20.00     0.046 C 
HETATM    2  C2  UNL     1     -33.517   7.723   2.773  1.00 20.00     0.052 C 
HETATM    3  C3  UNL     1     -32.409   5.382   1.517  1.00 20.00     0.169 C 
HETATM    4  C4  UNL     1     -34.237   6.382   2.904  1.00 20.00     0.086 C 
HETATM    5  C5  UNL     1     -32.670   7.744   1.496  1.00 20.00     0.122 C 
HETATM    6  O8  UNL     1     -31.749   6.648   1.496  1.00 20.00    -0.386 OA
HETATM    7 CL9  UNL     1     -35.103   6.294   4.460  1.00 20.00    -0.125 Cl
ENDROOT
BRANCH   5   8
HETATM    8  C7  UNL     1     -31.862   9.030   1.395  1.00 20.00     0.027 C 
HETATM    9  C6  UNL     1     -32.357   9.914   0.295  1.00 20.00     0.007 C 
ENDBRANCH   5   8
TORSDOF 1
ENDMDL
MODEL 5
REMARK VINA RESULT:      -0.5      2.859      4.447
REMARK  1 active torsions:
REMARK  status: ('A' for Active; 'I' for Inactive)
REMARK    1  A    between atoms: C5_5  and  C7_7 
ROOT
HETATM    1  C1  UNL     1     -35.098   4.807   4.441  1.00 20.00     0.046 C 
HETATM    2  C2  UNL     1     -33.005   4.858   3.057  1.00 20.00     0.052 C 
HETATM    3  C3  UNL     1     -35.215   6.307   4.197  1.00 20.00     0.169 C 
HETATM    4  C4  UNL     1     -33.637   4.372   4.361  1.00 20.00     0.086 C 
HETATM    5  C5  UNL     1     -33.229   6.364   2.892  1.00 20.00     0.122 C 
HETATM    6  O8  UNL     1     -34.628   6.664   2.944  1.00 20.00    -0.386 OA
HETATM    7 CL9  UNL     1     -33.510   2.598   4.487  1.00 20.00    -0.125 Cl
ENDROOT
BRANCH   5   8
HETATM    8  C7  UNL     1     -32.699   6.853   1.551  1.00 20.00     0.027 C 
HETATM    9  C6  UNL     1     -31.949   8.140   1.685  1.00 20.00     0.007 C 
ENDBRANCH   5   8
TORSDOF 1
ENDMDL
MODEL 6
REMARK VINA RESULT:      -0.5      2.555      4.201
REMARK  1 active torsions:
REMARK  status: ('A' for Active; 'I' for Inactive)
REMARK    1  A    between atoms: C5_5  and  C7_7 
ROOT
HETATM    1  C1  UNL     1     -34.607   6.491   3.992  1.00 20.00     0.046 C 
HETATM    2  C2  UNL     1     -32.836   5.997   2.284  1.00 20.00     0.052 C 
HETATM    3  C3  UNL     1     -34.135   7.940   3.963  1.00 20.00     0.169 C 
HETATM    4  C4  UNL     1     -33.464   5.556   3.606  1.00 20.00     0.086 C 
HETATM    5  C5  UNL     1     -32.451   7.478   2.352  1.00 20.00     0.122 C 
HETATM    6  O8  UNL     1     -33.595   8.271   2.684  1.00 20.00    -0.386 OA
HETATM    7 CL9  UNL     1     -34.050   3.877   3.483  1.00 20.00    -0.125 Cl
ENDROOT
BRANCH   5   8
HETATM    8  C7  UNL     1     -31.918   7.968   1.013  1.00 20.00     0.027 C 
HETATM    9  C6  UNL     1     -32.337   9.375   0.728  1.00 20.00     0.007 C 
ENDBRANCH   5   8
TORSDOF 1
ENDMDL
MODEL 7
REMARK VINA RESULT:      -0.1      2.192      3.814
REMARK  1 active torsions:
REMARK  status: ('A' for Active; 'I' for Inactive)
REMARK    1  A    between atoms: C5_5  and  C7_7 
ROOT
HETATM    1  C1  UNL     1     -33.563   5.711   2.551  1.00 20.00     0.046 C 
HETATM    2  C2  UNL     1     -32.164   7.116   1.012  1.00 20.00     0.052 C 
HETATM    3  C3  UNL     1     -33.554   6.886   3.522  1.00 20.00     0.169 C 
HETATM    4  C4  UNL     1     -32.317   5.745   1.670  1.00 20.00     0.086 C 
HETATM    5  C5  UNL     1     -32.223   8.220   2.073  1.00 20.00     0.122 C 
HETATM    6  O8  UNL     1     -33.441   8.124   2.819  1.00 20.00    -0.386 OA
HETATM    7 CL9  UNL     1     -32.401   4.468   0.428  1.00 20.00    -0.125 Cl
ENDROOT
BRANCH   5   8
HETATM    8  C7  UNL     1     -32.177   9.600   1.432  1.00 20.00     0.027 C 
HETATM    9  C6  UNL     1     -32.461   9.542  -0.035  1.00 20.00     0.007 C 
ENDBRANCH   5   8
TORSDOF 1
ENDMDL
MODEL 8
REMARK VINA RESULT:      -0.0      2.388      3.736
REMARK  1 active torsions:
REMARK  status: ('A' for Active; 'I' for Inactive)
REMARK    1  A    between atoms: C5_5  and  C7_7 
ROOT
HETATM    1  C1  UNL     1     -33.676   7.890   3.272  1.00 20.00     0.046 C 
HETATM    2  C2  UNL     1     -33.604   5.532   2.413  1.00 20.00     0.052 C 
HETATM    3  C3  UNL     1     -32.293   8.083   2.661  1.00 20.00     0.169 C 
HETATM    4  C4  UNL     1     -33.898   6.420   3.622  1.00 20.00     0.086 C 
HETATM    5  C5  UNL     1     -32.214   5.849   1.852  1.00 20.00     0.122 C 
HETATM    6  O8  UNL     1     -32.120   7.239   1.522  1.00 20.00    -0.386 OA
HETATM    7 CL9  UNL     1     -35.569   6.163   4.187  1.00 20.00    -0.125 Cl
ENDROOT
BRANCH   5   8
HETATM    8  C7  UNL     1     -31.939   5.051   0.585  1.00 20.00     0.027 C 
HETATM    9  C6  UNL     1     -33.186   4.438   0.032  1.00 20.00     0.007 C 
ENDBRANCH   5   8
TORSDOF 1
ENDMDL
MODEL 9
REMARK VINA RESULT:       0.5      2.941      3.606
REMARK  1 active torsions:
REMARK  status: ('A' for Active; 'I' for Inactive)
REMARK    1  A    between atoms: C5_5  and  C7_7 
ROOT
HETATM    1  C1  UNL     1     -32.652   4.425   2.511  1.00 20.00     0.046 C 
HETATM    2  C2  UNL     1     -34.091   5.441   4.299  1.00 20.00     0.052 C 
HETATM    3  C3  UNL     1     -32.930   5.669   1.675  1.00 20.00     0.169 C 
HETATM    4  C4  UNL     1     -33.798   4.179   3.489  1.00 20.00     0.086 C 
HETATM    5  C5  UNL     1     -34.300   6.634   3.360  1.00 20.00     0.122 C 
HETATM    6  O8  UNL     1     -33.159   6.802   2.513  1.00 20.00    -0.386 OA
HETATM    7 CL9  UNL     1     -33.405   2.822   4.576  1.00 20.00    -0.125 Cl
ENDROOT
BRANCH   5   8
HETATM    8  C7  UNL     1     -34.491   7.923   4.146  1.00 20.00     0.027 C 
HETATM    9  C6  UNL     1     -33.284   8.261   4.962  1.00 20.00     0.007 C 
ENDBRANCH   5   8
TORSDOF 1
ENDMDL
