MODEL 1
REMARK VINA RESULT:       0.5      0.000      0.000
REMARK  2 active torsions:
REMARK  status: ('A' for Active; 'I' for Inactive)
REMARK    1  A    between atoms: C5_5  and  C8_8 
REMARK    2  A    between atoms: C5_5  and  C9_9 
ROOT
HETATM    1  C1  UNL     1     -33.488   7.755   4.840  1.00 20.00     0.046 C 
HETATM    2  C2  UNL     1     -33.563   6.744   2.550  1.00 20.00     0.058 C 
HETATM    3  C3  UNL     1     -32.435   8.721   4.318  1.00 20.00     0.170 C 
HETATM    4  C4  UNL     1     -34.398   7.299   3.704  1.00 20.00     0.087 C 
HETATM    5  C5  UNL     1     -32.460   7.728   2.112  1.00 20.00     0.061 C 
HETATM    6  O10 UNL     1     -31.686   8.150   3.246  1.00 20.00    -0.380 OA
HETATM    7 CL11 UNL     1     -35.540   6.058   4.291  1.00 20.00    -0.125 Cl
ENDROOT
BRANCH   5   8
HETATM    8  C8  UNL     1     -31.479   7.003   1.182  1.00 20.00     0.033 C 
HETATM    9  C6  UNL     1     -31.820   5.557   1.052  1.00 20.00     0.008 C 
ENDBRANCH   5   8
BRANCH   5  10
HETATM   10  C9  UNL     1     -33.029   8.940   1.361  1.00 20.00     0.033 C 
HETATM   11  C7  UNL     1     -32.044   9.486   0.384  1.00 20.00     0.008 C 
ENDBRANCH   5  10
TORSDOF 2
ENDMDL
MODEL 2
REMARK VINA RESULT:       0.5      2.027      2.991
REMARK  2 active torsions:
REMARK  status: ('A' for Active; 'I' for Inactive)
REMARK    1  A    between atoms: C5_5  and  C8_8 
REMARK    2  A    between atoms: C5_5  and  C9_9 
ROOT
HETATM    1  C1  UNL     1     -34.883   5.243   4.479  1.00 20.00     0.046 C 
HETATM    2  C2  UNL     1     -32.746   5.102   3.182  1.00 20.00     0.058 C 
HETATM    3  C3  UNL     1     -35.243   6.465   3.646  1.00 20.00     0.170 C 
HETATM    4  C4  UNL     1     -33.956   4.321   3.695  1.00 20.00     0.087 C 
HETATM    5  C5  UNL     1     -33.164   6.373   2.414  1.00 20.00     0.061 C 
HETATM    6  O10 UNL     1     -34.078   7.155   3.199  1.00 20.00    -0.380 OA
HETATM    7 CL11 UNL     1     -33.421   2.964   4.725  1.00 20.00    -0.125 Cl
ENDROOT
BRANCH   5   8
HETATM    8  C8  UNL     1     -31.930   7.259   2.199  1.00 20.00     0.033 C 
HETATM    9  C6  UNL     1     -32.263   8.468   1.392  1.00 20.00     0.008 C 
ENDBRANCH   5   8
BRANCH   5  10
HETATM   10  C9  UNL     1     -33.768   6.047   1.040  1.00 20.00     0.033 C 
HETATM   11  C7  UNL     1     -32.996   4.975   0.348  1.00 20.00     0.008 C 
ENDBRANCH   5  10
TORSDOF 2
ENDMDL
MODEL 3
REMARK VINA RESULT:       1.3      1.218      2.750
REMARK  2 active torsions:
REMARK  status: ('A' for Active; 'I' for Inactive)
REMARK    1  A    between atoms: C5_5  and  C8_8 
REMARK    2  A    between atoms: C5_5  and  C9_9 
ROOT
HETATM    1  C1  UNL     1     -33.477   5.466   2.197  1.00 20.00     0.046 C 
HETATM    2  C2  UNL     1     -33.794   7.875   2.801  1.00 20.00     0.058 C 
HETATM    3  C3  UNL     1     -32.185   5.869   1.499  1.00 20.00     0.170 C 
HETATM    4  C4  UNL     1     -33.795   6.440   3.326  1.00 20.00     0.087 C 
HETATM    5  C5  UNL     1     -32.497   8.206   2.034  1.00 20.00     0.061 C 
HETATM    6  O10 UNL     1     -32.243   7.214   1.028  1.00 20.00    -0.380 OA
HETATM    7 CL11 UNL     1     -35.381   6.049   4.047  1.00 20.00    -0.125 Cl
ENDROOT
BRANCH   5   8
HETATM    8  C8  UNL     1     -32.684   9.530   1.280  1.00 20.00     0.033 C 
HETATM    9  C6  UNL     1     -32.282   9.402  -0.151  1.00 20.00     0.008 C 
ENDBRANCH   5   8
BRANCH   5  10
HETATM   10  C9  UNL     1     -31.291   8.353   2.973  1.00 20.00     0.033 C 
HETATM   11  C7  UNL     1     -31.683   8.977   4.268  1.00 20.00     0.008 C 
ENDBRANCH   5  10
TORSDOF 2
ENDMDL
MODEL 4
REMARK VINA RESULT:       1.7      2.017      3.788
REMARK  2 active torsions:
REMARK  status: ('A' for Active; 'I' for Inactive)
REMARK    1  A    between atoms: C5_5  and  C8_8 
REMARK    2  A    between atoms: C5_5  and  C9_9 
ROOT
HETATM    1  C1  UNL     1     -31.920   7.348   0.943  1.00 20.00     0.046 C 
HETATM    2  C2  UNL     1     -33.272   5.862   2.437  1.00 20.00     0.058 C 
HETATM    3  C3  UNL     1     -32.333   8.517   1.825  1.00 20.00     0.170 C 
HETATM    4  C4  UNL     1     -31.922   6.051   1.746  1.00 20.00     0.087 C 
HETATM    5  C5  UNL     1     -33.681   7.105   3.252  1.00 20.00     0.061 C 
HETATM    6  O10 UNL     1     -33.599   8.287   2.440  1.00 20.00    -0.380 OA
HETATM    7 CL11 UNL     1     -31.578   4.664   0.675  1.00 20.00    -0.125 Cl
ENDROOT
BRANCH   5   8
HETATM    8  C8  UNL     1     -35.155   6.978   3.659  1.00 20.00     0.033 C 
HETATM    9  C6  UNL     1     -35.440   5.644   4.263  1.00 20.00     0.008 C 
ENDBRANCH   5   8
BRANCH   5  10
HETATM   10  C9  UNL     1     -32.842   7.263   4.529  1.00 20.00     0.033 C 
HETATM   11  C7  UNL     1     -33.294   8.432   5.335  1.00 20.00     0.008 C 
ENDBRANCH   5  10
TORSDOF 2
ENDMDL
MODEL 5
REMARK VINA RESULT:       2.3      2.229      4.153
REMARK  2 active torsions:
REMARK  status: ('A' for Active; 'I' for Inactive)
REMARK    1  A    between atoms: C5_5  and  C8_8 
REMARK    2  A    between atoms: C5_5  and  C9_9 
ROOT
HETATM    1  C1  UNL     1     -32.003   6.885   1.061  1.00 20.00     0.046 C 
HETATM    2  C2  UNL     1     -33.034   8.482   2.690  1.00 20.00     0.058 C 
HETATM    3  C3  UNL     1     -32.636   5.752   1.856  1.00 20.00     0.170 C 
HETATM    4  C4  UNL     1     -32.823   8.161   1.211  1.00 20.00     0.087 C 
HETATM    5  C5  UNL     1     -33.602   7.276   3.466  1.00 20.00     0.061 C 
HETATM    6  O10 UNL     1     -32.805   6.106   3.227  1.00 20.00    -0.380 OA
HETATM    7 CL11 UNL     1     -32.001   9.521   0.396  1.00 20.00    -0.125 Cl
ENDROOT
BRANCH   5   8
HETATM    8  C8  UNL     1     -33.500   7.554   4.972  1.00 20.00     0.033 C 
HETATM    9  C6  UNL     1     -32.554   8.671   5.257  1.00 20.00     0.008 C 
ENDBRANCH   5   8
BRANCH   5  10
HETATM   10  C9  UNL     1     -35.075   7.010   3.125  1.00 20.00     0.033 C 
HETATM   11  C7  UNL     1     -35.669   5.990   4.036  1.00 20.00     0.008 C 
ENDBRANCH   5  10
TORSDOF 2
ENDMDL
MODEL 6
REMARK VINA RESULT:       2.3      2.328      3.632
REMARK  2 active torsions:
REMARK  status: ('A' for Active; 'I' for Inactive)
REMARK    1  A    between atoms: C5_5  and  C8_8 
REMARK    2  A    between atoms: C5_5  and  C9_9 
ROOT
HETATM    1  C1  UNL     1     -31.811   9.506   1.886  1.00 20.00     0.046 C 
HETATM    2  C2  UNL     1     -33.305   7.702   1.000  1.00 20.00     0.058 C 
HETATM    3  C3  UNL     1     -31.420   8.554   3.007  1.00 20.00     0.170 C 
HETATM    4  C4  UNL     1     -32.223   8.722   0.645  1.00 20.00     0.087 C 
HETATM    5  C5  UNL     1     -32.891   6.816   2.193  1.00 20.00     0.061 C 
HETATM    6  O10 UNL     1     -32.466   7.630   3.298  1.00 20.00    -0.380 OA
HETATM    7 CL11 UNL     1     -32.818   9.836  -0.618  1.00 20.00    -0.125 Cl
ENDROOT
BRANCH   5   8
HETATM    8  C8  UNL     1     -34.118   6.039   2.691  1.00 20.00     0.033 C 
HETATM    9  C6  UNL     1     -34.735   6.700   3.877  1.00 20.00     0.008 C 
ENDBRANCH   5   8
BRANCH   5  10
HETATM   10  C9  UNL     1     -31.802   5.803   1.812  1.00 20.00     0.033 C 
HETATM   11  C7  UNL     1     -32.250   4.915   0.701  1.00 20.00     0.008 C 
ENDBRANCH   5  10
TORSDOF 2
ENDMDL
MODEL 7
REMARK VINA RESULT:       2.4      1.664      2.933
REMARK  2 active torsions:
REMARK  status: ('A' for Active; 'I' for Inactive)
REMARK    1  A    between atoms: C5_5  and  C8_8 
REMARK    2  A    between atoms: C5_5  and  C9_9 
ROOT
HETATM    1  C1  UNL     1     -34.374   7.106   3.862  1.00 20.00     0.046 C 
HETATM    2  C2  UNL     1     -32.292   8.204   3.007  1.00 20.00     0.058 C 
HETATM    3  C3  UNL     1     -34.365   6.241   2.610  1.00 20.00     0.170 C 
HETATM    4  C4  UNL     1     -32.956   7.543   4.215  1.00 20.00     0.087 C 
HETATM    5  C5  UNL     1     -32.381   7.322   1.746  1.00 20.00     0.061 C 
HETATM    6  O10 UNL     1     -33.738   6.910   1.517  1.00 20.00    -0.380 OA
HETATM    7 CL11 UNL     1     -32.986   8.672   5.597  1.00 20.00    -0.125 Cl
ENDROOT
BRANCH   5   8
HETATM    8  C8  UNL     1     -31.983   8.155   0.520  1.00 20.00     0.033 C 
HETATM    9  C6  UNL     1     -32.480   9.556   0.630  1.00 20.00     0.008 C 
ENDBRANCH   5   8
BRANCH   5  10
HETATM   10  C9  UNL     1     -31.448   6.104   1.824  1.00 20.00     0.033 C 
HETATM   11  C7  UNL     1     -31.830   5.063   0.828  1.00 20.00     0.008 C 
ENDBRANCH   5  10
TORSDOF 2
ENDMDL
MODEL 8
REMARK VINA RESULT:       2.7      1.991      3.088
REMARK  2 active torsions:
REMARK  status: ('A' for Active; 'I' for Inactive)
REMARK    1  A    between atoms: C5_5  and  C8_8 
REMARK    2  A    between atoms: C5_5  and  C9_9 
ROOT
HETATM    1  C1  UNL     1     -33.527   5.347   2.259  1.00 20.00     0.046 C 
HETATM    2  C2  UNL     1     -31.630   6.841   1.598  1.00 20.00     0.058 C 
HETATM    3  C3  UNL     1     -34.183   6.559   2.905  1.00 20.00     0.170 C 
HETATM    4  C4  UNL     1     -32.621   5.783   1.113  1.00 20.00     0.087 C 
HETATM    5  C5  UNL     1     -32.338   8.008   2.315  1.00 20.00     0.061 C 
HETATM    6  O10 UNL     1     -33.212   7.509   3.340  1.00 20.00    -0.380 OA
HETATM    7 CL11 UNL     1     -31.744   4.375   0.452  1.00 20.00    -0.125 Cl
ENDROOT
BRANCH   5   8
HETATM    8  C8  UNL     1     -31.290   8.865   3.038  1.00 20.00     0.033 C 
HETATM    9  C6  UNL     1     -31.645   9.065   4.472  1.00 20.00     0.008 C 
ENDBRANCH   5   8
BRANCH   5  10
HETATM   10  C9  UNL     1     -33.105   8.909   1.337  1.00 20.00     0.033 C 
HETATM   11  C7  UNL     1     -32.178   9.615   0.407  1.00 20.00     0.008 C 
ENDBRANCH   5  10
TORSDOF 2
ENDMDL
MODEL 9
REMARK VINA RESULT:       2.8      2.416      4.015
REMARK  2 active torsions:
REMARK  status: ('A' for Active; 'I' for Inactive)
REMARK    1  A    between atoms: C5_5  and  C8_8 
REMARK    2  A    between atoms: C5_5  and  C9_9 
ROOT
HETATM    1  C1  UNL     1     -32.314   8.718   3.374  1.00 20.00     0.046 C 
HETATM    2  C2  UNL     1     -33.683   6.928   2.283  1.00 20.00     0.058 C 
HETATM    3  C3  UNL     1     -32.720   8.131   4.718  1.00 20.00     0.170 C 
HETATM    4  C4  UNL     1     -32.330   7.638   2.298  1.00 20.00     0.087 C 
HETATM    5  C5  UNL     1     -34.084   6.423   3.683  1.00 20.00     0.061 C 
HETATM    6  O10 UNL     1     -33.990   7.485   4.645  1.00 20.00    -0.380 OA
HETATM    7 CL11 UNL     1     -31.994   8.358   0.699  1.00 20.00    -0.125 Cl
ENDROOT
BRANCH   5   8
HETATM    8  C8  UNL     1     -35.561   6.005   3.664  1.00 20.00     0.033 C 
HETATM    9  C6  UNL     1     -36.395   6.989   2.917  1.00 20.00     0.008 C 
ENDBRANCH   5   8
BRANCH   5  10
HETATM   10  C9  UNL     1     -33.247   5.213   4.124  1.00 20.00     0.033 C 
HETATM   11  C7  UNL     1     -34.064   3.966   4.146  1.00 20.00     0.008 C 
ENDBRANCH   5  10
TORSDOF 2
ENDMDL
