MODEL 1
REMARK VINA RESULT:       1.4      0.000      0.000
REMARK  1 active torsions:
REMARK  status: ('A' for Active; 'I' for Inactive)
REMARK    1  A    between atoms: C5_5  and  C9_9 
ROOT
HETATM    1  C1  UNL     1     -34.204   6.234   3.325  1.00 20.00     0.046 C 
HETATM    2  C2  UNL     1     -33.694   8.611   2.688  1.00 20.00     0.058 C 
HETATM    3  C3  UNL     1     -32.918   5.840   2.616  1.00 20.00     0.170 C 
HETATM    4  C4  UNL     1     -34.169   7.681   3.806  1.00 20.00     0.087 C 
HETATM    5  C5  UNL     1     -32.489   8.099   1.858  1.00 20.00     0.061 C 
HETATM    6  C6  UNL     1     -31.138   8.322   2.559  1.00 20.00     0.046 C 
HETATM    7  O10 UNL     1     -32.648   6.713   1.523  1.00 20.00    -0.380 OA
HETATM    8 CL11 UNL     1     -33.154   7.841   5.269  1.00 20.00    -0.125 Cl
ENDROOT
BRANCH   5   9
HETATM    9  C9  UNL     1     -32.458   8.855   0.538  1.00 20.00     0.012 C 
HETATM   10  C7  UNL     1     -32.766  10.330   0.768  1.00 20.00     0.012 C 
HETATM   11  C8  UNL     1     -31.104   8.681  -0.139  1.00 20.00     0.012 C 
ENDBRANCH   5   9
TORSDOF 1
ENDMDL
MODEL 2
REMARK VINA RESULT:       2.1      2.010      4.111
REMARK  1 active torsions:
REMARK  status: ('A' for Active; 'I' for Inactive)
REMARK    1  A    between atoms: C5_5  and  C9_9 
ROOT
HETATM    1  C1  UNL     1     -31.414   6.994   1.451  1.00 20.00     0.046 C 
HETATM    2  C2  UNL     1     -32.859   7.491   3.447  1.00 20.00     0.058 C 
HETATM    3  C3  UNL     1     -32.476   5.997   1.017  1.00 20.00     0.170 C 
HETATM    4  C4  UNL     1     -31.993   8.092   2.338  1.00 20.00     0.087 C 
HETATM    5  C5  UNL     1     -33.807   6.344   3.009  1.00 20.00     0.061 C 
HETATM    6  C6  UNL     1     -35.094   6.853   2.337  1.00 20.00     0.046 C 
HETATM    7  O10 UNL     1     -33.130   5.421   2.144  1.00 20.00    -0.380 OA
HETATM    8 CL11 UNL     1     -32.905   9.282   1.365  1.00 20.00    -0.125 Cl
ENDROOT
BRANCH   5   9
HETATM    9  C9  UNL     1     -34.208   5.554   4.245  1.00 20.00     0.012 C 
HETATM   10  C7  UNL     1     -35.696   5.732   4.526  1.00 20.00     0.012 C 
HETATM   11  C8  UNL     1     -33.861   4.081   4.065  1.00 20.00     0.012 C 
ENDBRANCH   5   9
TORSDOF 1
ENDMDL
MODEL 3
REMARK VINA RESULT:       2.3      0.535      1.109
REMARK  1 active torsions:
REMARK  status: ('A' for Active; 'I' for Inactive)
REMARK    1  A    between atoms: C5_5  and  C9_9 
ROOT
HETATM    1  C1  UNL     1     -34.096   6.345   2.925  1.00 20.00     0.046 C 
HETATM    2  C2  UNL     1     -33.519   8.772   2.614  1.00 20.00     0.058 C 
HETATM    3  C3  UNL     1     -32.747   6.016   2.305  1.00 20.00     0.170 C 
HETATM    4  C4  UNL     1     -34.105   7.728   3.568  1.00 20.00     0.087 C 
HETATM    5  C5  UNL     1     -32.239   8.340   1.854  1.00 20.00     0.061 C 
HETATM    6  C6  UNL     1     -30.963   8.463   2.706  1.00 20.00     0.046 C 
HETATM    7  O10 UNL     1     -32.368   7.002   1.350  1.00 20.00    -0.380 OA
HETATM    8 CL11 UNL     1     -33.240   7.708   5.132  1.00 20.00    -0.125 Cl
ENDROOT
BRANCH   5   9
HETATM    9  C9  UNL     1     -32.075   9.239   0.638  1.00 20.00     0.012 C 
HETATM   10  C7  UNL     1     -32.667   8.571  -0.597  1.00 20.00     0.012 C 
HETATM   11  C8  UNL     1     -32.731  10.592   0.891  1.00 20.00     0.012 C 
ENDBRANCH   5   9
TORSDOF 1
ENDMDL
MODEL 4
REMARK VINA RESULT:       2.8      2.106      3.949
REMARK  1 active torsions:
REMARK  status: ('A' for Active; 'I' for Inactive)
REMARK    1  A    between atoms: C5_5  and  C9_9 
ROOT
HETATM    1  C1  UNL     1     -31.372   6.681   1.152  1.00 20.00     0.046 C 
HETATM    2  C2  UNL     1     -32.536   7.978   2.964  1.00 20.00     0.058 C 
HETATM    3  C3  UNL     1     -32.598   5.784   1.102  1.00 20.00     0.170 C 
HETATM    4  C4  UNL     1     -31.706   8.072   1.681  1.00 20.00     0.087 C 
HETATM    5  C5  UNL     1     -33.670   6.921   2.951  1.00 20.00     0.061 C 
HETATM    6  C6  UNL     1     -34.934   7.405   2.219  1.00 20.00     0.046 C 
HETATM    7  O10 UNL     1     -33.213   5.685   2.383  1.00 20.00    -0.380 OA
HETATM    8 CL11 UNL     1     -32.535   9.046   0.433  1.00 20.00    -0.125 Cl
ENDROOT
BRANCH   5   9
HETATM    9  C9  UNL     1     -34.055   6.612   4.389  1.00 20.00     0.012 C 
HETATM   10  C7  UNL     1     -34.022   7.884   5.230  1.00 20.00     0.012 C 
HETATM   11  C8  UNL     1     -35.433   5.964   4.439  1.00 20.00     0.012 C 
ENDBRANCH   5   9
TORSDOF 1
ENDMDL
MODEL 5
REMARK VINA RESULT:       3.0      2.075      4.094
REMARK  1 active torsions:
REMARK  status: ('A' for Active; 'I' for Inactive)
REMARK    1  A    between atoms: C5_5  and  C9_9 
ROOT
HETATM    1  C1  UNL     1     -30.977   7.362   1.842  1.00 20.00     0.046 C 
HETATM    2  C2  UNL     1     -33.337   7.649   2.658  1.00 20.00     0.058 C 
HETATM    3  C3  UNL     1     -31.419   6.039   1.238  1.00 20.00     0.170 C 
HETATM    4  C4  UNL     1     -32.140   8.336   1.996  1.00 20.00     0.087 C 
HETATM    5  C5  UNL     1     -33.655   6.221   2.147  1.00 20.00     0.061 C 
HETATM    6  C6  UNL     1     -34.441   6.217   0.824  1.00 20.00     0.046 C 
HETATM    7  O10 UNL     1     -32.456   5.444   2.012  1.00 20.00    -0.380 OA
HETATM    8 CL11 UNL     1     -32.584   9.051   0.419  1.00 20.00    -0.125 Cl
ENDROOT
BRANCH   5   9
HETATM    9  C9  UNL     1     -34.505   5.515   3.193  1.00 20.00     0.012 C 
HETATM   10  C7  UNL     1     -33.697   4.416   3.876  1.00 20.00     0.012 C 
HETATM   11  C8  UNL     1     -35.027   6.519   4.214  1.00 20.00     0.012 C 
ENDBRANCH   5   9
TORSDOF 1
ENDMDL
MODEL 6
REMARK VINA RESULT:       3.1      2.258      4.264
REMARK  1 active torsions:
REMARK  status: ('A' for Active; 'I' for Inactive)
REMARK    1  A    between atoms: C5_5  and  C9_9 
ROOT
HETATM    1  C1  UNL     1     -32.134   7.910   1.591  1.00 20.00     0.046 C 
HETATM    2  C2  UNL     1     -33.990   6.236   1.861  1.00 20.00     0.058 C 
HETATM    3  C3  UNL     1     -31.959   7.856   3.100  1.00 20.00     0.170 C 
HETATM    4  C4  UNL     1     -32.756   6.630   1.044  1.00 20.00     0.087 C 
HETATM    5  C5  UNL     1     -33.843   6.366   3.399  1.00 20.00     0.061 C 
HETATM    6  C6  UNL     1     -33.097   5.180   4.034  1.00 20.00     0.046 C 
HETATM    7  O10 UNL     1     -33.200   7.600   3.751  1.00 20.00    -0.380 OA
HETATM    8 CL11 UNL     1     -31.554   5.308   0.993  1.00 20.00    -0.125 Cl
ENDROOT
BRANCH   5   9
HETATM    9  C9  UNL     1     -35.234   6.421   4.011  1.00 20.00     0.012 C 
HETATM   10  C7  UNL     1     -36.264   6.794   2.950  1.00 20.00     0.012 C 
HETATM   11  C8  UNL     1     -35.580   5.086   4.658  1.00 20.00     0.012 C 
ENDBRANCH   5   9
TORSDOF 1
ENDMDL
MODEL 7
REMARK VINA RESULT:       3.7      2.021      3.441
REMARK  1 active torsions:
REMARK  status: ('A' for Active; 'I' for Inactive)
REMARK    1  A    between atoms: C5_5  and  C9_9 
ROOT
HETATM    1  C1  UNL     1     -33.468   7.675   3.990  1.00 20.00     0.046 C 
HETATM    2  C2  UNL     1     -33.516   5.432   2.856  1.00 20.00     0.058 C 
HETATM    3  C3  UNL     1     -33.054   8.266   2.652  1.00 20.00     0.170 C 
HETATM    4  C4  UNL     1     -34.242   6.372   3.822  1.00 20.00     0.087 C 
HETATM    5  C5  UNL     1     -32.942   6.099   1.580  1.00 20.00     0.061 C 
HETATM    6  C6  UNL     1     -34.005   6.328   0.491  1.00 20.00     0.046 C 
HETATM    7  O10 UNL     1     -32.285   7.335   1.896  1.00 20.00    -0.380 OA
HETATM    8 CL11 UNL     1     -35.918   6.692   3.292  1.00 20.00    -0.125 Cl
ENDROOT
BRANCH   5   9
HETATM    9  C9  UNL     1     -31.872   5.185   1.000  1.00 20.00     0.012 C 
HETATM   10  C7  UNL     1     -31.179   4.410   2.115  1.00 20.00     0.012 C 
HETATM   11  C8  UNL     1     -32.487   4.236  -0.021  1.00 20.00     0.012 C 
ENDBRANCH   5   9
TORSDOF 1
ENDMDL
MODEL 8
REMARK VINA RESULT:       4.0      2.296      2.961
REMARK  1 active torsions:
REMARK  status: ('A' for Active; 'I' for Inactive)
REMARK    1  A    between atoms: C5_5  and  C9_9 
ROOT
HETATM    1  C1  UNL     1     -34.846   5.229   4.240  1.00 20.00     0.046 C 
HETATM    2  C2  UNL     1     -34.405   6.655   2.218  1.00 20.00     0.058 C 
HETATM    3  C3  UNL     1     -33.465   4.628   4.032  1.00 20.00     0.170 C 
HETATM    4  C4  UNL     1     -34.953   6.629   3.647  1.00 20.00     0.087 C 
HETATM    5  C5  UNL     1     -33.083   5.877   1.994  1.00 20.00     0.061 C 
HETATM    6  C6  UNL     1     -31.839   6.665   2.440  1.00 20.00     0.046 C 
HETATM    7  O10 UNL     1     -33.120   4.601   2.650  1.00 20.00    -0.380 OA
HETATM    8 CL11 UNL     1     -34.128   7.826   4.687  1.00 20.00    -0.125 Cl
ENDROOT
BRANCH   5   9
HETATM    9  C9  UNL     1     -32.942   5.587   0.508  1.00 20.00     0.012 C 
HETATM   10  C7  UNL     1     -31.921   4.478   0.280  1.00 20.00     0.012 C 
HETATM   11  C8  UNL     1     -34.294   5.212  -0.088  1.00 20.00     0.012 C 
ENDBRANCH   5   9
TORSDOF 1
ENDMDL
MODEL 9
REMARK VINA RESULT:       4.0      2.279      4.000
REMARK  1 active torsions:
REMARK  status: ('A' for Active; 'I' for Inactive)
REMARK    1  A    between atoms: C5_5  and  C9_9 
ROOT
HETATM    1  C1  UNL     1     -32.832   9.854  -0.184  1.00 20.00     0.046 C 
HETATM    2  C2  UNL     1     -32.058   7.615   0.656  1.00 20.00     0.058 C 
HETATM    3  C3  UNL     1     -32.876  10.307   1.266  1.00 20.00     0.170 C 
HETATM    4  C4  UNL     1     -31.847   8.708  -0.394  1.00 20.00     0.087 C 
HETATM    5  C5  UNL     1     -32.283   8.115   2.106  1.00 20.00     0.061 C 
HETATM    6  C6  UNL     1     -30.975   8.492   2.822  1.00 20.00     0.046 C 
HETATM    7  O10 UNL     1     -33.196   9.222   2.132  1.00 20.00    -0.380 OA
HETATM    8 CL11 UNL     1     -30.164   9.307  -0.390  1.00 20.00    -0.125 Cl
ENDROOT
BRANCH   5   9
HETATM    9  C9  UNL     1     -32.944   7.000   2.902  1.00 20.00     0.012 C 
HETATM   10  C7  UNL     1     -34.172   7.529   3.634  1.00 20.00     0.012 C 
HETATM   11  C8  UNL     1     -33.317   5.844   1.981  1.00 20.00     0.012 C 
ENDBRANCH   5   9
TORSDOF 1
ENDMDL
