MODEL 1
REMARK VINA RESULT:      -0.5      0.000      0.000
REMARK  1 active torsions:
REMARK  status: ('A' for Active; 'I' for Inactive)
REMARK    1  A    between atoms: C6_6  and  C8_8 
ROOT
HETATM    1  C3  UNL     1     -33.507   5.372   2.384  1.00 20.00     0.046 C 
HETATM    2  C4  UNL     1     -33.244   7.700   3.263  1.00 20.00     0.058 C 
HETATM    3  C5  UNL     1     -32.554   5.747   1.258  1.00 20.00     0.170 C 
HETATM    4  C7  UNL     1     -34.244   6.609   2.882  1.00 20.00     0.087 C 
HETATM    5  C8  UNL     1     -32.232   7.982   2.134  1.00 20.00     0.062 C 
HETATM    6  C9  UNL     1     -31.070   8.813   2.705  1.00 20.00     0.046 C 
HETATM    7  O10 UNL     1     -31.637   6.760   1.662  1.00 20.00    -0.380 OA
HETATM    8 CL11 UNL     1     -35.268   6.193   4.284  1.00 20.00    -0.125 Cl
ENDROOT
BRANCH   5   9
HETATM    9  C6  UNL     1     -32.853   8.752   0.987  1.00 20.00     0.020 A 
HETATM   10  C1  UNL     1     -32.600  10.227   0.839  1.00 20.00     0.008 A 
HETATM   11  C2  UNL     1     -31.993   9.260  -0.137  1.00 20.00     0.008 A 
ENDBRANCH   5   9
TORSDOF 1
ENDMDL
MODEL 2
REMARK VINA RESULT:       1.3      2.057      3.115
REMARK  1 active torsions:
REMARK  status: ('A' for Active; 'I' for Inactive)
REMARK    1  A    between atoms: C6_6  and  C8_8 
ROOT
HETATM    1  C3  UNL     1     -34.887   5.061   4.452  1.00 20.00     0.046 C 
HETATM    2  C4  UNL     1     -33.204   4.581   2.664  1.00 20.00     0.058 C 
HETATM    3  C5  UNL     1     -35.004   6.470   3.889  1.00 20.00     0.170 C 
HETATM    4  C7  UNL     1     -33.504   4.492   4.159  1.00 20.00     0.087 C 
HETATM    5  C8  UNL     1     -33.430   6.003   2.109  1.00 20.00     0.062 C 
HETATM    6  C9  UNL     1     -33.453   5.938   0.572  1.00 20.00     0.046 C 
HETATM    7  O10 UNL     1     -34.724   6.503   2.492  1.00 20.00    -0.380 OA
HETATM    8 CL11 UNL     1     -33.408   2.795   4.708  1.00 20.00    -0.125 Cl
ENDROOT
BRANCH   5   9
HETATM    9  C6  UNL     1     -32.338   6.963   2.532  1.00 20.00     0.020 A 
HETATM   10  C1  UNL     1     -31.614   7.788   1.504  1.00 20.00     0.008 A 
HETATM   11  C2  UNL     1     -32.567   8.448   2.461  1.00 20.00     0.008 A 
ENDBRANCH   5   9
TORSDOF 1
ENDMDL
MODEL 3
REMARK VINA RESULT:       2.2      2.269      4.398
REMARK  1 active torsions:
REMARK  status: ('A' for Active; 'I' for Inactive)
REMARK    1  A    between atoms: C6_6  and  C8_8 
ROOT
HETATM    1  C3  UNL     1     -32.116   7.331   1.579  1.00 20.00     0.046 C 
HETATM    2  C4  UNL     1     -33.432   7.488   3.702  1.00 20.00     0.058 C 
HETATM    3  C5  UNL     1     -32.751   5.967   1.349  1.00 20.00     0.170 C 
HETATM    4  C7  UNL     1     -32.048   7.633   3.071  1.00 20.00     0.087 C 
HETATM    5  C8  UNL     1     -34.086   6.132   3.363  1.00 20.00     0.062 C 
HETATM    6  C9  UNL     1     -35.580   6.198   3.724  1.00 20.00     0.046 C 
HETATM    7  O10 UNL     1     -34.042   5.881   1.947  1.00 20.00    -0.380 OA
HETATM    8 CL11 UNL     1     -31.419   9.283   3.337  1.00 20.00    -0.125 Cl
ENDROOT
BRANCH   5   9
HETATM    9  C6  UNL     1     -33.459   4.986   4.130  1.00 20.00     0.020 A 
HETATM   10  C1  UNL     1     -34.323   4.016   4.887  1.00 20.00     0.008 A 
HETATM   11  C2  UNL     1     -33.613   3.573   3.638  1.00 20.00     0.008 A 
ENDBRANCH   5   9
TORSDOF 1
ENDMDL
MODEL 4
REMARK VINA RESULT:       2.4      2.297      4.077
REMARK  1 active torsions:
REMARK  status: ('A' for Active; 'I' for Inactive)
REMARK    1  A    between atoms: C6_6  and  C8_8 
ROOT
HETATM    1  C3  UNL     1     -31.352   9.327   1.382  1.00 20.00     0.046 C 
HETATM    2  C4  UNL     1     -33.104   7.732   0.575  1.00 20.00     0.058 C 
HETATM    3  C5  UNL     1     -31.349   8.570   2.702  1.00 20.00     0.170 C 
HETATM    4  C7  UNL     1     -32.714   9.203   0.710  1.00 20.00     0.087 C 
HETATM    5  C8  UNL     1     -32.992   6.976   1.914  1.00 20.00     0.062 C 
HETATM    6  C9  UNL     1     -33.054   5.463   1.636  1.00 20.00     0.046 C 
HETATM    7  O10 UNL     1     -31.710   7.203   2.526  1.00 20.00    -0.380 OA
HETATM    8 CL11 UNL     1     -32.681   9.983  -0.896  1.00 20.00    -0.125 Cl
ENDROOT
BRANCH   5   9
HETATM    9  C6  UNL     1     -34.112   7.333   2.869  1.00 20.00     0.020 A 
HETATM   10  C1  UNL     1     -34.638   6.310   3.839  1.00 20.00     0.008 A 
HETATM   11  C2  UNL     1     -33.834   7.477   4.341  1.00 20.00     0.008 A 
ENDBRANCH   5   9
TORSDOF 1
ENDMDL
