MODEL 1
REMARK VINA RESULT:      -1.0      0.000      0.000
REMARK  3 active torsions:
REMARK  status: ('A' for Active; 'I' for Inactive)
REMARK    1  A    between atoms: C4_4  and  N8_8 
REMARK    2  A    between atoms: C6_6  and  C7_7 
REMARK    3  A    between atoms: C6_6  and  N8_8 
ROOT
HETATM    1  C1  UNL     1     -32.684   8.008   2.953  1.00 20.00     0.064 C 
HETATM    2  C2  UNL     1     -31.902   8.254   1.684  1.00 20.00     0.170 C 
HETATM    3  C3  UNL     1     -32.620   6.039   1.668  1.00 20.00     0.203 C 
HETATM    4  C4  UNL     1     -33.554   6.838   2.558  1.00 20.00     0.248 C 
HETATM    5  O9  UNL     1     -31.715   6.974   1.064  1.00 20.00    -0.389 OA
ENDROOT
BRANCH   4   6
HETATM    6  N8  UNL     1     -34.047   6.091   3.677  1.00 20.00     0.092 N 
HETATM    7  C5  UNL     1     -35.450   6.417   3.931  1.00 20.00     0.310 C 
BRANCH   6   8
HETATM    8  C6  UNL     1     -33.891   4.656   3.443  1.00 20.00     0.287 C 
BRANCH   8   9
HETATM    9  C7  UNL     1     -34.142   3.831   4.694  1.00 20.00     0.144 C 
HETATM   10 CL10 UNL     1     -32.773   2.745   5.040  1.00 20.00    -0.129 Cl
ENDBRANCH   8   9
ENDBRANCH   6   8
ENDBRANCH   4   6
TORSDOF 3
ENDMDL
MODEL 2
REMARK VINA RESULT:      -0.9      3.321      4.768
REMARK  3 active torsions:
REMARK  status: ('A' for Active; 'I' for Inactive)
REMARK    1  A    between atoms: C4_4  and  N8_8 
REMARK    2  A    between atoms: C6_6  and  C7_7 
REMARK    3  A    between atoms: C6_6  and  N8_8 
ROOT
HETATM    1  C1  UNL     1     -33.830   4.855   3.611  1.00 20.00     0.064 C 
HETATM    2  C2  UNL     1     -35.141   5.000   4.351  1.00 20.00     0.170 C 
HETATM    3  C3  UNL     1     -34.451   7.123   3.686  1.00 20.00     0.203 C 
HETATM    4  C4  UNL     1     -33.817   6.102   2.759  1.00 20.00     0.248 C 
HETATM    5  O9  UNL     1     -35.344   6.405   4.551  1.00 20.00    -0.389 OA
ENDROOT
BRANCH   4   6
HETATM    6  N8  UNL     1     -32.507   6.476   2.316  1.00 20.00     0.092 N 
HETATM    7  C5  UNL     1     -32.197   5.833   1.040  1.00 20.00     0.310 C 
BRANCH   6   8
HETATM    8  C6  UNL     1     -32.403   7.930   2.195  1.00 20.00     0.287 C 
BRANCH   8   9
HETATM    9  C7  UNL     1     -31.789   8.362   0.873  1.00 20.00     0.144 C 
HETATM   10 CL10 UNL     1     -32.465   9.915   0.322  1.00 20.00    -0.129 Cl
ENDBRANCH   8   9
ENDBRANCH   6   8
ENDBRANCH   4   6
TORSDOF 3
ENDMDL
MODEL 3
REMARK VINA RESULT:      -0.9      3.238      4.553
REMARK  3 active torsions:
REMARK  status: ('A' for Active; 'I' for Inactive)
REMARK    1  A    between atoms: C4_4  and  N8_8 
REMARK    2  A    between atoms: C6_6  and  C7_7 
REMARK    3  A    between atoms: C6_6  and  N8_8 
ROOT
HETATM    1  C1  UNL     1     -33.238   4.956   3.494  1.00 20.00     0.064 C 
HETATM    2  C2  UNL     1     -34.159   3.953   4.152  1.00 20.00     0.170 C 
HETATM    3  C3  UNL     1     -35.250   6.011   4.104  1.00 20.00     0.203 C 
HETATM    4  C4  UNL     1     -34.216   5.992   2.994  1.00 20.00     0.248 C 
HETATM    5  O9  UNL     1     -35.259   4.701   4.690  1.00 20.00    -0.389 OA
ENDROOT
BRANCH   4   6
HETATM    6  N8  UNL     1     -33.618   7.272   2.755  1.00 20.00     0.092 N 
HETATM    7  C5  UNL     1     -33.236   7.901   4.020  1.00 20.00     0.310 C 
BRANCH   6   8
HETATM    8  C6  UNL     1     -32.454   7.137   1.881  1.00 20.00     0.287 C 
BRANCH   8   9
HETATM    9  C7  UNL     1     -31.691   8.442   1.721  1.00 20.00     0.144 C 
HETATM   10 CL10 UNL     1     -32.416   9.466   0.457  1.00 20.00    -0.129 Cl
ENDBRANCH   8   9
ENDBRANCH   6   8
ENDBRANCH   4   6
TORSDOF 3
ENDMDL
MODEL 4
REMARK VINA RESULT:      -0.0      3.148      4.447
REMARK  3 active torsions:
REMARK  status: ('A' for Active; 'I' for Inactive)
REMARK    1  A    between atoms: C4_4  and  N8_8 
REMARK    2  A    between atoms: C6_6  and  C7_7 
REMARK    3  A    between atoms: C6_6  and  N8_8 
ROOT
HETATM    1  C1  UNL     1     -35.275   6.477   4.045  1.00 20.00     0.064 C 
HETATM    2  C2  UNL     1     -35.458   5.046   4.497  1.00 20.00     0.170 C 
HETATM    3  C3  UNL     1     -33.419   5.195   3.380  1.00 20.00     0.203 C 
HETATM    4  C4  UNL     1     -33.773   6.571   3.912  1.00 20.00     0.248 C 
HETATM    5  O9  UNL     1     -34.413   4.285   3.875  1.00 20.00    -0.389 OA
ENDROOT
BRANCH   4   6
HETATM    6  N8  UNL     1     -33.342   7.637   3.058  1.00 20.00     0.092 N 
HETATM    7  C5  UNL     1     -32.384   8.494   3.754  1.00 20.00     0.310 C 
BRANCH   6   8
HETATM    8  C6  UNL     1     -32.752   7.102   1.831  1.00 20.00     0.287 C 
BRANCH   8   9
HETATM    9  C7  UNL     1     -31.661   8.000   1.270  1.00 20.00     0.144 C 
HETATM   10 CL10 UNL     1     -32.351   9.388   0.393  1.00 20.00    -0.129 Cl
ENDBRANCH   8   9
ENDBRANCH   6   8
ENDBRANCH   4   6
TORSDOF 3
ENDMDL
MODEL 5
REMARK VINA RESULT:       0.0      0.991      1.479
REMARK  3 active torsions:
REMARK  status: ('A' for Active; 'I' for Inactive)
REMARK    1  A    between atoms: C4_4  and  N8_8 
REMARK    2  A    between atoms: C6_6  and  C7_7 
REMARK    3  A    between atoms: C6_6  and  N8_8 
ROOT
HETATM    1  C1  UNL     1     -33.447   6.163   1.941  1.00 20.00     0.064 C 
HETATM    2  C2  UNL     1     -32.238   6.933   1.462  1.00 20.00     0.170 C 
HETATM    3  C3  UNL     1     -32.960   7.895   3.456  1.00 20.00     0.203 C 
HETATM    4  C4  UNL     1     -33.431   6.452   3.423  1.00 20.00     0.248 C 
HETATM    5  O9  UNL     1     -32.133   8.091   2.300  1.00 20.00    -0.389 OA
ENDROOT
BRANCH   4   6
HETATM    6  N8  UNL     1     -34.701   6.256   4.056  1.00 20.00     0.092 N 
HETATM    7  C5  UNL     1     -35.783   6.694   3.175  1.00 20.00     0.310 C 
BRANCH   6   8
HETATM    8  C6  UNL     1     -34.879   4.851   4.423  1.00 20.00     0.287 C 
BRANCH   8   9
HETATM    9  C7  UNL     1     -33.801   3.955   3.835  1.00 20.00     0.144 C 
HETATM   10 CL10 UNL     1     -33.077   2.909   5.082  1.00 20.00    -0.129 Cl
ENDBRANCH   8   9
ENDBRANCH   6   8
ENDBRANCH   4   6
TORSDOF 3
ENDMDL
MODEL 6
REMARK VINA RESULT:       0.2      2.612      3.978
REMARK  3 active torsions:
REMARK  status: ('A' for Active; 'I' for Inactive)
REMARK    1  A    between atoms: C4_4  and  N8_8 
REMARK    2  A    between atoms: C6_6  and  C7_7 
REMARK    3  A    between atoms: C6_6  and  N8_8 
ROOT
HETATM    1  C1  UNL     1     -33.252   5.191   3.770  1.00 20.00     0.064 C 
HETATM    2  C2  UNL     1     -34.177   4.054   4.141  1.00 20.00     0.170 C 
HETATM    3  C3  UNL     1     -35.398   6.036   4.233  1.00 20.00     0.203 C 
HETATM    4  C4  UNL     1     -34.228   6.239   3.289  1.00 20.00     0.248 C 
HETATM    5  O9  UNL     1     -35.389   4.653   4.619  1.00 20.00    -0.389 OA
ENDROOT
BRANCH   4   6
HETATM    6  N8  UNL     1     -33.697   7.570   3.323  1.00 20.00     0.092 N 
HETATM    7  C5  UNL     1     -33.724   8.095   4.687  1.00 20.00     0.310 C 
BRANCH   6   8
HETATM    8  C6  UNL     1     -32.333   7.590   2.795  1.00 20.00     0.287 C 
BRANCH   8   9
HETATM    9  C7  UNL     1     -32.283   7.321   1.300  1.00 20.00     0.144 C 
HETATM   10 CL10 UNL     1     -31.814   5.637   0.960  1.00 20.00    -0.129 Cl
ENDBRANCH   8   9
ENDBRANCH   6   8
ENDBRANCH   4   6
TORSDOF 3
ENDMDL
MODEL 7
REMARK VINA RESULT:       0.4      2.566      3.384
REMARK  3 active torsions:
REMARK  status: ('A' for Active; 'I' for Inactive)
REMARK    1  A    between atoms: C4_4  and  N8_8 
REMARK    2  A    between atoms: C6_6  and  C7_7 
REMARK    3  A    between atoms: C6_6  and  N8_8 
ROOT
HETATM    1  C1  UNL     1     -32.621   8.534  -0.166  1.00 20.00     0.064 C 
HETATM    2  C2  UNL     1     -32.253   9.972  -0.457  1.00 20.00     0.170 C 
HETATM    3  C3  UNL     1     -32.675   9.784   1.826  1.00 20.00     0.203 C 
HETATM    4  C4  UNL     1     -32.277   8.418   1.300  1.00 20.00     0.248 C 
HETATM    5  O9  UNL     1     -32.518  10.712   0.742  1.00 20.00    -0.389 OA
ENDROOT
BRANCH   4   6
HETATM    6  N8  UNL     1     -32.950   7.338   1.959  1.00 20.00     0.092 N 
HETATM    7  C5  UNL     1     -32.362   6.057   1.572  1.00 20.00     0.310 C 
BRANCH   6   8
HETATM    8  C6  UNL     1     -32.892   7.509   3.410  1.00 20.00     0.287 C 
BRANCH   8   9
HETATM    9  C7  UNL     1     -34.272   7.601   4.042  1.00 20.00     0.144 C 
HETATM   10 CL10 UNL     1     -35.130   6.043   3.950  1.00 20.00    -0.129 Cl
ENDBRANCH   8   9
ENDBRANCH   6   8
ENDBRANCH   4   6
TORSDOF 3
ENDMDL
MODEL 8
REMARK VINA RESULT:       0.5      2.659      3.853
REMARK  3 active torsions:
REMARK  status: ('A' for Active; 'I' for Inactive)
REMARK    1  A    between atoms: C4_4  and  N8_8 
REMARK    2  A    between atoms: C6_6  and  C7_7 
REMARK    3  A    between atoms: C6_6  and  N8_8 
ROOT
HETATM    1  C1  UNL     1     -34.802   6.908   3.408  1.00 20.00     0.064 C 
HETATM    2  C2  UNL     1     -35.427   6.079   4.507  1.00 20.00     0.170 C 
HETATM    3  C3  UNL     1     -33.855   4.755   3.412  1.00 20.00     0.203 C 
HETATM    4  C4  UNL     1     -33.477   6.211   3.211  1.00 20.00     0.248 C 
HETATM    5  O9  UNL     1     -34.972   4.733   4.313  1.00 20.00    -0.389 OA
ENDROOT
BRANCH   4   6
HETATM    6  N8  UNL     1     -32.881   6.470   1.934  1.00 20.00     0.092 N 
HETATM    7  C5  UNL     1     -32.229   7.779   1.931  1.00 20.00     0.310 C 
BRANCH   6   8
HETATM    8  C6  UNL     1     -31.921   5.420   1.595  1.00 20.00     0.287 C 
BRANCH   8   9
HETATM    9  C7  UNL     1     -32.324   4.640   0.354  1.00 20.00     0.144 C 
HETATM   10 CL10 UNL     1     -30.954   3.708  -0.298  1.00 20.00    -0.129 Cl
ENDBRANCH   8   9
ENDBRANCH   6   8
ENDBRANCH   4   6
TORSDOF 3
ENDMDL
MODEL 9
REMARK VINA RESULT:       0.5      2.793      4.356
REMARK  3 active torsions:
REMARK  status: ('A' for Active; 'I' for Inactive)
REMARK    1  A    between atoms: C4_4  and  N8_8 
REMARK    2  A    between atoms: C6_6  and  C7_7 
REMARK    3  A    between atoms: C6_6  and  N8_8 
ROOT
HETATM    1  C1  UNL     1     -33.801   4.606   3.727  1.00 20.00     0.064 C 
HETATM    2  C2  UNL     1     -35.081   4.780   4.512  1.00 20.00     0.170 C 
HETATM    3  C3  UNL     1     -34.579   6.814   3.493  1.00 20.00     0.203 C 
HETATM    4  C4  UNL     1     -33.919   5.704   2.696  1.00 20.00     0.248 C 
HETATM    5  O9  UNL     1     -35.376   6.184   4.507  1.00 20.00    -0.389 OA
ENDROOT
BRANCH   4   6
HETATM    6  N8  UNL     1     -32.661   6.087   2.126  1.00 20.00     0.092 N 
HETATM    7  C5  UNL     1     -32.224   5.097   1.142  1.00 20.00     0.310 C 
BRANCH   6   8
HETATM    8  C6  UNL     1     -32.761   7.410   1.510  1.00 20.00     0.287 C 
BRANCH   8   9
HETATM    9  C7  UNL     1     -31.580   8.303   1.854  1.00 20.00     0.144 C 
HETATM   10 CL10 UNL     1     -31.587   8.751   3.578  1.00 20.00    -0.129 Cl
ENDBRANCH   8   9
ENDBRANCH   6   8
ENDBRANCH   4   6
TORSDOF 3
ENDMDL
