MODEL 1
REMARK VINA RESULT:      -1.7      0.000      0.000
REMARK  3 active torsions:
REMARK  status: ('A' for Active; 'I' for Inactive)
REMARK    1  A    between atoms: C1_1  and  C7_7 
REMARK    2  A    between atoms: C1_1  and  C9_9 
REMARK    3  A    between atoms: C8_8  and  C9_9 
ROOT
HETATM    1  C1  UNL     1     -32.262   8.025   2.382  1.00 20.00     0.141 C 
HETATM    2  O10 UNL     1     -31.676   8.529   3.339  1.00 20.00    -0.297 OA
ENDROOT
BRANCH   1   3
HETATM    3  C7  UNL     1     -33.542   7.290   2.569  1.00 20.00     0.116 C 
HETATM    4  C3  UNL     1     -34.145   7.450   3.963  1.00 20.00     0.024 C 
HETATM    5  C2  UNL     1     -35.103   6.282   4.147  1.00 20.00     0.012 C 
HETATM    6  C6  UNL     1     -34.323   5.026   3.796  1.00 20.00     0.075 C 
HETATM    7  S11 UNL     1     -33.281   5.498   2.388  1.00 20.00    -0.157 SA
ENDBRANCH   1   3
BRANCH   1   8
HETATM    8  C9  UNL     1     -31.741   8.109   0.960  1.00 20.00     0.084 C 
BRANCH   8   9
HETATM    9  C8  UNL     1     -31.749   9.526   0.417  1.00 20.00    -0.007 A 
HETATM   10  C4  UNL     1     -32.773   9.942  -0.602  1.00 20.00     0.005 A 
HETATM   11  C5  UNL     1     -32.848  10.478   0.800  1.00 20.00     0.005 A 
ENDBRANCH   8   9
ENDBRANCH   1   8
TORSDOF 3
ENDMDL
MODEL 2
REMARK VINA RESULT:      -1.1      1.285      1.431
REMARK  3 active torsions:
REMARK  status: ('A' for Active; 'I' for Inactive)
REMARK    1  A    between atoms: C1_1  and  C7_7 
REMARK    2  A    between atoms: C1_1  and  C9_9 
REMARK    3  A    between atoms: C8_8  and  C9_9 
ROOT
HETATM    1  C1  UNL     1     -32.310   6.728   1.823  1.00 20.00     0.141 C 
HETATM    2  O10 UNL     1     -31.536   5.850   1.446  1.00 20.00    -0.297 OA
ENDROOT
BRANCH   1   3
HETATM    3  C7  UNL     1     -33.669   6.387   2.323  1.00 20.00     0.116 C 
HETATM    4  C3  UNL     1     -34.102   7.208   3.535  1.00 20.00     0.024 C 
HETATM    5  C2  UNL     1     -35.216   6.419   4.206  1.00 20.00     0.012 C 
HETATM    6  C6  UNL     1     -34.691   5.006   4.393  1.00 20.00     0.075 C 
HETATM    7  S11 UNL     1     -33.724   4.662   2.896  1.00 20.00    -0.157 SA
ENDBRANCH   1   3
BRANCH   1   8
HETATM    8  C9  UNL     1     -31.952   8.202   1.810  1.00 20.00     0.084 C 
BRANCH   8   9
HETATM    9  C8  UNL     1     -32.738   8.986   0.777  1.00 20.00    -0.007 A 
HETATM   10  C4  UNL     1     -32.667  10.488   0.750  1.00 20.00     0.005 A 
HETATM   11  C5  UNL     1     -32.025   9.686  -0.347  1.00 20.00     0.005 A 
ENDBRANCH   8   9
ENDBRANCH   1   8
TORSDOF 3
ENDMDL
MODEL 3
REMARK VINA RESULT:      -0.9      2.102      5.385
REMARK  3 active torsions:
REMARK  status: ('A' for Active; 'I' for Inactive)
REMARK    1  A    between atoms: C1_1  and  C7_7 
REMARK    2  A    between atoms: C1_1  and  C9_9 
REMARK    3  A    between atoms: C8_8  and  C9_9 
ROOT
HETATM    1  C1  UNL     1     -34.728   5.862   3.809  1.00 20.00     0.141 C 
HETATM    2  O10 UNL     1     -35.748   6.507   3.567  1.00 20.00    -0.297 OA
ENDROOT
BRANCH   1   3
HETATM    3  C7  UNL     1     -33.382   6.413   3.497  1.00 20.00     0.116 C 
HETATM    4  C3  UNL     1     -33.288   7.929   3.649  1.00 20.00     0.024 C 
HETATM    5  C2  UNL     1     -32.081   8.364   2.829  1.00 20.00     0.012 C 
HETATM    6  C6  UNL     1     -32.253   7.747   1.452  1.00 20.00     0.075 C 
HETATM    7  S11 UNL     1     -32.954   6.101   1.756  1.00 20.00    -0.157 SA
ENDBRANCH   1   3
BRANCH   1   8
HETATM    8  C9  UNL     1     -34.757   4.481   4.435  1.00 20.00     0.084 C 
BRANCH   8   9
HETATM    9  C8  UNL     1     -33.453   3.727   4.248  1.00 20.00    -0.007 A 
HETATM   10  C4  UNL     1     -32.720   3.176   5.440  1.00 20.00     0.005 A 
HETATM   11  C5  UNL     1     -33.397   2.242   4.476  1.00 20.00     0.005 A 
ENDBRANCH   8   9
ENDBRANCH   1   8
TORSDOF 3
ENDMDL
MODEL 4
REMARK VINA RESULT:      -0.8      2.314      5.484
REMARK  3 active torsions:
REMARK  status: ('A' for Active; 'I' for Inactive)
REMARK    1  A    between atoms: C1_1  and  C7_7 
REMARK    2  A    between atoms: C1_1  and  C9_9 
REMARK    3  A    between atoms: C8_8  and  C9_9 
ROOT
HETATM    1  C1  UNL     1     -34.495   5.773   3.636  1.00 20.00     0.141 C 
HETATM    2  O10 UNL     1     -35.476   5.872   4.370  1.00 20.00    -0.297 OA
ENDROOT
BRANCH   1   3
HETATM    3  C7  UNL     1     -33.960   6.956   2.908  1.00 20.00     0.116 C 
HETATM    4  C3  UNL     1     -32.831   6.620   1.937  1.00 20.00     0.024 C 
HETATM    5  C2  UNL     1     -32.083   7.923   1.690  1.00 20.00     0.012 C 
HETATM    6  C6  UNL     1     -31.763   8.501   3.058  1.00 20.00     0.075 C 
HETATM    7  S11 UNL     1     -33.222   8.141   4.074  1.00 20.00    -0.157 SA
ENDBRANCH   1   3
BRANCH   1   8
HETATM    8  C9  UNL     1     -33.761   4.464   3.415  1.00 20.00     0.084 C 
BRANCH   8   9
HETATM    9  C8  UNL     1     -33.839   3.539   4.616  1.00 20.00    -0.007 A 
HETATM   10  C4  UNL     1     -33.265   2.152   4.543  1.00 20.00     0.005 A 
HETATM   11  C5  UNL     1     -32.597   3.197   5.391  1.00 20.00     0.005 A 
ENDBRANCH   8   9
ENDBRANCH   1   8
TORSDOF 3
ENDMDL
MODEL 5
REMARK VINA RESULT:      -0.8      1.585      1.965
REMARK  3 active torsions:
REMARK  status: ('A' for Active; 'I' for Inactive)
REMARK    1  A    between atoms: C1_1  and  C7_7 
REMARK    2  A    between atoms: C1_1  and  C9_9 
REMARK    3  A    between atoms: C8_8  and  C9_9 
ROOT
HETATM    1  C1  UNL     1     -32.394   6.702   1.924  1.00 20.00     0.141 C 
HETATM    2  O10 UNL     1     -32.223   5.915   0.994  1.00 20.00    -0.297 OA
ENDROOT
BRANCH   1   3
HETATM    3  C7  UNL     1     -33.013   6.255   3.201  1.00 20.00     0.116 C 
HETATM    4  C3  UNL     1     -33.735   4.914   3.098  1.00 20.00     0.024 C 
HETATM    5  C2  UNL     1     -34.704   4.863   4.270  1.00 20.00     0.012 C 
HETATM    6  C6  UNL     1     -35.496   6.158   4.230  1.00 20.00     0.075 C 
HETATM    7  S11 UNL     1     -34.299   7.427   3.731  1.00 20.00    -0.157 SA
ENDBRANCH   1   3
BRANCH   1   8
HETATM    8  C9  UNL     1     -31.996   8.164   1.849  1.00 20.00     0.084 C 
BRANCH   8   9
HETATM    9  C8  UNL     1     -32.734   8.916   0.756  1.00 20.00    -0.007 A 
HETATM   10  C4  UNL     1     -32.637  10.414   0.668  1.00 20.00     0.005 A 
HETATM   11  C5  UNL     1     -31.970   9.556  -0.370  1.00 20.00     0.005 A 
ENDBRANCH   8   9
ENDBRANCH   1   8
TORSDOF 3
ENDMDL
MODEL 6
REMARK VINA RESULT:       0.1      1.739      4.790
REMARK  3 active torsions:
REMARK  status: ('A' for Active; 'I' for Inactive)
REMARK    1  A    between atoms: C1_1  and  C7_7 
REMARK    2  A    between atoms: C1_1  and  C9_9 
REMARK    3  A    between atoms: C8_8  and  C9_9 
ROOT
HETATM    1  C1  UNL     1     -32.374   7.244   2.039  1.00 20.00     0.141 C 
HETATM    2  O10 UNL     1     -31.986   6.214   1.490  1.00 20.00    -0.297 OA
ENDROOT
BRANCH   1   3
HETATM    3  C7  UNL     1     -31.960   8.582   1.537  1.00 20.00     0.116 C 
HETATM    4  C3  UNL     1     -33.041   9.652   1.674  1.00 20.00     0.024 C 
HETATM    5  C2  UNL     1     -32.676  10.753   0.689  1.00 20.00     0.012 C 
HETATM    6  C6  UNL     1     -32.445  10.074  -0.649  1.00 20.00     0.075 C 
HETATM    7  S11 UNL     1     -31.611   8.513  -0.248  1.00 20.00    -0.157 SA
ENDBRANCH   1   3
BRANCH   1   8
HETATM    8  C9  UNL     1     -33.288   7.238   3.250  1.00 20.00     0.084 C 
BRANCH   8   9
HETATM    9  C8  UNL     1     -34.373   6.180   3.158  1.00 20.00    -0.007 A 
HETATM   10  C4  UNL     1     -34.364   5.003   4.093  1.00 20.00     0.005 A 
HETATM   11  C5  UNL     1     -35.415   6.069   4.236  1.00 20.00     0.005 A 
ENDBRANCH   8   9
ENDBRANCH   1   8
TORSDOF 3
ENDMDL
MODEL 7
REMARK VINA RESULT:       1.2      1.690      4.752
REMARK  3 active torsions:
REMARK  status: ('A' for Active; 'I' for Inactive)
REMARK    1  A    between atoms: C1_1  and  C7_7 
REMARK    2  A    between atoms: C1_1  and  C9_9 
REMARK    3  A    between atoms: C8_8  and  C9_9 
ROOT
HETATM    1  C1  UNL     1     -32.338   8.362   3.060  1.00 20.00     0.141 C 
HETATM    2  O10 UNL     1     -31.194   8.621   3.430  1.00 20.00    -0.297 OA
ENDROOT
BRANCH   1   3
HETATM    3  C7  UNL     1     -32.754   8.582   1.648  1.00 20.00     0.116 C 
HETATM    4  C3  UNL     1     -31.680   8.217   0.627  1.00 20.00     0.024 C 
HETATM    5  C2  UNL     1     -32.043   8.958  -0.653  1.00 20.00     0.012 C 
HETATM    6  C6  UNL     1     -32.261  10.409  -0.263  1.00 20.00     0.075 C 
HETATM    7  S11 UNL     1     -33.090  10.345   1.350  1.00 20.00    -0.157 SA
ENDBRANCH   1   3
BRANCH   1   8
HETATM    8  C9  UNL     1     -33.399   7.807   3.991  1.00 20.00     0.084 C 
BRANCH   8   9
HETATM    9  C8  UNL     1     -34.281   6.770   3.321  1.00 20.00    -0.007 A 
HETATM   10  C4  UNL     1     -34.183   5.322   3.715  1.00 20.00     0.005 A 
HETATM   11  C5  UNL     1     -35.401   6.121   4.086  1.00 20.00     0.005 A 
ENDBRANCH   8   9
ENDBRANCH   1   8
TORSDOF 3
ENDMDL
