MODEL 1
REMARK VINA RESULT:      -1.2      0.000      0.000
REMARK  1 active torsions:
REMARK  status: ('A' for Active; 'I' for Inactive)
REMARK    1  A    between atoms: C4_4  and  C5_5 
ROOT
HETATM    1  C1  UNL     1     -33.367   7.825   3.538  1.00 20.00     0.016 C 
HETATM    2  C2  UNL     1     -34.464   6.860   3.955  1.00 20.00     0.074 C 
HETATM    3  C3  UNL     1     -32.799   5.991   2.035  1.00 20.00     0.079 C 
HETATM    4  C4  UNL     1     -33.029   7.499   2.084  1.00 20.00     0.005 C 
HETATM    5  S6  UNL     1     -34.025   5.285   3.170  1.00 20.00    -0.169 SA
ENDROOT
BRANCH   4   6
HETATM    6  C5  UNL     1     -31.836   8.267   1.594  1.00 20.00     0.090 C 
HETATM    7 BR7  UNL     1     -32.420   9.645   0.364  1.00 20.00    -0.096 Br
ENDBRANCH   4   6
TORSDOF 1
ENDMDL
MODEL 2
REMARK VINA RESULT:      -0.8      3.132      3.995
REMARK  1 active torsions:
REMARK  status: ('A' for Active; 'I' for Inactive)
REMARK    1  A    between atoms: C4_4  and  C5_5 
ROOT
HETATM    1  C1  UNL     1     -33.147   5.635   2.323  1.00 20.00     0.016 C 
HETATM    2  C2  UNL     1     -32.417   6.620   1.425  1.00 20.00     0.074 C 
HETATM    3  C3  UNL     1     -33.449   7.632   3.689  1.00 20.00     0.079 C 
HETATM    4  C4  UNL     1     -34.193   6.439   3.094  1.00 20.00     0.005 C 
HETATM    5  S6  UNL     1     -32.248   8.126   2.422  1.00 20.00    -0.169 SA
ENDROOT
BRANCH   4   6
HETATM    6  C5  UNL     1     -34.875   5.618   4.148  1.00 20.00     0.090 C 
HETATM    7 BR7  UNL     1     -33.935   3.937   4.360  1.00 20.00    -0.096 Br
ENDBRANCH   4   6
TORSDOF 1
ENDMDL
MODEL 3
REMARK VINA RESULT:      -0.6      3.400      3.929
REMARK  1 active torsions:
REMARK  status: ('A' for Active; 'I' for Inactive)
REMARK    1  A    between atoms: C4_4  and  C5_5 
ROOT
HETATM    1  C1  UNL     1     -34.309   6.845   3.837  1.00 20.00     0.016 C 
HETATM    2  C2  UNL     1     -33.449   8.037   3.454  1.00 20.00     0.074 C 
HETATM    3  C3  UNL     1     -32.967   5.759   2.116  1.00 20.00     0.079 C 
HETATM    4  C4  UNL     1     -33.479   5.595   3.544  1.00 20.00     0.005 C 
HETATM    5  S6  UNL     1     -32.582   7.523   1.946  1.00 20.00    -0.169 SA
ENDROOT
BRANCH   4   6
HETATM    6  C5  UNL     1     -34.274   4.335   3.717  1.00 20.00     0.090 C 
HETATM    7 BR7  UNL     1     -33.207   3.028   4.668  1.00 20.00    -0.096 Br
ENDBRANCH   4   6
TORSDOF 1
ENDMDL
MODEL 4
REMARK VINA RESULT:      -0.6      1.256      1.805
REMARK  1 active torsions:
REMARK  status: ('A' for Active; 'I' for Inactive)
REMARK    1  A    between atoms: C4_4  and  C5_5 
ROOT
HETATM    1  C1  UNL     1     -32.866   6.300   1.467  1.00 20.00     0.016 C 
HETATM    2  C2  UNL     1     -33.506   5.759   2.733  1.00 20.00     0.074 C 
HETATM    3  C3  UNL     1     -32.957   8.388   2.722  1.00 20.00     0.079 C 
HETATM    4  C4  UNL     1     -32.032   7.512   1.883  1.00 20.00     0.005 C 
HETATM    5  S6  UNL     1     -33.959   7.229   3.694  1.00 20.00    -0.169 SA
ENDROOT
BRANCH   4   6
HETATM    6  C5  UNL     1     -31.477   8.250   0.700  1.00 20.00     0.090 C 
HETATM    7 BR7  UNL     1     -32.514   9.859   0.403  1.00 20.00    -0.096 Br
ENDBRANCH   4   6
TORSDOF 1
ENDMDL
MODEL 5
REMARK VINA RESULT:      -0.6      1.506      1.669
REMARK  1 active torsions:
REMARK  status: ('A' for Active; 'I' for Inactive)
REMARK    1  A    between atoms: C4_4  and  C5_5 
ROOT
HETATM    1  C1  UNL     1     -33.957   7.051   3.314  1.00 20.00     0.016 C 
HETATM    2  C2  UNL     1     -35.161   6.559   4.099  1.00 20.00     0.074 C 
HETATM    3  C3  UNL     1     -33.456   4.665   3.249  1.00 20.00     0.079 C 
HETATM    4  C4  UNL     1     -33.554   5.913   2.376  1.00 20.00     0.005 C 
HETATM    5  S6  UNL     1     -34.814   4.813   4.444  1.00 20.00    -0.169 SA
ENDROOT
BRANCH   4   6
HETATM    6  C5  UNL     1     -32.267   6.200   1.659  1.00 20.00     0.090 C 
HETATM    7 BR7  UNL     1     -31.915   8.105   1.711  1.00 20.00    -0.096 Br
ENDBRANCH   4   6
TORSDOF 1
ENDMDL
MODEL 6
REMARK VINA RESULT:      -0.3      2.613      3.323
REMARK  1 active torsions:
REMARK  status: ('A' for Active; 'I' for Inactive)
REMARK    1  A    between atoms: C4_4  and  C5_5 
ROOT
HETATM    1  C1  UNL     1     -32.617   8.247   2.254  1.00 20.00     0.016 C 
HETATM    2  C2  UNL     1     -31.538   7.648   1.370  1.00 20.00     0.074 C 
HETATM    3  C3  UNL     1     -33.303   5.913   2.412  1.00 20.00     0.079 C 
HETATM    4  C4  UNL     1     -33.022   7.159   3.248  1.00 20.00     0.005 C 
HETATM    5  S6  UNL     1     -32.058   5.932   1.094  1.00 20.00    -0.169 SA
ENDROOT
BRANCH   4   6
HETATM    6  C5  UNL     1     -34.207   7.561   4.076  1.00 20.00     0.090 C 
HETATM    7 BR7  UNL     1     -35.464   6.089   4.156  1.00 20.00    -0.096 Br
ENDBRANCH   4   6
TORSDOF 1
ENDMDL
MODEL 7
REMARK VINA RESULT:       0.2      2.004      2.005
REMARK  1 active torsions:
REMARK  status: ('A' for Active; 'I' for Inactive)
REMARK    1  A    between atoms: C4_4  and  C5_5 
ROOT
HETATM    1  C1  UNL     1     -33.012   7.852   3.684  1.00 20.00     0.016 C 
HETATM    2  C2  UNL     1     -34.331   7.793   4.434  1.00 20.00     0.074 C 
HETATM    3  C3  UNL     1     -33.877   5.800   2.692  1.00 20.00     0.079 C 
HETATM    4  C4  UNL     1     -33.236   7.142   2.349  1.00 20.00     0.005 C 
HETATM    5  S6  UNL     1     -35.003   6.148   4.072  1.00 20.00    -0.169 SA
ENDROOT
BRANCH   4   6
HETATM    6  C5  UNL     1     -31.962   6.976   1.575  1.00 20.00     0.090 C 
HETATM    7 BR7  UNL     1     -31.840   5.157   0.922  1.00 20.00    -0.096 Br
ENDBRANCH   4   6
TORSDOF 1
ENDMDL
MODEL 8
REMARK VINA RESULT:       0.5      2.534      3.413
REMARK  1 active torsions:
REMARK  status: ('A' for Active; 'I' for Inactive)
REMARK    1  A    between atoms: C4_4  and  C5_5 
ROOT
HETATM    1  C1  UNL     1     -33.125   5.535   2.423  1.00 20.00     0.016 C 
HETATM    2  C2  UNL     1     -32.321   5.714   1.147  1.00 20.00     0.074 C 
HETATM    3  C3  UNL     1     -32.737   7.936   2.597  1.00 20.00     0.079 C 
HETATM    4  C4  UNL     1     -33.824   6.869   2.688  1.00 20.00     0.005 C 
HETATM    5  S6  UNL     1     -31.652   7.396   1.246  1.00 20.00    -0.169 SA
ENDROOT
BRANCH   4   6
HETATM    6  C5  UNL     1     -34.521   6.887   4.017  1.00 20.00     0.090 C 
HETATM    7 BR7  UNL     1     -33.645   8.162   5.184  1.00 20.00    -0.096 Br
ENDBRANCH   4   6
TORSDOF 1
ENDMDL
MODEL 9
REMARK VINA RESULT:       1.1      3.066      3.953
REMARK  1 active torsions:
REMARK  status: ('A' for Active; 'I' for Inactive)
REMARK    1  A    between atoms: C4_4  and  C5_5 
ROOT
HETATM    1  C1  UNL     1     -31.519   7.785   1.650  1.00 20.00     0.016 C 
HETATM    2  C2  UNL     1     -31.429   8.363   0.248  1.00 20.00     0.074 C 
HETATM    3  C3  UNL     1     -33.222   9.514   1.883  1.00 20.00     0.079 C 
HETATM    4  C4  UNL     1     -32.948   8.034   2.134  1.00 20.00     0.005 C 
HETATM    5  S6  UNL     1     -32.405   9.890   0.307  1.00 20.00    -0.169 SA
ENDROOT
BRANCH   4   6
HETATM    6  C5  UNL     1     -33.129   7.665   3.577  1.00 20.00     0.090 C 
HETATM    7 BR7  UNL     1     -34.722   6.579   3.766  1.00 20.00    -0.096 Br
ENDBRANCH   4   6
TORSDOF 1
ENDMDL
