MODEL 1
REMARK VINA RESULT:      -0.9      0.000      0.000
REMARK  3 active torsions:
REMARK  status: ('A' for Active; 'I' for Inactive)
REMARK    1  A    between atoms: C1_1  and  C7_7 
REMARK    2  A    between atoms: C1_1  and  C9_9 
REMARK    3  A    between atoms: C8_8  and  C9_9 
ROOT
HETATM    1  C1  UNL     1     -34.561   5.825   3.750  1.00 20.00     0.141 C 
HETATM    2  O10 UNL     1     -35.515   6.596   3.654  1.00 20.00    -0.297 OA
ENDROOT
BRANCH   1   3
HETATM    3  C7  UNL     1     -33.210   6.209   3.251  1.00 20.00     0.116 C 
HETATM    4  C3  UNL     1     -33.061   5.998   1.751  1.00 20.00     0.024 C 
HETATM    5  C2  UNL     1     -31.986   6.965   1.281  1.00 20.00     0.012 C 
HETATM    6  C6  UNL     1     -32.359   8.328   1.837  1.00 20.00     0.075 C 
HETATM    7  S11 UNL     1     -32.987   7.993   3.506  1.00 20.00    -0.157 SA
ENDBRANCH   1   3
BRANCH   1   8
HETATM    8  C9  UNL     1     -34.677   4.445   4.371  1.00 20.00     0.084 C 
BRANCH   8   9
HETATM    9  C8  UNL     1     -33.410   3.624   4.213  1.00 20.00    -0.007 A 
HETATM   10  C4  UNL     1     -32.671   3.132   5.425  1.00 20.00     0.005 A 
HETATM   11  C5  UNL     1     -33.411   2.159   4.550  1.00 20.00     0.005 A 
ENDBRANCH   8   9
ENDBRANCH   1   8
TORSDOF 3
ENDMDL
MODEL 2
REMARK VINA RESULT:      -0.7      1.195      1.614
REMARK  3 active torsions:
REMARK  status: ('A' for Active; 'I' for Inactive)
REMARK    1  A    between atoms: C1_1  and  C7_7 
REMARK    2  A    between atoms: C1_1  and  C9_9 
REMARK    3  A    between atoms: C8_8  and  C9_9 
ROOT
HETATM    1  C1  UNL     1     -34.475   5.708   3.614  1.00 20.00     0.141 C 
HETATM    2  O10 UNL     1     -35.418   5.832   4.395  1.00 20.00    -0.297 OA
ENDROOT
BRANCH   1   3
HETATM    3  C7  UNL     1     -34.008   6.853   2.784  1.00 20.00     0.116 C 
HETATM    4  C3  UNL     1     -33.146   7.830   3.570  1.00 20.00     0.024 C 
HETATM    5  C2  UNL     1     -32.249   8.528   2.559  1.00 20.00     0.012 C 
HETATM    6  C6  UNL     1     -31.611   7.434   1.721  1.00 20.00     0.075 C 
HETATM    7  S11 UNL     1     -32.928   6.211   1.473  1.00 20.00    -0.157 SA
ENDBRANCH   1   3
BRANCH   1   8
HETATM    8  C9  UNL     1     -33.722   4.402   3.435  1.00 20.00     0.084 C 
BRANCH   8   9
HETATM    9  C8  UNL     1     -33.818   3.499   4.651  1.00 20.00    -0.007 A 
HETATM   10  C4  UNL     1     -33.258   2.106   4.607  1.00 20.00     0.005 A 
HETATM   11  C5  UNL     1     -32.586   3.160   5.442  1.00 20.00     0.005 A 
ENDBRANCH   8   9
ENDBRANCH   1   8
TORSDOF 3
ENDMDL
MODEL 3
REMARK VINA RESULT:      -0.6      2.261      5.331
REMARK  3 active torsions:
REMARK  status: ('A' for Active; 'I' for Inactive)
REMARK    1  A    between atoms: C1_1  and  C7_7 
REMARK    2  A    between atoms: C1_1  and  C9_9 
REMARK    3  A    between atoms: C8_8  and  C9_9 
ROOT
HETATM    1  C1  UNL     1     -32.590   6.696   1.880  1.00 20.00     0.141 C 
HETATM    2  O10 UNL     1     -32.665   5.782   1.059  1.00 20.00    -0.297 OA
ENDROOT
BRANCH   1   3
HETATM    3  C7  UNL     1     -33.176   6.555   3.242  1.00 20.00     0.116 C 
HETATM    4  C3  UNL     1     -34.560   7.178   3.349  1.00 20.00     0.024 C 
HETATM    5  C2  UNL     1     -35.278   6.451   4.475  1.00 20.00     0.012 C 
HETATM    6  C6  UNL     1     -35.117   4.966   4.201  1.00 20.00     0.075 C 
HETATM    7  S11 UNL     1     -33.421   4.788   3.584  1.00 20.00    -0.157 SA
ENDBRANCH   1   3
BRANCH   1   8
HETATM    8  C9  UNL     1     -31.907   8.018   1.579  1.00 20.00     0.084 C 
BRANCH   8   9
HETATM    9  C8  UNL     1     -32.772   8.946   0.746  1.00 20.00    -0.007 A 
HETATM   10  C4  UNL     1     -32.607  10.436   0.856  1.00 20.00     0.005 A 
HETATM   11  C5  UNL     1     -32.171   9.722  -0.393  1.00 20.00     0.005 A 
ENDBRANCH   8   9
ENDBRANCH   1   8
TORSDOF 3
ENDMDL
MODEL 4
REMARK VINA RESULT:      -0.2      2.039      5.363
REMARK  3 active torsions:
REMARK  status: ('A' for Active; 'I' for Inactive)
REMARK    1  A    between atoms: C1_1  and  C7_7 
REMARK    2  A    between atoms: C1_1  and  C9_9 
REMARK    3  A    between atoms: C8_8  and  C9_9 
ROOT
HETATM    1  C1  UNL     1     -32.305   7.832   2.232  1.00 20.00     0.141 C 
HETATM    2  O10 UNL     1     -31.890   8.410   3.235  1.00 20.00    -0.297 OA
ENDROOT
BRANCH   1   3
HETATM    3  C7  UNL     1     -33.435   6.864   2.315  1.00 20.00     0.116 C 
HETATM    4  C3  UNL     1     -32.962   5.432   2.519  1.00 20.00     0.024 C 
HETATM    5  C2  UNL     1     -34.099   4.693   3.207  1.00 20.00     0.012 C 
HETATM    6  C6  UNL     1     -34.515   5.547   4.392  1.00 20.00     0.075 C 
HETATM    7  S11 UNL     1     -34.421   7.255   3.789  1.00 20.00    -0.157 SA
ENDBRANCH   1   3
BRANCH   1   8
HETATM    8  C9  UNL     1     -31.714   8.052   0.851  1.00 20.00     0.084 C 
BRANCH   8   9
HETATM    9  C8  UNL     1     -31.736   9.509   0.430  1.00 20.00    -0.007 A 
HETATM   10  C4  UNL     1     -32.720   9.985  -0.602  1.00 20.00     0.005 A 
HETATM   11  C5  UNL     1     -32.880  10.397   0.835  1.00 20.00     0.005 A 
ENDBRANCH   8   9
ENDBRANCH   1   8
TORSDOF 3
ENDMDL
MODEL 5
REMARK VINA RESULT:      -0.1      2.286      5.275
REMARK  3 active torsions:
REMARK  status: ('A' for Active; 'I' for Inactive)
REMARK    1  A    between atoms: C1_1  and  C7_7 
REMARK    2  A    between atoms: C1_1  and  C9_9 
REMARK    3  A    between atoms: C8_8  and  C9_9 
ROOT
HETATM    1  C1  UNL     1     -32.323   6.782   1.720  1.00 20.00     0.141 C 
HETATM    2  O10 UNL     1     -31.725   5.738   1.463  1.00 20.00    -0.297 OA
ENDROOT
BRANCH   1   3
HETATM    3  C7  UNL     1     -33.687   6.759   2.319  1.00 20.00     0.116 C 
HETATM    4  C3  UNL     1     -33.990   5.448   3.030  1.00 20.00     0.024 C 
HETATM    5  C2  UNL     1     -35.040   5.757   4.085  1.00 20.00     0.012 C 
HETATM    6  C6  UNL     1     -34.529   6.958   4.862  1.00 20.00     0.075 C 
HETATM    7  S11 UNL     1     -33.770   8.031   3.612  1.00 20.00    -0.157 SA
ENDBRANCH   1   3
BRANCH   1   8
HETATM    8  C9  UNL     1     -31.734   8.155   1.454  1.00 20.00     0.084 C 
BRANCH   8   9
HETATM    9  C8  UNL     1     -32.635   9.021   0.593  1.00 20.00    -0.007 A 
HETATM   10  C4  UNL     1     -32.666  10.511   0.789  1.00 20.00     0.005 A 
HETATM   11  C5  UNL     1     -32.043   9.928  -0.449  1.00 20.00     0.005 A 
ENDBRANCH   8   9
ENDBRANCH   1   8
TORSDOF 3
ENDMDL
MODEL 6
REMARK VINA RESULT:       0.5      1.718      5.083
REMARK  3 active torsions:
REMARK  status: ('A' for Active; 'I' for Inactive)
REMARK    1  A    between atoms: C1_1  and  C7_7 
REMARK    2  A    between atoms: C1_1  and  C9_9 
REMARK    3  A    between atoms: C8_8  and  C9_9 
ROOT
HETATM    1  C1  UNL     1     -33.285   7.275   2.627  1.00 20.00     0.141 C 
HETATM    2  O10 UNL     1     -33.410   8.163   3.470  1.00 20.00    -0.297 OA
ENDROOT
BRANCH   1   3
HETATM    3  C7  UNL     1     -34.000   5.975   2.768  1.00 20.00     0.116 C 
HETATM    4  C3  UNL     1     -33.092   4.862   3.271  1.00 20.00     0.024 C 
HETATM    5  C2  UNL     1     -33.991   3.848   3.962  1.00 20.00     0.012 C 
HETATM    6  C6  UNL     1     -34.864   4.632   4.927  1.00 20.00     0.075 C 
HETATM    7  S11 UNL     1     -35.282   6.158   4.041  1.00 20.00    -0.157 SA
ENDBRANCH   1   3
BRANCH   1   8
HETATM    8  C9  UNL     1     -32.408   7.426   1.397  1.00 20.00     0.084 C 
BRANCH   8   9
HETATM    9  C8  UNL     1     -31.902   8.844   1.210  1.00 20.00    -0.007 A 
HETATM   10  C4  UNL     1     -31.340   9.279  -0.115  1.00 20.00     0.005 A 
HETATM   11  C5  UNL     1     -32.666   9.813   0.351  1.00 20.00     0.005 A 
ENDBRANCH   8   9
ENDBRANCH   1   8
TORSDOF 3
ENDMDL
MODEL 7
REMARK VINA RESULT:       0.5      2.044      3.228
REMARK  3 active torsions:
REMARK  status: ('A' for Active; 'I' for Inactive)
REMARK    1  A    between atoms: C1_1  and  C7_7 
REMARK    2  A    between atoms: C1_1  and  C9_9 
REMARK    3  A    between atoms: C8_8  and  C9_9 
ROOT
HETATM    1  C1  UNL     1     -32.468   7.062   2.025  1.00 20.00     0.141 C 
HETATM    2  O10 UNL     1     -32.240   5.989   1.467  1.00 20.00    -0.297 OA
ENDROOT
BRANCH   1   3
HETATM    3  C7  UNL     1     -31.835   8.325   1.551  1.00 20.00     0.116 C 
HETATM    4  C3  UNL     1     -31.583   8.323   0.051  1.00 20.00     0.024 C 
HETATM    5  C2  UNL     1     -31.565   9.779  -0.388  1.00 20.00     0.012 C 
HETATM    6  C6  UNL     1     -32.817  10.418   0.185  1.00 20.00     0.075 C 
HETATM    7  S11 UNL     1     -32.993   9.693   1.839  1.00 20.00    -0.157 SA
ENDBRANCH   1   3
BRANCH   1   8
HETATM    8  C9  UNL     1     -33.396   7.188   3.220  1.00 20.00     0.084 C 
BRANCH   8   9
HETATM    9  C8  UNL     1     -34.513   6.161   3.204  1.00 20.00    -0.007 A 
HETATM   10  C4  UNL     1     -34.427   4.935   4.069  1.00 20.00     0.005 A 
HETATM   11  C5  UNL     1     -35.424   6.014   4.390  1.00 20.00     0.005 A 
ENDBRANCH   8   9
ENDBRANCH   1   8
TORSDOF 3
ENDMDL
MODEL 8
REMARK VINA RESULT:       0.8      2.426      3.344
REMARK  3 active torsions:
REMARK  status: ('A' for Active; 'I' for Inactive)
REMARK    1  A    between atoms: C1_1  and  C7_7 
REMARK    2  A    between atoms: C1_1  and  C9_9 
REMARK    3  A    between atoms: C8_8  and  C9_9 
ROOT
HETATM    1  C1  UNL     1     -32.723   8.341   3.413  1.00 20.00     0.141 C 
HETATM    2  O10 UNL     1     -31.659   8.695   3.920  1.00 20.00    -0.297 OA
ENDROOT
BRANCH   1   3
HETATM    3  C7  UNL     1     -32.936   8.418   1.941  1.00 20.00     0.116 C 
HETATM    4  C3  UNL     1     -32.847   9.843   1.413  1.00 20.00     0.024 C 
HETATM    5  C2  UNL     1     -32.440   9.739  -0.049  1.00 20.00     0.012 C 
HETATM    6  C6  UNL     1     -31.232   8.820  -0.096  1.00 20.00     0.075 C 
HETATM    7  S11 UNL     1     -31.590   7.519   1.117  1.00 20.00    -0.157 SA
ENDBRANCH   1   3
BRANCH   1   8
HETATM    8  C9  UNL     1     -33.886   7.807   4.229  1.00 20.00     0.084 C 
BRANCH   8   9
HETATM    9  C8  UNL     1     -34.628   6.685   3.526  1.00 20.00    -0.007 A 
HETATM   10  C4  UNL     1     -34.118   5.274   3.604  1.00 20.00     0.005 A 
HETATM   11  C5  UNL     1     -35.381   5.658   4.325  1.00 20.00     0.005 A 
ENDBRANCH   8   9
ENDBRANCH   1   8
TORSDOF 3
ENDMDL
MODEL 9
REMARK VINA RESULT:       1.2      1.504      2.273
REMARK  3 active torsions:
REMARK  status: ('A' for Active; 'I' for Inactive)
REMARK    1  A    between atoms: C1_1  and  C7_7 
REMARK    2  A    between atoms: C1_1  and  C9_9 
REMARK    3  A    between atoms: C8_8  and  C9_9 
ROOT
HETATM    1  C1  UNL     1     -33.360   7.579   3.123  1.00 20.00     0.141 C 
HETATM    2  O10 UNL     1     -34.060   8.164   3.949  1.00 20.00    -0.297 OA
ENDROOT
BRANCH   1   3
HETATM    3  C7  UNL     1     -32.299   8.300   2.366  1.00 20.00     0.116 C 
HETATM    4  C3  UNL     1     -31.829   7.528   1.142  1.00 20.00     0.024 C 
HETATM    5  C2  UNL     1     -31.289   8.557   0.160  1.00 20.00     0.012 C 
HETATM    6  C6  UNL     1     -32.354   9.632   0.034  1.00 20.00     0.075 C 
HETATM    7  S11 UNL     1     -33.004   9.842   1.715  1.00 20.00    -0.157 SA
ENDBRANCH   1   3
BRANCH   1   8
HETATM    8  C9  UNL     1     -33.517   6.101   2.811  1.00 20.00     0.084 C 
BRANCH   8   9
HETATM    9  C8  UNL     1     -33.648   5.250   4.060  1.00 20.00    -0.007 A 
HETATM   10  C4  UNL     1     -34.985   4.695   4.461  1.00 20.00     0.005 A 
HETATM   11  C5  UNL     1     -33.913   3.775   3.947  1.00 20.00     0.005 A 
ENDBRANCH   8   9
ENDBRANCH   1   8
TORSDOF 3
ENDMDL
