MODEL 1
REMARK VINA RESULT:      -0.7      0.000      0.000
REMARK  0 active torsions:
REMARK  status: ('A' for Active; 'I' for Inactive)
ROOT
HETATM    1  C1  UNL     1     -33.445   7.685   3.822  1.00 20.00     0.066 C 
HETATM    2  C2  UNL     1     -33.484   5.382   2.769  1.00 20.00     0.071 C 
HETATM    3  C3  UNL     1     -32.804   8.177   2.529  1.00 20.00     0.171 C 
HETATM    4  C4  UNL     1     -35.376   6.044   4.439  1.00 20.00     0.207 A 
HETATM    5  C5  UNL     1     -32.842   6.023   1.533  1.00 20.00     0.120 C 
HETATM    6  C6  UNL     1     -34.217   6.428   3.555  1.00 20.00     0.086 A 
HETATM    7  C7  UNL     1     -31.951   5.029   0.800  1.00 20.00     0.039 C 
HETATM    8  O8  UNL     1     -32.026   7.138   1.927  1.00 20.00    -0.386 OA
HETATM    9  O9  UNL     1     -35.574   6.639   3.146  1.00 20.00    -0.375 OA
ENDROOT
TORSDOF 0
ENDMDL
MODEL 2
REMARK VINA RESULT:      -0.4      1.378      3.588
REMARK  0 active torsions:
REMARK  status: ('A' for Active; 'I' for Inactive)
ROOT
HETATM    1  C1  UNL     1     -31.706   6.451   1.470  1.00 20.00     0.066 C 
HETATM    2  C2  UNL     1     -33.118   7.737   3.133  1.00 20.00     0.071 C 
HETATM    3  C3  UNL     1     -32.848   5.445   1.400  1.00 20.00     0.171 C 
HETATM    4  C4  UNL     1     -31.514   9.051   1.551  1.00 20.00     0.207 A 
HETATM    5  C5  UNL     1     -34.180   6.646   2.955  1.00 20.00     0.120 C 
HETATM    6  C6  UNL     1     -32.232   7.780   1.925  1.00 20.00     0.086 A 
HETATM    7  C7  UNL     1     -34.994   6.458   4.228  1.00 20.00     0.039 C 
HETATM    8  O8  UNL     1     -33.549   5.393   2.647  1.00 20.00    -0.386 OA
HETATM    9  O9  UNL     1     -32.704   8.625   0.869  1.00 20.00    -0.375 OA
ENDROOT
TORSDOF 0
ENDMDL
MODEL 3
REMARK VINA RESULT:      -0.1      1.203      3.321
REMARK  0 active torsions:
REMARK  status: ('A' for Active; 'I' for Inactive)
ROOT
HETATM    1  C1  UNL     1     -32.098   7.447   1.456  1.00 20.00     0.066 C 
HETATM    2  C2  UNL     1     -33.795   5.706   2.168  1.00 20.00     0.071 C 
HETATM    3  C3  UNL     1     -32.288   8.078   2.831  1.00 20.00     0.171 C 
HETATM    4  C4  UNL     1     -31.882   5.018   0.533  1.00 20.00     0.207 A 
HETATM    5  C5  UNL     1     -33.875   6.447   3.507  1.00 20.00     0.120 C 
HETATM    6  C6  UNL     1     -32.479   5.998   1.509  1.00 20.00     0.086 A 
HETATM    7  C7  UNL     1     -35.260   6.311   4.127  1.00 20.00     0.039 C 
HETATM    8  O8  UNL     1     -33.617   7.846   3.310  1.00 20.00    -0.386 OA
HETATM    9  O9  UNL     1     -31.415   5.117   1.888  1.00 20.00    -0.375 OA
ENDROOT
TORSDOF 0
ENDMDL
MODEL 4
REMARK VINA RESULT:      -0.1      1.631      3.264
REMARK  0 active torsions:
REMARK  status: ('A' for Active; 'I' for Inactive)
ROOT
HETATM    1  C1  UNL     1     -35.131   6.724   3.242  1.00 20.00     0.066 C 
HETATM    2  C2  UNL     1     -33.192   5.105   3.062  1.00 20.00     0.071 C 
HETATM    3  C3  UNL     1     -35.542   5.967   4.500  1.00 20.00     0.171 C 
HETATM    4  C4  UNL     1     -32.881   7.553   2.217  1.00 20.00     0.207 A 
HETATM    5  C5  UNL     1     -33.724   4.448   4.341  1.00 20.00     0.120 C 
HETATM    6  C6  UNL     1     -33.666   6.525   2.990  1.00 20.00     0.086 A 
HETATM    7  C7  UNL     1     -33.404   2.960   4.368  1.00 20.00     0.039 C 
HETATM    8  O8  UNL     1     -35.151   4.592   4.409  1.00 20.00    -0.386 OA
HETATM    9  O9  UNL     1     -32.816   7.472   3.650  1.00 20.00    -0.375 OA
ENDROOT
TORSDOF 0
ENDMDL
MODEL 5
REMARK VINA RESULT:       0.7      1.282      2.384
REMARK  0 active torsions:
REMARK  status: ('A' for Active; 'I' for Inactive)
ROOT
HETATM    1  C1  UNL     1     -33.421   5.441   2.294  1.00 20.00     0.066 C 
HETATM    2  C2  UNL     1     -33.624   7.965   2.251  1.00 20.00     0.071 C 
HETATM    3  C3  UNL     1     -31.975   5.630   1.852  1.00 20.00     0.171 C 
HETATM    4  C4  UNL     1     -35.020   6.611   3.990  1.00 20.00     0.207 A 
HETATM    5  C5  UNL     1     -32.155   7.996   1.813  1.00 20.00     0.120 C 
HETATM    6  C6  UNL     1     -33.905   6.684   2.979  1.00 20.00     0.086 A 
HETATM    7  C7  UNL     1     -31.872   9.202   0.928  1.00 20.00     0.039 C 
HETATM    8  O8  UNL     1     -31.842   6.814   1.059  1.00 20.00    -0.386 OA
HETATM    9  O9  UNL     1     -33.644   6.727   4.387  1.00 20.00    -0.375 OA
ENDROOT
TORSDOF 0
ENDMDL
MODEL 6
REMARK VINA RESULT:       1.1      1.657      2.405
REMARK  0 active torsions:
REMARK  status: ('A' for Active; 'I' for Inactive)
ROOT
HETATM    1  C1  UNL     1     -34.971   6.012   4.110  1.00 20.00     0.066 C 
HETATM    2  C2  UNL     1     -33.370   6.924   2.374  1.00 20.00     0.071 C 
HETATM    3  C3  UNL     1     -34.223   4.690   3.989  1.00 20.00     0.171 C 
HETATM    4  C4  UNL     1     -34.303   8.531   4.205  1.00 20.00     0.207 A 
HETATM    5  C5  UNL     1     -32.715   5.538   2.364  1.00 20.00     0.120 C 
HETATM    6  C6  UNL     1     -34.081   7.137   3.677  1.00 20.00     0.086 A 
HETATM    7  C7  UNL     1     -32.127   5.219   0.996  1.00 20.00     0.039 C 
HETATM    8  O8  UNL     1     -33.693   4.532   2.669  1.00 20.00    -0.386 OA
HETATM    9  O9  UNL     1     -33.263   7.684   4.719  1.00 20.00    -0.375 OA
ENDROOT
TORSDOF 0
ENDMDL
MODEL 7
REMARK VINA RESULT:       1.5      1.376      3.158
REMARK  0 active torsions:
REMARK  status: ('A' for Active; 'I' for Inactive)
ROOT
HETATM    1  C1  UNL     1     -33.679   5.324   2.834  1.00 20.00     0.066 C 
HETATM    2  C2  UNL     1     -31.874   6.749   1.774  1.00 20.00     0.071 C 
HETATM    3  C3  UNL     1     -34.243   6.614   3.417  1.00 20.00     0.171 C 
HETATM    4  C4  UNL     1     -32.677   4.597   0.539  1.00 20.00     0.207 A 
HETATM    5  C5  UNL     1     -32.558   7.958   2.424  1.00 20.00     0.120 C 
HETATM    6  C6  UNL     1     -32.865   5.635   1.614  1.00 20.00     0.086 A 
HETATM    7  C7  UNL     1     -31.547   9.047   2.756  1.00 20.00     0.039 C 
HETATM    8  O8  UNL     1     -33.196   7.561   3.648  1.00 20.00    -0.386 OA
HETATM    9  O9  UNL     1     -33.614   5.675   0.393  1.00 20.00    -0.375 OA
ENDROOT
TORSDOF 0
ENDMDL
MODEL 8
REMARK VINA RESULT:       1.6      1.872      2.799
REMARK  0 active torsions:
REMARK  status: ('A' for Active; 'I' for Inactive)
ROOT
HETATM    1  C1  UNL     1     -34.920   5.136   4.766  1.00 20.00     0.066 C 
HETATM    2  C2  UNL     1     -32.782   5.249   3.413  1.00 20.00     0.071 C 
HETATM    3  C3  UNL     1     -35.501   6.145   3.782  1.00 20.00     0.171 C 
HETATM    4  C4  UNL     1     -33.421   3.010   4.588  1.00 20.00     0.207 A 
HETATM    5  C5  UNL     1     -33.503   6.253   2.506  1.00 20.00     0.120 C 
HETATM    6  C6  UNL     1     -33.791   4.392   4.117  1.00 20.00     0.086 A 
HETATM    7  C7  UNL     1     -32.522   7.250   1.903  1.00 20.00     0.039 C 
HETATM    8  O8  UNL     1     -34.471   6.994   3.266  1.00 20.00    -0.386 OA
HETATM    9  O9  UNL     1     -34.189   3.222   3.393  1.00 20.00    -0.375 OA
ENDROOT
TORSDOF 0
ENDMDL
MODEL 9
REMARK VINA RESULT:       1.8      1.398      2.867
REMARK  0 active torsions:
REMARK  status: ('A' for Active; 'I' for Inactive)
ROOT
HETATM    1  C1  UNL     1     -33.791   7.513   2.983  1.00 20.00     0.066 C 
HETATM    2  C2  UNL     1     -32.249   6.922   1.063  1.00 20.00     0.071 C 
HETATM    3  C3  UNL     1     -33.663   6.061   3.427  1.00 20.00     0.171 C 
HETATM    4  C4  UNL     1     -32.164   9.331   2.061  1.00 20.00     0.207 A 
HETATM    5  C5  UNL     1     -32.214   5.499   1.633  1.00 20.00     0.120 C 
HETATM    6  C6  UNL     1     -32.603   7.892   2.151  1.00 20.00     0.086 A 
HETATM    7  C7  UNL     1     -32.024   4.470   0.528  1.00 20.00     0.039 C 
HETATM    8  O8  UNL     1     -33.453   5.206   2.298  1.00 20.00    -0.386 OA
HETATM    9  O9  UNL     1     -31.484   8.382   2.900  1.00 20.00    -0.375 OA
ENDROOT
TORSDOF 0
ENDMDL
