MODEL 1
REMARK VINA RESULT:      -1.6      0.000      0.000
REMARK  4 active torsions:
REMARK  status: ('A' for Active; 'I' for Inactive)
REMARK    1  A    between atoms: C1_1  and  C3_3 
REMARK    2  A    between atoms: C1_1  and  C7_7 
REMARK    3  A    between atoms: C7_7  and  C8_8 
REMARK    4  A    between atoms: C8_8  and  S10_10 
ROOT
HETATM    1  C1  UNL     1     -33.890   7.199   3.589  1.00 20.00     0.132 C 
HETATM    2  O9  UNL     1     -33.301   7.717   4.538  1.00 20.00    -0.298 OA
ENDROOT
BRANCH   1   3
HETATM    3  C3  UNL     1     -33.394   7.368   2.177  1.00 20.00     0.059 A 
HETATM    4  C2  UNL     1     -32.144   6.662   1.787  1.00 20.00     0.017 A 
HETATM    5  C4  UNL     1     -32.139   8.156   1.970  1.00 20.00    -0.007 A 
HETATM    6  C5  UNL     1     -32.035   9.056   0.788  1.00 20.00     0.011 C 
ENDBRANCH   1   3
BRANCH   1   7
HETATM    7  C7  UNL     1     -35.151   6.380   3.797  1.00 20.00     0.088 C 
BRANCH   7   8
HETATM    8  C8  UNL     1     -34.909   5.066   4.527  1.00 20.00     0.081 C 
BRANCH   8   9
HETATM    9  S10 UNL     1     -33.762   3.983   3.621  1.00 20.00    -0.173 SA
HETATM   10  C6  UNL     1     -33.159   3.013   5.022  1.00 20.00     0.089 C 
ENDBRANCH   8   9
ENDBRANCH   7   8
ENDBRANCH   1   7
TORSDOF 4
ENDMDL
MODEL 2
REMARK VINA RESULT:      -1.4      2.157      5.005
REMARK  4 active torsions:
REMARK  status: ('A' for Active; 'I' for Inactive)
REMARK    1  A    between atoms: C1_1  and  C3_3 
REMARK    2  A    between atoms: C1_1  and  C7_7 
REMARK    3  A    between atoms: C7_7  and  C8_8 
REMARK    4  A    between atoms: C8_8  and  S10_10 
ROOT
HETATM    1  C1  UNL     1     -33.625   6.546   3.100  1.00 20.00     0.132 C 
HETATM    2  O9  UNL     1     -33.935   7.477   3.845  1.00 20.00    -0.298 OA
ENDROOT
BRANCH   1   3
HETATM    3  C3  UNL     1     -34.173   5.160   3.315  1.00 20.00     0.059 A 
HETATM    4  C2  UNL     1     -35.134   4.954   4.432  1.00 20.00     0.017 A 
HETATM    5  C4  UNL     1     -33.731   4.419   4.539  1.00 20.00    -0.007 A 
HETATM    6  C5  UNL     1     -33.480   2.953   4.446  1.00 20.00     0.011 C 
ENDBRANCH   1   3
BRANCH   1   7
HETATM    7  C7  UNL     1     -32.664   6.749   1.944  1.00 20.00     0.088 C 
BRANCH   7   8
HETATM    8  C8  UNL     1     -32.019   8.129   1.926  1.00 20.00     0.081 C 
BRANCH   8   9
HETATM    9  S10 UNL     1     -31.743   8.732   0.232  1.00 20.00    -0.173 SA
HETATM   10  C6  UNL     1     -32.634  10.299   0.366  1.00 20.00     0.089 C 
ENDBRANCH   8   9
ENDBRANCH   7   8
ENDBRANCH   1   7
TORSDOF 4
ENDMDL
MODEL 3
REMARK VINA RESULT:      -1.3      2.827      5.109
REMARK  4 active torsions:
REMARK  status: ('A' for Active; 'I' for Inactive)
REMARK    1  A    between atoms: C1_1  and  C3_3 
REMARK    2  A    between atoms: C1_1  and  C7_7 
REMARK    3  A    between atoms: C7_7  and  C8_8 
REMARK    4  A    between atoms: C8_8  and  S10_10 
ROOT
HETATM    1  C1  UNL     1     -32.820   6.857   1.972  1.00 20.00     0.132 C 
HETATM    2  O9  UNL     1     -32.472   5.805   1.435  1.00 20.00    -0.298 OA
ENDROOT
BRANCH   1   3
HETATM    3  C3  UNL     1     -34.095   6.942   2.768  1.00 20.00     0.059 A 
HETATM    4  C2  UNL     1     -34.044   7.605   4.099  1.00 20.00     0.017 A 
HETATM    5  C4  UNL     1     -34.198   6.111   4.009  1.00 20.00    -0.007 A 
HETATM    6  C5  UNL     1     -35.500   5.469   4.345  1.00 20.00     0.011 C 
ENDBRANCH   1   3
BRANCH   1   7
HETATM    7  C7  UNL     1     -31.987   8.119   1.842  1.00 20.00     0.088 C 
BRANCH   7   8
HETATM    8  C8  UNL     1     -31.526   8.399   0.418  1.00 20.00     0.081 C 
BRANCH   8   9
HETATM    9  S10 UNL     1     -32.519   9.697  -0.380  1.00 20.00    -0.173 SA
HETATM   10  C6  UNL     1     -32.775  10.753   1.064  1.00 20.00     0.089 C 
ENDBRANCH   8   9
ENDBRANCH   7   8
ENDBRANCH   1   7
TORSDOF 4
ENDMDL
MODEL 4
REMARK VINA RESULT:      -1.0      1.741      2.143
REMARK  4 active torsions:
REMARK  status: ('A' for Active; 'I' for Inactive)
REMARK    1  A    between atoms: C1_1  and  C3_3 
REMARK    2  A    between atoms: C1_1  and  C7_7 
REMARK    3  A    between atoms: C7_7  and  C8_8 
REMARK    4  A    between atoms: C8_8  and  S10_10 
ROOT
HETATM    1  C1  UNL     1     -32.784   6.407   1.837  1.00 20.00     0.132 C 
HETATM    2  O9  UNL     1     -33.117   5.441   1.150  1.00 20.00    -0.298 OA
ENDROOT
BRANCH   1   3
HETATM    3  C3  UNL     1     -31.953   7.524   1.262  1.00 20.00     0.059 A 
HETATM    4  C2  UNL     1     -31.427   8.555   2.196  1.00 20.00     0.017 A 
HETATM    5  C4  UNL     1     -32.547   8.898   1.251  1.00 20.00    -0.007 A 
HETATM    6  C5  UNL     1     -32.295   9.786   0.081  1.00 20.00     0.011 C 
ENDBRANCH   1   3
BRANCH   1   7
HETATM    7  C7  UNL     1     -33.179   6.507   3.298  1.00 20.00     0.088 C 
BRANCH   7   8
HETATM    8  C8  UNL     1     -34.684   6.602   3.515  1.00 20.00     0.081 C 
BRANCH   8   9
HETATM    9  S10 UNL     1     -35.317   5.225   4.521  1.00 20.00    -0.173 SA
HETATM   10  C6  UNL     1     -33.983   4.045   4.217  1.00 20.00     0.089 C 
ENDBRANCH   8   9
ENDBRANCH   7   8
ENDBRANCH   1   7
TORSDOF 4
ENDMDL
MODEL 5
REMARK VINA RESULT:      -1.0      2.189      4.778
REMARK  4 active torsions:
REMARK  status: ('A' for Active; 'I' for Inactive)
REMARK    1  A    between atoms: C1_1  and  C3_3 
REMARK    2  A    between atoms: C1_1  and  C7_7 
REMARK    3  A    between atoms: C7_7  and  C8_8 
REMARK    4  A    between atoms: C8_8  and  S10_10 
ROOT
HETATM    1  C1  UNL     1     -33.559   7.541   3.793  1.00 20.00     0.132 C 
HETATM    2  O9  UNL     1     -34.044   8.188   4.721  1.00 20.00    -0.298 OA
ENDROOT
BRANCH   1   3
HETATM    3  C3  UNL     1     -34.127   6.204   3.394  1.00 20.00     0.059 A 
HETATM    4  C2  UNL     1     -35.438   5.803   3.971  1.00 20.00     0.017 A 
HETATM    5  C4  UNL     1     -34.175   5.130   4.435  1.00 20.00    -0.007 A 
HETATM    6  C5  UNL     1     -33.885   3.724   4.038  1.00 20.00     0.011 C 
ENDBRANCH   1   3
BRANCH   1   7
HETATM    7  C7  UNL     1     -32.358   8.052   3.020  1.00 20.00     0.088 C 
BRANCH   7   8
HETATM    8  C8  UNL     1     -32.399   7.709   1.537  1.00 20.00     0.081 C 
BRANCH   8   9
HETATM    9  S10 UNL     1     -31.400   8.857   0.541  1.00 20.00    -0.173 SA
HETATM   10  C6  UNL     1     -32.664  10.113   0.245  1.00 20.00     0.089 C 
ENDBRANCH   8   9
ENDBRANCH   7   8
ENDBRANCH   1   7
TORSDOF 4
ENDMDL
MODEL 6
REMARK VINA RESULT:      -0.9      2.828      4.865
REMARK  4 active torsions:
REMARK  status: ('A' for Active; 'I' for Inactive)
REMARK    1  A    between atoms: C1_1  and  C3_3 
REMARK    2  A    between atoms: C1_1  and  C7_7 
REMARK    3  A    between atoms: C7_7  and  C8_8 
REMARK    4  A    between atoms: C8_8  and  S10_10 
ROOT
HETATM    1  C1  UNL     1     -32.974   6.108   1.885  1.00 20.00     0.132 C 
HETATM    2  O9  UNL     1     -33.567   5.400   1.070  1.00 20.00    -0.298 OA
ENDROOT
BRANCH   1   3
HETATM    3  C3  UNL     1     -33.444   6.216   3.312  1.00 20.00     0.059 A 
HETATM    4  C2  UNL     1     -34.910   6.250   3.563  1.00 20.00     0.017 A 
HETATM    5  C4  UNL     1     -34.089   7.499   3.736  1.00 20.00    -0.007 A 
HETATM    6  C5  UNL     1     -33.813   8.031   5.100  1.00 20.00     0.011 C 
ENDBRANCH   1   3
BRANCH   1   7
HETATM    7  C7  UNL     1     -31.753   6.916   1.485  1.00 20.00     0.088 C 
BRANCH   7   8
HETATM    8  C8  UNL     1     -31.967   8.421   1.569  1.00 20.00     0.081 C 
BRANCH   8   9
HETATM    9  S10 UNL     1     -32.163   9.177  -0.074  1.00 20.00    -0.173 SA
HETATM   10  C6  UNL     1     -32.786  10.789   0.454  1.00 20.00     0.089 C 
ENDBRANCH   8   9
ENDBRANCH   7   8
ENDBRANCH   1   7
TORSDOF 4
ENDMDL
MODEL 7
REMARK VINA RESULT:      -0.8      2.193      2.835
REMARK  4 active torsions:
REMARK  status: ('A' for Active; 'I' for Inactive)
REMARK    1  A    between atoms: C1_1  and  C3_3 
REMARK    2  A    between atoms: C1_1  and  C7_7 
REMARK    3  A    between atoms: C7_7  and  C8_8 
REMARK    4  A    between atoms: C8_8  and  S10_10 
ROOT
HETATM    1  C1  UNL     1     -32.093   6.106   1.413  1.00 20.00     0.132 C 
HETATM    2  O9  UNL     1     -31.370   5.114   1.312  1.00 20.00    -0.298 OA
ENDROOT
BRANCH   1   3
HETATM    3  C3  UNL     1     -31.547   7.493   1.199  1.00 20.00     0.059 A 
HETATM    4  C2  UNL     1     -31.554   8.431   2.353  1.00 20.00     0.017 A 
HETATM    5  C4  UNL     1     -32.518   8.633   1.215  1.00 20.00    -0.007 A 
HETATM    6  C5  UNL     1     -32.326   9.761   0.261  1.00 20.00     0.011 C 
ENDBRANCH   1   3
BRANCH   1   7
HETATM    7  C7  UNL     1     -33.561   5.976   1.773  1.00 20.00     0.088 C 
BRANCH   7   8
HETATM    8  C8  UNL     1     -33.798   5.327   3.130  1.00 20.00     0.081 C 
BRANCH   8   9
HETATM    9  S10 UNL     1     -35.107   6.168   4.071  1.00 20.00    -0.173 SA
HETATM   10  C6  UNL     1     -34.225   7.705   4.427  1.00 20.00     0.089 C 
ENDBRANCH   8   9
ENDBRANCH   7   8
ENDBRANCH   1   7
TORSDOF 4
ENDMDL
MODEL 8
REMARK VINA RESULT:      -0.8      1.510      2.355
REMARK  4 active torsions:
REMARK  status: ('A' for Active; 'I' for Inactive)
REMARK    1  A    between atoms: C1_1  and  C3_3 
REMARK    2  A    between atoms: C1_1  and  C7_7 
REMARK    3  A    between atoms: C7_7  and  C8_8 
REMARK    4  A    between atoms: C8_8  and  S10_10 
ROOT
HETATM    1  C1  UNL     1     -32.250   7.910   2.205  1.00 20.00     0.132 C 
HETATM    2  O9  UNL     1     -31.429   8.415   2.971  1.00 20.00    -0.298 OA
ENDROOT
BRANCH   1   3
HETATM    3  C3  UNL     1     -32.398   8.399   0.788  1.00 20.00     0.059 A 
HETATM    4  C2  UNL     1     -31.172   8.844   0.072  1.00 20.00     0.017 A 
HETATM    5  C4  UNL     1     -32.185   9.858   0.530  1.00 20.00    -0.007 A 
HETATM    6  C5  UNL     1     -33.053  10.552  -0.462  1.00 20.00     0.011 C 
ENDBRANCH   1   3
BRANCH   1   7
HETATM    7  C7  UNL     1     -33.161   6.784   2.658  1.00 20.00     0.088 C 
BRANCH   7   8
HETATM    8  C8  UNL     1     -34.098   7.180   3.792  1.00 20.00     0.081 C 
BRANCH   8   9
HETATM    9  S10 UNL     1     -35.312   5.878   4.161  1.00 20.00    -0.173 SA
HETATM   10  C6  UNL     1     -34.206   4.453   4.058  1.00 20.00     0.089 C 
ENDBRANCH   8   9
ENDBRANCH   7   8
ENDBRANCH   1   7
TORSDOF 4
ENDMDL
MODEL 9
REMARK VINA RESULT:      -0.5      2.067      4.500
REMARK  4 active torsions:
REMARK  status: ('A' for Active; 'I' for Inactive)
REMARK    1  A    between atoms: C1_1  and  C3_3 
REMARK    2  A    between atoms: C1_1  and  C7_7 
REMARK    3  A    between atoms: C7_7  and  C8_8 
REMARK    4  A    between atoms: C8_8  and  S10_10 
ROOT
HETATM    1  C1  UNL     1     -34.527   6.370   3.799  1.00 20.00     0.132 C 
HETATM    2  O9  UNL     1     -35.689   6.149   4.141  1.00 20.00    -0.298 OA
ENDROOT
BRANCH   1   3
HETATM    3  C3  UNL     1     -33.488   5.280   3.815  1.00 20.00     0.059 A 
HETATM    4  C2  UNL     1     -33.506   4.283   2.712  1.00 20.00     0.017 A 
HETATM    5  C4  UNL     1     -33.950   3.883   4.093  1.00 20.00    -0.007 A 
HETATM    6  C5  UNL     1     -33.097   2.991   4.926  1.00 20.00     0.011 C 
ENDBRANCH   1   3
BRANCH   1   7
HETATM    7  C7  UNL     1     -34.085   7.755   3.363  1.00 20.00     0.088 C 
BRANCH   7   8
HETATM    8  C8  UNL     1     -32.574   7.897   3.233  1.00 20.00     0.081 C 
BRANCH   8   9
HETATM    9  S10 UNL     1     -32.009   7.645   1.523  1.00 20.00    -0.173 SA
HETATM   10  C6  UNL     1     -32.352   9.301   0.888  1.00 20.00     0.089 C 
ENDBRANCH   8   9
ENDBRANCH   7   8
ENDBRANCH   1   7
TORSDOF 4
ENDMDL
