MODEL 1
REMARK VINA RESULT:      -1.2      0.000      0.000
REMARK  1 active torsions:
REMARK  status: ('A' for Active; 'I' for Inactive)
REMARK    1  A    between atoms: C4_4  and  C5_5 
ROOT
HETATM    1  C1  UNL     1     -33.445   5.772   2.050  1.00 20.00     0.016 C 
HETATM    2  C2  UNL     1     -32.080   6.125   1.486  1.00 20.00     0.074 C 
HETATM    3  C3  UNL     1     -33.267   8.021   2.975  1.00 20.00     0.079 C 
HETATM    4  C4  UNL     1     -33.604   6.578   3.339  1.00 20.00     0.009 C 
HETATM    5  S6  UNL     1     -31.890   7.902   1.797  1.00 20.00    -0.169 SA
ENDROOT
BRANCH   4   6
HETATM    6  C5  UNL     1     -35.004   6.452   3.923  1.00 20.00     0.120 C 
HETATM    7 CL7  UNL     1     -35.247   4.826   4.590  1.00 20.00    -0.130 Cl
ENDBRANCH   4   6
TORSDOF 1
ENDMDL
MODEL 2
REMARK VINA RESULT:      -1.2      1.022      1.866
REMARK  1 active torsions:
REMARK  status: ('A' for Active; 'I' for Inactive)
REMARK    1  A    between atoms: C4_4  and  C5_5 
ROOT
HETATM    1  C1  UNL     1     -33.506   7.545   3.957  1.00 20.00     0.016 C 
HETATM    2  C2  UNL     1     -32.751   8.340   2.906  1.00 20.00     0.074 C 
HETATM    3  C3  UNL     1     -33.225   5.762   2.318  1.00 20.00     0.079 C 
HETATM    4  C4  UNL     1     -34.258   6.444   3.211  1.00 20.00     0.009 C 
HETATM    5  S6  UNL     1     -32.159   7.104   1.718  1.00 20.00    -0.169 SA
ENDROOT
BRANCH   4   6
HETATM    6  C5  UNL     1     -34.924   5.460   4.163  1.00 20.00     0.120 C 
HETATM    7 CL7  UNL     1     -34.002   3.946   4.225  1.00 20.00    -0.130 Cl
ENDBRANCH   4   6
TORSDOF 1
ENDMDL
MODEL 3
REMARK VINA RESULT:      -1.1      1.204      1.740
REMARK  1 active torsions:
REMARK  status: ('A' for Active; 'I' for Inactive)
REMARK    1  A    between atoms: C4_4  and  C5_5 
ROOT
HETATM    1  C1  UNL     1     -32.466   7.955   2.852  1.00 20.00     0.016 C 
HETATM    2  C2  UNL     1     -31.780   7.677   1.526  1.00 20.00     0.074 C 
HETATM    3  C3  UNL     1     -33.397   5.739   2.445  1.00 20.00     0.079 C 
HETATM    4  C4  UNL     1     -33.773   7.164   2.838  1.00 20.00     0.009 C 
HETATM    5  S6  UNL     1     -32.092   5.921   1.195  1.00 20.00    -0.169 SA
ENDROOT
BRANCH   4   6
HETATM    6  C5  UNL     1     -34.486   7.213   4.182  1.00 20.00     0.120 C 
HETATM    7 CL7  UNL     1     -35.476   5.759   4.406  1.00 20.00    -0.130 Cl
ENDBRANCH   4   6
TORSDOF 1
ENDMDL
MODEL 4
REMARK VINA RESULT:      -0.8      3.178      3.638
REMARK  1 active torsions:
REMARK  status: ('A' for Active; 'I' for Inactive)
REMARK    1  A    between atoms: C4_4  and  C5_5 
ROOT
HETATM    1  C1  UNL     1     -32.576   6.096   1.823  1.00 20.00     0.016 C 
HETATM    2  C2  UNL     1     -33.756   5.350   2.421  1.00 20.00     0.074 C 
HETATM    3  C3  UNL     1     -33.373   7.855   3.312  1.00 20.00     0.079 C 
HETATM    4  C4  UNL     1     -32.930   7.582   1.878  1.00 20.00     0.009 C 
HETATM    5  S6  UNL     1     -34.311   6.381   3.806  1.00 20.00    -0.169 SA
ENDROOT
BRANCH   4   6
HETATM    6  C5  UNL     1     -31.758   8.464   1.468  1.00 20.00     0.120 C 
HETATM    7 CL7  UNL     1     -32.280   9.656   0.262  1.00 20.00    -0.130 Cl
ENDBRANCH   4   6
TORSDOF 1
ENDMDL
MODEL 5
REMARK VINA RESULT:      -0.8      1.055      1.055
REMARK  1 active torsions:
REMARK  status: ('A' for Active; 'I' for Inactive)
REMARK    1  A    between atoms: C4_4  and  C5_5 
ROOT
HETATM    1  C1  UNL     1     -33.057   5.754   1.745  1.00 20.00     0.016 C 
HETATM    2  C2  UNL     1     -32.009   6.766   1.315  1.00 20.00     0.074 C 
HETATM    3  C3  UNL     1     -33.556   7.481   3.392  1.00 20.00     0.079 C 
HETATM    4  C4  UNL     1     -33.298   5.986   3.236  1.00 20.00     0.009 C 
HETATM    5  S6  UNL     1     -32.421   8.282   2.222  1.00 20.00    -0.169 SA
ENDROOT
BRANCH   4   6
HETATM    6  C5  UNL     1     -34.456   5.151   3.765  1.00 20.00     0.120 C 
HETATM    7 CL7  UNL     1     -33.863   3.597   4.381  1.00 20.00    -0.130 Cl
ENDBRANCH   4   6
TORSDOF 1
ENDMDL
MODEL 6
REMARK VINA RESULT:      -0.7      3.055      3.910
REMARK  1 active torsions:
REMARK  status: ('A' for Active; 'I' for Inactive)
REMARK    1  A    between atoms: C4_4  and  C5_5 
ROOT
HETATM    1  C1  UNL     1     -33.321   8.299   2.908  1.00 20.00     0.016 C 
HETATM    2  C2  UNL     1     -33.966   7.414   3.961  1.00 20.00     0.074 C 
HETATM    3  C3  UNL     1     -32.935   6.147   1.828  1.00 20.00     0.079 C 
HETATM    4  C4  UNL     1     -32.249   7.450   2.226  1.00 20.00     0.009 C 
HETATM    5  S6  UNL     1     -34.070   5.773   3.195  1.00 20.00    -0.169 SA
ENDROOT
BRANCH   4   6
HETATM    6  C5  UNL     1     -31.636   8.160   1.027  1.00 20.00     0.120 C 
HETATM    7 CL7  UNL     1     -32.556   9.628   0.645  1.00 20.00    -0.130 Cl
ENDBRANCH   4   6
TORSDOF 1
ENDMDL
MODEL 7
REMARK VINA RESULT:      -0.6      1.945      2.301
REMARK  1 active torsions:
REMARK  status: ('A' for Active; 'I' for Inactive)
REMARK    1  A    between atoms: C4_4  and  C5_5 
ROOT
HETATM    1  C1  UNL     1     -32.449   7.969   2.720  1.00 20.00     0.016 C 
HETATM    2  C2  UNL     1     -31.872   7.554   1.377  1.00 20.00     0.074 C 
HETATM    3  C3  UNL     1     -33.441   5.745   2.594  1.00 20.00     0.079 C 
HETATM    4  C4  UNL     1     -33.765   7.208   2.879  1.00 20.00     0.009 C 
HETATM    5  S6  UNL     1     -32.236   5.783   1.236  1.00 20.00    -0.169 SA
ENDROOT
BRANCH   4   6
HETATM    6  C5  UNL     1     -34.370   7.397   4.263  1.00 20.00     0.120 C 
HETATM    7 CL7  UNL     1     -33.235   8.262   5.317  1.00 20.00    -0.130 Cl
ENDBRANCH   4   6
TORSDOF 1
ENDMDL
MODEL 8
REMARK VINA RESULT:      -0.3      2.822      3.470
REMARK  1 active torsions:
REMARK  status: ('A' for Active; 'I' for Inactive)
REMARK    1  A    between atoms: C4_4  and  C5_5 
ROOT
HETATM    1  C1  UNL     1     -33.253   4.706   3.370  1.00 20.00     0.016 C 
HETATM    2  C2  UNL     1     -34.573   4.631   4.119  1.00 20.00     0.074 C 
HETATM    3  C3  UNL     1     -33.975   7.009   3.022  1.00 20.00     0.079 C 
HETATM    4  C4  UNL     1     -33.423   5.784   2.299  1.00 20.00     0.009 C 
HETATM    5  S6  UNL     1     -35.134   6.350   4.254  1.00 20.00    -0.169 SA
ENDROOT
BRANCH   4   6
HETATM    6  C5  UNL     1     -32.116   6.087   1.582  1.00 20.00     0.120 C 
HETATM    7 CL7  UNL     1     -31.779   7.829   1.630  1.00 20.00    -0.130 Cl
ENDBRANCH   4   6
TORSDOF 1
ENDMDL
MODEL 9
REMARK VINA RESULT:      -0.3      2.830      3.614
REMARK  1 active torsions:
REMARK  status: ('A' for Active; 'I' for Inactive)
REMARK    1  A    between atoms: C4_4  and  C5_5 
ROOT
HETATM    1  C1  UNL     1     -35.044   6.726   3.725  1.00 20.00     0.016 C 
HETATM    2  C2  UNL     1     -35.267   5.453   4.523  1.00 20.00     0.074 C 
HETATM    3  C3  UNL     1     -33.114   5.475   2.917  1.00 20.00     0.079 C 
HETATM    4  C4  UNL     1     -33.538   6.827   3.482  1.00 20.00     0.009 C 
HETATM    5  S6  UNL     1     -34.102   4.251   3.824  1.00 20.00    -0.169 SA
ENDROOT
BRANCH   4   6
HETATM    6  C5  UNL     1     -33.187   7.972   2.542  1.00 20.00     0.120 C 
HETATM    7 CL7  UNL     1     -31.719   7.584   1.625  1.00 20.00    -0.130 Cl
ENDBRANCH   4   6
TORSDOF 1
ENDMDL
