MODEL 1
REMARK VINA RESULT:      -1.1      0.000      0.000
REMARK  4 active torsions:
REMARK  status: ('A' for Active; 'I' for Inactive)
REMARK    1  A    between atoms: C1_1  and  C3_3 
REMARK    2  A    between atoms: C1_1  and  C7_7 
REMARK    3  A    between atoms: C7_7  and  C8_8 
REMARK    4  A    between atoms: C8_8  and  S10_10 
ROOT
HETATM    1  C1  UNL     1     -33.289   5.936   2.568  1.00 20.00     0.132 C 
HETATM    2  O9  UNL     1     -33.033   4.855   3.098  1.00 20.00    -0.298 OA
ENDROOT
BRANCH   1   3
HETATM    3  C3  UNL     1     -34.530   6.710   2.929  1.00 20.00     0.059 A 
HETATM    4  C2  UNL     1     -35.266   6.317   4.163  1.00 20.00     0.017 A 
HETATM    5  C4  UNL     1     -34.516   7.618   4.110  1.00 20.00    -0.007 A 
HETATM    6  C5  UNL     1     -33.318   7.823   4.974  1.00 20.00     0.011 C 
ENDBRANCH   1   3
BRANCH   1   7
HETATM    7  C7  UNL     1     -32.373   6.531   1.515  1.00 20.00     0.088 C 
BRANCH   7   8
HETATM    8  C8  UNL     1     -32.042   7.998   1.755  1.00 20.00     0.081 C 
BRANCH   8   9
HETATM    9  S10 UNL     1     -31.618   8.865   0.214  1.00 20.00    -0.173 SA
HETATM   10  C6  UNL     1     -32.681  10.310   0.429  1.00 20.00     0.089 C 
ENDBRANCH   8   9
ENDBRANCH   7   8
ENDBRANCH   1   7
TORSDOF 4
ENDMDL
MODEL 2
REMARK VINA RESULT:      -1.1      1.170      1.686
REMARK  4 active torsions:
REMARK  status: ('A' for Active; 'I' for Inactive)
REMARK    1  A    between atoms: C1_1  and  C3_3 
REMARK    2  A    between atoms: C1_1  and  C7_7 
REMARK    3  A    between atoms: C7_7  and  C8_8 
REMARK    4  A    between atoms: C8_8  and  S10_10 
ROOT
HETATM    1  C1  UNL     1     -33.198   6.984   2.551  1.00 20.00     0.132 C 
HETATM    2  O9  UNL     1     -33.134   6.010   1.801  1.00 20.00    -0.298 OA
ENDROOT
BRANCH   1   3
HETATM    3  C3  UNL     1     -34.157   7.014   3.712  1.00 20.00     0.059 A 
HETATM    4  C2  UNL     1     -35.546   6.525   3.487  1.00 20.00     0.017 A 
HETATM    5  C4  UNL     1     -34.594   5.736   4.341  1.00 20.00    -0.007 A 
HETATM    6  C5  UNL     1     -34.123   4.396   3.890  1.00 20.00     0.011 C 
ENDBRANCH   1   3
BRANCH   1   7
HETATM    7  C7  UNL     1     -32.325   8.205   2.331  1.00 20.00     0.088 C 
BRANCH   7   8
HETATM    8  C8  UNL     1     -31.612   8.208   0.985  1.00 20.00     0.081 C 
BRANCH   8   9
HETATM    9  S10 UNL     1     -32.409   9.324  -0.208  1.00 20.00    -0.173 SA
HETATM   10  C6  UNL     1     -32.743  10.704   0.909  1.00 20.00     0.089 C 
ENDBRANCH   8   9
ENDBRANCH   7   8
ENDBRANCH   1   7
TORSDOF 4
ENDMDL
MODEL 3
REMARK VINA RESULT:      -1.0      1.486      1.948
REMARK  4 active torsions:
REMARK  status: ('A' for Active; 'I' for Inactive)
REMARK    1  A    between atoms: C1_1  and  C3_3 
REMARK    2  A    between atoms: C1_1  and  C7_7 
REMARK    3  A    between atoms: C7_7  and  C8_8 
REMARK    4  A    between atoms: C8_8  and  S10_10 
ROOT
HETATM    1  C1  UNL     1     -33.445   7.545   3.747  1.00 20.00     0.132 C 
HETATM    2  O9  UNL     1     -32.632   8.040   4.529  1.00 20.00    -0.298 OA
ENDROOT
BRANCH   1   3
HETATM    3  C3  UNL     1     -34.803   7.091   4.216  1.00 20.00     0.059 A 
HETATM    4  C2  UNL     1     -35.718   6.473   3.216  1.00 20.00     0.017 A 
HETATM    5  C4  UNL     1     -35.104   5.635   4.301  1.00 20.00    -0.007 A 
HETATM    6  C5  UNL     1     -34.119   4.570   3.952  1.00 20.00     0.011 C 
ENDBRANCH   1   3
BRANCH   1   7
HETATM    7  C7  UNL     1     -33.109   7.357   2.280  1.00 20.00     0.088 C 
BRANCH   7   8
HETATM    8  C8  UNL     1     -31.833   8.068   1.851  1.00 20.00     0.081 C 
BRANCH   8   9
HETATM    9  S10 UNL     1     -31.958   8.743   0.168  1.00 20.00    -0.173 SA
HETATM   10  C6  UNL     1     -32.640  10.362   0.587  1.00 20.00     0.089 C 
ENDBRANCH   8   9
ENDBRANCH   7   8
ENDBRANCH   1   7
TORSDOF 4
ENDMDL
MODEL 4
REMARK VINA RESULT:      -1.0      0.925      1.083
REMARK  4 active torsions:
REMARK  status: ('A' for Active; 'I' for Inactive)
REMARK    1  A    between atoms: C1_1  and  C3_3 
REMARK    2  A    between atoms: C1_1  and  C7_7 
REMARK    3  A    between atoms: C7_7  and  C8_8 
REMARK    4  A    between atoms: C8_8  and  S10_10 
ROOT
HETATM    1  C1  UNL     1     -32.908   6.824   2.110  1.00 20.00     0.132 C 
HETATM    2  O9  UNL     1     -32.452   5.770   1.667  1.00 20.00    -0.298 OA
ENDROOT
BRANCH   1   3
HETATM    3  C3  UNL     1     -34.269   6.877   2.754  1.00 20.00     0.059 A 
HETATM    4  C2  UNL     1     -34.538   5.965   3.900  1.00 20.00     0.017 A 
HETATM    5  C4  UNL     1     -34.416   7.445   4.123  1.00 20.00    -0.007 A 
HETATM    6  C5  UNL     1     -33.274   7.988   4.914  1.00 20.00     0.011 C 
ENDBRANCH   1   3
BRANCH   1   7
HETATM    7  C7  UNL     1     -32.127   8.121   2.014  1.00 20.00     0.088 C 
BRANCH   7   8
HETATM    8  C8  UNL     1     -31.507   8.358   0.644  1.00 20.00     0.081 C 
BRANCH   8   9
HETATM    9  S10 UNL     1     -32.505   9.489  -0.372  1.00 20.00    -0.173 SA
HETATM   10  C6  UNL     1     -32.764  10.785   0.860  1.00 20.00     0.089 C 
ENDBRANCH   8   9
ENDBRANCH   7   8
ENDBRANCH   1   7
TORSDOF 4
ENDMDL
MODEL 5
REMARK VINA RESULT:      -0.5      2.691      4.635
REMARK  4 active torsions:
REMARK  status: ('A' for Active; 'I' for Inactive)
REMARK    1  A    between atoms: C1_1  and  C3_3 
REMARK    2  A    between atoms: C1_1  and  C7_7 
REMARK    3  A    between atoms: C7_7  and  C8_8 
REMARK    4  A    between atoms: C8_8  and  S10_10 
ROOT
HETATM    1  C1  UNL     1     -33.760   7.316   3.637  1.00 20.00     0.132 C 
HETATM    2  O9  UNL     1     -33.163   7.585   4.680  1.00 20.00    -0.298 OA
ENDROOT
BRANCH   1   3
HETATM    3  C3  UNL     1     -33.312   7.880   2.314  1.00 20.00     0.059 A 
HETATM    4  C2  UNL     1     -31.863   8.174   2.131  1.00 20.00     0.017 A 
HETATM    5  C4  UNL     1     -32.504   7.037   1.388  1.00 20.00    -0.007 A 
HETATM    6  C5  UNL     1     -32.109   5.631   1.691  1.00 20.00     0.011 C 
ENDBRANCH   1   3
BRANCH   1   7
HETATM    7  C7  UNL     1     -34.982   6.418   3.639  1.00 20.00     0.088 C 
BRANCH   7   8
HETATM    8  C8  UNL     1     -34.820   5.172   4.499  1.00 20.00     0.081 C 
BRANCH   8   9
HETATM    9  S10 UNL     1     -33.852   3.882   3.659  1.00 20.00    -0.173 SA
HETATM   10  C6  UNL     1     -33.128   3.107   5.122  1.00 20.00     0.089 C 
ENDBRANCH   8   9
ENDBRANCH   7   8
ENDBRANCH   1   7
TORSDOF 4
ENDMDL
MODEL 6
REMARK VINA RESULT:      -0.5      2.381      4.560
REMARK  4 active torsions:
REMARK  status: ('A' for Active; 'I' for Inactive)
REMARK    1  A    between atoms: C1_1  and  C3_3 
REMARK    2  A    between atoms: C1_1  and  C7_7 
REMARK    3  A    between atoms: C7_7  and  C8_8 
REMARK    4  A    between atoms: C8_8  and  S10_10 
ROOT
HETATM    1  C1  UNL     1     -31.989   8.013   1.655  1.00 20.00     0.132 C 
HETATM    2  O9  UNL     1     -31.605   8.352   2.775  1.00 20.00    -0.298 OA
ENDROOT
BRANCH   1   3
HETATM    3  C3  UNL     1     -31.566   8.769   0.423  1.00 20.00     0.059 A 
HETATM    4  C2  UNL     1     -32.573   8.970  -0.656  1.00 20.00     0.017 A 
HETATM    5  C4  UNL     1     -32.107  10.134   0.172  1.00 20.00    -0.007 A 
HETATM    6  C5  UNL     1     -33.057  10.822   1.093  1.00 20.00     0.011 C 
ENDBRANCH   1   3
BRANCH   1   7
HETATM    7  C7  UNL     1     -32.917   6.828   1.468  1.00 20.00     0.088 C 
BRANCH   7   8
HETATM    8  C8  UNL     1     -33.221   6.083   2.761  1.00 20.00     0.081 C 
BRANCH   8   9
HETATM    9  S10 UNL     1     -34.551   6.879   3.712  1.00 20.00    -0.173 SA
HETATM   10  C6  UNL     1     -35.308   5.388   4.396  1.00 20.00     0.089 C 
ENDBRANCH   8   9
ENDBRANCH   7   8
ENDBRANCH   1   7
TORSDOF 4
ENDMDL
MODEL 7
REMARK VINA RESULT:      -0.4      2.770      4.603
REMARK  4 active torsions:
REMARK  status: ('A' for Active; 'I' for Inactive)
REMARK    1  A    between atoms: C1_1  and  C3_3 
REMARK    2  A    between atoms: C1_1  and  C7_7 
REMARK    3  A    between atoms: C7_7  and  C8_8 
REMARK    4  A    between atoms: C8_8  and  S10_10 
ROOT
HETATM    1  C1  UNL     1     -33.624   7.187   3.614  1.00 20.00     0.132 C 
HETATM    2  O9  UNL     1     -33.546   8.159   4.365  1.00 20.00    -0.298 OA
ENDROOT
BRANCH   1   3
HETATM    3  C3  UNL     1     -32.474   6.794   2.723  1.00 20.00     0.059 A 
HETATM    4  C2  UNL     1     -32.774   6.432   1.310  1.00 20.00     0.017 A 
HETATM    5  C4  UNL     1     -32.045   7.707   1.627  1.00 20.00    -0.007 A 
HETATM    6  C5  UNL     1     -32.691   9.023   1.354  1.00 20.00     0.011 C 
ENDBRANCH   1   3
BRANCH   1   7
HETATM    7  C7  UNL     1     -34.887   6.349   3.540  1.00 20.00     0.088 C 
BRANCH   7   8
HETATM    8  C8  UNL     1     -34.835   5.092   4.397  1.00 20.00     0.081 C 
BRANCH   8   9
HETATM    9  S10 UNL     1     -33.804   3.795   3.648  1.00 20.00    -0.173 SA
HETATM   10  C6  UNL     1     -33.109   3.107   5.167  1.00 20.00     0.089 C 
ENDBRANCH   8   9
ENDBRANCH   7   8
ENDBRANCH   1   7
TORSDOF 4
ENDMDL
MODEL 8
REMARK VINA RESULT:      -0.0      2.354      4.614
REMARK  4 active torsions:
REMARK  status: ('A' for Active; 'I' for Inactive)
REMARK    1  A    between atoms: C1_1  and  C3_3 
REMARK    2  A    between atoms: C1_1  and  C7_7 
REMARK    3  A    between atoms: C7_7  and  C8_8 
REMARK    4  A    between atoms: C8_8  and  S10_10 
ROOT
HETATM    1  C1  UNL     1     -32.780   7.470   1.948  1.00 20.00     0.132 C 
HETATM    2  O9  UNL     1     -32.829   6.327   1.493  1.00 20.00    -0.298 OA
ENDROOT
BRANCH   1   3
HETATM    3  C3  UNL     1     -31.632   8.390   1.625  1.00 20.00     0.059 A 
HETATM    4  C2  UNL     1     -31.018   8.296   0.271  1.00 20.00     0.017 A 
HETATM    5  C4  UNL     1     -31.829   9.502   0.653  1.00 20.00    -0.007 A 
HETATM    6  C5  UNL     1     -33.126   9.775  -0.030  1.00 20.00     0.011 C 
ENDBRANCH   1   3
BRANCH   1   7
HETATM    7  C7  UNL     1     -33.865   7.998   2.867  1.00 20.00     0.088 C 
BRANCH   7   8
HETATM    8  C8  UNL     1     -33.989   7.222   4.171  1.00 20.00     0.081 C 
BRANCH   8   9
HETATM    9  S10 UNL     1     -35.297   5.962   4.096  1.00 20.00    -0.173 SA
HETATM   10  C6  UNL     1     -34.246   4.493   4.131  1.00 20.00     0.089 C 
ENDBRANCH   8   9
ENDBRANCH   7   8
ENDBRANCH   1   7
TORSDOF 4
ENDMDL
MODEL 9
REMARK VINA RESULT:       0.3      2.089      2.754
REMARK  4 active torsions:
REMARK  status: ('A' for Active; 'I' for Inactive)
REMARK    1  A    between atoms: C1_1  and  C3_3 
REMARK    2  A    between atoms: C1_1  and  C7_7 
REMARK    3  A    between atoms: C7_7  and  C8_8 
REMARK    4  A    between atoms: C8_8  and  S10_10 
ROOT
HETATM    1  C1  UNL     1     -33.584   7.564   3.821  1.00 20.00     0.132 C 
HETATM    2  O9  UNL     1     -32.700   7.876   4.619  1.00 20.00    -0.298 OA
ENDROOT
BRANCH   1   3
HETATM    3  C3  UNL     1     -34.913   7.037   4.293  1.00 20.00     0.059 A 
HETATM    4  C2  UNL     1     -35.798   6.371   3.297  1.00 20.00     0.017 A 
HETATM    5  C4  UNL     1     -35.135   5.566   4.378  1.00 20.00    -0.007 A 
HETATM    6  C5  UNL     1     -34.095   4.557   4.026  1.00 20.00     0.011 C 
ENDBRANCH   1   3
BRANCH   1   7
HETATM    7  C7  UNL     1     -33.368   7.683   2.324  1.00 20.00     0.088 C 
BRANCH   7   8
HETATM    8  C8  UNL     1     -31.951   7.340   1.884  1.00 20.00     0.081 C 
BRANCH   8   9
HETATM    9  S10 UNL     1     -31.790   5.595   1.398  1.00 20.00    -0.173 SA
HETATM   10  C6  UNL     1     -33.375   5.415   0.549  1.00 20.00     0.089 C 
ENDBRANCH   8   9
ENDBRANCH   7   8
ENDBRANCH   1   7
TORSDOF 4
ENDMDL
