MODEL 1
REMARK VINA RESULT:      -0.9      0.000      0.000
REMARK  2 active torsions:
REMARK  status: ('A' for Active; 'I' for Inactive)
REMARK    1  A    between atoms: C3_3  and  C7_7 
REMARK    2  A    between atoms: C3_3  and  C10_10 
ROOT
HETATM    1  C1  UNL     1     -33.890   3.728   4.330  1.00 20.00     0.012 C 
HETATM    2  C2  UNL     1     -34.420   4.790   4.150  1.00 20.00    -0.110 C 
HETATM    3  C10 UNL     1     -35.075   6.083   3.929  1.00 20.00     0.171 C 
ENDROOT
BRANCH   3   4
HETATM    4  C3  UNL     1     -34.085   7.223   3.805  1.00 20.00     0.144 C 
HETATM    5  O11 UNL     1     -33.647   7.841   4.774  1.00 20.00    -0.297 OA
BRANCH   4   6
HETATM    6  C7  UNL     1     -33.653   7.571   2.414  1.00 20.00     0.087 C 
HETATM    7  C6  UNL     1     -32.723   6.495   1.844  1.00 20.00     0.046 C 
HETATM    8  C8  UNL     1     -31.450   7.295   1.563  1.00 20.00     0.122 C 
HETATM    9  C4  UNL     1     -31.653   8.247   0.385  1.00 20.00     0.034 C 
HETATM   10  O12 UNL     1     -31.449   8.218   2.675  1.00 20.00    -0.380 OA
HETATM   11  C5  UNL     1     -32.552   9.326   0.995  1.00 20.00     0.035 C 
HETATM   12  C9  UNL     1     -32.749   8.808   2.419  1.00 20.00     0.133 C 
ENDBRANCH   4   6
ENDBRANCH   3   4
TORSDOF 2
ENDMDL
MODEL 2
REMARK VINA RESULT:      -0.6      1.466      2.183
REMARK  2 active torsions:
REMARK  status: ('A' for Active; 'I' for Inactive)
REMARK    1  A    between atoms: C3_3  and  C7_7 
REMARK    2  A    between atoms: C3_3  and  C10_10 
ROOT
HETATM    1  C1  UNL     1     -32.981   3.007   4.519  1.00 20.00     0.012 C 
HETATM    2  C2  UNL     1     -33.923   3.751   4.529  1.00 20.00    -0.110 C 
HETATM    3  C10 UNL     1     -35.080   4.653   4.545  1.00 20.00     0.171 C 
ENDROOT
BRANCH   3   4
HETATM    4  C3  UNL     1     -34.818   5.947   3.802  1.00 20.00     0.144 C 
HETATM    5  O11 UNL     1     -35.695   6.776   3.565  1.00 20.00    -0.297 OA
BRANCH   4   6
HETATM    6  C7  UNL     1     -33.406   6.177   3.358  1.00 20.00     0.087 C 
HETATM    7  C6  UNL     1     -33.076   7.673   3.335  1.00 20.00     0.046 C 
HETATM    8  C8  UNL     1     -32.710   7.892   1.866  1.00 20.00     0.122 C 
HETATM    9  C4  UNL     1     -31.374   7.229   1.531  1.00 20.00     0.034 C 
HETATM   10  O12 UNL     1     -33.639   7.000   1.210  1.00 20.00    -0.380 OA
HETATM   11  C5  UNL     1     -31.745   5.744   1.526  1.00 20.00     0.035 C 
HETATM   12  C9  UNL     1     -33.229   5.785   1.888  1.00 20.00     0.133 C 
ENDBRANCH   4   6
ENDBRANCH   3   4
TORSDOF 2
ENDMDL
MODEL 3
REMARK VINA RESULT:       0.2      1.201      4.628
REMARK  2 active torsions:
REMARK  status: ('A' for Active; 'I' for Inactive)
REMARK    1  A    between atoms: C3_3  and  C7_7 
REMARK    2  A    between atoms: C3_3  and  C10_10 
ROOT
HETATM    1  C1  UNL     1     -32.463   9.845  -0.191  1.00 20.00     0.012 C 
HETATM    2  C2  UNL     1     -32.208   9.137   0.745  1.00 20.00    -0.110 C 
HETATM    3  C10 UNL     1     -31.892   8.279   1.892  1.00 20.00     0.171 C 
ENDROOT
BRANCH   3   4
HETATM    4  C3  UNL     1     -32.259   6.829   1.651  1.00 20.00     0.144 C 
HETATM    5  O11 UNL     1     -31.538   6.047   1.034  1.00 20.00    -0.297 OA
BRANCH   4   6
HETATM    6  C7  UNL     1     -33.572   6.380   2.215  1.00 20.00     0.087 C 
HETATM    7  C6  UNL     1     -34.380   7.572   2.738  1.00 20.00     0.046 C 
HETATM    8  C8  UNL     1     -34.551   7.213   4.215  1.00 20.00     0.122 C 
HETATM    9  C4  UNL     1     -35.510   6.034   4.382  1.00 20.00     0.034 C 
HETATM   10  O12 UNL     1     -33.281   6.584   4.499  1.00 20.00    -0.380 OA
HETATM   11  C5  UNL     1     -34.664   4.859   3.887  1.00 20.00     0.035 C 
HETATM   12  C9  UNL     1     -33.362   5.550   3.485  1.00 20.00     0.133 C 
ENDBRANCH   4   6
ENDBRANCH   3   4
TORSDOF 2
ENDMDL
MODEL 4
REMARK VINA RESULT:       0.8      0.971      1.233
REMARK  2 active torsions:
REMARK  status: ('A' for Active; 'I' for Inactive)
REMARK    1  A    between atoms: C3_3  and  C7_7 
REMARK    2  A    between atoms: C3_3  and  C10_10 
ROOT
HETATM    1  C1  UNL     1     -33.047   3.153   5.236  1.00 20.00     0.012 C 
HETATM    2  C2  UNL     1     -33.570   3.741   4.329  1.00 20.00    -0.110 C 
HETATM    3  C10 UNL     1     -34.207   4.452   3.215  1.00 20.00     0.171 C 
ENDROOT
BRANCH   3   4
HETATM    4  C3  UNL     1     -34.411   5.925   3.507  1.00 20.00     0.144 C 
HETATM    5  O11 UNL     1     -34.912   6.340   4.550  1.00 20.00    -0.297 OA
BRANCH   4   6
HETATM    6  C7  UNL     1     -33.963   6.875   2.439  1.00 20.00     0.087 C 
HETATM    7  C6  UNL     1     -32.899   6.231   1.544  1.00 20.00     0.046 C 
HETATM    8  C8  UNL     1     -31.711   7.173   1.739  1.00 20.00     0.122 C 
HETATM    9  C4  UNL     1     -31.968   8.523   1.070  1.00 20.00     0.034 C 
HETATM   10  O12 UNL     1     -31.855   7.520   3.136  1.00 20.00    -0.380 OA
HETATM   11  C5  UNL     1     -33.002   9.153   2.005  1.00 20.00     0.035 C 
HETATM   12  C9  UNL     1     -33.200   8.055   3.048  1.00 20.00     0.133 C 
ENDBRANCH   4   6
ENDBRANCH   3   4
TORSDOF 2
ENDMDL
MODEL 5
REMARK VINA RESULT:       1.0      1.554      4.540
REMARK  2 active torsions:
REMARK  status: ('A' for Active; 'I' for Inactive)
REMARK    1  A    between atoms: C3_3  and  C7_7 
REMARK    2  A    between atoms: C3_3  and  C10_10 
ROOT
HETATM    1  C1  UNL     1     -32.681   9.893  -0.045  1.00 20.00     0.012 C 
HETATM    2  C2  UNL     1     -32.175   9.032   0.621  1.00 20.00    -0.110 C 
HETATM    3  C10 UNL     1     -31.550   7.983   1.434  1.00 20.00     0.171 C 
ENDROOT
BRANCH   3   4
HETATM    4  C3  UNL     1     -32.466   6.798   1.659  1.00 20.00     0.144 C 
HETATM    5  O11 UNL     1     -32.796   6.023   0.762  1.00 20.00    -0.297 OA
BRANCH   4   6
HETATM    6  C7  UNL     1     -32.965   6.607   3.059  1.00 20.00     0.087 C 
HETATM    7  C6  UNL     1     -33.815   5.337   3.169  1.00 20.00     0.046 C 
HETATM    8  C8  UNL     1     -35.158   5.898   3.638  1.00 20.00     0.122 C 
HETATM    9  C4  UNL     1     -35.070   6.392   5.082  1.00 20.00     0.034 C 
HETATM   10  O12 UNL     1     -35.207   7.149   2.915  1.00 20.00    -0.380 OA
HETATM   11  C5  UNL     1     -34.250   7.675   4.932  1.00 20.00     0.035 C 
HETATM   12  C9  UNL     1     -33.970   7.701   3.430  1.00 20.00     0.133 C 
ENDBRANCH   4   6
ENDBRANCH   3   4
TORSDOF 2
ENDMDL
MODEL 6
REMARK VINA RESULT:       1.1      1.707      2.789
REMARK  2 active torsions:
REMARK  status: ('A' for Active; 'I' for Inactive)
REMARK    1  A    between atoms: C3_3  and  C7_7 
REMARK    2  A    between atoms: C3_3  and  C10_10 
ROOT
HETATM    1  C1  UNL     1     -35.369   5.983   4.085  1.00 20.00     0.012 C 
HETATM    2  C2  UNL     1     -34.507   6.778   3.828  1.00 20.00    -0.110 C 
HETATM    3  C10 UNL     1     -33.457   7.755   3.520  1.00 20.00     0.171 C 
ENDROOT
BRANCH   3   4
HETATM    4  C3  UNL     1     -32.733   7.442   2.226  1.00 20.00     0.144 C 
HETATM    5  O11 UNL     1     -32.736   6.327   1.707  1.00 20.00    -0.297 OA
BRANCH   4   6
HETATM    6  C7  UNL     1     -31.995   8.581   1.592  1.00 20.00     0.087 C 
HETATM    7  C6  UNL     1     -32.830   9.865   1.636  1.00 20.00     0.046 C 
HETATM    8  C8  UNL     1     -32.971  10.200   0.151  1.00 20.00     0.122 C 
HETATM    9  C4  UNL     1     -31.637  10.664  -0.433  1.00 20.00     0.034 C 
HETATM   10  O12 UNL     1     -33.085   8.879  -0.424  1.00 20.00    -0.380 OA
HETATM   11  C5  UNL     1     -30.843   9.357  -0.498  1.00 20.00     0.035 C 
HETATM   12  C9  UNL     1     -31.835   8.353   0.086  1.00 20.00     0.133 C 
ENDBRANCH   4   6
ENDBRANCH   3   4
TORSDOF 2
ENDMDL
MODEL 7
REMARK VINA RESULT:       1.3      1.386      4.476
REMARK  2 active torsions:
REMARK  status: ('A' for Active; 'I' for Inactive)
REMARK    1  A    between atoms: C3_3  and  C7_7 
REMARK    2  A    between atoms: C3_3  and  C10_10 
ROOT
HETATM    1  C1  UNL     1     -32.698  10.363  -0.239  1.00 20.00     0.012 C 
HETATM    2  C2  UNL     1     -32.325   9.387   0.353  1.00 20.00    -0.110 C 
HETATM    3  C10 UNL     1     -31.868   8.191   1.069  1.00 20.00     0.171 C 
ENDROOT
BRANCH   3   4
HETATM    4  C3  UNL     1     -32.094   8.287   2.564  1.00 20.00     0.144 C 
HETATM    5  O11 UNL     1     -31.205   8.586   3.361  1.00 20.00    -0.297 OA
BRANCH   4   6
HETATM    6  C7  UNL     1     -33.483   7.994   3.040  1.00 20.00     0.087 C 
HETATM    7  C6  UNL     1     -33.489   7.650   4.534  1.00 20.00     0.046 C 
HETATM    8  C8  UNL     1     -34.070   6.235   4.528  1.00 20.00     0.122 C 
HETATM    9  C4  UNL     1     -35.554   6.255   4.163  1.00 20.00     0.034 C 
HETATM   10  O12 UNL     1     -33.489   5.699   3.318  1.00 20.00    -0.380 OA
HETATM   11  C5  UNL     1     -35.512   6.563   2.665  1.00 20.00     0.035 C 
HETATM   12  C9  UNL     1     -34.011   6.702   2.410  1.00 20.00     0.133 C 
ENDBRANCH   4   6
ENDBRANCH   3   4
TORSDOF 2
ENDMDL
MODEL 8
REMARK VINA RESULT:       1.3      1.434      2.049
REMARK  2 active torsions:
REMARK  status: ('A' for Active; 'I' for Inactive)
REMARK    1  A    between atoms: C3_3  and  C7_7 
REMARK    2  A    between atoms: C3_3  and  C10_10 
ROOT
HETATM    1  C1  UNL     1     -33.269   8.406   5.583  1.00 20.00     0.012 C 
HETATM    2  C2  UNL     1     -33.901   7.741   4.808  1.00 20.00    -0.110 C 
HETATM    3  C10 UNL     1     -34.681   6.931   3.865  1.00 20.00     0.171 C 
ENDROOT
BRANCH   3   4
HETATM    4  C3  UNL     1     -33.804   6.128   2.926  1.00 20.00     0.144 C 
HETATM    5  O11 UNL     1     -33.513   4.949   3.121  1.00 20.00    -0.297 OA
BRANCH   4   6
HETATM    6  C7  UNL     1     -33.297   6.853   1.718  1.00 20.00     0.087 C 
HETATM    7  C6  UNL     1     -31.951   6.280   1.260  1.00 20.00     0.046 C 
HETATM    8  C8  UNL     1     -31.036   7.500   1.368  1.00 20.00     0.122 C 
HETATM    9  C4  UNL     1     -31.368   8.529   0.288  1.00 20.00     0.034 C 
HETATM   10  O12 UNL     1     -31.569   8.146   2.546  1.00 20.00    -0.380 OA
HETATM   11  C5  UNL     1     -32.693   9.107   0.792  1.00 20.00     0.035 C 
HETATM   12  C9  UNL     1     -32.929   8.298   2.067  1.00 20.00     0.133 C 
ENDBRANCH   4   6
ENDBRANCH   3   4
TORSDOF 2
ENDMDL
MODEL 9
REMARK VINA RESULT:       1.5      1.338      4.430
REMARK  2 active torsions:
REMARK  status: ('A' for Active; 'I' for Inactive)
REMARK    1  A    between atoms: C3_3  and  C7_7 
REMARK    2  A    between atoms: C3_3  and  C10_10 
ROOT
HETATM    1  C1  UNL     1     -32.679  10.396  -0.080  1.00 20.00     0.012 C 
HETATM    2  C2  UNL     1     -32.348   9.342   0.391  1.00 20.00    -0.110 C 
HETATM    3  C10 UNL     1     -31.944   8.051   0.957  1.00 20.00     0.171 C 
ENDROOT
BRANCH   3   4
HETATM    4  C3  UNL     1     -31.850   8.083   2.469  1.00 20.00     0.144 C 
HETATM    5  O11 UNL     1     -31.107   8.850   3.080  1.00 20.00    -0.297 OA
BRANCH   4   6
HETATM    6  C7  UNL     1     -32.725   7.115   3.204  1.00 20.00     0.087 C 
HETATM    7  C6  UNL     1     -33.614   6.333   2.231  1.00 20.00     0.046 C 
HETATM    8  C8  UNL     1     -35.015   6.707   2.714  1.00 20.00     0.122 C 
HETATM    9  C4  UNL     1     -35.317   6.062   4.066  1.00 20.00     0.034 C 
HETATM   10  O12 UNL     1     -34.819   8.087   3.098  1.00 20.00    -0.380 OA
HETATM   11  C5  UNL     1     -34.446   6.886   5.017  1.00 20.00     0.035 C 
HETATM   12  C9  UNL     1     -33.758   7.856   4.058  1.00 20.00     0.133 C 
ENDBRANCH   4   6
ENDBRANCH   3   4
TORSDOF 2
ENDMDL
