MODEL 1
REMARK VINA RESULT:      -0.3      0.000      0.000
REMARK  0 active torsions:
REMARK  status: ('A' for Active; 'I' for Inactive)
ROOT
HETATM    1  C1  UNL     1     -34.389   7.085   3.555  1.00 20.00     0.066 C 
HETATM    2  C2  UNL     1     -32.825   5.112   3.349  1.00 20.00     0.071 C 
HETATM    3  C3  UNL     1     -35.467   6.091   3.977  1.00 20.00     0.171 C 
HETATM    4  C4  UNL     1     -33.262   6.603   1.244  1.00 20.00     0.207 A 
HETATM    5  C5  UNL     1     -34.002   4.228   3.782  1.00 20.00     0.120 C 
HETATM    6  C6  UNL     1     -33.362   6.368   2.731  1.00 20.00     0.086 A 
HETATM    7  C7  UNL     1     -33.516   3.006   4.548  1.00 20.00     0.039 C 
HETATM    8  O8  UNL     1     -34.878   4.970   4.647  1.00 20.00    -0.386 OA
HETATM    9  O9  UNL     1     -32.358   7.223   2.170  1.00 20.00    -0.375 OA
ENDROOT
TORSDOF 0
ENDMDL
MODEL 2
REMARK VINA RESULT:      -0.2      1.221      3.335
REMARK  0 active torsions:
REMARK  status: ('A' for Active; 'I' for Inactive)
ROOT
HETATM    1  C1  UNL     1     -35.021   6.123   4.095  1.00 20.00     0.066 C 
HETATM    2  C2  UNL     1     -33.198   5.673   2.404  1.00 20.00     0.071 C 
HETATM    3  C3  UNL     1     -34.383   7.493   4.305  1.00 20.00     0.171 C 
HETATM    4  C4  UNL     1     -33.433   4.078   4.465  1.00 20.00     0.207 A 
HETATM    5  C5  UNL     1     -32.662   7.075   2.719  1.00 20.00     0.120 C 
HETATM    6  C6  UNL     1     -33.978   5.175   3.585  1.00 20.00     0.086 A 
HETATM    7  C7  UNL     1     -31.987   7.689   1.501  1.00 20.00     0.039 C 
HETATM    8  O8  UNL     1     -33.745   7.939   3.103  1.00 20.00    -0.386 OA
HETATM    9  O9  UNL     1     -34.426   3.819   3.463  1.00 20.00    -0.375 OA
ENDROOT
TORSDOF 0
ENDMDL
MODEL 3
REMARK VINA RESULT:      -0.2      1.822      2.789
REMARK  0 active torsions:
REMARK  status: ('A' for Active; 'I' for Inactive)
ROOT
HETATM    1  C1  UNL     1     -32.249   6.345   1.138  1.00 20.00     0.066 C 
HETATM    2  C2  UNL     1     -33.772   7.604   2.712  1.00 20.00     0.071 C 
HETATM    3  C3  UNL     1     -32.467   5.123   2.026  1.00 20.00     0.171 C 
HETATM    4  C4  UNL     1     -31.327   8.467   2.360  1.00 20.00     0.207 A 
HETATM    5  C5  UNL     1     -33.899   6.302   3.513  1.00 20.00     0.120 C 
HETATM    6  C6  UNL     1     -32.480   7.583   1.951  1.00 20.00     0.086 A 
HETATM    7  C7  UNL     1     -35.259   6.205   4.189  1.00 20.00     0.039 C 
HETATM    8  O8  UNL     1     -33.762   5.172   2.635  1.00 20.00    -0.386 OA
HETATM    9  O9  UNL     1     -32.185   8.804   1.261  1.00 20.00    -0.375 OA
ENDROOT
TORSDOF 0
ENDMDL
MODEL 4
REMARK VINA RESULT:      -0.1      1.434      3.826
REMARK  0 active torsions:
REMARK  status: ('A' for Active; 'I' for Inactive)
ROOT
HETATM    1  C1  UNL     1     -33.489   5.224   3.065  1.00 20.00     0.066 C 
HETATM    2  C2  UNL     1     -33.212   7.735   3.131  1.00 20.00     0.071 C 
HETATM    3  C3  UNL     1     -32.907   5.274   1.655  1.00 20.00     0.171 C 
HETATM    4  C4  UNL     1     -35.601   6.718   3.457  1.00 20.00     0.207 A 
HETATM    5  C5  UNL     1     -32.647   7.636   1.709  1.00 20.00     0.120 C 
HETATM    6  C6  UNL     1     -34.102   6.555   3.383  1.00 20.00     0.086 A 
HETATM    7  C7  UNL     1     -31.621   8.730   1.450  1.00 20.00     0.039 C 
HETATM    8  O8  UNL     1     -31.993   6.369   1.529  1.00 20.00    -0.386 OA
HETATM    9  O9  UNL     1     -34.794   6.598   4.638  1.00 20.00    -0.375 OA
ENDROOT
TORSDOF 0
ENDMDL
MODEL 5
REMARK VINA RESULT:       0.2      1.554      3.684
REMARK  0 active torsions:
REMARK  status: ('A' for Active; 'I' for Inactive)
ROOT
HETATM    1  C1  UNL     1     -34.136   7.815   4.653  1.00 20.00     0.066 C 
HETATM    2  C2  UNL     1     -33.802   6.916   2.316  1.00 20.00     0.071 C 
HETATM    3  C3  UNL     1     -32.664   8.216   4.628  1.00 20.00     0.171 C 
HETATM    4  C4  UNL     1     -34.617   5.285   4.192  1.00 20.00     0.207 A 
HETATM    5  C5  UNL     1     -32.340   7.368   2.430  1.00 20.00     0.120 C 
HETATM    6  C6  UNL     1     -34.348   6.684   3.693  1.00 20.00     0.086 A 
HETATM    7  C7  UNL     1     -31.780   7.760   1.071  1.00 20.00     0.039 C 
HETATM    8  O8  UNL     1     -32.250   8.516   3.290  1.00 20.00    -0.386 OA
HETATM    9  O9  UNL     1     -35.671   6.134   3.715  1.00 20.00    -0.375 OA
ENDROOT
TORSDOF 0
ENDMDL
MODEL 6
REMARK VINA RESULT:       0.2      1.768      2.504
REMARK  0 active torsions:
REMARK  status: ('A' for Active; 'I' for Inactive)
ROOT
HETATM    1  C1  UNL     1     -32.044   7.239   2.127  1.00 20.00     0.066 C 
HETATM    2  C2  UNL     1     -33.554   5.363   2.893  1.00 20.00     0.071 C 
HETATM    3  C3  UNL     1     -33.100   8.204   2.658  1.00 20.00     0.171 C 
HETATM    4  C4  UNL     1     -32.896   5.504   0.364  1.00 20.00     0.207 A 
HETATM    5  C5  UNL     1     -34.528   6.444   3.377  1.00 20.00     0.120 C 
HETATM    6  C6  UNL     1     -32.702   5.933   1.798  1.00 20.00     0.086 A 
HETATM    7  C7  UNL     1     -35.317   5.967   4.588  1.00 20.00     0.039 C 
HETATM    8  O8  UNL     1     -33.800   7.622   3.763  1.00 20.00    -0.386 OA
HETATM    9  O9  UNL     1     -31.834   4.979   1.173  1.00 20.00    -0.375 OA
ENDROOT
TORSDOF 0
ENDMDL
MODEL 7
REMARK VINA RESULT:       0.4      1.909      2.683
REMARK  0 active torsions:
REMARK  status: ('A' for Active; 'I' for Inactive)
ROOT
HETATM    1  C1  UNL     1     -31.779   8.335   3.613  1.00 20.00     0.066 C 
HETATM    2  C2  UNL     1     -33.410   6.723   2.553  1.00 20.00     0.071 C 
HETATM    3  C3  UNL     1     -32.873   8.657   4.627  1.00 20.00     0.171 C 
HETATM    4  C4  UNL     1     -32.440   8.674   1.105  1.00 20.00     0.207 A 
HETATM    5  C5  UNL     1     -34.415   7.145   3.632  1.00 20.00     0.120 C 
HETATM    6  C6  UNL     1     -32.417   7.829   2.355  1.00 20.00     0.086 A 
HETATM    7  C7  UNL     1     -35.359   6.003   3.979  1.00 20.00     0.039 C 
HETATM    8  O8  UNL     1     -33.717   7.519   4.832  1.00 20.00    -0.386 OA
HETATM    9  O9  UNL     1     -31.498   7.606   1.278  1.00 20.00    -0.375 OA
ENDROOT
TORSDOF 0
ENDMDL
MODEL 8
REMARK VINA RESULT:       0.8      1.627      3.344
REMARK  0 active torsions:
REMARK  status: ('A' for Active; 'I' for Inactive)
ROOT
HETATM    1  C1  UNL     1     -33.841   7.925   3.271  1.00 20.00     0.066 C 
HETATM    2  C2  UNL     1     -33.859   5.689   2.095  1.00 20.00     0.071 C 
HETATM    3  C3  UNL     1     -32.341   7.972   2.996  1.00 20.00     0.171 C 
HETATM    4  C4  UNL     1     -34.675   5.818   4.578  1.00 20.00     0.207 A 
HETATM    5  C5  UNL     1     -32.349   5.867   1.892  1.00 20.00     0.120 C 
HETATM    6  C6  UNL     1     -34.287   6.494   3.285  1.00 20.00     0.086 A 
HETATM    7  C7  UNL     1     -31.885   5.190   0.611  1.00 20.00     0.039 C 
HETATM    8  O8  UNL     1     -32.030   7.265   1.790  1.00 20.00    -0.386 OA
HETATM    9  O9  UNL     1     -35.659   6.310   3.656  1.00 20.00    -0.375 OA
ENDROOT
TORSDOF 0
ENDMDL
MODEL 9
REMARK VINA RESULT:       0.8      2.194      2.699
REMARK  0 active torsions:
REMARK  status: ('A' for Active; 'I' for Inactive)
ROOT
HETATM    1  C1  UNL     1     -33.031   7.929   3.247  1.00 20.00     0.066 C 
HETATM    2  C2  UNL     1     -31.749   6.882   1.338  1.00 20.00     0.071 C 
HETATM    3  C3  UNL     1     -34.008   6.763   3.131  1.00 20.00     0.171 C 
HETATM    4  C4  UNL     1     -32.672   9.314   1.056  1.00 20.00     0.207 A 
HETATM    5  C5  UNL     1     -32.810   5.773   1.332  1.00 20.00     0.120 C 
HETATM    6  C6  UNL     1     -32.349   8.124   1.927  1.00 20.00     0.086 A 
HETATM    7  C7  UNL     1     -32.214   4.448   0.881  1.00 20.00     0.039 C 
HETATM    8  O8  UNL     1     -33.335   5.591   2.657  1.00 20.00    -0.386 OA
HETATM    9  O9  UNL     1     -31.492   9.272   1.871  1.00 20.00    -0.375 OA
ENDROOT
TORSDOF 0
ENDMDL
