MODEL 1
REMARK VINA RESULT:      -1.6      0.000      0.000
REMARK  1 active torsions:
REMARK  status: ('A' for Active; 'I' for Inactive)
REMARK    1  A    between atoms: C4_4  and  C5_5 
ROOT
HETATM    1  C1  UNL     1     -34.771   6.441   3.936  1.00 20.00     0.011 C 
HETATM    2  C2  UNL     1     -33.789   7.575   3.685  1.00 20.00     0.017 C 
HETATM    3  C3  UNL     1     -34.063   5.161   3.525  1.00 20.00     0.074 C 
HETATM    4  C4  UNL     1     -33.292   7.405   2.253  1.00 20.00     0.061 C 
HETATM    5  S6  UNL     1     -33.117   5.602   2.041  1.00 20.00    -0.163 SA
ENDROOT
BRANCH   4   6
HETATM    6  C5  UNL     1     -31.980   8.126   1.996  1.00 20.00     0.129 C 
HETATM    7 CL7  UNL     1     -32.171   9.310   0.687  1.00 20.00    -0.129 Cl
ENDBRANCH   4   6
TORSDOF 1
ENDMDL
MODEL 2
REMARK VINA RESULT:      -1.2      2.946      3.903
REMARK  1 active torsions:
REMARK  status: ('A' for Active; 'I' for Inactive)
REMARK    1  A    between atoms: C4_4  and  C5_5 
ROOT
HETATM    1  C1  UNL     1     -32.567   6.844   1.631  1.00 20.00     0.011 C 
HETATM    2  C2  UNL     1     -33.179   5.634   2.320  1.00 20.00     0.017 C 
HETATM    3  C3  UNL     1     -32.308   7.873   2.719  1.00 20.00     0.074 C 
HETATM    4  C4  UNL     1     -34.336   6.159   3.164  1.00 20.00     0.061 C 
HETATM    5  S6  UNL     1     -33.729   7.741   3.838  1.00 20.00    -0.163 SA
ENDROOT
BRANCH   4   6
HETATM    6  C5  UNL     1     -34.740   5.200   4.270  1.00 20.00     0.129 C 
HETATM    7 CL7  UNL     1     -33.798   3.700   4.162  1.00 20.00    -0.129 Cl
ENDBRANCH   4   6
TORSDOF 1
ENDMDL
MODEL 3
REMARK VINA RESULT:      -0.8      2.636      3.549
REMARK  1 active torsions:
REMARK  status: ('A' for Active; 'I' for Inactive)
REMARK    1  A    between atoms: C4_4  and  C5_5 
ROOT
HETATM    1  C1  UNL     1     -31.874   8.072   2.306  1.00 20.00     0.011 C 
HETATM    2  C2  UNL     1     -33.181   8.134   3.082  1.00 20.00     0.017 C 
HETATM    3  C3  UNL     1     -32.075   7.043   1.207  1.00 20.00     0.074 C 
HETATM    4  C4  UNL     1     -33.537   6.695   3.440  1.00 20.00     0.061 C 
HETATM    5  S6  UNL     1     -33.062   5.727   1.970  1.00 20.00    -0.163 SA
ENDROOT
BRANCH   4   6
HETATM    6  C5  UNL     1     -35.009   6.518   3.773  1.00 20.00     0.129 C 
HETATM    7 CL7  UNL     1     -35.282   4.947   4.552  1.00 20.00    -0.129 Cl
ENDBRANCH   4   6
TORSDOF 1
ENDMDL
MODEL 4
REMARK VINA RESULT:      -0.6      2.797      3.615
REMARK  1 active torsions:
REMARK  status: ('A' for Active; 'I' for Inactive)
REMARK    1  A    between atoms: C4_4  and  C5_5 
ROOT
HETATM    1  C1  UNL     1     -32.355   5.914   1.123  1.00 20.00     0.011 C 
HETATM    2  C2  UNL     1     -33.271   5.674   2.314  1.00 20.00     0.017 C 
HETATM    3  C3  UNL     1     -31.437   7.060   1.512  1.00 20.00     0.074 C 
HETATM    4  C4  UNL     1     -33.860   7.032   2.684  1.00 20.00     0.061 C 
HETATM    5  S6  UNL     1     -32.485   8.206   2.448  1.00 20.00    -0.163 SA
ENDROOT
BRANCH   4   6
HETATM    6  C5  UNL     1     -34.393   7.075   4.105  1.00 20.00     0.129 C 
HETATM    7 CL7  UNL     1     -35.453   5.684   4.410  1.00 20.00    -0.129 Cl
ENDBRANCH   4   6
TORSDOF 1
ENDMDL
MODEL 5
REMARK VINA RESULT:      -0.6      1.477      1.965
REMARK  1 active torsions:
REMARK  status: ('A' for Active; 'I' for Inactive)
REMARK    1  A    between atoms: C4_4  and  C5_5 
ROOT
HETATM    1  C1  UNL     1     -33.577   5.873   2.837  1.00 20.00     0.011 C 
HETATM    2  C2  UNL     1     -32.995   6.347   1.515  1.00 20.00     0.017 C 
HETATM    3  C3  UNL     1     -34.025   7.119   3.581  1.00 20.00     0.074 C 
HETATM    4  C4  UNL     1     -31.983   7.437   1.857  1.00 20.00     0.061 C 
HETATM    5  S6  UNL     1     -32.753   8.362   3.226  1.00 20.00    -0.163 SA
ENDROOT
BRANCH   4   6
HETATM    6  C5  UNL     1     -31.673   8.343   0.677  1.00 20.00     0.129 C 
HETATM    7 CL7  UNL     1     -32.642   9.827   0.767  1.00 20.00    -0.129 Cl
ENDBRANCH   4   6
TORSDOF 1
ENDMDL
MODEL 6
REMARK VINA RESULT:      -0.5      1.658      2.080
REMARK  1 active torsions:
REMARK  status: ('A' for Active; 'I' for Inactive)
REMARK    1  A    between atoms: C4_4  and  C5_5 
ROOT
HETATM    1  C1  UNL     1     -34.642   4.720   4.349  1.00 20.00     0.011 C 
HETATM    2  C2  UNL     1     -33.814   4.694   3.074  1.00 20.00     0.017 C 
HETATM    3  C3  UNL     1     -35.441   6.012   4.317  1.00 20.00     0.074 C 
HETATM    4  C4  UNL     1     -33.092   6.036   3.003  1.00 20.00     0.061 C 
HETATM    5  S6  UNL     1     -34.313   7.245   3.613  1.00 20.00    -0.163 SA
ENDROOT
BRANCH   4   6
HETATM    6  C5  UNL     1     -32.622   6.378   1.599  1.00 20.00     0.129 C 
HETATM    7 CL7  UNL     1     -31.924   8.010   1.561  1.00 20.00    -0.129 Cl
ENDBRANCH   4   6
TORSDOF 1
ENDMDL
MODEL 7
REMARK VINA RESULT:       0.5      2.364      2.817
REMARK  1 active torsions:
REMARK  status: ('A' for Active; 'I' for Inactive)
REMARK    1  A    between atoms: C4_4  and  C5_5 
ROOT
HETATM    1  C1  UNL     1     -33.945   7.249   4.065  1.00 20.00     0.011 C 
HETATM    2  C2  UNL     1     -34.189   6.192   3.000  1.00 20.00     0.017 C 
HETATM    3  C3  UNL     1     -33.321   8.438   3.355  1.00 20.00     0.074 C 
HETATM    4  C4  UNL     1     -32.871   6.026   2.248  1.00 20.00     0.061 C 
HETATM    5  S6  UNL     1     -32.200   7.717   2.125  1.00 20.00    -0.163 SA
ENDROOT
BRANCH   4   6
HETATM    6  C5  UNL     1     -33.051   5.396   0.878  1.00 20.00     0.129 C 
HETATM    7 CL7  UNL     1     -31.569   4.551   0.388  1.00 20.00    -0.129 Cl
ENDBRANCH   4   6
TORSDOF 1
ENDMDL
MODEL 8
REMARK VINA RESULT:       0.6      2.259      3.095
REMARK  1 active torsions:
REMARK  status: ('A' for Active; 'I' for Inactive)
REMARK    1  A    between atoms: C4_4  and  C5_5 
ROOT
HETATM    1  C1  UNL     1     -31.774   6.974   1.317  1.00 20.00     0.011 C 
HETATM    2  C2  UNL     1     -32.613   7.898   2.187  1.00 20.00     0.017 C 
HETATM    3  C3  UNL     1     -32.615   5.733   1.072  1.00 20.00     0.074 C 
HETATM    4  C4  UNL     1     -33.094   7.058   3.366  1.00 20.00     0.061 C 
HETATM    5  S6  UNL     1     -33.468   5.427   2.643  1.00 20.00    -0.163 SA
ENDROOT
BRANCH   4   6
HETATM    6  C5  UNL     1     -34.308   7.654   4.057  1.00 20.00     0.129 C 
HETATM    7 CL7  UNL     1     -33.823   8.494   5.543  1.00 20.00    -0.129 Cl
ENDBRANCH   4   6
TORSDOF 1
ENDMDL
MODEL 9
REMARK VINA RESULT:       0.8      1.002      1.002
REMARK  1 active torsions:
REMARK  status: ('A' for Active; 'I' for Inactive)
REMARK    1  A    between atoms: C4_4  and  C5_5 
ROOT
HETATM    1  C1  UNL     1     -34.708   6.761   4.386  1.00 20.00     0.011 C 
HETATM    2  C2  UNL     1     -33.612   7.488   3.621  1.00 20.00     0.017 C 
HETATM    3  C3  UNL     1     -34.254   5.318   4.520  1.00 20.00     0.074 C 
HETATM    4  C4  UNL     1     -33.335   6.656   2.373  1.00 20.00     0.061 C 
HETATM    5  S6  UNL     1     -33.455   4.927   2.940  1.00 20.00    -0.163 SA
ENDROOT
BRANCH   4   6
HETATM    6  C5  UNL     1     -31.976   6.949   1.761  1.00 20.00     0.129 C 
HETATM    7 CL7  UNL     1     -31.592   8.676   1.906  1.00 20.00    -0.129 Cl
ENDBRANCH   4   6
TORSDOF 1
ENDMDL
