MODEL 1
REMARK VINA RESULT:      -0.4      0.000      0.000
REMARK  1 active torsions:
REMARK  status: ('A' for Active; 'I' for Inactive)
REMARK    1  A    between atoms: C4_4  and  C5_5 
ROOT
HETATM    1  C1  UNL     1     -35.530   6.583   3.840  1.00 20.00     0.011 C 
HETATM    2  C2  UNL     1     -34.157   7.232   3.954  1.00 20.00     0.016 C 
HETATM    3  C3  UNL     1     -35.379   5.161   4.349  1.00 20.00     0.074 C 
HETATM    4  C4  UNL     1     -33.144   6.276   3.325  1.00 20.00     0.057 C 
HETATM    5  S6  UNL     1     -33.752   4.613   3.763  1.00 20.00    -0.164 SA
ENDROOT
BRANCH   4   6
HETATM    6  C5  UNL     1     -33.056   6.415   1.810  1.00 20.00     0.100 C 
HETATM    7 BR7  UNL     1     -31.963   7.955   1.358  1.00 20.00    -0.095 Br
ENDBRANCH   4   6
TORSDOF 1
ENDMDL
MODEL 2
REMARK VINA RESULT:      -0.2      1.946      2.338
REMARK  1 active torsions:
REMARK  status: ('A' for Active; 'I' for Inactive)
REMARK    1  A    between atoms: C4_4  and  C5_5 
ROOT
HETATM    1  C1  UNL     1     -33.866   7.594   3.342  1.00 20.00     0.011 C 
HETATM    2  C2  UNL     1     -32.531   8.241   2.997  1.00 20.00     0.016 C 
HETATM    3  C3  UNL     1     -33.674   6.096   3.187  1.00 20.00     0.074 C 
HETATM    4  C4  UNL     1     -32.060   7.642   1.672  1.00 20.00     0.057 C 
HETATM    5  S6  UNL     1     -32.594   5.900   1.743  1.00 20.00    -0.164 SA
ENDROOT
BRANCH   4   6
HETATM    6  C5  UNL     1     -32.676   8.326   0.458  1.00 20.00     0.100 C 
HETATM    7 BR7  UNL     1     -32.394  10.244   0.575  1.00 20.00    -0.095 Br
ENDBRANCH   4   6
TORSDOF 1
ENDMDL
MODEL 3
REMARK VINA RESULT:      -0.2      2.516      3.233
REMARK  1 active torsions:
REMARK  status: ('A' for Active; 'I' for Inactive)
REMARK    1  A    between atoms: C4_4  and  C5_5 
ROOT
HETATM    1  C1  UNL     1     -34.156   7.538   4.123  1.00 20.00     0.011 C 
HETATM    2  C2  UNL     1     -35.264   6.531   3.846  1.00 20.00     0.016 C 
HETATM    3  C3  UNL     1     -33.158   7.406   2.987  1.00 20.00     0.074 C 
HETATM    4  C4  UNL     1     -34.599   5.191   3.536  1.00 20.00     0.057 C 
HETATM    5  S6  UNL     1     -33.088   5.632   2.616  1.00 20.00    -0.164 SA
ENDROOT
BRANCH   4   6
HETATM    6  C5  UNL     1     -34.234   4.405   4.790  1.00 20.00     0.100 C 
HETATM    7 BR7  UNL     1     -33.186   2.845   4.300  1.00 20.00    -0.095 Br
ENDBRANCH   4   6
TORSDOF 1
ENDMDL
MODEL 4
REMARK VINA RESULT:       0.3      1.450      1.947
REMARK  1 active torsions:
REMARK  status: ('A' for Active; 'I' for Inactive)
REMARK    1  A    between atoms: C4_4  and  C5_5 
ROOT
HETATM    1  C1  UNL     1     -33.430   4.461   3.736  1.00 20.00     0.011 C 
HETATM    2  C2  UNL     1     -33.491   5.242   2.431  1.00 20.00     0.016 C 
HETATM    3  C3  UNL     1     -34.772   4.654   4.419  1.00 20.00     0.074 C 
HETATM    4  C4  UNL     1     -34.011   6.641   2.758  1.00 20.00     0.057 C 
HETATM    5  S6  UNL     1     -35.234   6.376   4.083  1.00 20.00    -0.164 SA
ENDROOT
BRANCH   4   6
HETATM    6  C5  UNL     1     -32.916   7.585   3.242  1.00 20.00     0.100 C 
HETATM    7 BR7  UNL     1     -31.821   8.142   1.738  1.00 20.00    -0.095 Br
ENDBRANCH   4   6
TORSDOF 1
ENDMDL
MODEL 5
REMARK VINA RESULT:       0.5      1.773      2.373
REMARK  1 active torsions:
REMARK  status: ('A' for Active; 'I' for Inactive)
REMARK    1  A    between atoms: C4_4  and  C5_5 
ROOT
HETATM    1  C1  UNL     1     -32.793   4.930   2.737  1.00 20.00     0.011 C 
HETATM    2  C2  UNL     1     -33.106   5.677   1.448  1.00 20.00     0.016 C 
HETATM    3  C3  UNL     1     -33.857   5.335   3.742  1.00 20.00     0.074 C 
HETATM    4  C4  UNL     1     -33.326   7.145   1.811  1.00 20.00     0.057 C 
HETATM    5  S6  UNL     1     -34.161   7.096   3.431  1.00 20.00    -0.164 SA
ENDROOT
BRANCH   4   6
HETATM    6  C5  UNL     1     -32.025   7.931   1.920  1.00 20.00     0.100 C 
HETATM    7 BR7  UNL     1     -32.029   9.386   0.633  1.00 20.00    -0.095 Br
ENDBRANCH   4   6
TORSDOF 1
ENDMDL
MODEL 6
REMARK VINA RESULT:       0.6      2.483      3.284
REMARK  1 active torsions:
REMARK  status: ('A' for Active; 'I' for Inactive)
REMARK    1  A    between atoms: C4_4  and  C5_5 
ROOT
HETATM    1  C1  UNL     1     -32.830   7.857   3.297  1.00 20.00     0.011 C 
HETATM    2  C2  UNL     1     -34.283   7.416   3.402  1.00 20.00     0.016 C 
HETATM    3  C3  UNL     1     -32.280   7.235   2.025  1.00 20.00     0.074 C 
HETATM    4  C4  UNL     1     -34.321   5.904   3.188  1.00 20.00     0.057 C 
HETATM    5  S6  UNL     1     -33.034   5.588   1.936  1.00 20.00    -0.164 SA
ENDROOT
BRANCH   4   6
HETATM    6  C5  UNL     1     -34.016   5.116   4.456  1.00 20.00     0.100 C 
HETATM    7 BR7  UNL     1     -33.455   3.316   3.989  1.00 20.00    -0.095 Br
ENDBRANCH   4   6
TORSDOF 1
ENDMDL
MODEL 7
REMARK VINA RESULT:       0.6      2.704      3.229
REMARK  1 active torsions:
REMARK  status: ('A' for Active; 'I' for Inactive)
REMARK    1  A    between atoms: C4_4  and  C5_5 
ROOT
HETATM    1  C1  UNL     1     -33.440   7.640   4.125  1.00 20.00     0.011 C 
HETATM    2  C2  UNL     1     -34.387   6.660   3.448  1.00 20.00     0.016 C 
HETATM    3  C3  UNL     1     -32.688   8.352   3.015  1.00 20.00     0.074 C 
HETATM    4  C4  UNL     1     -33.575   5.873   2.420  1.00 20.00     0.057 C 
HETATM    5  S6  UNL     1     -32.385   7.083   1.754  1.00 20.00    -0.164 SA
ENDROOT
BRANCH   4   6
HETATM    6  C5  UNL     1     -32.829   4.692   3.029  1.00 20.00     0.100 C 
HETATM    7 BR7  UNL     1     -33.934   3.851   4.388  1.00 20.00    -0.095 Br
ENDBRANCH   4   6
TORSDOF 1
ENDMDL
MODEL 8
REMARK VINA RESULT:       0.9      2.710      3.797
REMARK  1 active torsions:
REMARK  status: ('A' for Active; 'I' for Inactive)
REMARK    1  A    between atoms: C4_4  and  C5_5 
ROOT
HETATM    1  C1  UNL     1     -32.776   6.542   1.049  1.00 20.00     0.011 C 
HETATM    2  C2  UNL     1     -32.767   5.811   2.384  1.00 20.00     0.016 C 
HETATM    3  C3  UNL     1     -31.921   7.784   1.230  1.00 20.00     0.074 C 
HETATM    4  C4  UNL     1     -33.089   6.836   3.471  1.00 20.00     0.057 C 
HETATM    5  S6  UNL     1     -32.277   8.369   2.910  1.00 20.00    -0.164 SA
ENDROOT
BRANCH   4   6
HETATM    6  C5  UNL     1     -34.586   7.072   3.640  1.00 20.00     0.100 C 
HETATM    7 BR7  UNL     1     -35.424   5.471   4.351  1.00 20.00    -0.095 Br
ENDBRANCH   4   6
TORSDOF 1
ENDMDL
MODEL 9
REMARK VINA RESULT:       1.0      2.305      2.953
REMARK  1 active torsions:
REMARK  status: ('A' for Active; 'I' for Inactive)
REMARK    1  A    between atoms: C4_4  and  C5_5 
ROOT
HETATM    1  C1  UNL     1     -32.921   7.888   4.626  1.00 20.00     0.011 C 
HETATM    2  C2  UNL     1     -34.173   7.501   3.850  1.00 20.00     0.016 C 
HETATM    3  C3  UNL     1     -32.068   8.718   3.684  1.00 20.00     0.074 C 
HETATM    4  C4  UNL     1     -33.722   6.944   2.500  1.00 20.00     0.057 C 
HETATM    5  S6  UNL     1     -32.267   7.947   2.054  1.00 20.00    -0.164 SA
ENDROOT
BRANCH   4   6
HETATM    6  C5  UNL     1     -33.338   5.470   2.564  1.00 20.00     0.100 C 
HETATM    7 BR7  UNL     1     -32.115   5.051   1.115  1.00 20.00    -0.095 Br
ENDBRANCH   4   6
TORSDOF 1
ENDMDL
