MODEL 1
REMARK VINA RESULT:      -1.1      0.000      0.000
REMARK  1 active torsions:
REMARK  status: ('A' for Active; 'I' for Inactive)
REMARK    1  A    between atoms: C4_4  and  C6_6 
ROOT
HETATM    1  C1  UNL     1     -31.755   7.758   1.669  1.00 20.00     0.135 A 
HETATM    2  C2  UNL     1     -31.971   6.485   1.189  1.00 20.00     0.136 A 
HETATM    3  C3  UNL     1     -33.335   7.416   3.286  1.00 20.00     0.144 A 
HETATM    4  C4  UNL     1     -33.551   6.143   2.805  1.00 20.00     0.069 A 
HETATM    5  N7  UNL     1     -32.433   8.246   2.727  1.00 20.00    -0.270 NA
HETATM    6  N8  UNL     1     -32.873   5.654   1.748  1.00 20.00    -0.261 NA
ENDROOT
BRANCH   4   7
HETATM    7  C6  UNL     1     -34.557   5.254   3.449  1.00 20.00     0.131 C 
HETATM    8  C5  UNL     1     -35.464   5.953   4.471  1.00 20.00     0.033 C 
HETATM    9 CL9  UNL     1     -33.741   3.864   4.243  1.00 20.00    -0.119 Cl
ENDBRANCH   4   7
TORSDOF 1
ENDMDL
MODEL 2
REMARK VINA RESULT:      -1.0      0.900      1.589
REMARK  1 active torsions:
REMARK  status: ('A' for Active; 'I' for Inactive)
REMARK    1  A    between atoms: C4_4  and  C6_6 
ROOT
HETATM    1  C1  UNL     1     -31.725   7.719   1.658  1.00 20.00     0.135 A 
HETATM    2  C2  UNL     1     -32.474   8.173   2.721  1.00 20.00     0.136 A 
HETATM    3  C3  UNL     1     -32.804   5.706   1.758  1.00 20.00     0.144 A 
HETATM    4  C4  UNL     1     -33.553   6.160   2.821  1.00 20.00     0.069 A 
HETATM    5  N7  UNL     1     -31.877   6.477   1.157  1.00 20.00    -0.270 NA
HETATM    6  N8  UNL     1     -33.401   7.402   3.322  1.00 20.00    -0.261 NA
ENDROOT
BRANCH   4   7
HETATM    7  C6  UNL     1     -34.569   5.280   3.461  1.00 20.00     0.131 C 
HETATM    8  C5  UNL     1     -35.464   5.983   4.490  1.00 20.00     0.033 C 
HETATM    9 CL9  UNL     1     -33.771   3.873   4.242  1.00 20.00    -0.119 Cl
ENDBRANCH   4   7
TORSDOF 1
ENDMDL
MODEL 3
REMARK VINA RESULT:      -0.6      2.257      3.978
REMARK  1 active torsions:
REMARK  status: ('A' for Active; 'I' for Inactive)
REMARK    1  A    between atoms: C4_4  and  C6_6 
ROOT
HETATM    1  C1  UNL     1     -35.248   5.138   4.704  1.00 20.00     0.135 A 
HETATM    2  C2  UNL     1     -35.289   6.421   4.206  1.00 20.00     0.136 A 
HETATM    3  C3  UNL     1     -33.609   4.606   3.202  1.00 20.00     0.144 A 
HETATM    4  C4  UNL     1     -33.651   5.889   2.702  1.00 20.00     0.069 A 
HETATM    5  N7  UNL     1     -34.407   4.207   4.211  1.00 20.00    -0.270 NA
HETATM    6  N8  UNL     1     -34.492   6.820   3.195  1.00 20.00    -0.261 NA
ENDROOT
BRANCH   4   7
HETATM    7  C6  UNL     1     -32.754   6.294   1.585  1.00 20.00     0.131 C 
HETATM    8  C5  UNL     1     -31.688   5.253   1.214  1.00 20.00     0.033 C 
HETATM    9 CL9  UNL     1     -31.944   7.850   1.970  1.00 20.00    -0.119 Cl
ENDBRANCH   4   7
TORSDOF 1
ENDMDL
MODEL 4
REMARK VINA RESULT:      -0.6      1.303      2.218
REMARK  1 active torsions:
REMARK  status: ('A' for Active; 'I' for Inactive)
REMARK    1  A    between atoms: C4_4  and  C6_6 
ROOT
HETATM    1  C1  UNL     1     -31.652   6.402   0.968  1.00 20.00     0.135 A 
HETATM    2  C2  UNL     1     -31.663   7.667   1.512  1.00 20.00     0.136 A 
HETATM    3  C3  UNL     1     -33.409   5.810   2.307  1.00 20.00     0.144 A 
HETATM    4  C4  UNL     1     -33.418   7.075   2.852  1.00 20.00     0.069 A 
HETATM    5  N7  UNL     1     -32.526   5.451   1.355  1.00 20.00    -0.270 NA
HETATM    6  N8  UNL     1     -32.545   8.027   2.465  1.00 20.00    -0.261 NA
ENDROOT
BRANCH   4   7
HETATM    7  C6  UNL     1     -34.409   7.437   3.903  1.00 20.00     0.131 C 
HETATM    8  C5  UNL     1     -33.796   8.029   5.180  1.00 20.00     0.033 C 
HETATM    9 CL9  UNL     1     -35.404   6.007   4.339  1.00 20.00    -0.119 Cl
ENDBRANCH   4   7
TORSDOF 1
ENDMDL
MODEL 5
REMARK VINA RESULT:      -0.6      1.564      1.815
REMARK  1 active torsions:
REMARK  status: ('A' for Active; 'I' for Inactive)
REMARK    1  A    between atoms: C4_4  and  C6_6 
ROOT
HETATM    1  C1  UNL     1     -31.617   6.457   0.967  1.00 20.00     0.135 A 
HETATM    2  C2  UNL     1     -32.555   5.540   1.389  1.00 20.00     0.136 A 
HETATM    3  C3  UNL     1     -32.468   7.999   2.425  1.00 20.00     0.144 A 
HETATM    4  C4  UNL     1     -33.407   7.083   2.846  1.00 20.00     0.069 A 
HETATM    5  N7  UNL     1     -31.557   7.703   1.479  1.00 20.00    -0.270 NA
HETATM    6  N8  UNL     1     -33.468   5.837   2.336  1.00 20.00    -0.261 NA
ENDROOT
BRANCH   4   7
HETATM    7  C6  UNL     1     -34.399   7.446   3.895  1.00 20.00     0.131 C 
HETATM    8  C5  UNL     1     -33.788   8.031   5.175  1.00 20.00     0.033 C 
HETATM    9 CL9  UNL     1     -35.403   6.019   4.324  1.00 20.00    -0.119 Cl
ENDBRANCH   4   7
TORSDOF 1
ENDMDL
MODEL 6
REMARK VINA RESULT:      -0.5      2.362      3.738
REMARK  1 active torsions:
REMARK  status: ('A' for Active; 'I' for Inactive)
REMARK    1  A    between atoms: C4_4  and  C6_6 
ROOT
HETATM    1  C1  UNL     1     -35.177   4.993   4.723  1.00 20.00     0.135 A 
HETATM    2  C2  UNL     1     -34.200   4.211   4.146  1.00 20.00     0.136 A 
HETATM    3  C3  UNL     1     -34.630   6.713   3.319  1.00 20.00     0.144 A 
HETATM    4  C4  UNL     1     -33.653   5.931   2.743  1.00 20.00     0.069 A 
HETATM    5  N7  UNL     1     -35.409   6.258   4.319  1.00 20.00    -0.270 NA
HETATM    6  N8  UNL     1     -33.420   4.666   3.146  1.00 20.00    -0.261 NA
ENDROOT
BRANCH   4   7
HETATM    7  C6  UNL     1     -32.809   6.468   1.639  1.00 20.00     0.131 C 
HETATM    8  C5  UNL     1     -31.760   5.484   1.104  1.00 20.00     0.033 C 
HETATM    9 CL9  UNL     1     -31.987   7.977   2.161  1.00 20.00    -0.119 Cl
ENDBRANCH   4   7
TORSDOF 1
ENDMDL
MODEL 7
REMARK VINA RESULT:      -0.5      2.021      3.805
REMARK  1 active torsions:
REMARK  status: ('A' for Active; 'I' for Inactive)
REMARK    1  A    between atoms: C4_4  and  C6_6 
ROOT
HETATM    1  C1  UNL     1     -35.374   5.335   4.565  1.00 20.00     0.135 A 
HETATM    2  C2  UNL     1     -35.186   6.620   4.103  1.00 20.00     0.136 A 
HETATM    3  C3  UNL     1     -33.532   4.646   3.399  1.00 20.00     0.144 A 
HETATM    4  C4  UNL     1     -33.345   5.930   2.936  1.00 20.00     0.069 A 
HETATM    5  N7  UNL     1     -34.550   4.326   4.221  1.00 20.00    -0.270 NA
HETATM    6  N8  UNL     1     -34.169   6.940   3.280  1.00 20.00    -0.261 NA
ENDROOT
BRANCH   4   7
HETATM    7  C6  UNL     1     -32.208   6.248   2.028  1.00 20.00     0.131 C 
HETATM    8  C5  UNL     1     -32.130   7.718   1.596  1.00 20.00     0.033 C 
HETATM    9 CL9  UNL     1     -32.273   5.209   0.564  1.00 20.00    -0.119 Cl
ENDBRANCH   4   7
TORSDOF 1
ENDMDL
MODEL 8
REMARK VINA RESULT:      -0.3      2.046      3.538
REMARK  1 active torsions:
REMARK  status: ('A' for Active; 'I' for Inactive)
REMARK    1  A    between atoms: C4_4  and  C6_6 
ROOT
HETATM    1  C1  UNL     1     -35.355   5.356   4.505  1.00 20.00     0.135 A 
HETATM    2  C2  UNL     1     -34.423   4.410   4.139  1.00 20.00     0.136 A 
HETATM    3  C3  UNL     1     -34.230   6.934   3.290  1.00 20.00     0.144 A 
HETATM    4  C4  UNL     1     -33.298   5.987   2.926  1.00 20.00     0.069 A 
HETATM    5  N7  UNL     1     -35.275   6.635   4.086  1.00 20.00    -0.270 NA
HETATM    6  N8  UNL     1     -33.377   4.708   3.343  1.00 20.00    -0.261 NA
ENDROOT
BRANCH   4   7
HETATM    7  C6  UNL     1     -32.155   6.354   2.044  1.00 20.00     0.131 C 
HETATM    8  C5  UNL     1     -32.170   7.808   1.553  1.00 20.00     0.033 C 
HETATM    9 CL9  UNL     1     -32.088   5.256   0.623  1.00 20.00    -0.119 Cl
ENDBRANCH   4   7
TORSDOF 1
ENDMDL
MODEL 9
REMARK VINA RESULT:       0.1      2.710      3.923
REMARK  1 active torsions:
REMARK  status: ('A' for Active; 'I' for Inactive)
REMARK    1  A    between atoms: C4_4  and  C6_6 
ROOT
HETATM    1  C1  UNL     1     -33.770   5.989   3.203  1.00 20.00     0.135 A 
HETATM    2  C2  UNL     1     -33.074   5.724   2.045  1.00 20.00     0.136 A 
HETATM    3  C3  UNL     1     -33.213   8.200   3.035  1.00 20.00     0.144 A 
HETATM    4  C4  UNL     1     -32.515   7.935   1.877  1.00 20.00     0.069 A 
HETATM    5  N7  UNL     1     -33.853   7.231   3.719  1.00 20.00    -0.270 NA
HETATM    6  N8  UNL     1     -32.433   6.693   1.360  1.00 20.00    -0.261 NA
ENDROOT
BRANCH   4   7
HETATM    7  C6  UNL     1     -31.820   9.031   1.147  1.00 20.00     0.131 C 
HETATM    8  C5  UNL     1     -32.745  10.145   0.639  1.00 20.00     0.033 C 
HETATM    9 CL9  UNL     1     -30.889   8.365  -0.237  1.00 20.00    -0.119 Cl
ENDBRANCH   4   7
TORSDOF 1
ENDMDL
