MODEL 1
REMARK VINA RESULT:      -0.6      0.000      0.000
REMARK  4 active torsions:
REMARK  status: ('A' for Active; 'I' for Inactive)
REMARK    1  A    between atoms: C5_5  and  C7_7 
REMARK    2  A    between atoms: C5_5  and  O9_9 
REMARK    3  A    between atoms: C6_6  and  C7_7 
REMARK    4  A    between atoms: C8_8  and  O9_9 
ROOT
HETATM    1  C5  UNL     1     -33.775   6.586   2.652  1.00 20.00     0.174 C 
ENDROOT
BRANCH   1   2
HETATM    2  C7  UNL     1     -34.757   6.668   3.828  1.00 20.00     0.019 C 
HETATM    3  C1  UNL     1     -34.224   7.618   4.902  1.00 20.00     0.013 C 
BRANCH   2   4
HETATM    4  C6  UNL     1     -35.122   5.288   4.399  1.00 20.00     0.121 C 
HETATM    5 CL10 UNL     1     -33.910   4.030   4.053  1.00 20.00    -0.130 Cl
ENDBRANCH   2   4
ENDBRANCH   1   2
BRANCH   1   6
HETATM    6  O9  UNL     1     -33.403   7.885   2.209  1.00 20.00    -0.381 OA
BRANCH   6   7
HETATM    7  C8  UNL     1     -32.075   7.903   1.704  1.00 20.00     0.050 C 
HETATM    8  C2  UNL     1     -31.137   8.363   2.819  1.00 20.00     0.045 C 
HETATM    9  C3  UNL     1     -31.731   6.482   1.264  1.00 20.00     0.045 C 
HETATM   10  C4  UNL     1     -32.021   8.861   0.515  1.00 20.00     0.045 C 
ENDBRANCH   6   7
ENDBRANCH   1   6
TORSDOF 4
ENDMDL
MODEL 2
REMARK VINA RESULT:      -0.6      0.027      1.377
REMARK  4 active torsions:
REMARK  status: ('A' for Active; 'I' for Inactive)
REMARK    1  A    between atoms: C5_5  and  C7_7 
REMARK    2  A    between atoms: C5_5  and  O9_9 
REMARK    3  A    between atoms: C6_6  and  C7_7 
REMARK    4  A    between atoms: C8_8  and  O9_9 
ROOT
HETATM    1  C5  UNL     1     -33.780   6.560   2.644  1.00 20.00     0.174 C 
ENDROOT
BRANCH   1   2
HETATM    2  C7  UNL     1     -34.764   6.654   3.817  1.00 20.00     0.019 C 
HETATM    3  C1  UNL     1     -34.239   7.624   4.877  1.00 20.00     0.013 C 
BRANCH   2   4
HETATM    4  C6  UNL     1     -35.122   5.281   4.409  1.00 20.00     0.121 C 
HETATM    5 CL10 UNL     1     -33.919   4.016   4.055  1.00 20.00    -0.130 Cl
ENDBRANCH   2   4
ENDBRANCH   1   2
BRANCH   1   6
HETATM    6  O9  UNL     1     -33.411   7.854   2.185  1.00 20.00    -0.381 OA
BRANCH   6   7
HETATM    7  C8  UNL     1     -32.076   7.874   1.699  1.00 20.00     0.050 C 
HETATM    8  C2  UNL     1     -31.702   6.464   1.247  1.00 20.00     0.045 C 
HETATM    9  C3  UNL     1     -32.031   8.846   0.520  1.00 20.00     0.045 C 
HETATM   10  C4  UNL     1     -31.156   8.351   2.822  1.00 20.00     0.045 C 
ENDBRANCH   6   7
ENDBRANCH   1   6
TORSDOF 4
ENDMDL
MODEL 3
REMARK VINA RESULT:      -0.6      0.019      1.375
REMARK  4 active torsions:
REMARK  status: ('A' for Active; 'I' for Inactive)
REMARK    1  A    between atoms: C5_5  and  C7_7 
REMARK    2  A    between atoms: C5_5  and  O9_9 
REMARK    3  A    between atoms: C6_6  and  C7_7 
REMARK    4  A    between atoms: C8_8  and  O9_9 
ROOT
HETATM    1  C5  UNL     1     -33.759   6.585   2.675  1.00 20.00     0.174 C 
ENDROOT
BRANCH   1   2
HETATM    2  C7  UNL     1     -34.751   6.673   3.842  1.00 20.00     0.019 C 
HETATM    3  C1  UNL     1     -34.226   7.626   4.917  1.00 20.00     0.013 C 
BRANCH   2   4
HETATM    4  C6  UNL     1     -35.124   5.296   4.415  1.00 20.00     0.121 C 
HETATM    5 CL10 UNL     1     -33.921   4.030   4.069  1.00 20.00    -0.130 Cl
ENDBRANCH   2   4
ENDBRANCH   1   2
BRANCH   1   6
HETATM    6  O9  UNL     1     -33.397   7.881   2.216  1.00 20.00    -0.381 OA
BRANCH   6   7
HETATM    7  C8  UNL     1     -32.073   7.901   1.701  1.00 20.00     0.050 C 
HETATM    8  C2  UNL     1     -32.023   8.878   0.527  1.00 20.00     0.045 C 
HETATM    9  C3  UNL     1     -31.149   8.365   2.825  1.00 20.00     0.045 C 
HETATM   10  C4  UNL     1     -31.704   6.488   1.251  1.00 20.00     0.045 C 
ENDBRANCH   6   7
ENDBRANCH   1   6
TORSDOF 4
ENDMDL
MODEL 4
REMARK VINA RESULT:      -0.1      2.464      4.670
REMARK  4 active torsions:
REMARK  status: ('A' for Active; 'I' for Inactive)
REMARK    1  A    between atoms: C5_5  and  C7_7 
REMARK    2  A    between atoms: C5_5  and  O9_9 
REMARK    3  A    between atoms: C6_6  and  C7_7 
REMARK    4  A    between atoms: C8_8  and  O9_9 
ROOT
HETATM    1  C5  UNL     1     -32.970   7.185   2.761  1.00 20.00     0.174 C 
ENDROOT
BRANCH   1   2
HETATM    2  C7  UNL     1     -32.460   7.178   1.314  1.00 20.00     0.019 C 
HETATM    3  C1  UNL     1     -31.811   5.832   0.984  1.00 20.00     0.013 C 
BRANCH   2   4
HETATM    4  C6  UNL     1     -31.534   8.365   1.000  1.00 20.00     0.121 C 
HETATM    5 CL10 UNL     1     -32.350   9.701   0.151  1.00 20.00    -0.130 Cl
ENDBRANCH   2   4
ENDBRANCH   1   2
BRANCH   1   6
HETATM    6  O9  UNL     1     -33.811   6.067   3.009  1.00 20.00    -0.381 OA
BRANCH   6   7
HETATM    7  C8  UNL     1     -34.870   6.398   3.897  1.00 20.00     0.050 C 
HETATM    8  C2  UNL     1     -35.232   5.154   4.706  1.00 20.00     0.045 C 
HETATM    9  C3  UNL     1     -34.369   7.510   4.816  1.00 20.00     0.045 C 
HETATM   10  C4  UNL     1     -36.064   6.879   3.073  1.00 20.00     0.045 C 
ENDBRANCH   6   7
ENDBRANCH   1   6
TORSDOF 4
ENDMDL
MODEL 5
REMARK VINA RESULT:       0.1      2.433      4.426
REMARK  4 active torsions:
REMARK  status: ('A' for Active; 'I' for Inactive)
REMARK    1  A    between atoms: C5_5  and  C7_7 
REMARK    2  A    between atoms: C5_5  and  O9_9 
REMARK    3  A    between atoms: C6_6  and  C7_7 
REMARK    4  A    between atoms: C8_8  and  O9_9 
ROOT
HETATM    1  C5  UNL     1     -32.752   6.733   1.808  1.00 20.00     0.174 C 
ENDROOT
BRANCH   1   2
HETATM    2  C7  UNL     1     -31.692   7.792   1.476  1.00 20.00     0.019 C 
HETATM    3  C1  UNL     1     -31.404   8.659   2.702  1.00 20.00     0.013 C 
BRANCH   2   4
HETATM    4  C6  UNL     1     -32.052   8.631   0.239  1.00 20.00     0.121 C 
HETATM    5 CL10 UNL     1     -32.611  10.276   0.631  1.00 20.00    -0.130 Cl
ENDBRANCH   2   4
ENDBRANCH   1   2
BRANCH   1   6
HETATM    6  O9  UNL     1     -33.896   7.328   2.404  1.00 20.00    -0.381 OA
BRANCH   6   7
HETATM    7  C8  UNL     1     -34.275   6.652   3.596  1.00 20.00     0.050 C 
HETATM    8  C2  UNL     1     -33.549   5.309   3.644  1.00 20.00     0.045 C 
HETATM    9  C3  UNL     1     -33.859   7.530   4.775  1.00 20.00     0.045 C 
HETATM   10  C4  UNL     1     -35.790   6.454   3.583  1.00 20.00     0.045 C 
ENDBRANCH   6   7
ENDBRANCH   1   6
TORSDOF 4
ENDMDL
MODEL 6
REMARK VINA RESULT:       0.1      2.437      4.372
REMARK  4 active torsions:
REMARK  status: ('A' for Active; 'I' for Inactive)
REMARK    1  A    between atoms: C5_5  and  C7_7 
REMARK    2  A    between atoms: C5_5  and  O9_9 
REMARK    3  A    between atoms: C6_6  and  C7_7 
REMARK    4  A    between atoms: C8_8  and  O9_9 
ROOT
HETATM    1  C5  UNL     1     -32.715   6.700   1.839  1.00 20.00     0.174 C 
ENDROOT
BRANCH   1   2
HETATM    2  C7  UNL     1     -31.699   7.794   1.484  1.00 20.00     0.019 C 
HETATM    3  C1  UNL     1     -31.409   8.668   2.706  1.00 20.00     0.013 C 
BRANCH   2   4
HETATM    4  C6  UNL     1     -32.117   8.624   0.259  1.00 20.00     0.121 C 
HETATM    5 CL10 UNL     1     -32.605  10.289   0.659  1.00 20.00    -0.130 Cl
ENDBRANCH   2   4
ENDBRANCH   1   2
BRANCH   1   6
HETATM    6  O9  UNL     1     -33.903   7.264   2.377  1.00 20.00    -0.381 OA
BRANCH   6   7
HETATM    7  C8  UNL     1     -34.276   6.631   3.594  1.00 20.00     0.050 C 
HETATM    8  C2  UNL     1     -33.847   7.523   4.757  1.00 20.00     0.045 C 
HETATM    9  C3  UNL     1     -35.794   6.462   3.577  1.00 20.00     0.045 C 
HETATM   10  C4  UNL     1     -33.586   5.270   3.666  1.00 20.00     0.045 C 
ENDBRANCH   6   7
ENDBRANCH   1   6
TORSDOF 4
ENDMDL
MODEL 7
REMARK VINA RESULT:       0.1      1.597      2.678
REMARK  4 active torsions:
REMARK  status: ('A' for Active; 'I' for Inactive)
REMARK    1  A    between atoms: C5_5  and  C7_7 
REMARK    2  A    between atoms: C5_5  and  O9_9 
REMARK    3  A    between atoms: C6_6  and  C7_7 
REMARK    4  A    between atoms: C8_8  and  O9_9 
ROOT
HETATM    1  C5  UNL     1     -32.039   7.988   1.880  1.00 20.00     0.174 C 
ENDROOT
BRANCH   1   2
HETATM    2  C7  UNL     1     -32.753   6.895   2.686  1.00 20.00     0.019 C 
HETATM    3  C1  UNL     1     -33.230   5.776   1.759  1.00 20.00     0.013 C 
BRANCH   2   4
HETATM    4  C6  UNL     1     -33.886   7.446   3.567  1.00 20.00     0.121 C 
HETATM    5 CL10 UNL     1     -35.161   6.253   3.917  1.00 20.00    -0.130 Cl
ENDBRANCH   2   4
ENDBRANCH   1   2
BRANCH   1   6
HETATM    6  O9  UNL     1     -32.973   8.786   1.165  1.00 20.00    -0.381 OA
BRANCH   6   7
HETATM    7  C8  UNL     1     -32.321   9.751   0.351  1.00 20.00     0.050 C 
HETATM    8  C2  UNL     1     -32.279  11.077   1.108  1.00 20.00     0.045 C 
HETATM    9  C3  UNL     1     -30.906   9.243   0.079  1.00 20.00     0.045 C 
HETATM   10  C4  UNL     1     -33.100   9.892  -0.955  1.00 20.00     0.045 C 
ENDBRANCH   6   7
ENDBRANCH   1   6
TORSDOF 4
ENDMDL
MODEL 8
REMARK VINA RESULT:       0.1      1.586      2.782
REMARK  4 active torsions:
REMARK  status: ('A' for Active; 'I' for Inactive)
REMARK    1  A    between atoms: C5_5  and  C7_7 
REMARK    2  A    between atoms: C5_5  and  O9_9 
REMARK    3  A    between atoms: C6_6  and  C7_7 
REMARK    4  A    between atoms: C8_8  and  O9_9 
ROOT
HETATM    1  C5  UNL     1     -32.054   7.983   1.906  1.00 20.00     0.174 C 
ENDROOT
BRANCH   1   2
HETATM    2  C7  UNL     1     -32.779   6.887   2.698  1.00 20.00     0.019 C 
HETATM    3  C1  UNL     1     -33.238   5.768   1.760  1.00 20.00     0.013 C 
BRANCH   2   4
HETATM    4  C6  UNL     1     -33.927   7.433   3.562  1.00 20.00     0.121 C 
HETATM    5 CL10 UNL     1     -35.194   6.230   3.907  1.00 20.00    -0.130 Cl
ENDBRANCH   2   4
ENDBRANCH   1   2
BRANCH   1   6
HETATM    6  O9  UNL     1     -32.975   8.757   1.149  1.00 20.00    -0.381 OA
BRANCH   6   7
HETATM    7  C8  UNL     1     -32.310   9.735   0.361  1.00 20.00     0.050 C 
HETATM    8  C2  UNL     1     -30.889   9.251   0.082  1.00 20.00     0.045 C 
HETATM    9  C3  UNL     1     -33.093   9.884  -0.943  1.00 20.00     0.045 C 
HETATM   10  C4  UNL     1     -32.296  11.054   1.132  1.00 20.00     0.045 C 
ENDBRANCH   6   7
ENDBRANCH   1   6
TORSDOF 4
ENDMDL
MODEL 9
REMARK VINA RESULT:       0.1      1.597      2.995
REMARK  4 active torsions:
REMARK  status: ('A' for Active; 'I' for Inactive)
REMARK    1  A    between atoms: C5_5  and  C7_7 
REMARK    2  A    between atoms: C5_5  and  O9_9 
REMARK    3  A    between atoms: C6_6  and  C7_7 
REMARK    4  A    between atoms: C8_8  and  O9_9 
ROOT
HETATM    1  C5  UNL     1     -32.023   7.965   1.860  1.00 20.00     0.174 C 
ENDROOT
BRANCH   1   2
HETATM    2  C7  UNL     1     -32.751   6.880   2.665  1.00 20.00     0.019 C 
HETATM    3  C1  UNL     1     -33.222   5.757   1.739  1.00 20.00     0.013 C 
BRANCH   2   4
HETATM    4  C6  UNL     1     -33.891   7.441   3.530  1.00 20.00     0.121 C 
HETATM    5 CL10 UNL     1     -35.158   6.246   3.900  1.00 20.00    -0.130 Cl
ENDBRANCH   2   4
ENDBRANCH   1   2
BRANCH   1   6
HETATM    6  O9  UNL     1     -32.950   8.854   1.251  1.00 20.00    -0.381 OA
BRANCH   6   7
HETATM    7  C8  UNL     1     -32.302   9.756   0.364  1.00 20.00     0.050 C 
HETATM    8  C2  UNL     1     -33.125   9.850  -0.919  1.00 20.00     0.045 C 
HETATM    9  C3  UNL     1     -32.232  11.115   1.058  1.00 20.00     0.045 C 
HETATM   10  C4  UNL     1     -30.898   9.228   0.074  1.00 20.00     0.045 C 
ENDBRANCH   6   7
ENDBRANCH   1   6
TORSDOF 4
ENDMDL
