MODEL 1
REMARK VINA RESULT:      -1.4      0.000      0.000
REMARK  1 active torsions:
REMARK  status: ('A' for Active; 'I' for Inactive)
REMARK    1  A    between atoms: C1_1  and  C5_5 
ROOT
HETATM    1  C2  UNL     1     -33.451   5.523   2.563  1.00 20.00     0.022 C 
HETATM    2  C3  UNL     1     -32.577   6.262   1.565  1.00 20.00     0.075 C 
HETATM    3  C4  UNL     1     -33.538   7.732   3.597  1.00 20.00     0.085 C 
HETATM    4  C5  UNL     1     -34.400   6.557   3.155  1.00 20.00     0.057 C 
HETATM    5  S7  UNL     1     -32.236   7.866   2.338  1.00 20.00    -0.168 SA
ENDROOT
BRANCH   4   6
HETATM    6  C1  UNL     1     -35.147   5.996   4.323  1.00 20.00     0.236 C 
HETATM    7  O6  UNL     1     -35.302   4.794   4.511  1.00 20.00    -0.306 OA
ENDBRANCH   4   6
TORSDOF 1
ENDMDL
MODEL 2
REMARK VINA RESULT:      -1.1      2.863      3.695
REMARK  1 active torsions:
REMARK  status: ('A' for Active; 'I' for Inactive)
REMARK    1  A    between atoms: C1_1  and  C5_5 
ROOT
HETATM    1  C2  UNL     1     -33.863   7.506   3.655  1.00 20.00     0.022 C 
HETATM    2  C3  UNL     1     -34.885   6.456   4.052  1.00 20.00     0.075 C 
HETATM    3  C4  UNL     1     -32.906   5.617   2.442  1.00 20.00     0.085 C 
HETATM    4  C5  UNL     1     -33.308   7.078   2.302  1.00 20.00     0.057 C 
HETATM    5  S7  UNL     1     -34.166   4.878   3.520  1.00 20.00    -0.168 SA
ENDROOT
BRANCH   4   6
HETATM    6  C1  UNL     1     -32.123   7.908   1.920  1.00 20.00     0.236 C 
HETATM    7  O6  UNL     1     -32.155   8.772   1.051  1.00 20.00    -0.306 OA
ENDBRANCH   4   6
TORSDOF 1
ENDMDL
MODEL 3
REMARK VINA RESULT:      -1.0      0.750      1.700
REMARK  1 active torsions:
REMARK  status: ('A' for Active; 'I' for Inactive)
REMARK    1  A    between atoms: C1_1  and  C5_5 
ROOT
HETATM    1  C2  UNL     1     -33.729   7.907   3.738  1.00 20.00     0.022 C 
HETATM    2  C3  UNL     1     -32.384   8.285   3.144  1.00 20.00     0.075 C 
HETATM    3  C4  UNL     1     -33.506   6.045   2.176  1.00 20.00     0.085 C 
HETATM    4  C5  UNL     1     -33.844   6.392   3.619  1.00 20.00     0.057 C 
HETATM    5  S7  UNL     1     -32.186   7.198   1.705  1.00 20.00    -0.168 SA
ENDROOT
BRANCH   4   6
HETATM    6  C1  UNL     1     -35.226   5.929   3.954  1.00 20.00     0.236 C 
HETATM    7  O6  UNL     1     -35.462   4.894   4.567  1.00 20.00    -0.306 OA
ENDBRANCH   4   6
TORSDOF 1
ENDMDL
MODEL 4
REMARK VINA RESULT:      -1.0      1.362      1.855
REMARK  1 active torsions:
REMARK  status: ('A' for Active; 'I' for Inactive)
REMARK    1  A    between atoms: C1_1  and  C5_5 
ROOT
HETATM    1  C2  UNL     1     -33.047   8.036   2.546  1.00 20.00     0.022 C 
HETATM    2  C3  UNL     1     -31.835   7.648   1.717  1.00 20.00     0.075 C 
HETATM    3  C4  UNL     1     -33.473   5.636   2.414  1.00 20.00     0.085 C 
HETATM    4  C5  UNL     1     -33.411   6.813   3.378  1.00 20.00     0.057 C 
HETATM    5  S7  UNL     1     -32.141   5.932   1.217  1.00 20.00    -0.168 SA
ENDROOT
BRANCH   4   6
HETATM    6  C1  UNL     1     -34.731   6.997   4.057  1.00 20.00     0.236 C 
HETATM    7  O6  UNL     1     -35.583   6.118   4.127  1.00 20.00    -0.306 OA
ENDBRANCH   4   6
TORSDOF 1
ENDMDL
MODEL 5
REMARK VINA RESULT:      -0.8      2.877      3.533
REMARK  1 active torsions:
REMARK  status: ('A' for Active; 'I' for Inactive)
REMARK    1  A    between atoms: C1_1  and  C5_5 
ROOT
HETATM    1  C2  UNL     1     -32.909   6.185   1.653  1.00 20.00     0.022 C 
HETATM    2  C3  UNL     1     -33.626   5.416   2.748  1.00 20.00     0.075 C 
HETATM    3  C4  UNL     1     -33.413   8.067   3.123  1.00 20.00     0.085 C 
HETATM    4  C5  UNL     1     -32.299   7.413   2.317  1.00 20.00     0.057 C 
HETATM    5  S7  UNL     1     -34.386   6.688   3.793  1.00 20.00    -0.168 SA
ENDROOT
BRANCH   4   6
HETATM    6  C1  UNL     1     -31.770   8.369   1.295  1.00 20.00     0.236 C 
HETATM    7  O6  UNL     1     -32.430   9.289   0.824  1.00 20.00    -0.306 OA
ENDBRANCH   4   6
TORSDOF 1
ENDMDL
MODEL 6
REMARK VINA RESULT:      -0.6      1.142      1.973
REMARK  1 active torsions:
REMARK  status: ('A' for Active; 'I' for Inactive)
REMARK    1  A    between atoms: C1_1  and  C5_5 
ROOT
HETATM    1  C2  UNL     1     -34.246   6.966   3.826  1.00 20.00     0.022 C 
HETATM    2  C3  UNL     1     -33.388   8.152   3.424  1.00 20.00     0.075 C 
HETATM    3  C4  UNL     1     -32.931   5.867   2.088  1.00 20.00     0.085 C 
HETATM    4  C5  UNL     1     -33.429   5.718   3.519  1.00 20.00     0.057 C 
HETATM    5  S7  UNL     1     -32.559   7.633   1.896  1.00 20.00    -0.168 SA
ENDROOT
BRANCH   4   6
HETATM    6  C1  UNL     1     -34.263   4.483   3.651  1.00 20.00     0.236 C 
HETATM    7  O6  UNL     1     -33.946   3.525   4.348  1.00 20.00    -0.306 OA
ENDBRANCH   4   6
TORSDOF 1
ENDMDL
MODEL 7
REMARK VINA RESULT:      -0.4      1.680      1.724
REMARK  1 active torsions:
REMARK  status: ('A' for Active; 'I' for Inactive)
REMARK    1  A    between atoms: C1_1  and  C5_5 
ROOT
HETATM    1  C2  UNL     1     -33.392   5.802   2.665  1.00 20.00     0.022 C 
HETATM    2  C3  UNL     1     -32.687   5.833   1.321  1.00 20.00     0.075 C 
HETATM    3  C4  UNL     1     -32.581   8.103   2.754  1.00 20.00     0.085 C 
HETATM    4  C5  UNL     1     -33.814   7.236   2.964  1.00 20.00     0.057 C 
HETATM    5  S7  UNL     1     -31.719   7.366   1.336  1.00 20.00    -0.168 SA
ENDROOT
BRANCH   4   6
HETATM    6  C1  UNL     1     -34.308   7.369   4.369  1.00 20.00     0.236 C 
HETATM    7  O6  UNL     1     -33.790   8.106   5.201  1.00 20.00    -0.306 OA
ENDBRANCH   4   6
TORSDOF 1
ENDMDL
MODEL 8
REMARK VINA RESULT:      -0.2      2.528      3.423
REMARK  1 active torsions:
REMARK  status: ('A' for Active; 'I' for Inactive)
REMARK    1  A    between atoms: C1_1  and  C5_5 
ROOT
HETATM    1  C2  UNL     1     -33.080   7.652   3.414  1.00 20.00     0.022 C 
HETATM    2  C3  UNL     1     -34.395   7.719   4.169  1.00 20.00     0.075 C 
HETATM    3  C4  UNL     1     -33.936   5.447   2.811  1.00 20.00     0.085 C 
HETATM    4  C5  UNL     1     -33.303   6.708   2.239  1.00 20.00     0.057 C 
HETATM    5  S7  UNL     1     -35.046   6.027   4.125  1.00 20.00    -0.168 SA
ENDROOT
BRANCH   4   6
HETATM    6  C1  UNL     1     -32.012   6.379   1.560  1.00 20.00     0.236 C 
HETATM    7  O6  UNL     1     -31.731   5.258   1.149  1.00 20.00    -0.306 OA
ENDBRANCH   4   6
TORSDOF 1
ENDMDL
MODEL 9
REMARK VINA RESULT:      -0.1      1.974      2.358
REMARK  1 active torsions:
REMARK  status: ('A' for Active; 'I' for Inactive)
REMARK    1  A    between atoms: C1_1  and  C5_5 
ROOT
HETATM    1  C2  UNL     1     -32.620   8.077   2.322  1.00 20.00     0.022 C 
HETATM    2  C3  UNL     1     -31.653   7.377   1.384  1.00 20.00     0.075 C 
HETATM    3  C4  UNL     1     -33.546   5.826   2.490  1.00 20.00     0.085 C 
HETATM    4  C5  UNL     1     -33.098   7.025   3.314  1.00 20.00     0.057 C 
HETATM    5  S7  UNL     1     -32.377   5.738   1.104  1.00 20.00    -0.168 SA
ENDROOT
BRANCH   4   6
HETATM    6  C1  UNL     1     -34.234   7.540   4.139  1.00 20.00     0.236 C 
HETATM    7  O6  UNL     1     -34.082   8.179   5.175  1.00 20.00    -0.306 OA
ENDBRANCH   4   6
TORSDOF 1
ENDMDL
