MODEL 1
REMARK VINA RESULT:       0.2      0.000      0.000
REMARK  0 active torsions:
REMARK  status: ('A' for Active; 'I' for Inactive)
ROOT
HETATM    1  C1  UNL     1     -32.446   9.085   0.875  1.00 20.00     0.087 C 
HETATM    2  C2  UNL     1     -32.883   5.609   2.418  1.00 20.00     0.029 C 
HETATM    3  C3  UNL     1     -32.588   6.661   1.352  1.00 20.00     0.045 C 
HETATM    4  C4  UNL     1     -34.065   6.034   3.279  1.00 20.00     0.167 C 
HETATM    5  C5  UNL     1     -33.690   8.342   2.875  1.00 20.00     0.208 C 
HETATM    6  C6  UNL     1     -32.502   8.076   1.944  1.00 20.00     0.146 C 
HETATM    7  N7  UNL     1     -32.400   9.879   0.031  1.00 20.00    -0.195 NA
HETATM    8  O8  UNL     1     -33.831   7.315   3.860  1.00 20.00    -0.388 OA
HETATM    9 CL9  UNL     1     -30.974   8.250   2.879  1.00 20.00    -0.101 Cl
ENDROOT
TORSDOF 0
ENDMDL
MODEL 2
REMARK VINA RESULT:       0.6      3.224      3.982
REMARK  0 active torsions:
REMARK  status: ('A' for Active; 'I' for Inactive)
ROOT
HETATM    1  C1  UNL     1     -34.057   4.783   3.979  1.00 20.00     0.087 C 
HETATM    2  C2  UNL     1     -32.822   7.138   1.225  1.00 20.00     0.029 C 
HETATM    3  C3  UNL     1     -33.204   5.824   1.904  1.00 20.00     0.045 C 
HETATM    4  C4  UNL     1     -32.095   8.053   2.202  1.00 20.00     0.167 C 
HETATM    5  C5  UNL     1     -33.137   7.072   4.094  1.00 20.00     0.208 C 
HETATM    6  C6  UNL     1     -33.908   6.051   3.250  1.00 20.00     0.146 C 
HETATM    7  N7  UNL     1     -34.175   3.782   4.553  1.00 20.00    -0.195 NA
HETATM    8  O8  UNL     1     -32.884   8.277   3.368  1.00 20.00    -0.388 OA
HETATM    9 CL9  UNL     1     -35.575   6.666   2.965  1.00 20.00    -0.101 Cl
ENDROOT
TORSDOF 0
ENDMDL
MODEL 3
REMARK VINA RESULT:       0.8      2.277      2.887
REMARK  0 active torsions:
REMARK  status: ('A' for Active; 'I' for Inactive)
ROOT
HETATM    1  C1  UNL     1     -32.265   7.316   2.053  1.00 20.00     0.087 C 
HETATM    2  C2  UNL     1     -35.393   6.122   3.908  1.00 20.00     0.029 C 
HETATM    3  C3  UNL     1     -34.368   7.099   3.337  1.00 20.00     0.045 C 
HETATM    4  C4  UNL     1     -34.700   4.894   4.483  1.00 20.00     0.167 C 
HETATM    5  C5  UNL     1     -32.823   5.127   3.051  1.00 20.00     0.208 C 
HETATM    6  C6  UNL     1     -33.365   6.405   2.403  1.00 20.00     0.146 C 
HETATM    7  N7  UNL     1     -31.398   8.035   1.777  1.00 20.00    -0.195 NA
HETATM    8  O8  UNL     1     -33.877   4.272   3.499  1.00 20.00    -0.388 OA
HETATM    9 CL9  UNL     1     -34.176   5.978   0.854  1.00 20.00    -0.101 Cl
ENDROOT
TORSDOF 0
ENDMDL
MODEL 4
REMARK VINA RESULT:       1.6      1.677      2.046
REMARK  0 active torsions:
REMARK  status: ('A' for Active; 'I' for Inactive)
ROOT
HETATM    1  C1  UNL     1     -32.749   7.816   2.189  1.00 20.00     0.087 C 
HETATM    2  C2  UNL     1     -33.891   4.771   4.209  1.00 20.00     0.029 C 
HETATM    3  C3  UNL     1     -33.054   5.593   3.232  1.00 20.00     0.045 C 
HETATM    4  C4  UNL     1     -35.369   5.111   4.066  1.00 20.00     0.167 C 
HETATM    5  C5  UNL     1     -34.919   7.291   3.247  1.00 20.00     0.208 C 
HETATM    6  C6  UNL     1     -33.400   7.089   3.289  1.00 20.00     0.146 C 
HETATM    7  N7  UNL     1     -32.235   8.388   1.321  1.00 20.00    -0.195 NA
HETATM    8  O8  UNL     1     -35.585   6.509   4.240  1.00 20.00    -0.388 OA
HETATM    9 CL9  UNL     1     -32.756   7.801   4.812  1.00 20.00    -0.101 Cl
ENDROOT
TORSDOF 0
ENDMDL
MODEL 5
REMARK VINA RESULT:       1.7      2.661      3.293
REMARK  0 active torsions:
REMARK  status: ('A' for Active; 'I' for Inactive)
ROOT
HETATM    1  C1  UNL     1     -31.873   4.961   0.976  1.00 20.00     0.087 C 
HETATM    2  C2  UNL     1     -32.962   8.243   2.618  1.00 20.00     0.029 C 
HETATM    3  C3  UNL     1     -32.091   7.276   1.820  1.00 20.00     0.045 C 
HETATM    4  C4  UNL     1     -33.557   7.547   3.835  1.00 20.00     0.167 C 
HETATM    5  C5  UNL     1     -33.455   5.406   2.819  1.00 20.00     0.208 C 
HETATM    6  C6  UNL     1     -32.807   5.947   1.540  1.00 20.00     0.146 C 
HETATM    7  N7  UNL     1     -31.136   4.185   0.530  1.00 20.00    -0.195 NA
HETATM    8  O8  UNL     1     -34.286   6.385   3.447  1.00 20.00    -0.388 OA
HETATM    9 CL9  UNL     1     -34.084   6.197   0.297  1.00 20.00    -0.101 Cl
ENDROOT
TORSDOF 0
ENDMDL
MODEL 6
REMARK VINA RESULT:       2.0      2.544      3.706
REMARK  0 active torsions:
REMARK  status: ('A' for Active; 'I' for Inactive)
ROOT
HETATM    1  C1  UNL     1     -33.608   7.339   3.201  1.00 20.00     0.087 C 
HETATM    2  C2  UNL     1     -32.603  10.203   0.869  1.00 20.00     0.029 C 
HETATM    3  C3  UNL     1     -33.461   9.404   1.848  1.00 20.00     0.045 C 
HETATM    4  C4  UNL     1     -31.936   9.277  -0.138  1.00 20.00     0.167 C 
HETATM    5  C5  UNL     1     -31.981   7.425   1.345  1.00 20.00     0.208 C 
HETATM    6  C6  UNL     1     -32.698   8.213   2.447  1.00 20.00     0.146 C 
HETATM    7  N7  UNL     1     -34.327   6.650   3.797  1.00 20.00    -0.195 NA
HETATM    8  O8  UNL     1     -31.172   8.274   0.528  1.00 20.00    -0.388 OA
HETATM    9 CL9  UNL     1     -31.478   8.808   3.630  1.00 20.00    -0.101 Cl
ENDROOT
TORSDOF 0
ENDMDL
MODEL 7
REMARK VINA RESULT:       2.9      2.925      3.794
REMARK  0 active torsions:
REMARK  status: ('A' for Active; 'I' for Inactive)
ROOT
HETATM    1  C1  UNL     1     -34.963   6.159   3.703  1.00 20.00     0.087 C 
HETATM    2  C2  UNL     1     -31.706   8.034   2.975  1.00 20.00     0.029 C 
HETATM    3  C3  UNL     1     -33.001   7.666   3.695  1.00 20.00     0.045 C 
HETATM    4  C4  UNL     1     -31.897   7.975   1.465  1.00 20.00     0.167 C 
HETATM    5  C5  UNL     1     -33.650   6.384   1.623  1.00 20.00     0.208 C 
HETATM    6  C6  UNL     1     -33.614   6.365   3.155  1.00 20.00     0.146 C 
HETATM    7  N7  UNL     1     -36.027   5.997   4.135  1.00 20.00    -0.195 NA
HETATM    8  O8  UNL     1     -32.369   6.690   1.067  1.00 20.00    -0.388 OA
HETATM    9 CL9  UNL     1     -32.630   4.960   3.701  1.00 20.00    -0.101 Cl
ENDROOT
TORSDOF 0
ENDMDL
MODEL 8
REMARK VINA RESULT:       2.9      2.527      3.202
REMARK  0 active torsions:
REMARK  status: ('A' for Active; 'I' for Inactive)
ROOT
HETATM    1  C1  UNL     1     -33.462   5.209   0.480  1.00 20.00     0.087 C 
HETATM    2  C2  UNL     1     -33.410   7.146   3.782  1.00 20.00     0.029 C 
HETATM    3  C3  UNL     1     -33.919   6.192   2.704  1.00 20.00     0.045 C 
HETATM    4  C4  UNL     1     -32.805   8.393   3.151  1.00 20.00     0.167 C 
HETATM    5  C5  UNL     1     -32.259   7.264   1.137  1.00 20.00     0.208 C 
HETATM    6  C6  UNL     1     -32.870   5.940   1.611  1.00 20.00     0.146 C 
HETATM    7  N7  UNL     1     -33.929   4.631  -0.411  1.00 20.00    -0.195 NA
HETATM    8  O8  UNL     1     -31.772   8.044   2.232  1.00 20.00    -0.388 OA
HETATM    9 CL9  UNL     1     -31.561   4.889   2.259  1.00 20.00    -0.101 Cl
ENDROOT
TORSDOF 0
ENDMDL
MODEL 9
REMARK VINA RESULT:       3.0      2.940      3.456
REMARK  0 active torsions:
REMARK  status: ('A' for Active; 'I' for Inactive)
ROOT
HETATM    1  C1  UNL     1     -33.772   7.771   4.664  1.00 20.00     0.087 C 
HETATM    2  C2  UNL     1     -33.428   4.557   2.612  1.00 20.00     0.029 C 
HETATM    3  C3  UNL     1     -33.507   5.451   3.848  1.00 20.00     0.045 C 
HETATM    4  C4  UNL     1     -32.615   5.232   1.515  1.00 20.00     0.167 C 
HETATM    5  C5  UNL     1     -33.110   7.411   2.312  1.00 20.00     0.208 C 
HETATM    6  C6  UNL     1     -33.926   6.887   3.499  1.00 20.00     0.146 C 
HETATM    7  N7  UNL     1     -33.651   8.468   5.583  1.00 20.00    -0.195 NA
HETATM    8  O8  UNL     1     -33.156   6.513   1.200  1.00 20.00    -0.388 OA
HETATM    9 CL9  UNL     1     -35.673   6.920   3.070  1.00 20.00    -0.101 Cl
ENDROOT
TORSDOF 0
ENDMDL
