MODEL 1
REMARK VINA RESULT:      -1.3      0.000      0.000
REMARK  1 active torsions:
REMARK  status: ('A' for Active; 'I' for Inactive)
REMARK    1  A    between atoms: C1_1  and  C5_5 
ROOT
HETATM    1  C2  UNL     1     -33.594   5.691   2.069  1.00 20.00     0.022 C 
HETATM    2  C3  UNL     1     -32.254   6.137   1.510  1.00 20.00     0.075 C 
HETATM    3  C4  UNL     1     -33.439   7.838   3.220  1.00 20.00     0.085 C 
HETATM    4  C5  UNL     1     -33.740   6.361   3.430  1.00 20.00     0.057 C 
HETATM    5  S7  UNL     1     -32.104   7.879   1.992  1.00 20.00    -0.168 SA
ENDROOT
BRANCH   4   6
HETATM    6  C1  UNL     1     -35.125   6.166   3.961  1.00 20.00     0.236 C 
HETATM    7  O6  UNL     1     -35.508   5.127   4.486  1.00 20.00    -0.306 OA
ENDBRANCH   4   6
TORSDOF 1
ENDMDL
MODEL 2
REMARK VINA RESULT:      -1.1      0.929      1.723
REMARK  1 active torsions:
REMARK  status: ('A' for Active; 'I' for Inactive)
REMARK    1  A    between atoms: C1_1  and  C5_5 
ROOT
HETATM    1  C2  UNL     1     -33.548   7.654   3.851  1.00 20.00     0.022 C 
HETATM    2  C3  UNL     1     -32.617   8.149   2.759  1.00 20.00     0.075 C 
HETATM    3  C4  UNL     1     -33.559   5.651   2.455  1.00 20.00     0.085 C 
HETATM    4  C5  UNL     1     -34.463   6.620   3.205  1.00 20.00     0.057 C 
HETATM    5  S7  UNL     1     -32.226   6.676   1.775  1.00 20.00    -0.168 SA
ENDROOT
BRANCH   4   6
HETATM    6  C1  UNL     1     -35.265   5.909   4.248  1.00 20.00     0.236 C 
HETATM    7  O6  UNL     1     -35.144   4.714   4.495  1.00 20.00    -0.306 OA
ENDBRANCH   4   6
TORSDOF 1
ENDMDL
MODEL 3
REMARK VINA RESULT:      -0.7      2.943      3.823
REMARK  1 active torsions:
REMARK  status: ('A' for Active; 'I' for Inactive)
REMARK    1  A    between atoms: C1_1  and  C5_5 
ROOT
HETATM    1  C2  UNL     1     -33.496   8.215   2.993  1.00 20.00     0.022 C 
HETATM    2  C3  UNL     1     -34.087   7.249   4.005  1.00 20.00     0.075 C 
HETATM    3  C4  UNL     1     -32.899   6.133   1.869  1.00 20.00     0.085 C 
HETATM    4  C5  UNL     1     -32.348   7.481   2.312  1.00 20.00     0.057 C 
HETATM    5  S7  UNL     1     -34.039   5.631   3.188  1.00 20.00    -0.168 SA
ENDROOT
BRANCH   4   6
HETATM    6  C1  UNL     1     -31.848   8.267   1.142  1.00 20.00     0.236 C 
HETATM    7  O6  UNL     1     -32.338   9.333   0.785  1.00 20.00    -0.306 OA
ENDBRANCH   4   6
TORSDOF 1
ENDMDL
MODEL 4
REMARK VINA RESULT:      -0.6      1.902      2.280
REMARK  1 active torsions:
REMARK  status: ('A' for Active; 'I' for Inactive)
REMARK    1  A    between atoms: C1_1  and  C5_5 
ROOT
HETATM    1  C2  UNL     1     -32.366   8.019   2.696  1.00 20.00     0.022 C 
HETATM    2  C3  UNL     1     -31.867   7.530   1.347  1.00 20.00     0.075 C 
HETATM    3  C4  UNL     1     -33.482   5.848   2.682  1.00 20.00     0.085 C 
HETATM    4  C5  UNL     1     -33.705   7.332   2.936  1.00 20.00     0.057 C 
HETATM    5  S7  UNL     1     -32.322   5.776   1.289  1.00 20.00    -0.168 SA
ENDROOT
BRANCH   4   6
HETATM    6  C1  UNL     1     -34.170   7.573   4.338  1.00 20.00     0.236 C 
HETATM    7  O6  UNL     1     -33.477   8.106   5.197  1.00 20.00    -0.306 OA
ENDBRANCH   4   6
TORSDOF 1
ENDMDL
MODEL 5
REMARK VINA RESULT:      -0.4      2.940      3.399
REMARK  1 active torsions:
REMARK  status: ('A' for Active; 'I' for Inactive)
REMARK    1  A    between atoms: C1_1  and  C5_5 
ROOT
HETATM    1  C2  UNL     1     -32.818   5.741   2.384  1.00 20.00     0.022 C 
HETATM    2  C3  UNL     1     -34.032   5.062   2.993  1.00 20.00     0.075 C 
HETATM    3  C4  UNL     1     -33.791   7.694   3.477  1.00 20.00     0.085 C 
HETATM    4  C5  UNL     1     -33.201   7.199   2.164  1.00 20.00     0.057 C 
HETATM    5  S7  UNL     1     -34.726   6.287   4.137  1.00 20.00    -0.168 SA
ENDROOT
BRANCH   4   6
HETATM    6  C1  UNL     1     -31.999   8.002   1.779  1.00 20.00     0.236 C 
HETATM    7  O6  UNL     1     -32.021   8.889   0.934  1.00 20.00    -0.306 OA
ENDBRANCH   4   6
TORSDOF 1
ENDMDL
MODEL 6
REMARK VINA RESULT:      -0.4      2.246      3.047
REMARK  1 active torsions:
REMARK  status: ('A' for Active; 'I' for Inactive)
REMARK    1  A    between atoms: C1_1  and  C5_5 
ROOT
HETATM    1  C2  UNL     1     -34.002   5.548   3.147  1.00 20.00     0.022 C 
HETATM    2  C3  UNL     1     -34.881   6.452   3.994  1.00 20.00     0.075 C 
HETATM    3  C4  UNL     1     -32.718   7.609   2.896  1.00 20.00     0.085 C 
HETATM    4  C5  UNL     1     -33.320   6.444   2.121  1.00 20.00     0.057 C 
HETATM    5  S7  UNL     1     -33.916   7.972   4.209  1.00 20.00    -0.168 SA
ENDROOT
BRANCH   4   6
HETATM    6  C1  UNL     1     -32.261   5.684   1.387  1.00 20.00     0.236 C 
HETATM    7  O6  UNL     1     -32.505   4.825   0.547  1.00 20.00    -0.306 OA
ENDBRANCH   4   6
TORSDOF 1
ENDMDL
MODEL 7
REMARK VINA RESULT:      -0.2      2.315      3.098
REMARK  1 active torsions:
REMARK  status: ('A' for Active; 'I' for Inactive)
REMARK    1  A    between atoms: C1_1  and  C5_5 
ROOT
HETATM    1  C2  UNL     1     -35.006   4.932   4.657  1.00 20.00     0.022 C 
HETATM    2  C3  UNL     1     -35.433   6.262   4.062  1.00 20.00     0.075 C 
HETATM    3  C4  UNL     1     -33.056   5.316   3.239  1.00 20.00     0.085 C 
HETATM    4  C5  UNL     1     -34.092   4.272   3.632  1.00 20.00     0.057 C 
HETATM    5  S7  UNL     1     -33.957   6.891   3.217  1.00 20.00    -0.168 SA
ENDROOT
BRANCH   4   6
HETATM    6  C1  UNL     1     -33.438   3.061   4.219  1.00 20.00     0.236 C 
HETATM    7  O6  UNL     1     -32.911   3.048   5.326  1.00 20.00    -0.306 OA
ENDBRANCH   4   6
TORSDOF 1
ENDMDL
MODEL 8
REMARK VINA RESULT:       1.3      3.440      4.050
REMARK  1 active torsions:
REMARK  status: ('A' for Active; 'I' for Inactive)
REMARK    1  A    between atoms: C1_1  and  C5_5 
ROOT
HETATM    1  C2  UNL     1     -31.665   7.484   1.304  1.00 20.00     0.022 C 
HETATM    2  C3  UNL     1     -32.320   6.364   2.093  1.00 20.00     0.075 C 
HETATM    3  C4  UNL     1     -33.449   8.790   2.337  1.00 20.00     0.085 C 
HETATM    4  C5  UNL     1     -32.758   8.504   1.011  1.00 20.00     0.057 C 
HETATM    5  S7  UNL     1     -33.486   7.197   3.205  1.00 20.00    -0.168 SA
ENDROOT
BRANCH   4   6
HETATM    6  C1  UNL     1     -32.166   9.751   0.435  1.00 20.00     0.236 C 
HETATM    7  O6  UNL     1     -32.511  10.880   0.767  1.00 20.00    -0.306 OA
ENDBRANCH   4   6
TORSDOF 1
ENDMDL
MODEL 9
REMARK VINA RESULT:       1.4      2.258      2.990
REMARK  1 active torsions:
REMARK  status: ('A' for Active; 'I' for Inactive)
REMARK    1  A    between atoms: C1_1  and  C5_5 
ROOT
HETATM    1  C2  UNL     1     -32.936   9.593   1.737  1.00 20.00     0.022 C 
HETATM    2  C3  UNL     1     -32.496   9.859   0.308  1.00 20.00     0.075 C 
HETATM    3  C4  UNL     1     -31.565   7.598   1.423  1.00 20.00     0.085 C 
HETATM    4  C5  UNL     1     -32.920   8.080   1.921  1.00 20.00     0.057 C 
HETATM    5  S7  UNL     1     -31.188   8.644  -0.011  1.00 20.00    -0.168 SA
ENDROOT
BRANCH   4   6
HETATM    6  C1  UNL     1     -33.119   7.728   3.361  1.00 20.00     0.236 C 
HETATM    7  O6  UNL     1     -34.112   7.147   3.784  1.00 20.00    -0.306 OA
ENDBRANCH   4   6
TORSDOF 1
ENDMDL
