MODEL 1
REMARK VINA RESULT:      -1.8      0.000      0.000
REMARK  4 active torsions:
REMARK  status: ('A' for Active; 'I' for Inactive)
REMARK    1  A    between atoms: C4_4  and  C6_6 
REMARK    2  A    between atoms: C4_4  and  O8_8 
REMARK    3  A    between atoms: C5_5  and  C6_6 
REMARK    4  A    between atoms: C7_7  and  O8_8 
ROOT
HETATM    1  C4  UNL     1     -33.662   6.551   2.743  1.00 20.00     0.173 C 
ENDROOT
BRANCH   1   2
HETATM    2  C6  UNL     1     -34.742   6.681   3.825  1.00 20.00     0.019 C 
HETATM    3  C1  UNL     1     -34.297   7.669   4.905  1.00 20.00     0.013 C 
BRANCH   2   4
HETATM    4  C5  UNL     1     -35.167   5.326   4.413  1.00 20.00     0.121 C 
HETATM    5 CL9  UNL     1     -33.989   4.023   4.124  1.00 20.00    -0.130 Cl
ENDBRANCH   2   4
ENDBRANCH   1   2
BRANCH   1   6
HETATM    6  O8  UNL     1     -32.804   7.685   2.741  1.00 20.00    -0.386 OA
BRANCH   6   7
HETATM    7  C7  UNL     1     -31.829   7.600   1.712  1.00 20.00     0.113 C 
HETATM    8  C2  UNL     1     -31.945   6.249   1.022  1.00 20.00     0.039 C 
HETATM    9  C3  UNL     1     -32.027   8.752   0.739  1.00 20.00     0.039 C 
ENDBRANCH   6   7
ENDBRANCH   1   6
TORSDOF 4
ENDMDL
MODEL 2
REMARK VINA RESULT:      -1.7      2.647      4.619
REMARK  4 active torsions:
REMARK  status: ('A' for Active; 'I' for Inactive)
REMARK    1  A    between atoms: C4_4  and  C6_6 
REMARK    2  A    between atoms: C4_4  and  O8_8 
REMARK    3  A    between atoms: C5_5  and  C6_6 
REMARK    4  A    between atoms: C7_7  and  O8_8 
ROOT
HETATM    1  C4  UNL     1     -33.589   6.250   2.914  1.00 20.00     0.173 C 
ENDROOT
BRANCH   1   2
HETATM    2  C6  UNL     1     -32.886   6.759   1.649  1.00 20.00     0.019 C 
HETATM    3  C1  UNL     1     -32.068   5.637   1.007  1.00 20.00     0.013 C 
BRANCH   2   4
HETATM    4  C5  UNL     1     -32.048   8.023   1.896  1.00 20.00     0.121 C 
HETATM    5 CL9  UNL     1     -32.315   9.303   0.688  1.00 20.00    -0.130 Cl
ENDBRANCH   2   4
ENDBRANCH   1   2
BRANCH   1   6
HETATM    6  O8  UNL     1     -33.091   4.974   3.296  1.00 20.00    -0.386 OA
BRANCH   6   7
HETATM    7  C7  UNL     1     -34.109   4.165   3.865  1.00 20.00     0.113 C 
HETATM    8  C2  UNL     1     -33.479   3.175   4.834  1.00 20.00     0.039 C 
HETATM    9  C3  UNL     1     -35.132   5.056   4.553  1.00 20.00     0.039 C 
ENDBRANCH   6   7
ENDBRANCH   1   6
TORSDOF 4
ENDMDL
MODEL 3
REMARK VINA RESULT:      -1.3      1.628      2.824
REMARK  4 active torsions:
REMARK  status: ('A' for Active; 'I' for Inactive)
REMARK    1  A    between atoms: C4_4  and  C6_6 
REMARK    2  A    between atoms: C4_4  and  O8_8 
REMARK    3  A    between atoms: C5_5  and  C6_6 
REMARK    4  A    between atoms: C7_7  and  O8_8 
ROOT
HETATM    1  C4  UNL     1     -31.817   7.674   1.923  1.00 20.00     0.173 C 
ENDROOT
BRANCH   1   2
HETATM    2  C6  UNL     1     -32.775   6.681   2.593  1.00 20.00     0.019 C 
HETATM    3  C1  UNL     1     -33.286   5.663   1.572  1.00 20.00     0.013 C 
BRANCH   2   4
HETATM    4  C5  UNL     1     -33.918   7.370   3.353  1.00 20.00     0.121 C 
HETATM    5 CL9  UNL     1     -35.153   6.240   3.961  1.00 20.00    -0.130 Cl
ENDBRANCH   2   4
ENDBRANCH   1   2
BRANCH   1   6
HETATM    6  O8  UNL     1     -32.437   8.943   1.752  1.00 20.00    -0.386 OA
BRANCH   6   7
HETATM    7  C7  UNL     1     -32.463   9.331   0.386  1.00 20.00     0.113 C 
HETATM    8  C2  UNL     1     -32.694  10.832   0.296  1.00 20.00     0.039 C 
HETATM    9  C3  UNL     1     -31.157   8.919  -0.277  1.00 20.00     0.039 C 
ENDBRANCH   6   7
ENDBRANCH   1   6
TORSDOF 4
ENDMDL
MODEL 4
REMARK VINA RESULT:      -1.3      0.805      1.340
REMARK  4 active torsions:
REMARK  status: ('A' for Active; 'I' for Inactive)
REMARK    1  A    between atoms: C4_4  and  C6_6 
REMARK    2  A    between atoms: C4_4  and  O8_8 
REMARK    3  A    between atoms: C5_5  and  C6_6 
REMARK    4  A    between atoms: C7_7  and  O8_8 
ROOT
HETATM    1  C4  UNL     1     -33.144   6.304   2.745  1.00 20.00     0.173 C 
ENDROOT
BRANCH   1   2
HETATM    2  C6  UNL     1     -34.434   6.567   3.532  1.00 20.00     0.019 C 
HETATM    3  C1  UNL     1     -34.218   7.693   4.545  1.00 20.00     0.013 C 
BRANCH   2   4
HETATM    4  C5  UNL     1     -35.007   5.299   4.184  1.00 20.00     0.121 C 
HETATM    5 CL9  UNL     1     -33.885   3.917   4.162  1.00 20.00    -0.130 Cl
ENDBRANCH   2   4
ENDBRANCH   1   2
BRANCH   1   6
HETATM    6  O8  UNL     1     -33.129   7.043   1.530  1.00 20.00    -0.386 OA
BRANCH   6   7
HETATM    7  C7  UNL     1     -31.964   7.850   1.424  1.00 20.00     0.113 C 
HETATM    8  C2  UNL     1     -32.283   9.083   0.593  1.00 20.00     0.039 C 
HETATM    9  C3  UNL     1     -31.480   8.216   2.819  1.00 20.00     0.039 C 
ENDBRANCH   6   7
ENDBRANCH   1   6
TORSDOF 4
ENDMDL
MODEL 5
REMARK VINA RESULT:      -1.3      1.588      2.653
REMARK  4 active torsions:
REMARK  status: ('A' for Active; 'I' for Inactive)
REMARK    1  A    between atoms: C4_4  and  C6_6 
REMARK    2  A    between atoms: C4_4  and  O8_8 
REMARK    3  A    between atoms: C5_5  and  C6_6 
REMARK    4  A    between atoms: C7_7  and  O8_8 
ROOT
HETATM    1  C4  UNL     1     -32.188   8.339   2.440  1.00 20.00     0.173 C 
ENDROOT
BRANCH   1   2
HETATM    2  C6  UNL     1     -32.910   7.090   2.962  1.00 20.00     0.019 C 
HETATM    3  C1  UNL     1     -33.207   6.127   1.811  1.00 20.00     0.013 C 
BRANCH   2   4
HETATM    4  C5  UNL     1     -34.166   7.423   3.783  1.00 20.00     0.121 C 
HETATM    5 CL9  UNL     1     -35.254   6.033   4.016  1.00 20.00    -0.130 Cl
ENDBRANCH   2   4
ENDBRANCH   1   2
BRANCH   1   6
HETATM    6  O8  UNL     1     -32.064   8.300   1.024  1.00 20.00    -0.386 OA
BRANCH   6   7
HETATM    7  C7  UNL     1     -32.054   9.606   0.465  1.00 20.00     0.113 C 
HETATM    8  C2  UNL     1     -32.645   9.557  -0.936  1.00 20.00     0.039 C 
HETATM    9  C3  UNL     1     -32.830  10.546   1.375  1.00 20.00     0.039 C 
ENDBRANCH   6   7
ENDBRANCH   1   6
TORSDOF 4
ENDMDL
MODEL 6
REMARK VINA RESULT:      -1.3      2.669      4.385
REMARK  4 active torsions:
REMARK  status: ('A' for Active; 'I' for Inactive)
REMARK    1  A    between atoms: C4_4  and  C6_6 
REMARK    2  A    between atoms: C4_4  and  O8_8 
REMARK    3  A    between atoms: C5_5  and  C6_6 
REMARK    4  A    between atoms: C7_7  and  O8_8 
ROOT
HETATM    1  C4  UNL     1     -33.022   6.677   1.644  1.00 20.00     0.173 C 
ENDROOT
BRANCH   1   2
HETATM    2  C6  UNL     1     -31.900   7.722   1.672  1.00 20.00     0.019 C 
HETATM    3  C1  UNL     1     -31.997   8.573   2.939  1.00 20.00     0.013 C 
BRANCH   2   4
HETATM    4  C5  UNL     1     -31.847   8.579   0.397  1.00 20.00     0.121 C 
HETATM    5 CL9  UNL     1     -32.673  10.148   0.558  1.00 20.00    -0.130 Cl
ENDBRANCH   2   4
ENDBRANCH   1   2
BRANCH   1   6
HETATM    6  O8  UNL     1     -32.952   5.824   2.780  1.00 20.00    -0.386 OA
BRANCH   6   7
HETATM    7  C7  UNL     1     -34.245   5.436   3.221  1.00 20.00     0.113 C 
HETATM    8  C2  UNL     1     -34.125   4.197   4.096  1.00 20.00     0.039 C 
HETATM    9  C3  UNL     1     -34.889   6.595   3.967  1.00 20.00     0.039 C 
ENDBRANCH   6   7
ENDBRANCH   1   6
TORSDOF 4
ENDMDL
MODEL 7
REMARK VINA RESULT:      -1.1      1.289      2.040
REMARK  4 active torsions:
REMARK  status: ('A' for Active; 'I' for Inactive)
REMARK    1  A    between atoms: C4_4  and  C6_6 
REMARK    2  A    between atoms: C4_4  and  O8_8 
REMARK    3  A    between atoms: C5_5  and  C6_6 
REMARK    4  A    between atoms: C7_7  and  O8_8 
ROOT
HETATM    1  C4  UNL     1     -32.464   7.225   2.154  1.00 20.00     0.173 C 
ENDROOT
BRANCH   1   2
HETATM    2  C6  UNL     1     -33.772   7.057   2.938  1.00 20.00     0.019 C 
HETATM    3  C1  UNL     1     -33.769   7.956   4.176  1.00 20.00     0.013 C 
BRANCH   2   4
HETATM    4  C5  UNL     1     -34.081   5.591   3.282  1.00 20.00     0.121 C 
HETATM    5 CL9  UNL     1     -35.430   5.398   4.428  1.00 20.00    -0.130 Cl
ENDBRANCH   2   4
ENDBRANCH   1   2
BRANCH   1   6
HETATM    6  O8  UNL     1     -32.146   8.600   1.983  1.00 20.00    -0.386 OA
BRANCH   6   7
HETATM    7  C7  UNL     1     -32.386   9.029   0.650  1.00 20.00     0.113 C 
HETATM    8  C2  UNL     1     -32.724  10.513   0.655  1.00 20.00     0.039 C 
HETATM    9  C3  UNL     1     -31.161   8.731  -0.200  1.00 20.00     0.039 C 
ENDBRANCH   6   7
ENDBRANCH   1   6
TORSDOF 4
ENDMDL
MODEL 8
REMARK VINA RESULT:      -1.1      2.713      4.424
REMARK  4 active torsions:
REMARK  status: ('A' for Active; 'I' for Inactive)
REMARK    1  A    between atoms: C4_4  and  C6_6 
REMARK    2  A    between atoms: C4_4  and  O8_8 
REMARK    3  A    between atoms: C5_5  and  C6_6 
REMARK    4  A    between atoms: C7_7  and  O8_8 
ROOT
HETATM    1  C4  UNL     1     -33.032   6.908   1.630  1.00 20.00     0.173 C 
ENDROOT
BRANCH   1   2
HETATM    2  C6  UNL     1     -32.042   8.057   1.399  1.00 20.00     0.019 C 
HETATM    3  C1  UNL     1     -31.072   8.168   2.577  1.00 20.00     0.013 C 
BRANCH   2   4
HETATM    4  C5  UNL     1     -32.735   9.392   1.087  1.00 20.00     0.121 C 
HETATM    5 CL9  UNL     1     -32.649   9.855  -0.630  1.00 20.00    -0.130 Cl
ENDBRANCH   2   4
ENDBRANCH   1   2
BRANCH   1   6
HETATM    6  O8  UNL     1     -33.123   6.584   3.011  1.00 20.00    -0.386 OA
BRANCH   6   7
HETATM    7  C7  UNL     1     -34.261   7.184   3.613  1.00 20.00     0.113 C 
HETATM    8  C2  UNL     1     -35.250   6.097   4.008  1.00 20.00     0.039 C 
HETATM    9  C3  UNL     1     -33.817   8.008   4.812  1.00 20.00     0.039 C 
ENDBRANCH   6   7
ENDBRANCH   1   6
TORSDOF 4
ENDMDL
MODEL 9
REMARK VINA RESULT:      -1.0      2.519      4.610
REMARK  4 active torsions:
REMARK  status: ('A' for Active; 'I' for Inactive)
REMARK    1  A    between atoms: C4_4  and  C6_6 
REMARK    2  A    between atoms: C4_4  and  O8_8 
REMARK    3  A    between atoms: C5_5  and  C6_6 
REMARK    4  A    between atoms: C7_7  and  O8_8 
ROOT
HETATM    1  C4  UNL     1     -33.032   7.308   2.644  1.00 20.00     0.173 C 
ENDROOT
BRANCH   1   2
HETATM    2  C6  UNL     1     -32.434   7.182   1.236  1.00 20.00     0.019 C 
HETATM    3  C1  UNL     1     -31.775   5.813   1.058  1.00 20.00     0.013 C 
BRANCH   2   4
HETATM    4  C5  UNL     1     -31.485   8.338   0.883  1.00 20.00     0.121 C 
HETATM    5 CL9  UNL     1     -32.312   9.754   0.190  1.00 20.00    -0.130 Cl
ENDBRANCH   2   4
ENDBRANCH   1   2
BRANCH   1   6
HETATM    6  O8  UNL     1     -33.862   6.194   2.946  1.00 20.00    -0.386 OA
BRANCH   6   7
HETATM    7  C7  UNL     1     -34.888   6.541   3.864  1.00 20.00     0.113 C 
HETATM    8  C2  UNL     1     -35.337   5.293   4.610  1.00 20.00     0.039 C 
HETATM    9  C3  UNL     1     -34.370   7.611   4.813  1.00 20.00     0.039 C 
ENDBRANCH   6   7
ENDBRANCH   1   6
TORSDOF 4
ENDMDL
