MODEL 1
REMARK VINA RESULT:      -1.0      0.000      0.000
REMARK  0 active torsions:
REMARK  status: ('A' for Active; 'I' for Inactive)
ROOT
HETATM    1  C1  UNL     1     -33.871   3.969   4.207  1.00 20.00     0.088 C 
HETATM    2  C2  UNL     1     -33.717   6.145   3.188  1.00 20.00    -0.046 C 
HETATM    3  C3  UNL     1     -34.087   5.369   4.216  1.00 20.00     0.098 C 
HETATM    4  C4  UNL     1     -33.935   7.634   3.172  1.00 20.00     0.039 C 
HETATM    5  C5  UNL     1     -33.026   5.605   1.968  1.00 20.00     0.202 C 
HETATM    6  C6  UNL     1     -32.637   8.343   2.786  1.00 20.00     0.030 C 
HETATM    7  C7  UNL     1     -32.022   7.716   1.538  1.00 20.00     0.168 C 
HETATM    8  N8  UNL     1     -33.697   2.821   4.207  1.00 20.00    -0.192 NA
HETATM    9  O9  UNL     1     -31.805   6.317   1.736  1.00 20.00    -0.387 OA
ENDROOT
TORSDOF 0
ENDMDL
MODEL 2
REMARK VINA RESULT:      -0.8      3.070      4.334
REMARK  0 active torsions:
REMARK  status: ('A' for Active; 'I' for Inactive)
ROOT
HETATM    1  C1  UNL     1     -32.349   9.520   0.538  1.00 20.00     0.088 C 
HETATM    2  C2  UNL     1     -32.821   8.016   2.358  1.00 20.00    -0.046 C 
HETATM    3  C3  UNL     1     -32.893   9.239   1.815  1.00 20.00     0.098 C 
HETATM    4  C4  UNL     1     -33.390   7.691   3.712  1.00 20.00     0.039 C 
HETATM    5  C5  UNL     1     -32.190   6.848   1.653  1.00 20.00     0.202 C 
HETATM    6  C6  UNL     1     -34.255   6.434   3.623  1.00 20.00     0.030 C 
HETATM    7  C7  UNL     1     -33.520   5.315   2.891  1.00 20.00     0.168 C 
HETATM    8  N8  UNL     1     -31.905   9.756  -0.509  1.00 20.00    -0.192 NA
HETATM    9  O9  UNL     1     -33.110   5.752   1.593  1.00 20.00    -0.387 OA
ENDROOT
TORSDOF 0
ENDMDL
MODEL 3
REMARK VINA RESULT:      -0.4      1.317      1.520
REMARK  0 active torsions:
REMARK  status: ('A' for Active; 'I' for Inactive)
ROOT
HETATM    1  C1  UNL     1     -34.994   5.754   4.295  1.00 20.00     0.088 C 
HETATM    2  C2  UNL     1     -33.688   7.116   2.799  1.00 20.00    -0.046 C 
HETATM    3  C3  UNL     1     -34.404   6.988   3.925  1.00 20.00     0.098 C 
HETATM    4  C4  UNL     1     -33.052   8.414   2.383  1.00 20.00     0.039 C 
HETATM    5  C5  UNL     1     -33.430   5.969   1.863  1.00 20.00     0.202 C 
HETATM    6  C6  UNL     1     -31.586   8.180   2.021  1.00 20.00     0.030 C 
HETATM    7  C7  UNL     1     -31.439   6.996   1.069  1.00 20.00     0.168 C 
HETATM    8  N8  UNL     1     -35.479   4.746   4.606  1.00 20.00    -0.192 NA
HETATM    9  O9  UNL     1     -32.024   5.822   1.638  1.00 20.00    -0.387 OA
ENDROOT
TORSDOF 0
ENDMDL
MODEL 4
REMARK VINA RESULT:      -0.2      2.815      4.209
REMARK  0 active torsions:
REMARK  status: ('A' for Active; 'I' for Inactive)
ROOT
HETATM    1  C1  UNL     1     -32.146   7.828   1.603  1.00 20.00     0.088 C 
HETATM    2  C2  UNL     1     -33.434   5.986   2.466  1.00 20.00    -0.046 C 
HETATM    3  C3  UNL     1     -32.317   6.451   1.889  1.00 20.00     0.098 C 
HETATM    4  C4  UNL     1     -33.640   4.529   2.781  1.00 20.00     0.039 C 
HETATM    5  C5  UNL     1     -34.569   6.879   2.880  1.00 20.00     0.202 C 
HETATM    6  C6  UNL     1     -34.104   4.372   4.229  1.00 20.00     0.030 C 
HETATM    7  C7  UNL     1     -35.257   5.322   4.540  1.00 20.00     0.168 C 
HETATM    8  N8  UNL     1     -31.999   8.955   1.366  1.00 20.00    -0.192 NA
HETATM    9  O9  UNL     1     -34.880   6.673   4.263  1.00 20.00    -0.387 OA
ENDROOT
TORSDOF 0
ENDMDL
MODEL 5
REMARK VINA RESULT:      -0.1      2.383      3.489
REMARK  0 active torsions:
REMARK  status: ('A' for Active; 'I' for Inactive)
ROOT
HETATM    1  C1  UNL     1     -32.074   5.320   0.989  1.00 20.00     0.088 C 
HETATM    2  C2  UNL     1     -33.405   6.035   2.864  1.00 20.00    -0.046 C 
HETATM    3  C3  UNL     1     -32.858   6.286   1.667  1.00 20.00     0.098 C 
HETATM    4  C4  UNL     1     -34.242   7.043   3.604  1.00 20.00     0.039 C 
HETATM    5  C5  UNL     1     -33.259   4.713   3.565  1.00 20.00     0.202 C 
HETATM    6  C6  UNL     1     -35.548   6.395   4.062  1.00 20.00     0.030 C 
HETATM    7  C7  UNL     1     -35.284   5.063   4.760  1.00 20.00     0.168 C 
HETATM    8  N8  UNL     1     -31.431   4.532   0.428  1.00 20.00    -0.192 NA
HETATM    9  O9  UNL     1     -34.548   4.188   3.902  1.00 20.00    -0.387 OA
ENDROOT
TORSDOF 0
ENDMDL
MODEL 6
REMARK VINA RESULT:       1.0      2.416      3.473
REMARK  0 active torsions:
REMARK  status: ('A' for Active; 'I' for Inactive)
ROOT
HETATM    1  C1  UNL     1     -33.533   6.504   2.833  1.00 20.00     0.088 C 
HETATM    2  C2  UNL     1     -32.263   8.018   1.458  1.00 20.00    -0.046 C 
HETATM    3  C3  UNL     1     -32.632   6.769   1.773  1.00 20.00     0.098 C 
HETATM    4  C4  UNL     1     -31.308   8.326   0.337  1.00 20.00     0.039 C 
HETATM    5  C5  UNL     1     -32.793   9.229   2.175  1.00 20.00     0.202 C 
HETATM    6  C6  UNL     1     -31.896   9.415  -0.560  1.00 20.00     0.030 C 
HETATM    7  C7  UNL     1     -32.401  10.593   0.268  1.00 20.00     0.168 C 
HETATM    8  N8  UNL     1     -34.273   6.280   3.700  1.00 20.00    -0.192 NA
HETATM    9  O9  UNL     1     -33.356  10.151   1.236  1.00 20.00    -0.387 OA
ENDROOT
TORSDOF 0
ENDMDL
MODEL 7
REMARK VINA RESULT:       1.4      1.604      2.125
REMARK  0 active torsions:
REMARK  status: ('A' for Active; 'I' for Inactive)
ROOT
HETATM    1  C1  UNL     1     -34.841   4.987   4.029  1.00 20.00     0.088 C 
HETATM    2  C2  UNL     1     -33.026   5.942   2.769  1.00 20.00    -0.046 C 
HETATM    3  C3  UNL     1     -33.856   4.919   3.013  1.00 20.00     0.098 C 
HETATM    4  C4  UNL     1     -31.971   5.895   1.696  1.00 20.00     0.039 C 
HETATM    5  C5  UNL     1     -33.090   7.241   3.522  1.00 20.00     0.202 C 
HETATM    6  C6  UNL     1     -32.057   7.152   0.831  1.00 20.00     0.030 C 
HETATM    7  C7  UNL     1     -32.116   8.409   1.695  1.00 20.00     0.168 C 
HETATM    8  N8  UNL     1     -35.652   5.036   4.859  1.00 20.00    -0.192 NA
HETATM    9  O9  UNL     1     -33.214   8.336   2.608  1.00 20.00    -0.387 OA
ENDROOT
TORSDOF 0
ENDMDL
MODEL 8
REMARK VINA RESULT:       1.5      2.187      2.775
REMARK  0 active torsions:
REMARK  status: ('A' for Active; 'I' for Inactive)
ROOT
HETATM    1  C1  UNL     1     -32.346   5.031   1.105  1.00 20.00     0.088 C 
HETATM    2  C2  UNL     1     -33.352   6.638   2.590  1.00 20.00    -0.046 C 
HETATM    3  C3  UNL     1     -33.324   5.408   2.059  1.00 20.00     0.098 C 
HETATM    4  C4  UNL     1     -34.378   7.063   3.605  1.00 20.00     0.039 C 
HETATM    5  C5  UNL     1     -32.343   7.697   2.244  1.00 20.00     0.202 C 
HETATM    6  C6  UNL     1     -33.685   7.725   4.796  1.00 20.00     0.030 C 
HETATM    7  C7  UNL     1     -32.687   8.781   4.332  1.00 20.00     0.168 C 
HETATM    8  N8  UNL     1     -31.548   4.715   0.324  1.00 20.00    -0.192 NA
HETATM    9  O9  UNL     1     -31.733   8.206   3.435  1.00 20.00    -0.387 OA
ENDROOT
TORSDOF 0
ENDMDL
MODEL 9
REMARK VINA RESULT:       1.7      2.230      3.122
REMARK  0 active torsions:
REMARK  status: ('A' for Active; 'I' for Inactive)
ROOT
HETATM    1  C1  UNL     1     -33.109   4.958   0.326  1.00 20.00     0.088 C 
HETATM    2  C2  UNL     1     -33.019   6.347   2.291  1.00 20.00    -0.046 C 
HETATM    3  C3  UNL     1     -32.699   6.131   1.007  1.00 20.00     0.098 C 
HETATM    4  C4  UNL     1     -32.596   7.584   3.038  1.00 20.00     0.039 C 
HETATM    5  C5  UNL     1     -33.853   5.390   3.095  1.00 20.00     0.202 C 
HETATM    6  C6  UNL     1     -33.803   8.199   3.745  1.00 20.00     0.030 C 
HETATM    7  C7  UNL     1     -34.576   7.142   4.529  1.00 20.00     0.168 C 
HETATM    8  N8  UNL     1     -33.442   4.000  -0.239  1.00 20.00    -0.192 NA
HETATM    9  O9  UNL     1     -34.973   6.072   3.668  1.00 20.00    -0.387 OA
ENDROOT
TORSDOF 0
ENDMDL
