MODEL 1
REMARK VINA RESULT:      -2.2      0.000      0.000
REMARK  3 active torsions:
REMARK  status: ('A' for Active; 'I' for Inactive)
REMARK    1  A    between atoms: C3_3  and  C5_5 
REMARK    2  A    between atoms: C3_3  and  O6_6 
REMARK    3  A    between atoms: C4_4  and  C5_5 
ROOT
HETATM    1  C1  UNL     1     -32.493   5.760   1.463  1.00 20.00     0.013 C 
HETATM    2  C5  UNL     1     -32.926   7.181   1.831  1.00 20.00     0.019 C 
ENDROOT
BRANCH   2   3
HETATM    3  C3  UNL     1     -33.458   7.219   3.270  1.00 20.00     0.172 C 
BRANCH   3   4
HETATM    4  O6  UNL     1     -34.091   5.992   3.610  1.00 20.00    -0.396 OA
HETATM    5  C2  UNL     1     -35.422   6.200   4.063  1.00 20.00     0.201 C 
ENDBRANCH   3   4
ENDBRANCH   2   3
BRANCH   2   6
HETATM    6  C4  UNL     1     -31.817   8.214   1.574  1.00 20.00     0.121 C 
HETATM    7 CL7  UNL     1     -32.297   9.509   0.450  1.00 20.00    -0.130 Cl
ENDBRANCH   2   6
TORSDOF 3
ENDMDL
MODEL 2
REMARK VINA RESULT:      -2.2      2.736      3.733
REMARK  3 active torsions:
REMARK  status: ('A' for Active; 'I' for Inactive)
REMARK    1  A    between atoms: C3_3  and  C5_5 
REMARK    2  A    between atoms: C3_3  and  O6_6 
REMARK    3  A    between atoms: C4_4  and  C5_5 
ROOT
HETATM    1  C1  UNL     1     -32.868   5.842   1.493  1.00 20.00     0.013 C 
HETATM    2  C5  UNL     1     -32.385   7.088   2.239  1.00 20.00     0.019 C 
ENDROOT
BRANCH   2   3
HETATM    3  C3  UNL     1     -31.786   8.101   1.254  1.00 20.00     0.172 C 
BRANCH   3   4
HETATM    4  O6  UNL     1     -32.535   9.310   1.252  1.00 20.00    -0.396 OA
HETATM    5  C2  UNL     1     -32.494   9.946  -0.019  1.00 20.00     0.201 C 
ENDBRANCH   3   4
ENDBRANCH   2   3
BRANCH   2   6
HETATM    6  C4  UNL     1     -33.481   7.695   3.131  1.00 20.00     0.121 C 
HETATM    7 CL7  UNL     1     -34.626   6.491   3.770  1.00 20.00    -0.130 Cl
ENDBRANCH   2   6
TORSDOF 3
ENDMDL
MODEL 3
REMARK VINA RESULT:      -2.0      1.642      2.537
REMARK  3 active torsions:
REMARK  status: ('A' for Active; 'I' for Inactive)
REMARK    1  A    between atoms: C3_3  and  C5_5 
REMARK    2  A    between atoms: C3_3  and  O6_6 
REMARK    3  A    between atoms: C4_4  and  C5_5 
ROOT
HETATM    1  C1  UNL     1     -33.860   7.951   4.228  1.00 20.00     0.013 C 
HETATM    2  C5  UNL     1     -33.864   6.550   3.614  1.00 20.00     0.019 C 
ENDROOT
BRANCH   2   3
HETATM    3  C3  UNL     1     -35.253   5.912   3.752  1.00 20.00     0.172 C 
BRANCH   3   4
HETATM    4  O6  UNL     1     -35.195   4.736   4.549  1.00 20.00    -0.396 OA
HETATM    5  C2  UNL     1     -34.019   3.983   4.283  1.00 20.00     0.201 C 
ENDBRANCH   3   4
ENDBRANCH   2   3
BRANCH   2   6
HETATM    6  C4  UNL     1     -33.343   6.545   2.168  1.00 20.00     0.121 C 
HETATM    7 CL7  UNL     1     -32.094   7.775   1.857  1.00 20.00    -0.130 Cl
ENDBRANCH   2   6
TORSDOF 3
ENDMDL
MODEL 4
REMARK VINA RESULT:      -2.0      2.878      4.214
REMARK  3 active torsions:
REMARK  status: ('A' for Active; 'I' for Inactive)
REMARK    1  A    between atoms: C3_3  and  C5_5 
REMARK    2  A    between atoms: C3_3  and  O6_6 
REMARK    3  A    between atoms: C4_4  and  C5_5 
ROOT
HETATM    1  C1  UNL     1     -34.195   7.735   4.699  1.00 20.00     0.013 C 
HETATM    2  C5  UNL     1     -34.604   6.713   3.636  1.00 20.00     0.019 C 
ENDROOT
BRANCH   2   3
HETATM    3  C3  UNL     1     -33.467   6.511   2.626  1.00 20.00     0.172 C 
BRANCH   3   4
HETATM    4  O6  UNL     1     -32.632   7.661   2.564  1.00 20.00    -0.396 OA
HETATM    5  C2  UNL     1     -31.804   7.642   1.410  1.00 20.00     0.201 C 
ENDBRANCH   3   4
ENDBRANCH   2   3
BRANCH   2   6
HETATM    6  C4  UNL     1     -35.099   5.395   4.253  1.00 20.00     0.121 C 
HETATM    7 CL7  UNL     1     -33.945   4.050   4.081  1.00 20.00    -0.130 Cl
ENDBRANCH   2   6
TORSDOF 3
ENDMDL
MODEL 5
REMARK VINA RESULT:      -1.7      2.950      3.870
REMARK  3 active torsions:
REMARK  status: ('A' for Active; 'I' for Inactive)
REMARK    1  A    between atoms: C3_3  and  C5_5 
REMARK    2  A    between atoms: C3_3  and  O6_6 
REMARK    3  A    between atoms: C4_4  and  C5_5 
ROOT
HETATM    1  C1  UNL     1     -32.979   5.870   1.604  1.00 20.00     0.013 C 
HETATM    2  C5  UNL     1     -33.005   6.783   2.832  1.00 20.00     0.019 C 
ENDROOT
BRANCH   2   3
HETATM    3  C3  UNL     1     -32.577   8.205   2.448  1.00 20.00     0.172 C 
BRANCH   3   4
HETATM    4  O6  UNL     1     -32.043   8.236   1.130  1.00 20.00    -0.396 OA
HETATM    5  C2  UNL     1     -32.217   9.511   0.527  1.00 20.00     0.201 C 
ENDBRANCH   3   4
ENDBRANCH   2   3
BRANCH   2   6
HETATM    6  C4  UNL     1     -34.357   6.740   3.562  1.00 20.00     0.121 C 
HETATM    7 CL7  UNL     1     -34.791   5.122   4.164  1.00 20.00    -0.130 Cl
ENDBRANCH   2   6
TORSDOF 3
ENDMDL
MODEL 6
REMARK VINA RESULT:      -1.6      2.503      3.666
REMARK  3 active torsions:
REMARK  status: ('A' for Active; 'I' for Inactive)
REMARK    1  A    between atoms: C3_3  and  C5_5 
REMARK    2  A    between atoms: C3_3  and  O6_6 
REMARK    3  A    between atoms: C4_4  and  C5_5 
ROOT
HETATM    1  C1  UNL     1     -33.896   7.670   3.832  1.00 20.00     0.013 C 
HETATM    2  C5  UNL     1     -33.354   7.292   2.452  1.00 20.00     0.019 C 
ENDROOT
BRANCH   2   3
HETATM    3  C3  UNL     1     -32.072   8.079   2.149  1.00 20.00     0.172 C 
BRANCH   3   4
HETATM    4  O6  UNL     1     -32.035   8.485   0.787  1.00 20.00    -0.396 OA
HETATM    5  C2  UNL     1     -32.485   9.824   0.629  1.00 20.00     0.201 C 
ENDBRANCH   3   4
ENDBRANCH   2   3
BRANCH   2   6
HETATM    6  C4  UNL     1     -33.177   5.773   2.290  1.00 20.00     0.121 C 
HETATM    7 CL7  UNL     1     -31.931   5.324   1.100  1.00 20.00    -0.130 Cl
ENDBRANCH   2   6
TORSDOF 3
ENDMDL
MODEL 7
REMARK VINA RESULT:      -1.6      2.914      3.962
REMARK  3 active torsions:
REMARK  status: ('A' for Active; 'I' for Inactive)
REMARK    1  A    between atoms: C3_3  and  C5_5 
REMARK    2  A    between atoms: C3_3  and  O6_6 
REMARK    3  A    between atoms: C4_4  and  C5_5 
ROOT
HETATM    1  C1  UNL     1     -34.172   7.447   4.002  1.00 20.00     0.013 C 
HETATM    2  C5  UNL     1     -33.528   7.196   2.636  1.00 20.00     0.019 C 
ENDROOT
BRANCH   2   3
HETATM    3  C3  UNL     1     -32.290   8.086   2.459  1.00 20.00     0.172 C 
BRANCH   3   4
HETATM    4  O6  UNL     1     -31.955   8.220   1.084  1.00 20.00    -0.396 OA
HETATM    5  C2  UNL     1     -32.333   9.492   0.576  1.00 20.00     0.201 C 
ENDBRANCH   3   4
ENDBRANCH   2   3
BRANCH   2   6
HETATM    6  C4  UNL     1     -33.236   5.707   2.394  1.00 20.00     0.121 C 
HETATM    7 CL7  UNL     1     -33.873   4.639   3.669  1.00 20.00    -0.130 Cl
ENDBRANCH   2   6
TORSDOF 3
ENDMDL
MODEL 8
REMARK VINA RESULT:      -1.5      2.448      3.495
REMARK  3 active torsions:
REMARK  status: ('A' for Active; 'I' for Inactive)
REMARK    1  A    between atoms: C3_3  and  C5_5 
REMARK    2  A    between atoms: C3_3  and  O6_6 
REMARK    3  A    between atoms: C4_4  and  C5_5 
ROOT
HETATM    1  C1  UNL     1     -33.929   4.213   3.722  1.00 20.00     0.013 C 
HETATM    2  C5  UNL     1     -33.579   5.655   3.345  1.00 20.00     0.019 C 
ENDROOT
BRANCH   2   3
HETATM    3  C3  UNL     1     -33.260   5.751   1.847  1.00 20.00     0.172 C 
BRANCH   3   4
HETATM    4  O6  UNL     1     -31.961   6.293   1.640  1.00 20.00    -0.396 OA
HETATM    5  C2  UNL     1     -31.980   7.714   1.654  1.00 20.00     0.201 C 
ENDBRANCH   3   4
ENDBRANCH   2   3
BRANCH   2   6
HETATM    6  C4  UNL     1     -34.659   6.653   3.793  1.00 20.00     0.121 C 
HETATM    7 CL7  UNL     1     -34.008   8.062   4.666  1.00 20.00    -0.130 Cl
ENDBRANCH   2   6
TORSDOF 3
ENDMDL
MODEL 9
REMARK VINA RESULT:      -1.5      1.848      2.296
REMARK  3 active torsions:
REMARK  status: ('A' for Active; 'I' for Inactive)
REMARK    1  A    between atoms: C3_3  and  C5_5 
REMARK    2  A    between atoms: C3_3  and  O6_6 
REMARK    3  A    between atoms: C4_4  and  C5_5 
ROOT
HETATM    1  C1  UNL     1     -32.106   8.437   1.431  1.00 20.00     0.013 C 
HETATM    2  C5  UNL     1     -32.402   7.132   2.171  1.00 20.00     0.019 C 
ENDROOT
BRANCH   2   3
HETATM    3  C3  UNL     1     -33.462   7.363   3.257  1.00 20.00     0.172 C 
BRANCH   3   4
HETATM    4  O6  UNL     1     -34.074   6.137   3.638  1.00 20.00    -0.396 OA
HETATM    5  C2  UNL     1     -35.432   6.326   4.010  1.00 20.00     0.201 C 
ENDBRANCH   3   4
ENDBRANCH   2   3
BRANCH   2   6
HETATM    6  C4  UNL     1     -32.766   5.986   1.212  1.00 20.00     0.121 C 
HETATM    7 CL7  UNL     1     -31.454   4.805   0.983  1.00 20.00    -0.130 Cl
ENDBRANCH   2   6
TORSDOF 3
ENDMDL
