MODEL 1
REMARK VINA RESULT:       0.1      0.000      0.000
REMARK  0 active torsions:
REMARK  status: ('A' for Active; 'I' for Inactive)
ROOT
HETATM    1  C1  UNL     1     -32.474   9.008   0.905  1.00 20.00     0.087 C 
HETATM    2  C2  UNL     1     -34.054   7.292   3.941  1.00 20.00     0.029 C 
HETATM    3  C3  UNL     1     -33.766   8.394   2.922  1.00 20.00     0.045 C 
HETATM    4  C4  UNL     1     -34.130   5.936   3.256  1.00 20.00     0.167 C 
HETATM    5  C5  UNL     1     -32.718   6.616   1.473  1.00 20.00     0.208 C 
HETATM    6  C6  UNL     1     -32.581   8.045   2.012  1.00 20.00     0.146 C 
HETATM    7  N7  UNL     1     -32.391   9.767   0.033  1.00 20.00    -0.195 NA
HETATM    8  O8  UNL     1     -32.933   5.672   2.526  1.00 20.00    -0.388 OA
HETATM    9 CL9  UNL     1     -31.045   8.175   2.940  1.00 20.00    -0.101 Cl
ENDROOT
TORSDOF 0
ENDMDL
MODEL 2
REMARK VINA RESULT:       0.6      3.185      3.939
REMARK  0 active torsions:
REMARK  status: ('A' for Active; 'I' for Inactive)
ROOT
HETATM    1  C1  UNL     1     -34.069   4.825   3.990  1.00 20.00     0.087 C 
HETATM    2  C2  UNL     1     -32.751   8.357   3.322  1.00 20.00     0.029 C 
HETATM    3  C3  UNL     1     -33.137   7.112   4.119  1.00 20.00     0.045 C 
HETATM    4  C4  UNL     1     -32.096   7.967   2.005  1.00 20.00     0.167 C 
HETATM    5  C5  UNL     1     -33.211   5.874   1.923  1.00 20.00     0.208 C 
HETATM    6  C6  UNL     1     -33.913   6.098   3.268  1.00 20.00     0.146 C 
HETATM    7  N7  UNL     1     -34.191   3.822   4.558  1.00 20.00    -0.195 NA
HETATM    8  O8  UNL     1     -32.950   7.109   1.251  1.00 20.00    -0.388 OA
HETATM    9 CL9  UNL     1     -35.578   6.709   2.964  1.00 20.00    -0.101 Cl
ENDROOT
TORSDOF 0
ENDMDL
MODEL 3
REMARK VINA RESULT:       1.1      2.251      2.853
REMARK  0 active torsions:
REMARK  status: ('A' for Active; 'I' for Inactive)
ROOT
HETATM    1  C1  UNL     1     -32.335   7.304   2.118  1.00 20.00     0.087 C 
HETATM    2  C2  UNL     1     -34.058   4.292   3.736  1.00 20.00     0.029 C 
HETATM    3  C3  UNL     1     -32.925   5.142   3.163  1.00 20.00     0.045 C 
HETATM    4  C4  UNL     1     -35.017   5.153   4.544  1.00 20.00     0.167 C 
HETATM    5  C5  UNL     1     -34.485   7.117   3.323  1.00 20.00     0.208 C 
HETATM    6  C6  UNL     1     -33.446   6.399   2.453  1.00 20.00     0.146 C 
HETATM    7  N7  UNL     1     -31.460   8.017   1.854  1.00 20.00    -0.195 NA
HETATM    8  O8  UNL     1     -35.519   6.229   3.753  1.00 20.00    -0.388 OA
HETATM    9 CL9  UNL     1     -34.208   5.940   0.889  1.00 20.00    -0.101 Cl
ENDROOT
TORSDOF 0
ENDMDL
MODEL 4
REMARK VINA RESULT:       1.4      2.700      3.225
REMARK  0 active torsions:
REMARK  status: ('A' for Active; 'I' for Inactive)
ROOT
HETATM    1  C1  UNL     1     -31.882   5.035   1.110  1.00 20.00     0.087 C 
HETATM    2  C2  UNL     1     -34.451   6.406   3.595  1.00 20.00     0.029 C 
HETATM    3  C3  UNL     1     -33.589   5.376   2.866  1.00 20.00     0.045 C 
HETATM    4  C4  UNL     1     -33.657   7.676   3.863  1.00 20.00     0.167 C 
HETATM    5  C5  UNL     1     -32.205   7.309   2.022  1.00 20.00     0.208 C 
HETATM    6  C6  UNL     1     -32.873   5.979   1.650  1.00 20.00     0.146 C 
HETATM    7  N7  UNL     1     -31.101   4.291   0.685  1.00 20.00    -0.195 NA
HETATM    8  O8  UNL     1     -33.125   8.204   2.650  1.00 20.00    -0.388 OA
HETATM    9 CL9  UNL     1     -34.060   6.270   0.329  1.00 20.00    -0.101 Cl
ENDROOT
TORSDOF 0
ENDMDL
MODEL 5
REMARK VINA RESULT:       1.6      1.384      1.514
REMARK  0 active torsions:
REMARK  status: ('A' for Active; 'I' for Inactive)
ROOT
HETATM    1  C1  UNL     1     -32.736   8.147   1.879  1.00 20.00     0.087 C 
HETATM    2  C2  UNL     1     -35.358   6.418   4.067  1.00 20.00     0.029 C 
HETATM    3  C3  UNL     1     -34.769   7.439   3.094  1.00 20.00     0.045 C 
HETATM    4  C4  UNL     1     -34.831   5.023   3.764  1.00 20.00     0.167 C 
HETATM    5  C5  UNL     1     -32.833   5.852   2.789  1.00 20.00     0.208 C 
HETATM    6  C6  UNL     1     -33.244   7.317   2.982  1.00 20.00     0.146 C 
HETATM    7  N7  UNL     1     -32.336   8.801   1.009  1.00 20.00    -0.195 NA
HETATM    8  O8  UNL     1     -33.405   5.006   3.789  1.00 20.00    -0.388 OA
HETATM    9 CL9  UNL     1     -32.473   7.948   4.480  1.00 20.00    -0.101 Cl
ENDROOT
TORSDOF 0
ENDMDL
MODEL 6
REMARK VINA RESULT:       1.9      2.678      3.661
REMARK  0 active torsions:
REMARK  status: ('A' for Active; 'I' for Inactive)
ROOT
HETATM    1  C1  UNL     1     -34.615   6.747   3.702  1.00 20.00     0.087 C 
HETATM    2  C2  UNL     1     -31.494   7.489   1.612  1.00 20.00     0.029 C 
HETATM    3  C3  UNL     1     -32.558   6.661   2.333  1.00 20.00     0.045 C 
HETATM    4  C4  UNL     1     -32.127   8.685   0.917  1.00 20.00     0.167 C 
HETATM    5  C5  UNL     1     -33.954   8.760   2.429  1.00 20.00     0.208 C 
HETATM    6  C6  UNL     1     -33.471   7.530   3.208  1.00 20.00     0.146 C 
HETATM    7  N7  UNL     1     -35.517   6.131   4.091  1.00 20.00    -0.195 NA
HETATM    8  O8  UNL     1     -32.864   9.477   1.846  1.00 20.00    -0.388 OA
HETATM    9 CL9  UNL     1     -32.571   8.078   4.667  1.00 20.00    -0.101 Cl
ENDROOT
TORSDOF 0
ENDMDL
MODEL 7
REMARK VINA RESULT:       2.1      2.576      3.758
REMARK  0 active torsions:
REMARK  status: ('A' for Active; 'I' for Inactive)
ROOT
HETATM    1  C1  UNL     1     -33.565   7.292   3.156  1.00 20.00     0.087 C 
HETATM    2  C2  UNL     1     -31.269   8.459   0.323  1.00 20.00     0.029 C 
HETATM    3  C3  UNL     1     -31.997   7.490   1.255  1.00 20.00     0.045 C 
HETATM    4  C4  UNL     1     -32.183   9.609  -0.073  1.00 20.00     0.167 C 
HETATM    5  C5  UNL     1     -33.490   9.418   1.899  1.00 20.00     0.208 C 
HETATM    6  C6  UNL     1     -32.691   8.215   2.415  1.00 20.00     0.146 C 
HETATM    7  N7  UNL     1     -34.255   6.565   3.739  1.00 20.00    -0.195 NA
HETATM    8  O8  UNL     1     -32.687  10.275   1.084  1.00 20.00    -0.388 OA
HETATM    9 CL9  UNL     1     -31.459   8.792   3.593  1.00 20.00    -0.101 Cl
ENDROOT
TORSDOF 0
ENDMDL
MODEL 8
REMARK VINA RESULT:       2.7      2.794      3.763
REMARK  0 active torsions:
REMARK  status: ('A' for Active; 'I' for Inactive)
ROOT
HETATM    1  C1  UNL     1     -34.996   6.182   3.648  1.00 20.00     0.087 C 
HETATM    2  C2  UNL     1     -32.263   6.716   1.022  1.00 20.00     0.029 C 
HETATM    3  C3  UNL     1     -33.615   6.303   1.601  1.00 20.00     0.045 C 
HETATM    4  C4  UNL     1     -31.795   8.027   1.635  1.00 20.00     0.167 C 
HETATM    5  C5  UNL     1     -33.033   7.682   3.631  1.00 20.00     0.208 C 
HETATM    6  C6  UNL     1     -33.629   6.359   3.134  1.00 20.00     0.146 C 
HETATM    7  N7  UNL     1     -36.073   6.042   4.054  1.00 20.00    -0.195 NA
HETATM    8  O8  UNL     1     -31.747   7.930   3.057  1.00 20.00    -0.388 OA
HETATM    9 CL9  UNL     1     -32.662   4.996   3.800  1.00 20.00    -0.101 Cl
ENDROOT
TORSDOF 0
ENDMDL
MODEL 9
REMARK VINA RESULT:       2.7      2.710      3.401
REMARK  0 active torsions:
REMARK  status: ('A' for Active; 'I' for Inactive)
ROOT
HETATM    1  C1  UNL     1     -33.653   7.740   4.649  1.00 20.00     0.087 C 
HETATM    2  C2  UNL     1     -32.996   6.534   1.075  1.00 20.00     0.029 C 
HETATM    3  C3  UNL     1     -33.047   7.493   2.264  1.00 20.00     0.045 C 
HETATM    4  C4  UNL     1     -32.549   5.150   1.522  1.00 20.00     0.167 C 
HETATM    5  C5  UNL     1     -33.353   5.464   3.733  1.00 20.00     0.208 C 
HETATM    6  C6  UNL     1     -33.816   6.899   3.452  1.00 20.00     0.146 C 
HETATM    7  N7  UNL     1     -33.525   8.402   5.592  1.00 20.00    -0.195 NA
HETATM    8  O8  UNL     1     -33.399   4.655   2.555  1.00 20.00    -0.388 OA
HETATM    9 CL9  UNL     1     -35.578   6.884   3.087  1.00 20.00    -0.101 Cl
ENDROOT
TORSDOF 0
ENDMDL
