MODEL 1
REMARK VINA RESULT:      -0.0      0.000      0.000
REMARK  4 active torsions:
REMARK  status: ('A' for Active; 'I' for Inactive)
REMARK    1  A    between atoms: C5_5  and  C7_7 
REMARK    2  A    between atoms: C5_5  and  S9_9 
REMARK    3  A    between atoms: C6_6  and  C7_7 
REMARK    4  A    between atoms: C8_8  and  S9_9 
ROOT
HETATM    1  C5  UNL     1     -33.594   5.882   2.755  1.00 20.00     0.080 C 
ENDROOT
BRANCH   1   2
HETATM    2  C7  UNL     1     -34.047   5.157   4.036  1.00 20.00     0.004 C 
HETATM    3  C1  UNL     1     -35.478   5.587   4.385  1.00 20.00     0.012 C 
BRANCH   2   4
HETATM    4  C6  UNL     1     -33.926   3.623   3.988  1.00 20.00     0.119 C 
HETATM    5 CL10 UNL     1     -32.831   2.954   5.222  1.00 20.00    -0.130 Cl
ENDBRANCH   2   4
ENDBRANCH   1   2
BRANCH   1   6
HETATM    6  S9  UNL     1     -33.607   7.694   2.907  1.00 20.00    -0.160 SA
BRANCH   6   7
HETATM    7  C8  UNL     1     -32.154   8.049   1.893  1.00 20.00    -0.003 C 
HETATM    8  C2  UNL     1     -31.029   8.547   2.804  1.00 20.00     0.026 C 
HETATM    9  C3  UNL     1     -31.732   6.759   1.184  1.00 20.00     0.026 C 
HETATM   10  C4  UNL     1     -32.524   9.123   0.865  1.00 20.00     0.026 C 
ENDBRANCH   6   7
ENDBRANCH   1   6
TORSDOF 4
ENDMDL
MODEL 2
REMARK VINA RESULT:       0.0      0.020      1.375
REMARK  4 active torsions:
REMARK  status: ('A' for Active; 'I' for Inactive)
REMARK    1  A    between atoms: C5_5  and  C7_7 
REMARK    2  A    between atoms: C5_5  and  S9_9 
REMARK    3  A    between atoms: C6_6  and  C7_7 
REMARK    4  A    between atoms: C8_8  and  S9_9 
ROOT
HETATM    1  C5  UNL     1     -33.617   5.893   2.730  1.00 20.00     0.080 C 
ENDROOT
BRANCH   1   2
HETATM    2  C7  UNL     1     -34.044   5.165   4.018  1.00 20.00     0.004 C 
HETATM    3  C1  UNL     1     -35.472   5.587   4.391  1.00 20.00     0.012 C 
BRANCH   2   4
HETATM    4  C6  UNL     1     -33.916   3.632   3.966  1.00 20.00     0.119 C 
HETATM    5 CL10 UNL     1     -32.832   2.964   5.210  1.00 20.00    -0.130 Cl
ENDBRANCH   2   4
ENDBRANCH   1   2
BRANCH   1   6
HETATM    6  S9  UNL     1     -33.606   7.704   2.893  1.00 20.00    -0.160 SA
BRANCH   6   7
HETATM    7  C8  UNL     1     -32.148   8.046   1.882  1.00 20.00    -0.003 C 
HETATM    8  C2  UNL     1     -32.503   9.128   0.858  1.00 20.00     0.026 C 
HETATM    9  C3  UNL     1     -31.026   8.535   2.803  1.00 20.00     0.026 C 
HETATM   10  C4  UNL     1     -31.729   6.756   1.172  1.00 20.00     0.026 C 
ENDBRANCH   6   7
ENDBRANCH   1   6
TORSDOF 4
ENDMDL
MODEL 3
REMARK VINA RESULT:       0.0      0.021      1.378
REMARK  4 active torsions:
REMARK  status: ('A' for Active; 'I' for Inactive)
REMARK    1  A    between atoms: C5_5  and  C7_7 
REMARK    2  A    between atoms: C5_5  and  S9_9 
REMARK    3  A    between atoms: C6_6  and  C7_7 
REMARK    4  A    between atoms: C8_8  and  S9_9 
ROOT
HETATM    1  C5  UNL     1     -33.615   5.890   2.727  1.00 20.00     0.080 C 
ENDROOT
BRANCH   1   2
HETATM    2  C7  UNL     1     -34.043   5.166   4.018  1.00 20.00     0.004 C 
HETATM    3  C1  UNL     1     -35.469   5.594   4.391  1.00 20.00     0.012 C 
BRANCH   2   4
HETATM    4  C6  UNL     1     -33.920   3.632   3.968  1.00 20.00     0.119 C 
HETATM    5 CL10 UNL     1     -32.833   2.963   5.209  1.00 20.00    -0.130 Cl
ENDBRANCH   2   4
ENDBRANCH   1   2
BRANCH   1   6
HETATM    6  S9  UNL     1     -33.612   7.702   2.882  1.00 20.00    -0.160 SA
BRANCH   6   7
HETATM    7  C8  UNL     1     -32.146   8.046   1.884  1.00 20.00    -0.003 C 
HETATM    8  C2  UNL     1     -31.720   6.757   1.176  1.00 20.00     0.026 C 
HETATM    9  C3  UNL     1     -32.503   9.124   0.857  1.00 20.00     0.026 C 
HETATM   10  C4  UNL     1     -31.029   8.541   2.808  1.00 20.00     0.026 C 
ENDBRANCH   6   7
ENDBRANCH   1   6
TORSDOF 4
ENDMDL
MODEL 4
REMARK VINA RESULT:       0.4      3.184      5.300
REMARK  4 active torsions:
REMARK  status: ('A' for Active; 'I' for Inactive)
REMARK    1  A    between atoms: C5_5  and  C7_7 
REMARK    2  A    between atoms: C5_5  and  S9_9 
REMARK    3  A    between atoms: C6_6  and  C7_7 
REMARK    4  A    between atoms: C8_8  and  S9_9 
ROOT
HETATM    1  C5  UNL     1     -32.453   8.006   2.724  1.00 20.00     0.080 C 
ENDROOT
BRANCH   1   2
HETATM    2  C7  UNL     1     -31.817   8.728   1.521  1.00 20.00     0.004 C 
HETATM    3  C1  UNL     1     -31.545   7.711   0.404  1.00 20.00     0.012 C 
BRANCH   2   4
HETATM    4  C6  UNL     1     -32.619   9.931   0.993  1.00 20.00     0.119 C 
HETATM    5 CL10 UNL     1     -32.796   9.949  -0.778  1.00 20.00    -0.130 Cl
ENDBRANCH   2   4
ENDBRANCH   1   2
BRANCH   1   6
HETATM    6  S9  UNL     1     -33.320   6.473   2.272  1.00 20.00    -0.160 SA
BRANCH   6   7
HETATM    7  C8  UNL     1     -34.482   6.414   3.654  1.00 20.00    -0.003 C 
HETATM    8  C2  UNL     1     -34.445   5.011   4.266  1.00 20.00     0.026 C 
HETATM    9  C3  UNL     1     -34.053   7.457   4.690  1.00 20.00     0.026 C 
HETATM   10  C4  UNL     1     -35.885   6.731   3.129  1.00 20.00     0.026 C 
ENDBRANCH   6   7
ENDBRANCH   1   6
TORSDOF 4
ENDMDL
MODEL 5
REMARK VINA RESULT:       0.4      3.187      5.307
REMARK  4 active torsions:
REMARK  status: ('A' for Active; 'I' for Inactive)
REMARK    1  A    between atoms: C5_5  and  C7_7 
REMARK    2  A    between atoms: C5_5  and  S9_9 
REMARK    3  A    between atoms: C6_6  and  C7_7 
REMARK    4  A    between atoms: C8_8  and  S9_9 
ROOT
HETATM    1  C5  UNL     1     -32.461   8.006   2.719  1.00 20.00     0.080 C 
ENDROOT
BRANCH   1   2
HETATM    2  C7  UNL     1     -31.826   8.723   1.514  1.00 20.00     0.004 C 
HETATM    3  C1  UNL     1     -31.566   7.705   0.395  1.00 20.00     0.012 C 
BRANCH   2   4
HETATM    4  C6  UNL     1     -32.623   9.932   0.989  1.00 20.00     0.119 C 
HETATM    5 CL10 UNL     1     -32.792   9.960  -0.783  1.00 20.00    -0.130 Cl
ENDBRANCH   2   4
ENDBRANCH   1   2
BRANCH   1   6
HETATM    6  S9  UNL     1     -33.326   6.470   2.273  1.00 20.00    -0.160 SA
BRANCH   6   7
HETATM    7  C8  UNL     1     -34.484   6.412   3.659  1.00 20.00    -0.003 C 
HETATM    8  C2  UNL     1     -34.062   7.457   4.696  1.00 20.00     0.026 C 
HETATM    9  C3  UNL     1     -35.886   6.725   3.130  1.00 20.00     0.026 C 
HETATM   10  C4  UNL     1     -34.448   5.008   4.270  1.00 20.00     0.026 C 
ENDBRANCH   6   7
ENDBRANCH   1   6
TORSDOF 4
ENDMDL
MODEL 6
REMARK VINA RESULT:       0.4      3.185      5.299
REMARK  4 active torsions:
REMARK  status: ('A' for Active; 'I' for Inactive)
REMARK    1  A    between atoms: C5_5  and  C7_7 
REMARK    2  A    between atoms: C5_5  and  S9_9 
REMARK    3  A    between atoms: C6_6  and  C7_7 
REMARK    4  A    between atoms: C8_8  and  S9_9 
ROOT
HETATM    1  C5  UNL     1     -32.449   7.995   2.726  1.00 20.00     0.080 C 
ENDROOT
BRANCH   1   2
HETATM    2  C7  UNL     1     -31.822   8.721   1.521  1.00 20.00     0.004 C 
HETATM    3  C1  UNL     1     -31.561   7.708   0.398  1.00 20.00     0.012 C 
BRANCH   2   4
HETATM    4  C6  UNL     1     -32.626   9.927   1.004  1.00 20.00     0.119 C 
HETATM    5 CL10 UNL     1     -32.800   9.963  -0.767  1.00 20.00    -0.130 Cl
ENDBRANCH   2   4
ENDBRANCH   1   2
BRANCH   1   6
HETATM    6  S9  UNL     1     -33.329   6.470   2.274  1.00 20.00    -0.160 SA
BRANCH   6   7
HETATM    7  C8  UNL     1     -34.488   6.417   3.659  1.00 20.00    -0.003 C 
HETATM    8  C2  UNL     1     -35.894   6.717   3.134  1.00 20.00     0.026 C 
HETATM    9  C3  UNL     1     -34.438   5.017   4.277  1.00 20.00     0.026 C 
HETATM   10  C4  UNL     1     -34.067   7.469   4.690  1.00 20.00     0.026 C 
ENDBRANCH   6   7
ENDBRANCH   1   6
TORSDOF 4
ENDMDL
MODEL 7
REMARK VINA RESULT:       0.8      1.061      1.792
REMARK  4 active torsions:
REMARK  status: ('A' for Active; 'I' for Inactive)
REMARK    1  A    between atoms: C5_5  and  C7_7 
REMARK    2  A    between atoms: C5_5  and  S9_9 
REMARK    3  A    between atoms: C6_6  and  C7_7 
REMARK    4  A    between atoms: C8_8  and  S9_9 
ROOT
HETATM    1  C5  UNL     1     -33.660   6.691   3.757  1.00 20.00     0.080 C 
ENDROOT
BRANCH   1   2
HETATM    2  C7  UNL     1     -35.070   6.268   4.208  1.00 20.00     0.004 C 
HETATM    3  C1  UNL     1     -36.088   6.655   3.126  1.00 20.00     0.012 C 
BRANCH   2   4
HETATM    4  C6  UNL     1     -35.208   4.783   4.591  1.00 20.00     0.119 C 
HETATM    5 CL10 UNL     1     -33.799   3.795   4.134  1.00 20.00    -0.130 Cl
ENDBRANCH   2   4
ENDBRANCH   1   2
BRANCH   1   6
HETATM    6  S9  UNL     1     -33.611   8.337   2.986  1.00 20.00    -0.160 SA
BRANCH   6   7
HETATM    7  C8  UNL     1     -32.229   8.054   1.857  1.00 20.00    -0.003 C 
HETATM    8  C2  UNL     1     -32.366   9.006   0.665  1.00 20.00     0.026 C 
HETATM    9  C3  UNL     1     -30.925   8.330   2.610  1.00 20.00     0.026 C 
HETATM   10  C4  UNL     1     -32.272   6.598   1.384  1.00 20.00     0.026 C 
ENDBRANCH   6   7
ENDBRANCH   1   6
TORSDOF 4
ENDMDL
MODEL 8
REMARK VINA RESULT:       1.2      1.893      2.225
REMARK  4 active torsions:
REMARK  status: ('A' for Active; 'I' for Inactive)
REMARK    1  A    between atoms: C5_5  and  C7_7 
REMARK    2  A    between atoms: C5_5  and  S9_9 
REMARK    3  A    between atoms: C6_6  and  C7_7 
REMARK    4  A    between atoms: C8_8  and  S9_9 
ROOT
HETATM    1  C5  UNL     1     -32.881   5.346   3.249  1.00 20.00     0.080 C 
ENDROOT
BRANCH   1   2
HETATM    2  C7  UNL     1     -34.022   4.390   3.645  1.00 20.00     0.004 C 
HETATM    3  C1  UNL     1     -33.437   3.182   4.389  1.00 20.00     0.012 C 
BRANCH   2   4
HETATM    4  C6  UNL     1     -35.158   5.042   4.455  1.00 20.00     0.119 C 
HETATM    5 CL10 UNL     1     -35.717   6.592   3.781  1.00 20.00    -0.130 Cl
ENDBRANCH   2   4
ENDBRANCH   1   2
BRANCH   1   6
HETATM    6  S9  UNL     1     -33.091   6.079   1.599  1.00 20.00    -0.160 SA
BRANCH   6   7
HETATM    7  C8  UNL     1     -32.360   7.696   1.937  1.00 20.00    -0.003 C 
HETATM    8  C2  UNL     1     -32.754   8.126   3.353  1.00 20.00     0.026 C 
HETATM    9  C3  UNL     1     -30.838   7.571   1.823  1.00 20.00     0.026 C 
HETATM   10  C4  UNL     1     -32.890   8.699   0.907  1.00 20.00     0.026 C 
ENDBRANCH   6   7
ENDBRANCH   1   6
TORSDOF 4
ENDMDL
MODEL 9
REMARK VINA RESULT:       1.3      1.628      2.093
REMARK  4 active torsions:
REMARK  status: ('A' for Active; 'I' for Inactive)
REMARK    1  A    between atoms: C5_5  and  C7_7 
REMARK    2  A    between atoms: C5_5  and  S9_9 
REMARK    3  A    between atoms: C6_6  and  C7_7 
REMARK    4  A    between atoms: C8_8  and  S9_9 
ROOT
HETATM    1  C5  UNL     1     -33.044   6.980   2.101  1.00 20.00     0.080 C 
ENDROOT
BRANCH   1   2
HETATM    2  C7  UNL     1     -33.556   6.625   3.510  1.00 20.00     0.004 C 
HETATM    3  C1  UNL     1     -34.112   7.888   4.181  1.00 20.00     0.012 C 
BRANCH   2   4
HETATM    4  C6  UNL     1     -34.582   5.478   3.553  1.00 20.00     0.119 C 
HETATM    5 CL10 UNL     1     -33.919   3.951   4.186  1.00 20.00    -0.130 Cl
ENDBRANCH   2   4
ENDBRANCH   1   2
BRANCH   1   6
HETATM    6  S9  UNL     1     -31.730   8.237   2.105  1.00 20.00    -0.160 SA
BRANCH   6   7
HETATM    7  C8  UNL     1     -32.115   9.021   0.524  1.00 20.00    -0.003 C 
HETATM    8  C2  UNL     1     -30.822   9.157  -0.284  1.00 20.00     0.026 C 
HETATM    9  C3  UNL     1     -33.118   8.136  -0.222  1.00 20.00     0.026 C 
HETATM   10  C4  UNL     1     -32.723  10.400   0.796  1.00 20.00     0.026 C 
ENDBRANCH   6   7
ENDBRANCH   1   6
TORSDOF 4
ENDMDL
