MODEL 1
REMARK VINA RESULT:      -1.6      0.000      0.000
REMARK  3 active torsions:
REMARK  status: ('A' for Active; 'I' for Inactive)
REMARK    1  A    between atoms: C2_2  and  C5_5 
REMARK    2  A    between atoms: C5_5  and  N7_7 
REMARK    3  A    between atoms: C6_6  and  N7_7 
ROOT
HETATM    1  C1  UNL     1     -33.470   7.515   4.184  1.00 20.00     0.052 A 
HETATM    2  C2  UNL     1     -33.598   7.433   2.688  1.00 20.00     0.055 A 
HETATM    3  C3  UNL     1     -34.240   6.378   3.560  1.00 20.00     0.119 A 
HETATM    4 CL8  UNL     1     -33.554   4.763   3.659  1.00 20.00    -0.101 Cl
HETATM    5 CL9  UNL     1     -35.998   6.398   3.708  1.00 20.00    -0.101 Cl
ENDROOT
BRANCH   2   6
HETATM    6  C5  UNL     1     -32.393   7.166   1.851  1.00 20.00     0.277 C 
BRANCH   6   7
HETATM    7  N7  UNL     1     -31.670   8.379   1.581  1.00 20.00     0.083 N 
HETATM    8  H20 UNL     1     -31.881   9.085   2.295  1.00 20.00     0.315 HD
BRANCH   7   9
HETATM    9  C6  UNL     1     -32.016   8.933   0.271  1.00 20.00     0.265 C 
HETATM   10  C4  UNL     1     -32.576  10.309   0.399  1.00 20.00     0.037 C 
ENDBRANCH   7   9
ENDBRANCH   6   7
ENDBRANCH   2   6
TORSDOF 3
ENDMDL
MODEL 2
REMARK VINA RESULT:      -1.5      1.170      1.931
REMARK  3 active torsions:
REMARK  status: ('A' for Active; 'I' for Inactive)
REMARK    1  A    between atoms: C2_2  and  C5_5 
REMARK    2  A    between atoms: C5_5  and  N7_7 
REMARK    3  A    between atoms: C6_6  and  N7_7 
ROOT
HETATM    1  C1  UNL     1     -33.561   5.854   1.494  1.00 20.00     0.052 A 
HETATM    2  C2  UNL     1     -32.454   6.386   2.361  1.00 20.00     0.055 A 
HETATM    3  C3  UNL     1     -33.701   5.811   2.995  1.00 20.00     0.119 A 
HETATM    4 CL8  UNL     1     -34.889   6.867   3.745  1.00 20.00    -0.101 Cl
HETATM    5 CL9  UNL     1     -33.566   4.242   3.789  1.00 20.00    -0.101 Cl
ENDROOT
BRANCH   2   6
HETATM    6  C5  UNL     1     -32.146   7.845   2.362  1.00 20.00     0.277 C 
BRANCH   6   7
HETATM    7  N7  UNL     1     -31.943   8.333   1.026  1.00 20.00     0.083 N 
HETATM    8  H20 UNL     1     -30.944   8.330   0.794  1.00 20.00     0.315 HD
BRANCH   7   9
HETATM    9  C6  UNL     1     -32.448   9.698   0.867  1.00 20.00     0.265 C 
HETATM   10  C4  UNL     1     -32.691  10.018  -0.569  1.00 20.00     0.037 C 
ENDBRANCH   7   9
ENDBRANCH   6   7
ENDBRANCH   2   6
TORSDOF 3
ENDMDL
MODEL 3
REMARK VINA RESULT:      -1.4      3.052      4.622
REMARK  3 active torsions:
REMARK  status: ('A' for Active; 'I' for Inactive)
REMARK    1  A    between atoms: C2_2  and  C5_5 
REMARK    2  A    between atoms: C5_5  and  N7_7 
REMARK    3  A    between atoms: C6_6  and  N7_7 
ROOT
HETATM    1  C1  UNL     1     -32.187   6.600   1.658  1.00 20.00     0.052 A 
HETATM    2  C2  UNL     1     -33.402   7.249   2.261  1.00 20.00     0.055 A 
HETATM    3  C3  UNL     1     -32.187   8.085   1.926  1.00 20.00     0.119 A 
HETATM    4 CL8  UNL     1     -31.143   8.695   3.202  1.00 20.00    -0.101 Cl
HETATM    5 CL9  UNL     1     -32.299   9.170   0.539  1.00 20.00    -0.101 Cl
ENDROOT
BRANCH   2   6
HETATM    6  C5  UNL     1     -33.799   6.927   3.662  1.00 20.00     0.277 C 
BRANCH   6   7
HETATM    7  N7  UNL     1     -35.138   6.408   3.715  1.00 20.00     0.083 N 
HETATM    8  H20 UNL     1     -35.763   7.083   4.168  1.00 20.00     0.315 HD
BRANCH   7   9
HETATM    9  C6  UNL     1     -35.201   5.150   4.463  1.00 20.00     0.265 C 
HETATM   10  C4  UNL     1     -34.083   4.240   4.081  1.00 20.00     0.037 C 
ENDBRANCH   7   9
ENDBRANCH   6   7
ENDBRANCH   2   6
TORSDOF 3
ENDMDL
MODEL 4
REMARK VINA RESULT:      -0.5      3.440      4.949
REMARK  3 active torsions:
REMARK  status: ('A' for Active; 'I' for Inactive)
REMARK    1  A    between atoms: C2_2  and  C5_5 
REMARK    2  A    between atoms: C5_5  and  N7_7 
REMARK    3  A    between atoms: C6_6  and  N7_7 
ROOT
HETATM    1  C1  UNL     1     -35.254   6.842   3.489  1.00 20.00     0.052 A 
HETATM    2  C2  UNL     1     -34.288   5.894   4.144  1.00 20.00     0.055 A 
HETATM    3  C3  UNL     1     -33.827   7.272   3.726  1.00 20.00     0.119 A 
HETATM    4 CL8  UNL     1     -32.782   7.478   2.327  1.00 20.00    -0.101 Cl
HETATM    5 CL9  UNL     1     -33.526   8.455   4.999  1.00 20.00    -0.101 Cl
ENDROOT
BRANCH   2   6
HETATM    6  C5  UNL     1     -33.869   4.651   3.433  1.00 20.00     0.277 C 
BRANCH   6   7
HETATM    7  N7  UNL     1     -34.190   3.481   4.202  1.00 20.00     0.083 N 
HETATM    8  H20 UNL     1     -34.716   3.742   5.044  1.00 20.00     0.315 HD
BRANCH   7   9
HETATM    9  C6  UNL     1     -32.986   2.760   4.618  1.00 20.00     0.265 C 
HETATM   10  C4  UNL     1     -32.570   3.156   5.994  1.00 20.00     0.037 C 
ENDBRANCH   7   9
ENDBRANCH   6   7
ENDBRANCH   2   6
TORSDOF 3
ENDMDL
MODEL 5
REMARK VINA RESULT:      -0.4      2.483      4.241
REMARK  3 active torsions:
REMARK  status: ('A' for Active; 'I' for Inactive)
REMARK    1  A    between atoms: C2_2  and  C5_5 
REMARK    2  A    between atoms: C5_5  and  N7_7 
REMARK    3  A    between atoms: C6_6  and  N7_7 
ROOT
HETATM    1  C1  UNL     1     -31.943   7.793   1.479  1.00 20.00     0.052 A 
HETATM    2  C2  UNL     1     -32.620   7.254   2.708  1.00 20.00     0.055 A 
HETATM    3  C3  UNL     1     -32.510   6.395   1.468  1.00 20.00     0.119 A 
HETATM    4 CL8  UNL     1     -33.922   6.083   0.469  1.00 20.00    -0.101 Cl
HETATM    5 CL9  UNL     1     -31.373   5.047   1.506  1.00 20.00    -0.101 Cl
ENDROOT
BRANCH   2   6
HETATM    6  C5  UNL     1     -33.909   7.847   3.168  1.00 20.00     0.277 C 
BRANCH   6   7
HETATM    7  N7  UNL     1     -34.384   7.196   4.357  1.00 20.00     0.083 N 
HETATM    8  H20 UNL     1     -33.597   6.814   4.892  1.00 20.00     0.315 HD
BRANCH   7   9
HETATM    9  C6  UNL     1     -35.301   6.099   4.043  1.00 20.00     0.265 C 
HETATM   10  C4  UNL     1     -34.645   4.775   4.242  1.00 20.00     0.037 C 
ENDBRANCH   7   9
ENDBRANCH   6   7
ENDBRANCH   2   6
TORSDOF 3
ENDMDL
MODEL 6
REMARK VINA RESULT:      -0.4      3.330      4.799
REMARK  3 active torsions:
REMARK  status: ('A' for Active; 'I' for Inactive)
REMARK    1  A    between atoms: C2_2  and  C5_5 
REMARK    2  A    between atoms: C5_5  and  N7_7 
REMARK    3  A    between atoms: C6_6  and  N7_7 
ROOT
HETATM    1  C1  UNL     1     -31.029   8.933   0.550  1.00 20.00     0.052 A 
HETATM    2  C2  UNL     1     -32.298   8.352   1.108  1.00 20.00     0.055 A 
HETATM    3  C3  UNL     1     -32.313   9.720   0.465  1.00 20.00     0.119 A 
HETATM    4 CL8  UNL     1     -32.462  11.169   1.449  1.00 20.00    -0.101 Cl
HETATM    5 CL9  UNL     1     -33.079   9.872  -1.117  1.00 20.00    -0.101 Cl
ENDROOT
BRANCH   2   6
HETATM    6  C5  UNL     1     -32.441   8.150   2.579  1.00 20.00     0.277 C 
BRANCH   6   7
HETATM    7  N7  UNL     1     -33.269   7.012   2.867  1.00 20.00     0.083 N 
HETATM    8  H20 UNL     1     -33.782   6.723   2.028  1.00 20.00     0.315 HD
BRANCH   7   9
HETATM    9  C6  UNL     1     -34.242   7.305   3.922  1.00 20.00     0.265 C 
HETATM   10  C4  UNL     1     -35.262   6.224   4.028  1.00 20.00     0.037 C 
ENDBRANCH   7   9
ENDBRANCH   6   7
ENDBRANCH   2   6
TORSDOF 3
ENDMDL
MODEL 7
REMARK VINA RESULT:      -0.3      2.119      2.300
REMARK  3 active torsions:
REMARK  status: ('A' for Active; 'I' for Inactive)
REMARK    1  A    between atoms: C2_2  and  C5_5 
REMARK    2  A    between atoms: C5_5  and  N7_7 
REMARK    3  A    between atoms: C6_6  and  N7_7 
ROOT
HETATM    1  C1  UNL     1     -33.495   5.959   2.666  1.00 20.00     0.052 A 
HETATM    2  C2  UNL     1     -33.097   7.071   1.735  1.00 20.00     0.055 A 
HETATM    3  C3  UNL     1     -32.893   5.631   1.323  1.00 20.00     0.119 A 
HETATM    4 CL8  UNL     1     -31.281   4.931   1.288  1.00 20.00    -0.101 Cl
HETATM    5 CL9  UNL     1     -33.962   4.976   0.081  1.00 20.00    -0.101 Cl
ENDROOT
BRANCH   2   6
HETATM    6  C5  UNL     1     -31.968   7.976   2.097  1.00 20.00     0.277 C 
BRANCH   6   7
HETATM    7  N7  UNL     1     -31.548   8.757   0.967  1.00 20.00     0.083 N 
HETATM    8  H20 UNL     1     -30.589   9.094   1.104  1.00 20.00     0.315 HD
BRANCH   7   9
HETATM    9  C6  UNL     1     -32.416   9.917   0.759  1.00 20.00     0.265 C 
HETATM   10  C4  UNL     1     -32.796  10.056  -0.676  1.00 20.00     0.037 C 
ENDBRANCH   7   9
ENDBRANCH   6   7
ENDBRANCH   2   6
TORSDOF 3
ENDMDL
MODEL 8
REMARK VINA RESULT:      -0.3      2.919      4.771
REMARK  3 active torsions:
REMARK  status: ('A' for Active; 'I' for Inactive)
REMARK    1  A    between atoms: C2_2  and  C5_5 
REMARK    2  A    between atoms: C5_5  and  N7_7 
REMARK    3  A    between atoms: C6_6  and  N7_7 
ROOT
HETATM    1  C1  UNL     1     -32.709   7.379   2.009  1.00 20.00     0.052 A 
HETATM    2  C2  UNL     1     -33.123   6.254   2.916  1.00 20.00     0.055 A 
HETATM    3  C3  UNL     1     -32.827   5.979   1.459  1.00 20.00     0.119 A 
HETATM    4 CL8  UNL     1     -34.132   5.641   0.330  1.00 20.00    -0.101 Cl
HETATM    5 CL9  UNL     1     -31.335   5.118   1.076  1.00 20.00    -0.101 Cl
ENDROOT
BRANCH   2   6
HETATM    6  C5  UNL     1     -34.504   6.223   3.480  1.00 20.00     0.277 C 
BRANCH   6   7
HETATM    7  N7  UNL     1     -34.710   5.049   4.282  1.00 20.00     0.083 N 
HETATM    8  H20 UNL     1     -34.446   5.233   5.256  1.00 20.00     0.315 HD
BRANCH   7   9
HETATM    9  C6  UNL     1     -33.917   3.917   3.797  1.00 20.00     0.265 C 
HETATM   10  C4  UNL     1     -33.299   3.169   4.929  1.00 20.00     0.037 C 
ENDBRANCH   7   9
ENDBRANCH   6   7
ENDBRANCH   2   6
TORSDOF 3
ENDMDL
MODEL 9
REMARK VINA RESULT:      -0.1      2.946      4.186
REMARK  3 active torsions:
REMARK  status: ('A' for Active; 'I' for Inactive)
REMARK    1  A    between atoms: C2_2  and  C5_5 
REMARK    2  A    between atoms: C5_5  and  N7_7 
REMARK    3  A    between atoms: C6_6  and  N7_7 
ROOT
HETATM    1  C1  UNL     1     -31.435   6.902   1.100  1.00 20.00     0.052 A 
HETATM    2  C2  UNL     1     -32.839   6.886   1.638  1.00 20.00     0.055 A 
HETATM    3  C3  UNL     1     -32.023   8.158   1.694  1.00 20.00     0.119 A 
HETATM    4 CL8  UNL     1     -31.371   8.735   3.221  1.00 20.00    -0.101 Cl
HETATM    5 CL9  UNL     1     -32.464   9.461   0.589  1.00 20.00    -0.101 Cl
ENDROOT
BRANCH   2   6
HETATM    6  C5  UNL     1     -33.161   6.079   2.850  1.00 20.00     0.277 C 
BRANCH   6   7
HETATM    7  N7  UNL     1     -34.575   5.847   2.957  1.00 20.00     0.083 N 
HETATM    8  H20 UNL     1     -35.058   6.205   2.126  1.00 20.00     0.315 HD
BRANCH   7   9
HETATM    9  C6  UNL     1     -35.143   6.504   4.137  1.00 20.00     0.265 C 
HETATM   10  C4  UNL     1     -34.282   7.633   4.591  1.00 20.00     0.037 C 
ENDBRANCH   7   9
ENDBRANCH   6   7
ENDBRANCH   2   6
TORSDOF 3
ENDMDL
