MODEL 1
REMARK VINA RESULT:      -1.6      0.000      0.000
REMARK  3 active torsions:
REMARK  status: ('A' for Active; 'I' for Inactive)
REMARK    1  A    between atoms: C2_2  and  C5_5 
REMARK    2  A    between atoms: C5_5  and  N7_7 
REMARK    3  A    between atoms: C6_6  and  N7_7 
ROOT
HETATM    1  C1  UNL     1     -33.291   5.427   3.224  1.00 20.00     0.052 A 
HETATM    2  C2  UNL     1     -33.348   6.518   2.190  1.00 20.00     0.055 A 
HETATM    3  C3  UNL     1     -34.062   6.692   3.511  1.00 20.00     0.119 A 
HETATM    4 CL8  UNL     1     -35.824   6.598   3.506  1.00 20.00    -0.101 Cl
HETATM    5 CL9  UNL     1     -33.430   7.787   4.732  1.00 20.00    -0.101 Cl
ENDROOT
BRANCH   2   6
HETATM    6  C5  UNL     1     -32.111   7.271   1.835  1.00 20.00     0.277 C 
BRANCH   6   7
HETATM    7  N7  UNL     1     -32.397   8.663   1.617  1.00 20.00     0.083 N 
HETATM    8  H20 UNL     1     -31.916   9.238   2.317  1.00 20.00     0.315 HD
BRANCH   7   9
HETATM    9  C6  UNL     1     -31.970   9.101   0.287  1.00 20.00     0.265 C 
HETATM   10  C4  UNL     1     -32.678  10.348  -0.121  1.00 20.00     0.037 C 
ENDBRANCH   7   9
ENDBRANCH   6   7
ENDBRANCH   2   6
TORSDOF 3
ENDMDL
MODEL 2
REMARK VINA RESULT:      -1.4      1.367      1.748
REMARK  3 active torsions:
REMARK  status: ('A' for Active; 'I' for Inactive)
REMARK    1  A    between atoms: C2_2  and  C5_5 
REMARK    2  A    between atoms: C5_5  and  N7_7 
REMARK    3  A    between atoms: C6_6  and  N7_7 
ROOT
HETATM    1  C1  UNL     1     -34.015   7.432   4.348  1.00 20.00     0.052 A 
HETATM    2  C2  UNL     1     -33.525   6.520   3.258  1.00 20.00     0.055 A 
HETATM    3  C3  UNL     1     -34.941   6.391   3.769  1.00 20.00     0.119 A 
HETATM    4 CL8  UNL     1     -35.325   4.987   4.766  1.00 20.00    -0.101 Cl
HETATM    5 CL9  UNL     1     -36.297   6.941   2.795  1.00 20.00    -0.101 Cl
ENDROOT
BRANCH   2   6
HETATM    6  C5  UNL     1     -33.199   7.078   1.913  1.00 20.00     0.277 C 
BRANCH   6   7
HETATM    7  N7  UNL     1     -32.256   8.157   2.015  1.00 20.00     0.083 N 
HETATM    8  H20 UNL     1     -31.404   7.840   2.491  1.00 20.00     0.315 HD
BRANCH   7   9
HETATM    9  C6  UNL     1     -31.882   8.675   0.698  1.00 20.00     0.265 C 
HETATM   10  C4  UNL     1     -32.516  10.001   0.442  1.00 20.00     0.037 C 
ENDBRANCH   7   9
ENDBRANCH   6   7
ENDBRANCH   2   6
TORSDOF 3
ENDMDL
MODEL 3
REMARK VINA RESULT:      -1.2      2.877      4.382
REMARK  3 active torsions:
REMARK  status: ('A' for Active; 'I' for Inactive)
REMARK    1  A    between atoms: C2_2  and  C5_5 
REMARK    2  A    between atoms: C5_5  and  N7_7 
REMARK    3  A    between atoms: C6_6  and  N7_7 
ROOT
HETATM    1  C1  UNL     1     -31.412   8.613   2.385  1.00 20.00     0.052 A 
HETATM    2  C2  UNL     1     -32.650   7.911   1.900  1.00 20.00     0.055 A 
HETATM    3  C3  UNL     1     -31.950   8.909   1.007  1.00 20.00     0.119 A 
HETATM    4 CL8  UNL     1     -32.736  10.468   0.750  1.00 20.00    -0.101 Cl
HETATM    5 CL9  UNL     1     -31.015   8.368  -0.380  1.00 20.00    -0.101 Cl
ENDROOT
BRANCH   2   6
HETATM    6  C5  UNL     1     -32.621   6.442   1.647  1.00 20.00     0.277 C 
BRANCH   6   7
HETATM    7  N7  UNL     1     -33.485   5.742   2.558  1.00 20.00     0.083 N 
HETATM    8  H20 UNL     1     -32.951   5.043   3.086  1.00 20.00     0.315 HD
BRANCH   7   9
HETATM    9  C6  UNL     1     -34.121   6.654   3.510  1.00 20.00     0.265 C 
HETATM   10  C4  UNL     1     -35.361   6.055   4.082  1.00 20.00     0.037 C 
ENDBRANCH   7   9
ENDBRANCH   6   7
ENDBRANCH   2   6
TORSDOF 3
ENDMDL
MODEL 4
REMARK VINA RESULT:      -1.1      2.797      4.400
REMARK  3 active torsions:
REMARK  status: ('A' for Active; 'I' for Inactive)
REMARK    1  A    between atoms: C2_2  and  C5_5 
REMARK    2  A    between atoms: C5_5  and  N7_7 
REMARK    3  A    between atoms: C6_6  and  N7_7 
ROOT
HETATM    1  C1  UNL     1     -31.217   8.395   2.779  1.00 20.00     0.052 A 
HETATM    2  C2  UNL     1     -32.707   8.298   2.960  1.00 20.00     0.055 A 
HETATM    3  C3  UNL     1     -32.086   7.961   1.624  1.00 20.00     0.119 A 
HETATM    4 CL8  UNL     1     -32.323   9.103   0.301  1.00 20.00    -0.101 Cl
HETATM    5 CL9  UNL     1     -31.972   6.291   1.086  1.00 20.00    -0.101 Cl
ENDROOT
BRANCH   2   6
HETATM    6  C5  UNL     1     -33.279   7.262   3.868  1.00 20.00     0.277 C 
BRANCH   6   7
HETATM    7  N7  UNL     1     -34.696   7.443   4.032  1.00 20.00     0.083 N 
HETATM    8  H20 UNL     1     -35.067   8.034   3.280  1.00 20.00     0.315 HD
BRANCH   7   9
HETATM    9  C6  UNL     1     -35.410   6.166   4.011  1.00 20.00     0.265 C 
HETATM   10  C4  UNL     1     -34.460   5.018   4.027  1.00 20.00     0.037 C 
ENDBRANCH   7   9
ENDBRANCH   6   7
ENDBRANCH   2   6
TORSDOF 3
ENDMDL
MODEL 5
REMARK VINA RESULT:      -1.1      2.978      4.692
REMARK  3 active torsions:
REMARK  status: ('A' for Active; 'I' for Inactive)
REMARK    1  A    between atoms: C2_2  and  C5_5 
REMARK    2  A    between atoms: C5_5  and  N7_7 
REMARK    3  A    between atoms: C6_6  and  N7_7 
ROOT
HETATM    1  C1  UNL     1     -32.746   7.544   3.877  1.00 20.00     0.052 A 
HETATM    2  C2  UNL     1     -34.124   7.486   3.278  1.00 20.00     0.055 A 
HETATM    3  C3  UNL     1     -32.909   7.418   2.383  1.00 20.00     0.119 A 
HETATM    4 CL8  UNL     1     -32.542   8.833   1.395  1.00 20.00    -0.101 Cl
HETATM    5 CL9  UNL     1     -32.440   5.903   1.624  1.00 20.00    -0.101 Cl
ENDROOT
BRANCH   2   6
HETATM    6  C5  UNL     1     -35.000   6.307   3.542  1.00 20.00     0.277 C 
BRANCH   6   7
HETATM    7  N7  UNL     1     -34.381   5.399   4.467  1.00 20.00     0.083 N 
HETATM    8  H20 UNL     1     -34.982   5.265   5.288  1.00 20.00     0.315 HD
BRANCH   7   9
HETATM    9  C6  UNL     1     -34.135   4.091   3.858  1.00 20.00     0.265 C 
HETATM   10  C4  UNL     1     -33.337   3.217   4.766  1.00 20.00     0.037 C 
ENDBRANCH   7   9
ENDBRANCH   6   7
ENDBRANCH   2   6
TORSDOF 3
ENDMDL
MODEL 6
REMARK VINA RESULT:      -1.0      1.907      2.327
REMARK  3 active torsions:
REMARK  status: ('A' for Active; 'I' for Inactive)
REMARK    1  A    between atoms: C2_2  and  C5_5 
REMARK    2  A    between atoms: C5_5  and  N7_7 
REMARK    3  A    between atoms: C6_6  and  N7_7 
ROOT
HETATM    1  C1  UNL     1     -35.301   6.401   3.626  1.00 20.00     0.052 A 
HETATM    2  C2  UNL     1     -33.940   6.953   3.950  1.00 20.00     0.055 A 
HETATM    3  C3  UNL     1     -34.066   5.607   3.276  1.00 20.00     0.119 A 
HETATM    4 CL8  UNL     1     -33.712   4.173   4.241  1.00 20.00    -0.101 Cl
HETATM    5 CL9  UNL     1     -33.659   5.416   1.577  1.00 20.00    -0.101 Cl
ENDROOT
BRANCH   2   6
HETATM    6  C5  UNL     1     -33.442   8.168   3.242  1.00 20.00     0.277 C 
BRANCH   6   7
HETATM    7  N7  UNL     1     -32.027   8.088   3.009  1.00 20.00     0.083 N 
HETATM    8  H20 UNL     1     -31.642   7.243   3.446  1.00 20.00     0.315 HD
BRANCH   7   9
HETATM    9  C6  UNL     1     -31.715   8.050   1.579  1.00 20.00     0.265 C 
HETATM   10  C4  UNL     1     -32.329   9.206   0.865  1.00 20.00     0.037 C 
ENDBRANCH   7   9
ENDBRANCH   6   7
ENDBRANCH   2   6
TORSDOF 3
ENDMDL
MODEL 7
REMARK VINA RESULT:      -0.7      3.202      4.742
REMARK  3 active torsions:
REMARK  status: ('A' for Active; 'I' for Inactive)
REMARK    1  A    between atoms: C2_2  and  C5_5 
REMARK    2  A    between atoms: C5_5  and  N7_7 
REMARK    3  A    between atoms: C6_6  and  N7_7 
ROOT
HETATM    1  C1  UNL     1     -34.806   7.972   3.029  1.00 20.00     0.052 A 
HETATM    2  C2  UNL     1     -34.483   6.551   3.400  1.00 20.00     0.055 A 
HETATM    3  C3  UNL     1     -33.422   7.620   3.515  1.00 20.00     0.119 A 
HETATM    4 CL8  UNL     1     -32.115   7.605   2.331  1.00 20.00    -0.101 Cl
HETATM    5 CL9  UNL     1     -32.922   8.218   5.091  1.00 20.00    -0.101 Cl
ENDROOT
BRANCH   2   6
HETATM    6  C5  UNL     1     -35.134   5.926   4.588  1.00 20.00     0.277 C 
BRANCH   6   7
HETATM    7  N7  UNL     1     -35.074   4.492   4.518  1.00 20.00     0.083 N 
HETATM    8  H20 UNL     1     -35.846   4.133   3.946  1.00 20.00     0.315 HD
BRANCH   7   9
HETATM    9  C6  UNL     1     -33.814   4.031   3.933  1.00 20.00     0.265 C 
HETATM   10  C4  UNL     1     -33.210   2.940   4.750  1.00 20.00     0.037 C 
ENDBRANCH   7   9
ENDBRANCH   6   7
ENDBRANCH   2   6
TORSDOF 3
ENDMDL
MODEL 8
REMARK VINA RESULT:      -0.6      1.710      2.046
REMARK  3 active torsions:
REMARK  status: ('A' for Active; 'I' for Inactive)
REMARK    1  A    between atoms: C2_2  and  C5_5 
REMARK    2  A    between atoms: C5_5  and  N7_7 
REMARK    3  A    between atoms: C6_6  and  N7_7 
ROOT
HETATM    1  C1  UNL     1     -31.621   5.538   1.706  1.00 20.00     0.052 A 
HETATM    2  C2  UNL     1     -32.091   6.910   1.309  1.00 20.00     0.055 A 
HETATM    3  C3  UNL     1     -33.099   5.822   1.597  1.00 20.00     0.119 A 
HETATM    4 CL8  UNL     1     -33.970   5.129   0.228  1.00 20.00    -0.101 Cl
HETATM    5 CL9  UNL     1     -34.047   5.850   3.078  1.00 20.00    -0.101 Cl
ENDROOT
BRANCH   2   6
HETATM    6  C5  UNL     1     -31.867   8.067   2.223  1.00 20.00     0.277 C 
BRANCH   6   7
HETATM    7  N7  UNL     1     -32.307   9.296   1.621  1.00 20.00     0.083 N 
HETATM    8  H20 UNL     1     -31.800  10.090   2.027  1.00 20.00     0.315 HD
BRANCH   7   9
HETATM    9  C6  UNL     1     -32.087   9.299   0.174  1.00 20.00     0.265 C 
HETATM   10  C4  UNL     1     -32.893  10.364  -0.490  1.00 20.00     0.037 C 
ENDBRANCH   7   9
ENDBRANCH   6   7
ENDBRANCH   2   6
TORSDOF 3
ENDMDL
MODEL 9
REMARK VINA RESULT:      -0.5      2.103      2.755
REMARK  3 active torsions:
REMARK  status: ('A' for Active; 'I' for Inactive)
REMARK    1  A    between atoms: C2_2  and  C5_5 
REMARK    2  A    between atoms: C5_5  and  N7_7 
REMARK    3  A    between atoms: C6_6  and  N7_7 
ROOT
HETATM    1  C1  UNL     1     -34.173   7.543   4.689  1.00 20.00     0.052 A 
HETATM    2  C2  UNL     1     -33.457   6.943   3.511  1.00 20.00     0.055 A 
HETATM    3  C3  UNL     1     -34.849   6.474   3.867  1.00 20.00     0.119 A 
HETATM    4 CL8  UNL     1     -35.013   4.870   4.582  1.00 20.00    -0.101 Cl
HETATM    5 CL9  UNL     1     -36.229   6.938   2.881  1.00 20.00    -0.101 Cl
ENDROOT
BRANCH   2   6
HETATM    6  C5  UNL     1     -33.170   7.780   2.310  1.00 20.00     0.277 C 
BRANCH   6   7
HETATM    7  N7  UNL     1     -32.004   7.306   1.616  1.00 20.00     0.083 N 
HETATM    8  H20 UNL     1     -31.153   7.608   2.104  1.00 20.00     0.315 HD
BRANCH   7   9
HETATM    9  C6  UNL     1     -31.987   5.846   1.520  1.00 20.00     0.265 C 
HETATM   10  C4  UNL     1     -33.078   5.353   0.631  1.00 20.00     0.037 C 
ENDBRANCH   7   9
ENDBRANCH   6   7
ENDBRANCH   2   6
TORSDOF 3
ENDMDL
