MODEL 1
REMARK VINA RESULT:      -2.0      0.000      0.000
REMARK  6 active torsions:
REMARK  status: ('A' for Active; 'I' for Inactive)
REMARK    1  A    between atoms: C5_5  and  C8_8 
REMARK    2  A    between atoms: C6_6  and  C9_9 
REMARK    3  A    between atoms: C7_7  and  C10_10 
REMARK    4  A    between atoms: C8_8  and  N11_11 
REMARK    5  A    between atoms: C9_9  and  N11_11 
REMARK    6  A    between atoms: C10_10  and  N11_11 
ROOT
HETATM    1  C1  UNL     1     -32.387   9.743   0.345  1.00 20.00     0.012 C 
HETATM    2  C2  UNL     1     -32.167   8.741   0.969  1.00 20.00    -0.116 C 
HETATM    3  C5  UNL     1     -31.894   7.516   1.736  1.00 20.00     0.123 C 
ENDROOT
BRANCH   3   4
HETATM    4  C8  UNL     1     -33.074   6.549   1.708  1.00 20.00     0.284 C 
BRANCH   4   5
HETATM    5  N11 UNL     1     -33.341   6.014   3.042  1.00 20.00     0.089 N 
BRANCH   5   6
HETATM    6  C9  UNL     1     -33.465   4.557   2.992  1.00 20.00     0.272 C 
BRANCH   6   7
HETATM    7  C6  UNL     1     -33.964   3.971   4.307  1.00 20.00     0.026 C 
HETATM    8  C3  UNL     1     -33.075   2.851   4.827  1.00 20.00     0.007 C 
ENDBRANCH   6   7
ENDBRANCH   5   6
BRANCH   5   9
HETATM    9  C10 UNL     1     -34.554   6.611   3.599  1.00 20.00     0.272 C 
BRANCH   9  10
HETATM   10  C7  UNL     1     -34.320   8.027   4.113  1.00 20.00     0.026 C 
HETATM   11  C4  UNL     1     -33.175   8.108   5.113  1.00 20.00     0.007 C 
ENDBRANCH   9  10
ENDBRANCH   5   9
ENDBRANCH   4   5
ENDBRANCH   3   4
TORSDOF 6
ENDMDL
MODEL 2
REMARK VINA RESULT:      -1.5      0.753      2.862
REMARK  6 active torsions:
REMARK  status: ('A' for Active; 'I' for Inactive)
REMARK    1  A    between atoms: C5_5  and  C8_8 
REMARK    2  A    between atoms: C6_6  and  C9_9 
REMARK    3  A    between atoms: C7_7  and  C10_10 
REMARK    4  A    between atoms: C8_8  and  N11_11 
REMARK    5  A    between atoms: C9_9  and  N11_11 
REMARK    6  A    between atoms: C10_10  and  N11_11 
ROOT
HETATM    1  C1  UNL     1     -32.476   9.870   0.009  1.00 20.00     0.012 C 
HETATM    2  C2  UNL     1     -32.206   8.964   0.751  1.00 20.00    -0.116 C 
HETATM    3  C5  UNL     1     -31.875   7.858   1.662  1.00 20.00     0.123 C 
ENDROOT
BRANCH   3   4
HETATM    4  C8  UNL     1     -32.664   6.593   1.337  1.00 20.00     0.284 C 
BRANCH   4   5
HETATM    5  N11 UNL     1     -33.363   6.096   2.521  1.00 20.00     0.089 N 
BRANCH   5   6
HETATM    6  C9  UNL     1     -33.198   7.026   3.639  1.00 20.00     0.272 C 
BRANCH   6   7
HETATM    7  C6  UNL     1     -34.532   7.491   4.209  1.00 20.00     0.026 C 
HETATM    8  C3  UNL     1     -35.682   6.563   3.847  1.00 20.00     0.007 C 
ENDBRANCH   6   7
ENDBRANCH   5   6
BRANCH   5   9
HETATM    9  C10 UNL     1     -32.873   4.768   2.884  1.00 20.00     0.272 C 
BRANCH   9  10
HETATM   10  C7  UNL     1     -33.846   4.015   3.784  1.00 20.00     0.026 C 
HETATM   11  C4  UNL     1     -33.143   3.101   4.777  1.00 20.00     0.007 C 
ENDBRANCH   9  10
ENDBRANCH   5   9
ENDBRANCH   4   5
ENDBRANCH   3   4
TORSDOF 6
ENDMDL
MODEL 3
REMARK VINA RESULT:      -1.4      1.255      4.293
REMARK  6 active torsions:
REMARK  status: ('A' for Active; 'I' for Inactive)
REMARK    1  A    between atoms: C5_5  and  C8_8 
REMARK    2  A    between atoms: C6_6  and  C9_9 
REMARK    3  A    between atoms: C7_7  and  C10_10 
REMARK    4  A    between atoms: C8_8  and  N11_11 
REMARK    5  A    between atoms: C9_9  and  N11_11 
REMARK    6  A    between atoms: C10_10  and  N11_11 
ROOT
HETATM    1  C1  UNL     1     -33.926   3.793   4.389  1.00 20.00     0.012 C 
HETATM    2  C2  UNL     1     -34.296   4.900   4.106  1.00 20.00    -0.116 C 
HETATM    3  C5  UNL     1     -34.754   6.255   3.761  1.00 20.00     0.123 C 
ENDROOT
BRANCH   3   4
HETATM    4  C8  UNL     1     -33.589   7.223   3.582  1.00 20.00     0.284 C 
BRANCH   4   5
HETATM    5  N11 UNL     1     -33.277   7.407   2.165  1.00 20.00     0.089 N 
BRANCH   5   6
HETATM    6  C9  UNL     1     -33.201   6.113   1.487  1.00 20.00     0.272 C 
BRANCH   6   7
HETATM    7  C6  UNL     1     -31.801   5.513   1.537  1.00 20.00     0.026 C 
HETATM    8  C3  UNL     1     -31.568   4.472   0.451  1.00 20.00     0.007 C 
ENDBRANCH   6   7
ENDBRANCH   5   6
BRANCH   5   9
HETATM    9  C10 UNL     1     -32.022   8.140   2.009  1.00 20.00     0.272 C 
BRANCH   9  10
HETATM   10  C7  UNL     1     -31.894   8.785   0.633  1.00 20.00     0.026 C 
HETATM   11  C4  UNL     1     -32.611  10.125   0.542  1.00 20.00     0.007 C 
ENDBRANCH   9  10
ENDBRANCH   5   9
ENDBRANCH   4   5
ENDBRANCH   3   4
TORSDOF 6
ENDMDL
MODEL 4
REMARK VINA RESULT:      -1.4      1.634      4.362
REMARK  6 active torsions:
REMARK  status: ('A' for Active; 'I' for Inactive)
REMARK    1  A    between atoms: C5_5  and  C8_8 
REMARK    2  A    between atoms: C6_6  and  C9_9 
REMARK    3  A    between atoms: C7_7  and  C10_10 
REMARK    4  A    between atoms: C8_8  and  N11_11 
REMARK    5  A    between atoms: C9_9  and  N11_11 
REMARK    6  A    between atoms: C10_10  and  N11_11 
ROOT
HETATM    1  C1  UNL     1     -35.275   5.077   4.441  1.00 20.00     0.012 C 
HETATM    2  C2  UNL     1     -34.904   6.181   4.145  1.00 20.00    -0.116 C 
HETATM    3  C5  UNL     1     -34.453   7.534   3.785  1.00 20.00     0.123 C 
ENDROOT
BRANCH   3   4
HETATM    4  C8  UNL     1     -32.950   7.587   3.529  1.00 20.00     0.284 C 
BRANCH   4   5
HETATM    5  N11 UNL     1     -32.669   7.662   2.096  1.00 20.00     0.089 N 
BRANCH   5   6
HETATM    6  C9  UNL     1     -31.657   6.674   1.722  1.00 20.00     0.272 C 
BRANCH   6   7
HETATM    7  C6  UNL     1     -32.268   5.326   1.357  1.00 20.00     0.026 C 
HETATM    8  C3  UNL     1     -33.562   5.462   0.569  1.00 20.00     0.007 C 
ENDBRANCH   6   7
ENDBRANCH   5   6
BRANCH   5   9
HETATM    9  C10 UNL     1     -32.228   9.007   1.731  1.00 20.00     0.272 C 
BRANCH   9  10
HETATM   10  C7  UNL     1     -32.046   9.170   0.226  1.00 20.00     0.026 C 
HETATM   11  C4  UNL     1     -32.814  10.360  -0.333  1.00 20.00     0.007 C 
ENDBRANCH   9  10
ENDBRANCH   5   9
ENDBRANCH   4   5
ENDBRANCH   3   4
TORSDOF 6
ENDMDL
MODEL 5
REMARK VINA RESULT:      -1.3      1.487      3.014
REMARK  6 active torsions:
REMARK  status: ('A' for Active; 'I' for Inactive)
REMARK    1  A    between atoms: C5_5  and  C8_8 
REMARK    2  A    between atoms: C6_6  and  C9_9 
REMARK    3  A    between atoms: C7_7  and  C10_10 
REMARK    4  A    between atoms: C8_8  and  N11_11 
REMARK    5  A    between atoms: C9_9  and  N11_11 
REMARK    6  A    between atoms: C10_10  and  N11_11 
ROOT
HETATM    1  C1  UNL     1     -32.863  10.630   0.116  1.00 20.00     0.012 C 
HETATM    2  C2  UNL     1     -32.367   9.596   0.475  1.00 20.00    -0.116 C 
HETATM    3  C5  UNL     1     -31.758   8.330   0.910  1.00 20.00     0.123 C 
ENDROOT
BRANCH   3   4
HETATM    4  C8  UNL     1     -32.090   8.007   2.364  1.00 20.00     0.284 C 
BRANCH   4   5
HETATM    5  N11 UNL     1     -33.229   7.093   2.447  1.00 20.00     0.089 N 
BRANCH   5   6
HETATM    6  C9  UNL     1     -33.917   7.250   3.728  1.00 20.00     0.272 C 
BRANCH   6   7
HETATM    7  C6  UNL     1     -35.267   6.544   3.752  1.00 20.00     0.026 C 
HETATM    8  C3  UNL     1     -35.232   5.234   4.528  1.00 20.00     0.007 C 
ENDBRANCH   6   7
ENDBRANCH   5   6
BRANCH   5   9
HETATM    9  C10 UNL     1     -32.789   5.711   2.270  1.00 20.00     0.272 C 
BRANCH   9  10
HETATM   10  C7  UNL     1     -32.866   5.258   0.816  1.00 20.00     0.026 C 
HETATM   11  C4  UNL     1     -31.646   4.457   0.383  1.00 20.00     0.007 C 
ENDBRANCH   9  10
ENDBRANCH   5   9
ENDBRANCH   4   5
ENDBRANCH   3   4
TORSDOF 6
ENDMDL
MODEL 6
REMARK VINA RESULT:      -1.3      1.380      2.401
REMARK  6 active torsions:
REMARK  status: ('A' for Active; 'I' for Inactive)
REMARK    1  A    between atoms: C5_5  and  C8_8 
REMARK    2  A    between atoms: C6_6  and  C9_9 
REMARK    3  A    between atoms: C7_7  and  C10_10 
REMARK    4  A    between atoms: C8_8  and  N11_11 
REMARK    5  A    between atoms: C9_9  and  N11_11 
REMARK    6  A    between atoms: C10_10  and  N11_11 
ROOT
HETATM    1  C1  UNL     1     -32.661  10.596   0.048  1.00 20.00     0.012 C 
HETATM    2  C2  UNL     1     -32.290   9.580   0.571  1.00 20.00    -0.116 C 
HETATM    3  C5  UNL     1     -31.834   8.335   1.208  1.00 20.00     0.123 C 
ENDROOT
BRANCH   3   4
HETATM    4  C8  UNL     1     -32.167   8.298   2.696  1.00 20.00     0.284 C 
BRANCH   4   5
HETATM    5  N11 UNL     1     -32.940   7.102   3.028  1.00 20.00     0.089 N 
BRANCH   5   6
HETATM    6  C9  UNL     1     -33.363   6.413   1.809  1.00 20.00     0.272 C 
BRANCH   6   7
HETATM    7  C6  UNL     1     -32.778   5.010   1.702  1.00 20.00     0.026 C 
HETATM    8  C3  UNL     1     -31.654   4.918   0.681  1.00 20.00     0.007 C 
ENDBRANCH   6   7
ENDBRANCH   5   6
BRANCH   5   9
HETATM    9  C10 UNL     1     -34.100   7.454   3.845  1.00 20.00     0.272 C 
BRANCH   9  10
HETATM   10  C7  UNL     1     -35.246   6.461   3.684  1.00 20.00     0.026 C 
HETATM   11  C4  UNL     1     -35.025   5.176   4.469  1.00 20.00     0.007 C 
ENDBRANCH   9  10
ENDBRANCH   5   9
ENDBRANCH   4   5
ENDBRANCH   3   4
TORSDOF 6
ENDMDL
MODEL 7
REMARK VINA RESULT:      -1.2      1.051      5.050
REMARK  6 active torsions:
REMARK  status: ('A' for Active; 'I' for Inactive)
REMARK    1  A    between atoms: C5_5  and  C8_8 
REMARK    2  A    between atoms: C6_6  and  C9_9 
REMARK    3  A    between atoms: C7_7  and  C10_10 
REMARK    4  A    between atoms: C8_8  and  N11_11 
REMARK    5  A    between atoms: C9_9  and  N11_11 
REMARK    6  A    between atoms: C10_10  and  N11_11 
ROOT
HETATM    1  C1  UNL     1     -33.850   3.796   4.391  1.00 20.00     0.012 C 
HETATM    2  C2  UNL     1     -34.297   4.870   4.094  1.00 20.00    -0.116 C 
HETATM    3  C5  UNL     1     -34.850   6.185   3.732  1.00 20.00     0.123 C 
ENDROOT
BRANCH   3   4
HETATM    4  C8  UNL     1     -33.785   7.277   3.751  1.00 20.00     0.284 C 
BRANCH   4   5
HETATM    5  N11 UNL     1     -32.869   7.132   2.621  1.00 20.00     0.089 N 
BRANCH   5   6
HETATM    6  C9  UNL     1     -32.212   8.406   2.330  1.00 20.00     0.272 C 
BRANCH   6   7
HETATM    7  C6  UNL     1     -32.041   8.642   0.833  1.00 20.00     0.026 C 
HETATM    8  C3  UNL     1     -32.449  10.045   0.409  1.00 20.00     0.007 C 
ENDBRANCH   6   7
ENDBRANCH   5   6
BRANCH   5   9
HETATM    9  C10 UNL     1     -33.584   6.645   1.443  1.00 20.00     0.272 C 
BRANCH   9  10
HETATM   10  C7  UNL     1     -32.914   5.425   0.820  1.00 20.00     0.026 C 
HETATM   11  C4  UNL     1     -31.605   5.059   1.506  1.00 20.00     0.007 C 
ENDBRANCH   9  10
ENDBRANCH   5   9
ENDBRANCH   4   5
ENDBRANCH   3   4
TORSDOF 6
ENDMDL
MODEL 8
REMARK VINA RESULT:      -1.0      1.690      5.241
REMARK  6 active torsions:
REMARK  status: ('A' for Active; 'I' for Inactive)
REMARK    1  A    between atoms: C5_5  and  C8_8 
REMARK    2  A    between atoms: C6_6  and  C9_9 
REMARK    3  A    between atoms: C7_7  and  C10_10 
REMARK    4  A    between atoms: C8_8  and  N11_11 
REMARK    5  A    between atoms: C9_9  and  N11_11 
REMARK    6  A    between atoms: C10_10  and  N11_11 
ROOT
HETATM    1  C1  UNL     1     -35.373   5.388   4.377  1.00 20.00     0.012 C 
HETATM    2  C2  UNL     1     -34.900   6.435   4.028  1.00 20.00    -0.116 C 
HETATM    3  C5  UNL     1     -34.323   7.719   3.600  1.00 20.00     0.123 C 
ENDROOT
BRANCH   3   4
HETATM    4  C8  UNL     1     -32.800   7.717   3.681  1.00 20.00     0.284 C 
BRANCH   4   5
HETATM    5  N11 UNL     1     -32.207   7.808   2.348  1.00 20.00     0.089 N 
BRANCH   5   6
HETATM    6  C9  UNL     1     -32.427   9.139   1.782  1.00 20.00     0.272 C 
BRANCH   6   7
HETATM    7  C6  UNL     1     -32.066   9.208   0.303  1.00 20.00     0.026 C 
HETATM    8  C3  UNL     1     -32.776  10.341  -0.424  1.00 20.00     0.007 C 
ENDBRANCH   6   7
ENDBRANCH   5   6
BRANCH   5   9
HETATM    9  C10 UNL     1     -32.764   6.781   1.470  1.00 20.00     0.272 C 
BRANCH   9  10
HETATM   10  C7  UNL     1     -32.026   5.452   1.590  1.00 20.00     0.026 C 
HETATM   11  C4  UNL     1     -32.287   4.526   0.411  1.00 20.00     0.007 C 
ENDBRANCH   9  10
ENDBRANCH   5   9
ENDBRANCH   4   5
ENDBRANCH   3   4
TORSDOF 6
ENDMDL
MODEL 9
REMARK VINA RESULT:      -0.9      0.664      4.580
REMARK  6 active torsions:
REMARK  status: ('A' for Active; 'I' for Inactive)
REMARK    1  A    between atoms: C5_5  and  C8_8 
REMARK    2  A    between atoms: C6_6  and  C9_9 
REMARK    3  A    between atoms: C7_7  and  C10_10 
REMARK    4  A    between atoms: C8_8  and  N11_11 
REMARK    5  A    between atoms: C9_9  and  N11_11 
REMARK    6  A    between atoms: C10_10  and  N11_11 
ROOT
HETATM    1  C1  UNL     1     -32.926   2.700   5.120  1.00 20.00     0.012 C 
HETATM    2  C2  UNL     1     -33.519   3.524   4.478  1.00 20.00    -0.116 C 
HETATM    3  C5  UNL     1     -34.249   4.534   3.696  1.00 20.00     0.123 C 
ENDROOT
BRANCH   3   4
HETATM    4  C8  UNL     1     -33.429   5.042   2.514  1.00 20.00     0.284 C 
BRANCH   4   5
HETATM    5  N11 UNL     1     -33.095   6.456   2.682  1.00 20.00     0.089 N 
BRANCH   5   6
HETATM    6  C9  UNL     1     -34.287   7.222   3.045  1.00 20.00     0.272 C 
BRANCH   6   7
HETATM    7  C6  UNL     1     -34.309   7.594   4.523  1.00 20.00     0.026 C 
HETATM    8  C3  UNL     1     -33.034   8.293   4.973  1.00 20.00     0.007 C 
ENDBRANCH   6   7
ENDBRANCH   5   6
BRANCH   5   9
HETATM    9  C10 UNL     1     -32.499   6.988   1.458  1.00 20.00     0.272 C 
BRANCH   9  10
HETATM   10  C7  UNL     1     -31.899   8.375   1.660  1.00 20.00     0.026 C 
HETATM   11  C4  UNL     1     -32.259   9.341   0.540  1.00 20.00     0.007 C 
ENDBRANCH   9  10
ENDBRANCH   5   9
ENDBRANCH   4   5
ENDBRANCH   3   4
TORSDOF 6
ENDMDL
