MODEL 1
REMARK VINA RESULT:      -2.3      0.000      0.000
REMARK  3 active torsions:
REMARK  status: ('A' for Active; 'I' for Inactive)
REMARK    1  A    between atoms: C1_1  and  C3_3 
REMARK       I    between atoms: C1_1  and  N9_9 
REMARK    2  A    between atoms: C7_7  and  C8_8 
REMARK    3  A    between atoms: C8_8  and  N9_9 
ROOT
HETATM    1  C1  UNL     1     -33.653   6.892   3.254  1.00 20.00     0.222 C 
HETATM    2  N9  UNL     1     -32.720   7.073   2.250  1.00 20.00    -0.361 N 
HETATM    3  O10 UNL     1     -34.029   7.737   4.059  1.00 20.00    -0.273 OA
HETATM    4  H25 UNL     1     -32.497   6.286   1.650  1.00 20.00     0.162 HD
ENDROOT
BRANCH   1   5
HETATM    5  C3  UNL     1     -34.214   5.538   3.311  1.00 20.00     0.082 A 
HETATM    6  C2  UNL     1     -35.258   5.216   4.347  1.00 20.00     0.019 A 
HETATM    7  C4  UNL     1     -33.870   4.649   4.489  1.00 20.00    -0.005 A 
HETATM    8  C5  UNL     1     -33.629   3.193   4.283  1.00 20.00     0.011 C 
ENDBRANCH   1   5
BRANCH   2   9
HETATM    9  C8  UNL     1     -32.045   8.330   2.016  1.00 20.00     0.122 C 
BRANCH   9  10
HETATM   10  C7  UNL     1     -32.038   8.719   0.543  1.00 20.00     0.015 C 
HETATM   11  C6  UNL     1     -32.525  10.142   0.308  1.00 20.00     0.006 C 
ENDBRANCH   9  10
ENDBRANCH   2   9
TORSDOF 3
ENDMDL
MODEL 2
REMARK VINA RESULT:      -1.9      1.291      5.096
REMARK  3 active torsions:
REMARK  status: ('A' for Active; 'I' for Inactive)
REMARK    1  A    between atoms: C1_1  and  C3_3 
REMARK       I    between atoms: C1_1  and  N9_9 
REMARK    2  A    between atoms: C7_7  and  C8_8 
REMARK    3  A    between atoms: C8_8  and  N9_9 
ROOT
HETATM    1  C1  UNL     1     -33.798   6.439   3.100  1.00 20.00     0.222 C 
HETATM    2  N9  UNL     1     -33.758   5.060   3.180  1.00 20.00    -0.361 N 
HETATM    3  O10 UNL     1     -34.223   7.206   3.956  1.00 20.00    -0.273 OA
HETATM    4  H25 UNL     1     -33.378   4.540   2.395  1.00 20.00     0.162 HD
ENDROOT
BRANCH   1   5
HETATM    5  C3  UNL     1     -33.263   6.980   1.846  1.00 20.00     0.082 A 
HETATM    6  C2  UNL     1     -31.910   6.528   1.366  1.00 20.00     0.019 A 
HETATM    7  C4  UNL     1     -32.080   7.925   1.898  1.00 20.00    -0.005 A 
HETATM    8  C5  UNL     1     -32.014   9.094   0.976  1.00 20.00     0.011 C 
ENDBRANCH   1   5
BRANCH   2   9
HETATM    9  C8  UNL     1     -34.234   4.321   4.329  1.00 20.00     0.122 C 
BRANCH   9  10
HETATM   10  C7  UNL     1     -33.464   3.024   4.543  1.00 20.00     0.015 C 
HETATM   11  C6  UNL     1     -32.609   3.048   5.802  1.00 20.00     0.006 C 
ENDBRANCH   9  10
ENDBRANCH   2   9
TORSDOF 3
ENDMDL
MODEL 3
REMARK VINA RESULT:      -1.9      1.591      1.640
REMARK  3 active torsions:
REMARK  status: ('A' for Active; 'I' for Inactive)
REMARK    1  A    between atoms: C1_1  and  C3_3 
REMARK       I    between atoms: C1_1  and  N9_9 
REMARK    2  A    between atoms: C7_7  and  C8_8 
REMARK    3  A    between atoms: C8_8  and  N9_9 
ROOT
HETATM    1  C1  UNL     1     -32.645   6.336   1.825  1.00 20.00     0.222 C 
HETATM    2  N9  UNL     1     -32.635   7.702   2.030  1.00 20.00    -0.361 N 
HETATM    3  O10 UNL     1     -31.843   5.694   1.155  1.00 20.00    -0.273 OA
HETATM    4  H25 UNL     1     -33.361   8.109   2.610  1.00 20.00     0.162 HD
ENDROOT
BRANCH   1   5
HETATM    5  C3  UNL     1     -33.744   5.638   2.502  1.00 20.00     0.082 A 
HETATM    6  C2  UNL     1     -34.446   6.309   3.652  1.00 20.00     0.019 A 
HETATM    7  C4  UNL     1     -33.537   5.139   3.918  1.00 20.00    -0.005 A 
HETATM    8  C5  UNL     1     -34.105   3.827   4.339  1.00 20.00     0.011 C 
ENDBRANCH   1   5
BRANCH   2   9
HETATM    9  C8  UNL     1     -31.640   8.580   1.456  1.00 20.00     0.122 C 
BRANCH   9  10
HETATM   10  C7  UNL     1     -32.095   9.189   0.136  1.00 20.00     0.015 C 
HETATM   11  C6  UNL     1     -32.686  10.582   0.305  1.00 20.00     0.006 C 
ENDBRANCH   9  10
ENDBRANCH   2   9
TORSDOF 3
ENDMDL
MODEL 4
REMARK VINA RESULT:      -1.6      1.991      2.518
REMARK  3 active torsions:
REMARK  status: ('A' for Active; 'I' for Inactive)
REMARK    1  A    between atoms: C1_1  and  C3_3 
REMARK       I    between atoms: C1_1  and  N9_9 
REMARK    2  A    between atoms: C7_7  and  C8_8 
REMARK    3  A    between atoms: C8_8  and  N9_9 
ROOT
HETATM    1  C1  UNL     1     -32.755   6.868   1.942  1.00 20.00     0.222 C 
HETATM    2  N9  UNL     1     -32.168   8.092   1.683  1.00 20.00    -0.361 N 
HETATM    3  O10 UNL     1     -32.913   5.952   1.143  1.00 20.00    -0.273 OA
HETATM    4  H25 UNL     1     -32.100   8.765   2.439  1.00 20.00     0.162 HD
ENDROOT
BRANCH   1   5
HETATM    5  C3  UNL     1     -33.215   6.707   3.326  1.00 20.00     0.082 A 
HETATM    6  C2  UNL     1     -34.683   6.512   3.597  1.00 20.00     0.019 A 
HETATM    7  C4  UNL     1     -34.026   7.816   3.966  1.00 20.00    -0.005 A 
HETATM    8  C5  UNL     1     -33.810   8.170   5.397  1.00 20.00     0.011 C 
ENDBRANCH   1   5
BRANCH   2   9
HETATM    9  C8  UNL     1     -31.645   8.458   0.386  1.00 20.00     0.122 C 
BRANCH   9  10
HETATM   10  C7  UNL     1     -32.428   9.598  -0.254  1.00 20.00     0.015 C 
HETATM   11  C6  UNL     1     -32.792  10.692   0.740  1.00 20.00     0.006 C 
ENDBRANCH   9  10
ENDBRANCH   2   9
TORSDOF 3
ENDMDL
MODEL 5
REMARK VINA RESULT:      -1.6      1.758      4.859
REMARK  3 active torsions:
REMARK  status: ('A' for Active; 'I' for Inactive)
REMARK    1  A    between atoms: C1_1  and  C3_3 
REMARK       I    between atoms: C1_1  and  N9_9 
REMARK    2  A    between atoms: C7_7  and  C8_8 
REMARK    3  A    between atoms: C8_8  and  N9_9 
ROOT
HETATM    1  C1  UNL     1     -32.716   6.032   1.618  1.00 20.00     0.222 C 
HETATM    2  N9  UNL     1     -33.039   5.854   2.950  1.00 20.00    -0.361 N 
HETATM    3  O10 UNL     1     -33.019   5.290   0.690  1.00 20.00    -0.273 OA
HETATM    4  H25 UNL     1     -32.724   6.548   3.621  1.00 20.00     0.162 HD
ENDROOT
BRANCH   1   5
HETATM    5  C3  UNL     1     -31.937   7.246   1.349  1.00 20.00     0.082 A 
HETATM    6  C2  UNL     1     -31.778   8.276   2.435  1.00 20.00     0.019 A 
HETATM    7  C4  UNL     1     -32.656   8.575   1.250  1.00 20.00    -0.005 A 
HETATM    8  C5  UNL     1     -32.232   9.582   0.236  1.00 20.00     0.011 C 
ENDBRANCH   1   5
BRANCH   2   9
HETATM    9  C8  UNL     1     -33.803   4.726   3.434  1.00 20.00     0.122 C 
BRANCH   9  10
HETATM   10  C7  UNL     1     -35.023   5.155   4.239  1.00 20.00     0.015 C 
HETATM   11  C6  UNL     1     -35.377   6.621   4.035  1.00 20.00     0.006 C 
ENDBRANCH   9  10
ENDBRANCH   2   9
TORSDOF 3
ENDMDL
MODEL 6
REMARK VINA RESULT:      -1.5      1.709      5.234
REMARK  3 active torsions:
REMARK  status: ('A' for Active; 'I' for Inactive)
REMARK    1  A    between atoms: C1_1  and  C3_3 
REMARK       I    between atoms: C1_1  and  N9_9 
REMARK    2  A    between atoms: C7_7  and  C8_8 
REMARK    3  A    between atoms: C8_8  and  N9_9 
ROOT
HETATM    1  C1  UNL     1     -32.780   6.033   1.769  1.00 20.00     0.222 C 
HETATM    2  N9  UNL     1     -33.439   5.926   2.979  1.00 20.00    -0.361 N 
HETATM    3  O10 UNL     1     -32.811   5.224   0.849  1.00 20.00    -0.273 OA
HETATM    4  H25 UNL     1     -33.327   6.672   3.658  1.00 20.00     0.162 HD
ENDROOT
BRANCH   1   5
HETATM    5  C3  UNL     1     -31.981   7.256   1.630  1.00 20.00     0.082 A 
HETATM    6  C2  UNL     1     -32.093   8.332   2.676  1.00 20.00     0.019 A 
HETATM    7  C4  UNL     1     -32.684   8.560   1.310  1.00 20.00    -0.005 A 
HETATM    8  C5  UNL     1     -32.058   9.537   0.375  1.00 20.00     0.011 C 
ENDBRANCH   1   5
BRANCH   2   9
HETATM    9  C8  UNL     1     -34.281   4.802   3.323  1.00 20.00     0.122 C 
BRANCH   9  10
HETATM   10  C7  UNL     1     -33.927   4.207   4.680  1.00 20.00     0.015 C 
HETATM   11  C6  UNL     1     -33.212   2.867   4.567  1.00 20.00     0.006 C 
ENDBRANCH   9  10
ENDBRANCH   2   9
TORSDOF 3
ENDMDL
MODEL 7
REMARK VINA RESULT:      -1.4      1.088      4.972
REMARK  3 active torsions:
REMARK  status: ('A' for Active; 'I' for Inactive)
REMARK    1  A    between atoms: C1_1  and  C3_3 
REMARK       I    between atoms: C1_1  and  N9_9 
REMARK    2  A    between atoms: C7_7  and  C8_8 
REMARK    3  A    between atoms: C8_8  and  N9_9 
ROOT
HETATM    1  C1  UNL     1     -33.383   7.364   3.111  1.00 20.00     0.222 C 
HETATM    2  N9  UNL     1     -34.444   6.480   3.056  1.00 20.00    -0.361 N 
HETATM    3  O10 UNL     1     -32.975   7.951   4.107  1.00 20.00    -0.273 OA
HETATM    4  H25 UNL     1     -34.678   6.061   2.162  1.00 20.00     0.162 HD
ENDROOT
BRANCH   1   5
HETATM    5  C3  UNL     1     -32.718   7.580   1.822  1.00 20.00     0.082 A 
HETATM    6  C2  UNL     1     -31.246   7.893   1.795  1.00 20.00     0.019 A 
HETATM    7  C4  UNL     1     -32.241   8.974   1.465  1.00 20.00    -0.005 A 
HETATM    8  C5  UNL     1     -32.370   9.474   0.067  1.00 20.00     0.011 C 
ENDBRANCH   1   5
BRANCH   2   9
HETATM    9  C8  UNL     1     -35.236   6.123   4.212  1.00 20.00     0.122 C 
BRANCH   9  10
HETATM   10  C7  UNL     1     -35.000   4.685   4.655  1.00 20.00     0.015 C 
HETATM   11  C6  UNL     1     -33.834   4.028   3.928  1.00 20.00     0.006 C 
ENDBRANCH   9  10
ENDBRANCH   2   9
TORSDOF 3
ENDMDL
MODEL 8
REMARK VINA RESULT:      -1.2      1.585      5.075
REMARK  3 active torsions:
REMARK  status: ('A' for Active; 'I' for Inactive)
REMARK    1  A    between atoms: C1_1  and  C3_3 
REMARK       I    between atoms: C1_1  and  N9_9 
REMARK    2  A    between atoms: C7_7  and  C8_8 
REMARK    3  A    between atoms: C8_8  and  N9_9 
ROOT
HETATM    1  C1  UNL     1     -32.873   7.031   2.100  1.00 20.00     0.222 C 
HETATM    2  N9  UNL     1     -33.331   7.798   3.155  1.00 20.00    -0.361 N 
HETATM    3  O10 UNL     1     -32.998   5.818   1.974  1.00 20.00    -0.273 OA
HETATM    4  H25 UNL     1     -33.160   8.798   3.135  1.00 20.00     0.162 HD
ENDROOT
BRANCH   1   5
HETATM    5  C3  UNL     1     -32.179   7.799   1.060  1.00 20.00     0.082 A 
HETATM    6  C2  UNL     1     -31.183   8.853   1.464  1.00 20.00     0.019 A 
HETATM    7  C4  UNL     1     -32.510   9.267   0.886  1.00 20.00    -0.005 A 
HETATM    8  C5  UNL     1     -32.582   9.860  -0.480  1.00 20.00     0.011 C 
ENDBRANCH   1   5
BRANCH   2   9
HETATM    9  C8  UNL     1     -34.043   7.244   4.284  1.00 20.00     0.122 C 
BRANCH   9  10
HETATM   10  C7  UNL     1     -35.255   6.423   3.860  1.00 20.00     0.015 C 
HETATM   11  C6  UNL     1     -35.269   5.032   4.477  1.00 20.00     0.006 C 
ENDBRANCH   9  10
ENDBRANCH   2   9
TORSDOF 3
ENDMDL
MODEL 9
REMARK VINA RESULT:      -1.1      1.697      2.244
REMARK  3 active torsions:
REMARK  status: ('A' for Active; 'I' for Inactive)
REMARK    1  A    between atoms: C1_1  and  C3_3 
REMARK       I    between atoms: C1_1  and  N9_9 
REMARK    2  A    between atoms: C7_7  and  C8_8 
REMARK    3  A    between atoms: C8_8  and  N9_9 
ROOT
HETATM    1  C1  UNL     1     -32.392   6.735   1.913  1.00 20.00     0.222 C 
HETATM    2  N9  UNL     1     -32.222   8.089   1.697  1.00 20.00    -0.361 N 
HETATM    3  O10 UNL     1     -32.024   5.828   1.175  1.00 20.00    -0.273 OA
HETATM    4  H25 UNL     1     -32.577   8.738   2.391  1.00 20.00     0.162 HD
ENDROOT
BRANCH   1   5
HETATM    5  C3  UNL     1     -33.087   6.413   3.164  1.00 20.00     0.082 A 
HETATM    6  C2  UNL     1     -33.494   4.989   3.436  1.00 20.00     0.019 A 
HETATM    7  C4  UNL     1     -34.548   6.014   3.112  1.00 20.00    -0.005 A 
HETATM    8  C5  UNL     1     -35.489   6.482   4.169  1.00 20.00     0.011 C 
ENDBRANCH   1   5
BRANCH   2   9
HETATM    9  C8  UNL     1     -31.562   8.625   0.528  1.00 20.00     0.122 C 
BRANCH   9  10
HETATM   10  C7  UNL     1     -32.419   9.651  -0.203  1.00 20.00     0.015 C 
HETATM   11  C6  UNL     1     -32.832  10.815   0.688  1.00 20.00     0.006 C 
ENDBRANCH   9  10
ENDBRANCH   2   9
TORSDOF 3
ENDMDL
