MODEL 1
REMARK VINA RESULT:      -0.7      0.000      0.000
REMARK  1 active torsions:
REMARK  status: ('A' for Active; 'I' for Inactive)
REMARK       I    between atoms: C1_1  and  N9_9 
REMARK    1  A    between atoms: C6_6  and  N9_9 
ROOT
HETATM    1  C2  UNL     1     -34.099   4.857   3.862  1.00 20.00     0.002 C 
HETATM    2  C3  UNL     1     -35.361   5.619   4.264  1.00 20.00     0.002 C 
HETATM    3  C4  UNL     1     -33.281   5.813   3.000  1.00 20.00     0.031 C 
HETATM    4  C5  UNL     1     -35.245   7.001   3.625  1.00 20.00     0.031 C 
HETATM    5  C6  UNL     1     -33.742   7.216   3.411  1.00 20.00     0.029 C 
HETATM    6  C8  UNL     1     -33.048   7.690   4.692  1.00 20.00     0.038 C 
ENDROOT
BRANCH   5   7
HETATM    7  N9  UNL     1     -33.500   8.174   2.356  1.00 20.00    -0.353 N 
HETATM    8  C1  UNL     1     -32.313   8.234   1.657  1.00 20.00     0.214 C 
HETATM    9  C7  UNL     1     -32.284   9.298   0.611  1.00 20.00     0.117 C 
HETATM   10  O10 UNL     1     -31.332   7.517   1.818  1.00 20.00    -0.274 OA
HETATM   11  H25 UNL     1     -34.235   8.830   2.119  1.00 20.00     0.163 HD
ENDBRANCH   5   7
TORSDOF 1
ENDMDL
MODEL 2
REMARK VINA RESULT:       0.3      1.306      1.725
REMARK  1 active torsions:
REMARK  status: ('A' for Active; 'I' for Inactive)
REMARK       I    between atoms: C1_1  and  N9_9 
REMARK    1  A    between atoms: C6_6  and  N9_9 
ROOT
HETATM    1  C2  UNL     1     -33.178   5.438   2.469  1.00 20.00     0.002 C 
HETATM    2  C3  UNL     1     -33.944   6.116   3.605  1.00 20.00     0.002 C 
HETATM    3  C4  UNL     1     -32.809   6.544   1.485  1.00 20.00     0.031 C 
HETATM    4  C5  UNL     1     -34.003   7.599   3.252  1.00 20.00     0.031 C 
HETATM    5  C6  UNL     1     -32.813   7.835   2.314  1.00 20.00     0.029 C 
HETATM    6  C8  UNL     1     -31.505   8.015   3.090  1.00 20.00     0.038 C 
ENDROOT
BRANCH   5   7
HETATM    7  N9  UNL     1     -33.033   8.991   1.475  1.00 20.00    -0.353 N 
HETATM    8  C1  UNL     1     -32.167   9.362   0.469  1.00 20.00     0.214 C 
HETATM    9  C7  UNL     1     -32.593  10.586  -0.271  1.00 20.00     0.117 C 
HETATM   10  O10 UNL     1     -31.131   8.792   0.148  1.00 20.00    -0.274 OA
HETATM   11  H25 UNL     1     -33.860   9.554   1.634  1.00 20.00     0.163 HD
ENDBRANCH   5   7
TORSDOF 1
ENDMDL
MODEL 3
REMARK VINA RESULT:       0.3      1.636      4.265
REMARK  1 active torsions:
REMARK  status: ('A' for Active; 'I' for Inactive)
REMARK       I    between atoms: C1_1  and  N9_9 
REMARK    1  A    between atoms: C6_6  and  N9_9 
ROOT
HETATM    1  C2  UNL     1     -32.216   9.834   0.519  1.00 20.00     0.002 C 
HETATM    2  C3  UNL     1     -31.208   8.739   0.169  1.00 20.00     0.002 C 
HETATM    3  C4  UNL     1     -33.218   9.199   1.478  1.00 20.00     0.031 C 
HETATM    4  C5  UNL     1     -31.651   7.494   0.933  1.00 20.00     0.031 C 
HETATM    5  C6  UNL     1     -32.471   8.022   2.116  1.00 20.00     0.029 C 
HETATM    6  C8  UNL     1     -31.574   8.479   3.271  1.00 20.00     0.038 C 
ENDROOT
BRANCH   5   7
HETATM    7  N9  UNL     1     -33.394   7.020   2.598  1.00 20.00    -0.353 N 
HETATM    8  C1  UNL     1     -34.124   7.168   3.758  1.00 20.00     0.214 C 
HETATM    9  C7  UNL     1     -35.015   6.010   4.061  1.00 20.00     0.117 C 
HETATM   10  O10 UNL     1     -34.101   8.128   4.518  1.00 20.00    -0.274 OA
HETATM   11  H25 UNL     1     -33.510   6.170   2.059  1.00 20.00     0.163 HD
ENDBRANCH   5   7
TORSDOF 1
ENDMDL
MODEL 4
REMARK VINA RESULT:       0.5      2.342      4.282
REMARK  1 active torsions:
REMARK  status: ('A' for Active; 'I' for Inactive)
REMARK       I    between atoms: C1_1  and  N9_9 
REMARK    1  A    between atoms: C6_6  and  N9_9 
ROOT
HETATM    1  C2  UNL     1     -31.992   7.994   1.698  1.00 20.00     0.002 C 
HETATM    2  C3  UNL     1     -33.200   8.323   2.575  1.00 20.00     0.002 C 
HETATM    3  C4  UNL     1     -31.727   6.503   1.881  1.00 20.00     0.031 C 
HETATM    4  C5  UNL     1     -33.606   7.014   3.247  1.00 20.00     0.031 C 
HETATM    5  C6  UNL     1     -33.068   5.910   2.329  1.00 20.00     0.029 C 
HETATM    6  C8  UNL     1     -34.000   5.653   1.141  1.00 20.00     0.038 C 
ENDROOT
BRANCH   5   7
HETATM    7  N9  UNL     1     -32.874   4.677   3.058  1.00 20.00    -0.353 N 
HETATM    8  C1  UNL     1     -33.804   4.176   3.943  1.00 20.00     0.214 C 
HETATM    9  C7  UNL     1     -33.396   2.889   4.581  1.00 20.00     0.117 C 
HETATM   10  O10 UNL     1     -34.885   4.676   4.230  1.00 20.00    -0.274 OA
HETATM   11  H25 UNL     1     -32.016   4.158   2.913  1.00 20.00     0.163 HD
ENDBRANCH   5   7
TORSDOF 1
ENDMDL
MODEL 5
REMARK VINA RESULT:       0.6      1.797      4.052
REMARK  1 active torsions:
REMARK  status: ('A' for Active; 'I' for Inactive)
REMARK       I    between atoms: C1_1  and  N9_9 
REMARK    1  A    between atoms: C6_6  and  N9_9 
ROOT
HETATM    1  C2  UNL     1     -31.313   8.694   1.794  1.00 20.00     0.002 C 
HETATM    2  C3  UNL     1     -32.188   8.655   0.542  1.00 20.00     0.002 C 
HETATM    3  C4  UNL     1     -31.913   7.680   2.764  1.00 20.00     0.031 C 
HETATM    4  C5  UNL     1     -33.276   7.619   0.815  1.00 20.00     0.031 C 
HETATM    5  C6  UNL     1     -32.685   6.691   1.882  1.00 20.00     0.029 C 
HETATM    6  C8  UNL     1     -31.758   5.636   1.268  1.00 20.00     0.038 C 
ENDROOT
BRANCH   5   7
HETATM    7  N9  UNL     1     -33.728   6.030   2.632  1.00 20.00    -0.353 N 
HETATM    8  C1  UNL     1     -34.394   6.630   3.679  1.00 20.00     0.214 C 
HETATM    9  C7  UNL     1     -35.434   5.764   4.307  1.00 20.00     0.117 C 
HETATM   10  O10 UNL     1     -34.211   7.763   4.109  1.00 20.00    -0.274 OA
HETATM   11  H25 UNL     1     -33.981   5.082   2.378  1.00 20.00     0.163 HD
ENDBRANCH   5   7
TORSDOF 1
ENDMDL
MODEL 6
REMARK VINA RESULT:       0.9      1.468      4.032
REMARK  1 active torsions:
REMARK  status: ('A' for Active; 'I' for Inactive)
REMARK       I    between atoms: C1_1  and  N9_9 
REMARK    1  A    between atoms: C6_6  and  N9_9 
ROOT
HETATM    1  C2  UNL     1     -31.993   9.465   0.464  1.00 20.00     0.002 C 
HETATM    2  C3  UNL     1     -31.388   8.064   0.388  1.00 20.00     0.002 C 
HETATM    3  C4  UNL     1     -33.028   9.421   1.585  1.00 20.00     0.031 C 
HETATM    4  C5  UNL     1     -32.086   7.239   1.466  1.00 20.00     0.031 C 
HETATM    5  C6  UNL     1     -32.588   8.264   2.490  1.00 20.00     0.029 C 
HETATM    6  C8  UNL     1     -31.479   8.690   3.457  1.00 20.00     0.038 C 
ENDROOT
BRANCH   5   7
HETATM    7  N9  UNL     1     -33.704   7.741   3.245  1.00 20.00    -0.353 N 
HETATM    8  C1  UNL     1     -34.013   6.399   3.293  1.00 20.00     0.214 C 
HETATM    9  C7  UNL     1     -35.204   6.085   4.135  1.00 20.00     0.117 C 
HETATM   10  O10 UNL     1     -33.414   5.490   2.730  1.00 20.00    -0.274 OA
HETATM   11  H25 UNL     1     -34.285   8.390   3.762  1.00 20.00     0.163 HD
ENDBRANCH   5   7
TORSDOF 1
ENDMDL
MODEL 7
REMARK VINA RESULT:       1.2      1.820      2.683
REMARK  1 active torsions:
REMARK  status: ('A' for Active; 'I' for Inactive)
REMARK       I    between atoms: C1_1  and  N9_9 
REMARK    1  A    between atoms: C6_6  and  N9_9 
ROOT
HETATM    1  C2  UNL     1     -34.079   7.395   3.835  1.00 20.00     0.002 C 
HETATM    2  C3  UNL     1     -32.768   7.942   4.397  1.00 20.00     0.002 C 
HETATM    3  C4  UNL     1     -33.997   7.566   2.321  1.00 20.00     0.031 C 
HETATM    4  C5  UNL     1     -31.956   8.419   3.196  1.00 20.00     0.031 C 
HETATM    5  C6  UNL     1     -32.498   7.620   2.005  1.00 20.00     0.029 C 
HETATM    6  C8  UNL     1     -31.883   6.219   1.934  1.00 20.00     0.038 C 
ENDROOT
BRANCH   5   7
HETATM    7  N9  UNL     1     -32.254   8.311   0.760  1.00 20.00    -0.353 N 
HETATM    8  C1  UNL     1     -32.559   9.642   0.569  1.00 20.00     0.214 C 
HETATM    9  C7  UNL     1     -32.219  10.149  -0.793  1.00 20.00     0.117 C 
HETATM   10  O10 UNL     1     -33.058  10.403   1.390  1.00 20.00    -0.274 OA
HETATM   11  H25 UNL     1     -31.840   7.795  -0.007  1.00 20.00     0.163 HD
ENDBRANCH   5   7
TORSDOF 1
ENDMDL
MODEL 8
REMARK VINA RESULT:       1.2      1.472      4.359
REMARK  1 active torsions:
REMARK  status: ('A' for Active; 'I' for Inactive)
REMARK       I    between atoms: C1_1  and  N9_9 
REMARK    1  A    between atoms: C6_6  and  N9_9 
ROOT
HETATM    1  C2  UNL     1     -32.383  10.542   0.261  1.00 20.00     0.002 C 
HETATM    2  C3  UNL     1     -32.425   9.355  -0.701  1.00 20.00     0.002 C 
HETATM    3  C4  UNL     1     -32.772   9.994   1.630  1.00 20.00     0.031 C 
HETATM    4  C5  UNL     1     -32.839   8.146   0.134  1.00 20.00     0.031 C 
HETATM    5  C6  UNL     1     -32.440   8.499   1.572  1.00 20.00     0.029 C 
HETATM    6  C8  UNL     1     -30.953   8.237   1.829  1.00 20.00     0.038 C 
ENDROOT
BRANCH   5   7
HETATM    7  N9  UNL     1     -33.227   7.753   2.527  1.00 20.00    -0.353 N 
HETATM    8  C1  UNL     1     -33.365   6.383   2.478  1.00 20.00     0.214 C 
HETATM    9  C7  UNL     1     -34.222   5.824   3.565  1.00 20.00     0.117 C 
HETATM   10  O10 UNL     1     -32.863   5.626   1.655  1.00 20.00    -0.274 OA
HETATM   11  H25 UNL     1     -33.699   8.260   3.266  1.00 20.00     0.163 HD
ENDBRANCH   5   7
TORSDOF 1
ENDMDL
MODEL 9
REMARK VINA RESULT:       1.3      2.576      4.116
REMARK  1 active torsions:
REMARK  status: ('A' for Active; 'I' for Inactive)
REMARK       I    between atoms: C1_1  and  N9_9 
REMARK    1  A    between atoms: C6_6  and  N9_9 
ROOT
HETATM    1  C2  UNL     1     -33.881   8.326   4.038  1.00 20.00     0.002 C 
HETATM    2  C3  UNL     1     -35.233   7.787   3.573  1.00 20.00     0.002 C 
HETATM    3  C4  UNL     1     -32.946   7.122   4.114  1.00 20.00     0.031 C 
HETATM    4  C5  UNL     1     -35.051   6.283   3.390  1.00 20.00     0.031 C 
HETATM    5  C6  UNL     1     -33.549   6.088   3.155  1.00 20.00     0.029 C 
HETATM    6  C8  UNL     1     -33.159   6.368   1.700  1.00 20.00     0.038 C 
ENDROOT
BRANCH   5   7
HETATM    7  N9  UNL     1     -33.137   4.749   3.510  1.00 20.00    -0.353 N 
HETATM    8  C1  UNL     1     -33.889   3.922   4.316  1.00 20.00     0.214 C 
HETATM    9  C7  UNL     1     -33.272   2.583   4.548  1.00 20.00     0.117 C 
HETATM   10  O10 UNL     1     -34.971   4.186   4.828  1.00 20.00    -0.274 OA
HETATM   11  H25 UNL     1     -32.256   4.402   3.149  1.00 20.00     0.163 HD
ENDBRANCH   5   7
TORSDOF 1
ENDMDL
