MODEL 1
REMARK VINA RESULT:       0.4      0.000      0.000
REMARK  0 active torsions:
REMARK  status: ('A' for Active; 'I' for Inactive)
ROOT
HETATM    1  C1  UNL     1     -35.193   5.939   4.390  1.00 20.00     0.003 C 
HETATM    2  C2  UNL     1     -34.549   7.332   4.346  1.00 20.00     0.037 C 
HETATM    3  C3  UNL     1     -34.445   5.083   3.357  1.00 20.00     0.017 C 
HETATM    4  C4  UNL     1     -32.104   8.332   1.617  1.00 20.00     0.280 C 
HETATM    5  C5  UNL     1     -31.393   7.012   1.306  1.00 20.00     0.104 C 
HETATM    6  C6  UNL     1     -33.796   7.346   3.018  1.00 20.00     0.234 C 
HETATM    7  C7  UNL     1     -33.234   5.928   2.979  1.00 20.00     0.080 C 
HETATM    8  N8  UNL     1     -32.755   8.363   2.934  1.00 20.00     0.089 N 
HETATM    9  S9  UNL     1     -32.518   5.578   1.358  1.00 20.00    -0.160 SA
HETATM   10  H22 UNL     1     -32.055   8.199   3.658  1.00 20.00     0.316 HD
ENDROOT
TORSDOF 0
ENDMDL
MODEL 2
REMARK VINA RESULT:       0.5      1.169      3.320
REMARK  0 active torsions:
REMARK  status: ('A' for Active; 'I' for Inactive)
ROOT
HETATM    1  C1  UNL     1     -31.426   7.111   1.055  1.00 20.00     0.003 C 
HETATM    2  C2  UNL     1     -32.187   8.173   1.861  1.00 20.00     0.037 C 
HETATM    3  C3  UNL     1     -32.055   5.757   1.420  1.00 20.00     0.017 C 
HETATM    4  C4  UNL     1     -34.599   7.242   4.642  1.00 20.00     0.280 C 
HETATM    5  C5  UNL     1     -35.180   5.913   4.150  1.00 20.00     0.104 C 
HETATM    6  C6  UNL     1     -32.885   7.372   2.957  1.00 20.00     0.234 C 
HETATM    7  C7  UNL     1     -33.319   6.128   2.187  1.00 20.00     0.080 C 
HETATM    8  N8  UNL     1     -34.007   8.064   3.579  1.00 20.00     0.089 N 
HETATM    9  S9  UNL     1     -33.937   4.867   3.323  1.00 20.00    -0.160 SA
HETATM   10  H22 UNL     1     -34.718   8.268   2.876  1.00 20.00     0.316 HD
ENDROOT
TORSDOF 0
ENDMDL
MODEL 3
REMARK VINA RESULT:       0.7      1.562      2.179
REMARK  0 active torsions:
REMARK  status: ('A' for Active; 'I' for Inactive)
ROOT
HETATM    1  C1  UNL     1     -35.167   6.353   4.563  1.00 20.00     0.003 C 
HETATM    2  C2  UNL     1     -34.749   5.397   3.437  1.00 20.00     0.037 C 
HETATM    3  C3  UNL     1     -34.334   7.631   4.377  1.00 20.00     0.017 C 
HETATM    4  C4  UNL     1     -31.727   6.078   1.239  1.00 20.00     0.280 C 
HETATM    5  C5  UNL     1     -31.709   7.607   1.161  1.00 20.00     0.104 C 
HETATM    6  C6  UNL     1     -33.418   5.964   2.949  1.00 20.00     0.234 C 
HETATM    7  C7  UNL     1     -33.695   7.464   3.004  1.00 20.00     0.080 C 
HETATM    8  N8  UNL     1     -33.030   5.516   1.617  1.00 20.00     0.089 N 
HETATM    9  S9  UNL     1     -32.172   8.397   2.738  1.00 20.00    -0.160 SA
HETATM   10  H22 UNL     1     -33.733   5.809   0.938  1.00 20.00     0.316 HD
ENDROOT
TORSDOF 0
ENDMDL
MODEL 4
REMARK VINA RESULT:       1.5      1.912      3.918
REMARK  0 active torsions:
REMARK  status: ('A' for Active; 'I' for Inactive)
ROOT
HETATM    1  C1  UNL     1     -31.538   7.160   1.037  1.00 20.00     0.003 C 
HETATM    2  C2  UNL     1     -32.046   5.773   1.459  1.00 20.00     0.037 C 
HETATM    3  C3  UNL     1     -32.238   8.174   1.955  1.00 20.00     0.017 C 
HETATM    4  C4  UNL     1     -34.973   5.341   3.840  1.00 20.00     0.280 C 
HETATM    5  C5  UNL     1     -34.838   6.558   4.760  1.00 20.00     0.104 C 
HETATM    6  C6  UNL     1     -33.310   6.073   2.260  1.00 20.00     0.234 C 
HETATM    7  C7  UNL     1     -32.884   7.316   3.036  1.00 20.00     0.080 C 
HETATM    8  N8  UNL     1     -33.735   4.987   3.134  1.00 20.00     0.089 N 
HETATM    9  S9  UNL     1     -34.305   8.058   3.869  1.00 20.00    -0.160 SA
HETATM   10  H22 UNL     1     -33.003   4.790   3.817  1.00 20.00     0.316 HD
ENDROOT
TORSDOF 0
ENDMDL
MODEL 5
REMARK VINA RESULT:       1.7      1.943      3.857
REMARK  0 active torsions:
REMARK  status: ('A' for Active; 'I' for Inactive)
ROOT
HETATM    1  C1  UNL     1     -31.988   8.050   1.466  1.00 20.00     0.003 C 
HETATM    2  C2  UNL     1     -31.730   6.540   1.572  1.00 20.00     0.037 C 
HETATM    3  C3  UNL     1     -33.151   8.358   2.423  1.00 20.00     0.017 C 
HETATM    4  C4  UNL     1     -34.125   4.212   3.378  1.00 20.00     0.280 C 
HETATM    5  C5  UNL     1     -34.676   5.101   4.496  1.00 20.00     0.104 C 
HETATM    6  C6  UNL     1     -33.004   5.994   2.211  1.00 20.00     0.234 C 
HETATM    7  C7  UNL     1     -33.313   7.080   3.237  1.00 20.00     0.080 C 
HETATM    8  N8  UNL     1     -32.850   4.678   2.819  1.00 20.00     0.089 N 
HETATM    9  S9  UNL     1     -34.949   6.821   3.957  1.00 20.00    -0.160 SA
HETATM   10  H22 UNL     1     -32.152   4.723   3.563  1.00 20.00     0.316 HD
ENDROOT
TORSDOF 0
ENDMDL
MODEL 6
REMARK VINA RESULT:       2.0      1.686      2.300
REMARK  0 active torsions:
REMARK  status: ('A' for Active; 'I' for Inactive)
ROOT
HETATM    1  C1  UNL     1     -34.973   4.518   4.181  1.00 20.00     0.003 C 
HETATM    2  C2  UNL     1     -34.026   4.391   2.979  1.00 20.00     0.037 C 
HETATM    3  C3  UNL     1     -34.999   6.008   4.555  1.00 20.00     0.017 C 
HETATM    4  C4  UNL     1     -31.804   7.260   1.856  1.00 20.00     0.280 C 
HETATM    5  C5  UNL     1     -32.649   8.490   2.198  1.00 20.00     0.104 C 
HETATM    6  C6  UNL     1     -33.225   5.691   3.004  1.00 20.00     0.234 C 
HETATM    7  C7  UNL     1     -34.304   6.699   3.388  1.00 20.00     0.080 C 
HETATM    8  N8  UNL     1     -32.580   6.018   1.738  1.00 20.00     0.089 N 
HETATM    9  S9  UNL     1     -33.563   8.303   3.766  1.00 20.00    -0.160 SA
HETATM   10  H22 UNL     1     -33.287   6.131   1.011  1.00 20.00     0.316 HD
ENDROOT
TORSDOF 0
ENDMDL
MODEL 7
REMARK VINA RESULT:       2.6      1.886      3.819
REMARK  0 active torsions:
REMARK  status: ('A' for Active; 'I' for Inactive)
ROOT
HETATM    1  C1  UNL     1     -31.986   9.265   1.134  1.00 20.00     0.003 C 
HETATM    2  C2  UNL     1     -31.677   7.792   0.829  1.00 20.00     0.037 C 
HETATM    3  C3  UNL     1     -32.953   9.265   2.328  1.00 20.00     0.017 C 
HETATM    4  C4  UNL     1     -33.630   4.954   2.428  1.00 20.00     0.280 C 
HETATM    5  C5  UNL     1     -33.980   5.524   3.805  1.00 20.00     0.104 C 
HETATM    6  C6  UNL     1     -32.794   7.028   1.537  1.00 20.00     0.234 C 
HETATM    7  C7  UNL     1     -32.928   7.827   2.831  1.00 20.00     0.080 C 
HETATM    8  N8  UNL     1     -32.496   5.622   1.777  1.00 20.00     0.089 N 
HETATM    9  S9  UNL     1     -34.392   7.300   3.748  1.00 20.00    -0.160 SA
HETATM   10  H22 UNL     1     -31.672   5.542   2.374  1.00 20.00     0.316 HD
ENDROOT
TORSDOF 0
ENDMDL
MODEL 8
REMARK VINA RESULT:       2.8      1.364      3.280
REMARK  0 active torsions:
REMARK  status: ('A' for Active; 'I' for Inactive)
ROOT
HETATM    1  C1  UNL     1     -32.501   8.690   1.982  1.00 20.00     0.003 C 
HETATM    2  C2  UNL     1     -33.820   8.569   2.760  1.00 20.00     0.037 C 
HETATM    3  C3  UNL     1     -31.942   7.264   1.854  1.00 20.00     0.017 C 
HETATM    4  C4  UNL     1     -34.844   5.348   4.493  1.00 20.00     0.280 C 
HETATM    5  C5  UNL     1     -34.246   4.273   3.581  1.00 20.00     0.104 C 
HETATM    6  C6  UNL     1     -33.733   7.193   3.417  1.00 20.00     0.234 C 
HETATM    7  C7  UNL     1     -33.091   6.370   2.303  1.00 20.00     0.080 C 
HETATM    8  N8  UNL     1     -35.018   6.653   3.842  1.00 20.00     0.089 N 
HETATM    9  S9  UNL     1     -32.612   4.741   2.920  1.00 20.00    -0.160 SA
HETATM   10  H22 UNL     1     -35.631   6.546   3.032  1.00 20.00     0.316 HD
ENDROOT
TORSDOF 0
ENDMDL
