MODEL 1
REMARK VINA RESULT:      -1.0      0.000      0.000
REMARK  2 active torsions:
REMARK  status: ('A' for Active; 'I' for Inactive)
REMARK    1  A    between atoms: C1_1  and  C3_3 
REMARK       I    between atoms: C1_1  and  N9_9 
REMARK    2  A    between atoms: C8_8  and  N9_9 
ROOT
HETATM    1  C1  UNL     1     -32.269   7.955   2.055  1.00 20.00     0.222 C 
HETATM    2  N9  UNL     1     -33.429   7.301   2.421  1.00 20.00    -0.357 N 
HETATM    3  O10 UNL     1     -31.374   8.326   2.804  1.00 20.00    -0.273 OA
HETATM    4  H25 UNL     1     -34.092   7.049   1.695  1.00 20.00     0.162 HD
ENDROOT
BRANCH   1   5
HETATM    5  C3  UNL     1     -32.151   8.201   0.613  1.00 20.00     0.082 A 
HETATM    6  C2  UNL     1     -31.024   9.061   0.099  1.00 20.00     0.019 A 
HETATM    7  C4  UNL     1     -32.438   9.565   0.031  1.00 20.00    -0.005 A 
HETATM    8  C5  UNL     1     -32.861  10.716   0.878  1.00 20.00     0.011 C 
ENDBRANCH   1   5
BRANCH   2   9
HETATM    9  C8  UNL     1     -33.744   6.960   3.791  1.00 20.00     0.076 C 
HETATM   10  C6  UNL     1     -35.115   6.302   3.837  1.00 20.00     0.032 C 
HETATM   11  C7  UNL     1     -33.698   8.225   4.637  1.00 20.00     0.032 C 
ENDBRANCH   2   9
TORSDOF 2
ENDMDL
MODEL 2
REMARK VINA RESULT:      -1.0      1.736      2.223
REMARK  2 active torsions:
REMARK  status: ('A' for Active; 'I' for Inactive)
REMARK    1  A    between atoms: C1_1  and  C3_3 
REMARK       I    between atoms: C1_1  and  N9_9 
REMARK    2  A    between atoms: C8_8  and  N9_9 
ROOT
HETATM    1  C1  UNL     1     -32.702   6.415   1.763  1.00 20.00     0.222 C 
HETATM    2  N9  UNL     1     -33.304   6.404   3.006  1.00 20.00    -0.357 N 
HETATM    3  O10 UNL     1     -33.053   5.778   0.777  1.00 20.00    -0.273 OA
HETATM    4  H25 UNL     1     -32.909   6.981   3.741  1.00 20.00     0.162 HD
ENDROOT
BRANCH   1   5
HETATM    5  C3  UNL     1     -31.531   7.295   1.675  1.00 20.00     0.082 A 
HETATM    6  C2  UNL     1     -31.458   8.519   2.554  1.00 20.00     0.019 A 
HETATM    7  C4  UNL     1     -31.638   8.675   1.071  1.00 20.00    -0.005 A 
HETATM    8  C5  UNL     1     -32.922   9.205   0.528  1.00 20.00     0.011 C 
ENDBRANCH   1   5
BRANCH   2   9
HETATM    9  C8  UNL     1     -34.472   5.607   3.309  1.00 20.00     0.076 C 
HETATM   10  C6  UNL     1     -35.425   6.427   4.166  1.00 20.00     0.032 C 
HETATM   11  C7  UNL     1     -34.030   4.335   4.019  1.00 20.00     0.032 C 
ENDBRANCH   2   9
TORSDOF 2
ENDMDL
MODEL 3
REMARK VINA RESULT:      -0.6      1.328      4.024
REMARK  2 active torsions:
REMARK  status: ('A' for Active; 'I' for Inactive)
REMARK    1  A    between atoms: C1_1  and  C3_3 
REMARK       I    between atoms: C1_1  and  N9_9 
REMARK    2  A    between atoms: C8_8  and  N9_9 
ROOT
HETATM    1  C1  UNL     1     -31.912   7.872   1.909  1.00 20.00     0.222 C 
HETATM    2  N9  UNL     1     -32.427   8.443   0.762  1.00 20.00    -0.357 N 
HETATM    3  O10 UNL     1     -31.226   8.431   2.756  1.00 20.00    -0.273 OA
HETATM    4  H25 UNL     1     -32.983   7.864   0.140  1.00 20.00     0.162 HD
ENDROOT
BRANCH   1   5
HETATM    5  C3  UNL     1     -32.254   6.455   2.077  1.00 20.00     0.082 A 
HETATM    6  C2  UNL     1     -33.486   5.907   1.400  1.00 20.00     0.019 A 
HETATM    7  C4  UNL     1     -33.452   6.035   2.896  1.00 20.00    -0.005 A 
HETATM    8  C5  UNL     1     -34.332   7.026   3.579  1.00 20.00     0.011 C 
ENDBRANCH   1   5
BRANCH   2   9
HETATM    9  C8  UNL     1     -32.212   9.827   0.404  1.00 20.00     0.076 C 
HETATM   10  C6  UNL     1     -33.033  10.714   1.328  1.00 20.00     0.032 C 
HETATM   11  C7  UNL     1     -32.599  10.024  -1.055  1.00 20.00     0.032 C 
ENDBRANCH   2   9
TORSDOF 2
ENDMDL
MODEL 4
REMARK VINA RESULT:      -0.4      1.454      4.813
REMARK  2 active torsions:
REMARK  status: ('A' for Active; 'I' for Inactive)
REMARK    1  A    between atoms: C1_1  and  C3_3 
REMARK       I    between atoms: C1_1  and  N9_9 
REMARK    2  A    between atoms: C8_8  and  N9_9 
ROOT
HETATM    1  C1  UNL     1     -33.865   7.270   3.554  1.00 20.00     0.222 C 
HETATM    2  N9  UNL     1     -33.329   7.338   2.283  1.00 20.00    -0.357 N 
HETATM    3  O10 UNL     1     -33.432   7.824   4.557  1.00 20.00    -0.273 OA
HETATM    4  H25 UNL     1     -33.789   6.827   1.536  1.00 20.00     0.162 HD
ENDROOT
BRANCH   1   5
HETATM    5  C3  UNL     1     -35.069   6.437   3.652  1.00 20.00     0.082 A 
HETATM    6  C2  UNL     1     -35.466   5.866   4.990  1.00 20.00     0.019 A 
HETATM    7  C4  UNL     1     -34.969   4.952   3.906  1.00 20.00    -0.005 A 
HETATM    8  C5  UNL     1     -33.658   4.259   4.057  1.00 20.00     0.011 C 
ENDBRANCH   1   5
BRANCH   2   9
HETATM    9  C8  UNL     1     -32.145   8.104   1.965  1.00 20.00     0.076 C 
HETATM   10  C6  UNL     1     -32.507   9.187   0.960  1.00 20.00     0.032 C 
HETATM   11  C7  UNL     1     -31.081   7.162   1.419  1.00 20.00     0.032 C 
ENDBRANCH   2   9
TORSDOF 2
ENDMDL
MODEL 5
REMARK VINA RESULT:      -0.3      1.691      4.772
REMARK  2 active torsions:
REMARK  status: ('A' for Active; 'I' for Inactive)
REMARK    1  A    between atoms: C1_1  and  C3_3 
REMARK       I    between atoms: C1_1  and  N9_9 
REMARK    2  A    between atoms: C8_8  and  N9_9 
ROOT
HETATM    1  C1  UNL     1     -33.569   6.372   2.352  1.00 20.00     0.222 C 
HETATM    2  N9  UNL     1     -33.089   7.667   2.396  1.00 20.00    -0.357 N 
HETATM    3  O10 UNL     1     -33.059   5.426   1.763  1.00 20.00    -0.273 OA
HETATM    4  H25 UNL     1     -33.613   8.359   2.923  1.00 20.00     0.162 HD
ENDROOT
BRANCH   1   5
HETATM    5  C3  UNL     1     -34.813   6.169   3.102  1.00 20.00     0.082 A 
HETATM    6  C2  UNL     1     -34.841   6.464   4.581  1.00 20.00     0.019 A 
HETATM    7  C4  UNL     1     -34.945   5.044   4.101  1.00 20.00    -0.005 A 
HETATM    8  C5  UNL     1     -33.836   4.084   4.365  1.00 20.00     0.011 C 
ENDBRANCH   1   5
BRANCH   2   9
HETATM    9  C8  UNL     1     -31.877   8.083   1.727  1.00 20.00     0.076 C 
HETATM   10  C6  UNL     1     -30.879   8.574   2.765  1.00 20.00     0.032 C 
HETATM   11  C7  UNL     1     -32.220   9.170   0.718  1.00 20.00     0.032 C 
ENDBRANCH   2   9
TORSDOF 2
ENDMDL
MODEL 6
REMARK VINA RESULT:      -0.2      2.116      2.901
REMARK  2 active torsions:
REMARK  status: ('A' for Active; 'I' for Inactive)
REMARK    1  A    between atoms: C1_1  and  C3_3 
REMARK       I    between atoms: C1_1  and  N9_9 
REMARK    2  A    between atoms: C8_8  and  N9_9 
ROOT
HETATM    1  C1  UNL     1     -33.670   6.498   3.022  1.00 20.00     0.222 C 
HETATM    2  N9  UNL     1     -33.520   5.150   3.280  1.00 20.00    -0.357 N 
HETATM    3  O10 UNL     1     -34.149   7.335   3.777  1.00 20.00    -0.273 OA
HETATM    4  H25 UNL     1     -33.106   4.563   2.562  1.00 20.00     0.162 HD
ENDROOT
BRANCH   1   5
HETATM    5  C3  UNL     1     -33.192   6.910   1.697  1.00 20.00     0.082 A 
HETATM    6  C2  UNL     1     -31.851   6.419   1.210  1.00 20.00     0.019 A 
HETATM    7  C4  UNL     1     -32.035   7.871   1.552  1.00 20.00    -0.005 A 
HETATM    8  C5  UNL     1     -31.335   8.453   2.732  1.00 20.00     0.011 C 
ENDBRANCH   1   5
BRANCH   2   9
HETATM    9  C8  UNL     1     -33.924   4.534   4.524  1.00 20.00     0.076 C 
HETATM   10  C6  UNL     1     -33.546   3.061   4.497  1.00 20.00     0.032 C 
HETATM   11  C7  UNL     1     -35.423   4.727   4.705  1.00 20.00     0.032 C 
ENDBRANCH   2   9
TORSDOF 2
ENDMDL
MODEL 7
REMARK VINA RESULT:      -0.1      1.177      1.784
REMARK  2 active torsions:
REMARK  status: ('A' for Active; 'I' for Inactive)
REMARK    1  A    between atoms: C1_1  and  C3_3 
REMARK       I    between atoms: C1_1  and  N9_9 
REMARK    2  A    between atoms: C8_8  and  N9_9 
ROOT
HETATM    1  C1  UNL     1     -32.048   8.097   1.894  1.00 20.00     0.222 C 
HETATM    2  N9  UNL     1     -33.159   7.843   2.674  1.00 20.00    -0.357 N 
HETATM    3  O10 UNL     1     -31.226   7.276   1.507  1.00 20.00    -0.273 OA
HETATM    4  H25 UNL     1     -33.762   8.619   2.925  1.00 20.00     0.162 HD
ENDROOT
BRANCH   1   5
HETATM    5  C3  UNL     1     -31.889   9.508   1.522  1.00 20.00     0.082 A 
HETATM    6  C2  UNL     1     -33.115  10.337   1.229  1.00 20.00     0.019 A 
HETATM    7  C4  UNL     1     -32.173   9.978   0.115  1.00 20.00    -0.005 A 
HETATM    8  C5  UNL     1     -32.613   9.044  -0.960  1.00 20.00     0.011 C 
ENDBRANCH   1   5
BRANCH   2   9
HETATM    9  C8  UNL     1     -33.504   6.521   3.150  1.00 20.00     0.076 C 
HETATM   10  C6  UNL     1     -33.481   5.549   1.979  1.00 20.00     0.032 C 
HETATM   11  C7  UNL     1     -34.875   6.577   3.808  1.00 20.00     0.032 C 
ENDBRANCH   2   9
TORSDOF 2
ENDMDL
MODEL 8
REMARK VINA RESULT:      -0.0      1.419      4.403
REMARK  2 active torsions:
REMARK  status: ('A' for Active; 'I' for Inactive)
REMARK    1  A    between atoms: C1_1  and  C3_3 
REMARK       I    between atoms: C1_1  and  N9_9 
REMARK    2  A    between atoms: C8_8  and  N9_9 
ROOT
HETATM    1  C1  UNL     1     -33.064   6.917   2.150  1.00 20.00     0.222 C 
HETATM    2  N9  UNL     1     -32.775   8.254   1.960  1.00 20.00    -0.357 N 
HETATM    3  O10 UNL     1     -33.049   6.040   1.295  1.00 20.00    -0.273 OA
HETATM    4  H25 UNL     1     -32.826   8.879   2.759  1.00 20.00     0.162 HD
ENDROOT
BRANCH   1   5
HETATM    5  C3  UNL     1     -33.416   6.573   3.532  1.00 20.00     0.082 A 
HETATM    6  C2  UNL     1     -34.112   5.264   3.813  1.00 20.00     0.019 A 
HETATM    7  C4  UNL     1     -34.857   6.557   3.987  1.00 20.00    -0.005 A 
HETATM    8  C5  UNL     1     -35.982   6.899   3.071  1.00 20.00     0.011 C 
ENDBRANCH   1   5
BRANCH   2   9
HETATM    9  C8  UNL     1     -32.404   8.807   0.677  1.00 20.00     0.076 C 
HETATM   10  C6  UNL     1     -30.920   8.564   0.441  1.00 20.00     0.032 C 
HETATM   11  C7  UNL     1     -32.740  10.292   0.664  1.00 20.00     0.032 C 
ENDBRANCH   2   9
TORSDOF 2
ENDMDL
MODEL 9
REMARK VINA RESULT:       0.1      1.517      2.568
REMARK  2 active torsions:
REMARK  status: ('A' for Active; 'I' for Inactive)
REMARK    1  A    between atoms: C1_1  and  C3_3 
REMARK       I    between atoms: C1_1  and  N9_9 
REMARK    2  A    between atoms: C8_8  and  N9_9 
ROOT
HETATM    1  C1  UNL     1     -32.974   7.779   3.671  1.00 20.00     0.222 C 
HETATM    2  N9  UNL     1     -33.958   6.951   3.169  1.00 20.00    -0.357 N 
HETATM    3  O10 UNL     1     -32.848   8.139   4.835  1.00 20.00    -0.273 OA
HETATM    4  H25 UNL     1     -33.946   6.731   2.178  1.00 20.00     0.162 HD
ENDROOT
BRANCH   1   5
HETATM    5  C3  UNL     1     -32.012   8.242   2.664  1.00 20.00     0.082 A 
HETATM    6  C2  UNL     1     -32.483   8.500   1.255  1.00 20.00     0.019 A 
HETATM    7  C4  UNL     1     -31.571   7.340   1.536  1.00 20.00    -0.005 A 
HETATM    8  C5  UNL     1     -32.075   5.944   1.393  1.00 20.00     0.011 C 
ENDBRANCH   1   5
BRANCH   2   9
HETATM    9  C8  UNL     1     -35.005   6.381   3.988  1.00 20.00     0.076 C 
HETATM   10  C6  UNL     1     -34.687   4.917   4.255  1.00 20.00     0.032 C 
HETATM   11  C7  UNL     1     -36.337   6.547   3.270  1.00 20.00     0.032 C 
ENDBRANCH   2   9
TORSDOF 2
ENDMDL
