MODEL 1
REMARK VINA RESULT:      -1.6      0.000      0.000
REMARK  3 active torsions:
REMARK  status: ('A' for Active; 'I' for Inactive)
REMARK    1  A    between atoms: C1_1  and  C7_7 
REMARK       I    between atoms: C1_1  and  N9_9 
REMARK    2  A    between atoms: C4_4  and  C8_8 
REMARK    3  A    between atoms: C8_8  and  N9_9 
ROOT
HETATM    1  C1  UNL     1     -33.682   6.733   3.185  1.00 20.00     0.219 C 
HETATM    2  C6  UNL     1     -32.349   5.704   1.332  1.00 20.00     0.152 C 
HETATM    3  N9  UNL     1     -32.728   6.837   2.166  1.00 20.00    -0.356 N 
HETATM    4  O10 UNL     1     -34.274   5.685   3.456  1.00 20.00    -0.273 OA
ENDROOT
BRANCH   3   5
HETATM    5  C8  UNL     1     -32.039   8.089   1.864  1.00 20.00     0.130 C 
BRANCH   5   6
HETATM    6  C4  UNL     1     -32.739   8.842   0.784  1.00 20.00     0.004 A 
HETATM    7  C2  UNL     1     -32.733  10.345   0.781  1.00 20.00     0.007 A 
HETATM    8  C3  UNL     1     -31.948   9.589  -0.253  1.00 20.00     0.007 A 
ENDBRANCH   5   6
ENDBRANCH   3   5
BRANCH   1   9
HETATM    9  C7  UNL     1     -33.970   8.006   3.968  1.00 20.00     0.098 C 
HETATM   10  C5  UNL     1     -33.143   8.112   5.238  1.00 20.00     0.014 C 
ENDBRANCH   1   9
TORSDOF 3
ENDMDL
MODEL 2
REMARK VINA RESULT:      -1.5      2.168      3.129
REMARK  3 active torsions:
REMARK  status: ('A' for Active; 'I' for Inactive)
REMARK    1  A    between atoms: C1_1  and  C7_7 
REMARK       I    between atoms: C1_1  and  N9_9 
REMARK    2  A    between atoms: C4_4  and  C8_8 
REMARK    3  A    between atoms: C8_8  and  N9_9 
ROOT
HETATM    1  C1  UNL     1     -34.500   4.822   4.094  1.00 20.00     0.219 C 
HETATM    2  C6  UNL     1     -34.941   7.264   3.767  1.00 20.00     0.152 C 
HETATM    3  N9  UNL     1     -34.189   6.047   3.493  1.00 20.00    -0.356 N 
HETATM    4  O10 UNL     1     -35.426   4.675   4.897  1.00 20.00    -0.273 OA
ENDROOT
BRANCH   3   5
HETATM    5  C8  UNL     1     -33.088   6.197   2.545  1.00 20.00     0.130 C 
BRANCH   5   6
HETATM    6  C4  UNL     1     -32.843   7.633   2.228  1.00 20.00     0.004 A 
HETATM    7  C2  UNL     1     -31.520   8.267   2.556  1.00 20.00     0.007 A 
HETATM    8  C3  UNL     1     -31.896   8.013   1.124  1.00 20.00     0.007 A 
ENDBRANCH   5   6
ENDBRANCH   3   5
BRANCH   1   9
HETATM    9  C7  UNL     1     -33.620   3.642   3.707  1.00 20.00     0.098 C 
HETATM   10  C5  UNL     1     -33.095   2.882   4.913  1.00 20.00     0.014 C 
ENDBRANCH   1   9
TORSDOF 3
ENDMDL
MODEL 3
REMARK VINA RESULT:      -1.0      2.716      5.109
REMARK  3 active torsions:
REMARK  status: ('A' for Active; 'I' for Inactive)
REMARK    1  A    between atoms: C1_1  and  C7_7 
REMARK       I    between atoms: C1_1  and  N9_9 
REMARK    2  A    between atoms: C4_4  and  C8_8 
REMARK    3  A    between atoms: C8_8  and  N9_9 
ROOT
HETATM    1  C1  UNL     1     -33.643   7.044   3.075  1.00 20.00     0.219 C 
HETATM    2  C6  UNL     1     -35.416   5.910   4.431  1.00 20.00     0.152 C 
HETATM    3  N9  UNL     1     -34.238   5.880   3.574  1.00 20.00    -0.356 N 
HETATM    4  O10 UNL     1     -34.065   8.179   3.316  1.00 20.00    -0.273 OA
ENDROOT
BRANCH   3   5
HETATM    5  C8  UNL     1     -33.721   4.547   3.276  1.00 20.00     0.130 C 
BRANCH   5   6
HETATM    6  C4  UNL     1     -33.852   3.643   4.454  1.00 20.00     0.004 A 
HETATM    7  C2  UNL     1     -33.296   2.247   4.405  1.00 20.00     0.007 A 
HETATM    8  C3  UNL     1     -32.642   3.286   5.272  1.00 20.00     0.007 A 
ENDBRANCH   5   6
ENDBRANCH   3   5
BRANCH   1   9
HETATM    9  C7  UNL     1     -32.419   6.848   2.193  1.00 20.00     0.098 C 
HETATM   10  C5  UNL     1     -31.884   8.155   1.632  1.00 20.00     0.014 C 
ENDBRANCH   1   9
TORSDOF 3
ENDMDL
MODEL 4
REMARK VINA RESULT:      -0.8      1.994      4.198
REMARK  3 active torsions:
REMARK  status: ('A' for Active; 'I' for Inactive)
REMARK    1  A    between atoms: C1_1  and  C7_7 
REMARK       I    between atoms: C1_1  and  N9_9 
REMARK    2  A    between atoms: C4_4  and  C8_8 
REMARK    3  A    between atoms: C8_8  and  N9_9 
ROOT
HETATM    1  C1  UNL     1     -31.920   8.307   1.076  1.00 20.00     0.219 C 
HETATM    2  C6  UNL     1     -31.895   5.859   1.599  1.00 20.00     0.152 C 
HETATM    3  N9  UNL     1     -32.331   7.224   1.861  1.00 20.00    -0.356 N 
HETATM    4  O10 UNL     1     -31.161   8.195   0.108  1.00 20.00    -0.273 OA
ENDROOT
BRANCH   3   5
HETATM    5  C8  UNL     1     -33.230   7.381   3.001  1.00 20.00     0.130 C 
BRANCH   5   6
HETATM    6  C4  UNL     1     -34.296   6.338   2.994  1.00 20.00     0.004 A 
HETATM    7  C2  UNL     1     -34.347   5.299   4.079  1.00 20.00     0.007 A 
HETATM    8  C3  UNL     1     -35.396   6.372   4.017  1.00 20.00     0.007 A 
ENDBRANCH   5   6
ENDBRANCH   3   5
BRANCH   1   9
HETATM    9  C7  UNL     1     -32.460   9.671   1.477  1.00 20.00     0.098 C 
HETATM   10  C5  UNL     1     -32.676  10.590   0.287  1.00 20.00     0.014 C 
ENDBRANCH   1   9
TORSDOF 3
ENDMDL
MODEL 5
REMARK VINA RESULT:      -0.7      0.697      2.463
REMARK  3 active torsions:
REMARK  status: ('A' for Active; 'I' for Inactive)
REMARK    1  A    between atoms: C1_1  and  C7_7 
REMARK       I    between atoms: C1_1  and  N9_9 
REMARK    2  A    between atoms: C4_4  and  C8_8 
REMARK    3  A    between atoms: C8_8  and  N9_9 
ROOT
HETATM    1  C1  UNL     1     -33.280   6.230   2.449  1.00 20.00     0.219 C 
HETATM    2  C6  UNL     1     -33.104   8.208   3.974  1.00 20.00     0.152 C 
HETATM    3  N9  UNL     1     -32.804   7.516   2.727  1.00 20.00    -0.356 N 
HETATM    4  O10 UNL     1     -33.984   5.584   3.230  1.00 20.00    -0.273 OA
ENDROOT
BRANCH   3   5
HETATM    5  C8  UNL     1     -31.971   8.263   1.787  1.00 20.00     0.130 C 
BRANCH   5   6
HETATM    6  C4  UNL     1     -32.807   9.070   0.852  1.00 20.00     0.004 A 
HETATM    7  C2  UNL     1     -32.682  10.567   0.823  1.00 20.00     0.007 A 
HETATM    8  C3  UNL     1     -32.177   9.749  -0.332  1.00 20.00     0.007 A 
ENDBRANCH   5   6
ENDBRANCH   3   5
BRANCH   1   9
HETATM    9  C7  UNL     1     -32.878   5.641   1.105  1.00 20.00     0.098 C 
HETATM   10  C5  UNL     1     -31.615   4.801   1.186  1.00 20.00     0.014 C 
ENDBRANCH   1   9
TORSDOF 3
ENDMDL
MODEL 6
REMARK VINA RESULT:      -0.6      1.459      2.147
REMARK  3 active torsions:
REMARK  status: ('A' for Active; 'I' for Inactive)
REMARK    1  A    between atoms: C1_1  and  C7_7 
REMARK       I    between atoms: C1_1  and  N9_9 
REMARK    2  A    between atoms: C4_4  and  C8_8 
REMARK    3  A    between atoms: C8_8  and  N9_9 
ROOT
HETATM    1  C1  UNL     1     -33.484   7.671   3.854  1.00 20.00     0.219 C 
HETATM    2  C6  UNL     1     -31.349   8.918   3.462  1.00 20.00     0.152 C 
HETATM    3  N9  UNL     1     -32.488   8.141   2.991  1.00 20.00    -0.356 N 
HETATM    4  O10 UNL     1     -33.478   7.872   5.072  1.00 20.00    -0.273 OA
ENDROOT
BRANCH   3   5
HETATM    5  C8  UNL     1     -32.517   7.890   1.552  1.00 20.00     0.130 C 
BRANCH   5   6
HETATM    6  C4  UNL     1     -31.936   9.037   0.795  1.00 20.00     0.004 A 
HETATM    7  C2  UNL     1     -32.451   9.378  -0.575  1.00 20.00     0.007 A 
HETATM    8  C3  UNL     1     -32.740  10.289   0.584  1.00 20.00     0.007 A 
ENDBRANCH   5   6
ENDBRANCH   3   5
BRANCH   1   9
HETATM    9  C7  UNL     1     -34.608   6.872   3.211  1.00 20.00     0.098 C 
HETATM   10  C5  UNL     1     -35.343   5.988   4.204  1.00 20.00     0.014 C 
ENDBRANCH   1   9
TORSDOF 3
ENDMDL
MODEL 7
REMARK VINA RESULT:      -0.5      1.084      1.405
REMARK  3 active torsions:
REMARK  status: ('A' for Active; 'I' for Inactive)
REMARK    1  A    between atoms: C1_1  and  C7_7 
REMARK       I    between atoms: C1_1  and  N9_9 
REMARK    2  A    between atoms: C4_4  and  C8_8 
REMARK    3  A    between atoms: C8_8  and  N9_9 
ROOT
HETATM    1  C1  UNL     1     -33.758   5.587   3.178  1.00 20.00     0.219 C 
HETATM    2  C6  UNL     1     -32.094   5.090   1.374  1.00 20.00     0.152 C 
HETATM    3  N9  UNL     1     -33.079   5.954   2.011  1.00 20.00    -0.356 N 
HETATM    4  O10 UNL     1     -33.579   4.511   3.757  1.00 20.00    -0.273 OA
ENDROOT
BRANCH   3   5
HETATM    5  C8  UNL     1     -33.307   7.234   1.343  1.00 20.00     0.130 C 
BRANCH   5   6
HETATM    6  C4  UNL     1     -32.128   8.135   1.493  1.00 20.00     0.004 A 
HETATM    7  C2  UNL     1     -31.390   8.626   0.279  1.00 20.00     0.007 A 
HETATM    8  C3  UNL     1     -32.224   9.579   1.088  1.00 20.00     0.007 A 
ENDBRANCH   5   6
ENDBRANCH   3   5
BRANCH   1   9
HETATM    9  C7  UNL     1     -34.757   6.597   3.721  1.00 20.00     0.098 C 
HETATM   10  C5  UNL     1     -34.100   7.681   4.558  1.00 20.00     0.014 C 
ENDBRANCH   1   9
TORSDOF 3
ENDMDL
MODEL 8
REMARK VINA RESULT:      -0.2      2.556      4.639
REMARK  3 active torsions:
REMARK  status: ('A' for Active; 'I' for Inactive)
REMARK    1  A    between atoms: C1_1  and  C7_7 
REMARK       I    between atoms: C1_1  and  N9_9 
REMARK    2  A    between atoms: C4_4  and  C8_8 
REMARK    3  A    between atoms: C8_8  and  N9_9 
ROOT
HETATM    1  C1  UNL     1     -33.351   7.044   2.877  1.00 20.00     0.219 C 
HETATM    2  C6  UNL     1     -32.509   5.116   1.520  1.00 20.00     0.152 C 
HETATM    3  N9  UNL     1     -33.265   5.669   2.637  1.00 20.00    -0.356 N 
HETATM    4  O10 UNL     1     -32.798   7.893   2.171  1.00 20.00    -0.273 OA
ENDROOT
BRANCH   3   5
HETATM    5  C8  UNL     1     -33.928   4.683   3.487  1.00 20.00     0.130 C 
BRANCH   5   6
HETATM    6  C4  UNL     1     -32.963   3.651   3.967  1.00 20.00     0.004 A 
HETATM    7  C2  UNL     1     -32.901   3.292   5.425  1.00 20.00     0.007 A 
HETATM    8  C3  UNL     1     -33.459   2.311   4.434  1.00 20.00     0.007 A 
ENDBRANCH   5   6
ENDBRANCH   3   5
BRANCH   1   9
HETATM    9  C7  UNL     1     -34.176   7.465   4.084  1.00 20.00     0.098 C 
HETATM   10  C5  UNL     1     -33.348   8.171   5.144  1.00 20.00     0.014 C 
ENDBRANCH   1   9
TORSDOF 3
ENDMDL
MODEL 9
REMARK VINA RESULT:      -0.1      1.930      3.294
REMARK  3 active torsions:
REMARK  status: ('A' for Active; 'I' for Inactive)
REMARK    1  A    between atoms: C1_1  and  C7_7 
REMARK       I    between atoms: C1_1  and  N9_9 
REMARK    2  A    between atoms: C4_4  and  C8_8 
REMARK    3  A    between atoms: C8_8  and  N9_9 
ROOT
HETATM    1  C1  UNL     1     -34.027   7.326   3.903  1.00 20.00     0.219 C 
HETATM    2  C6  UNL     1     -32.057   8.266   2.678  1.00 20.00     0.152 C 
HETATM    3  N9  UNL     1     -33.200   7.367   2.776  1.00 20.00    -0.356 N 
HETATM    4  O10 UNL     1     -33.859   8.039   4.896  1.00 20.00    -0.273 OA
ENDROOT
BRANCH   3   5
HETATM    5  C8  UNL     1     -33.420   6.513   1.611  1.00 20.00     0.130 C 
BRANCH   5   6
HETATM    6  C4  UNL     1     -32.136   5.934   1.119  1.00 20.00     0.004 A 
HETATM    7  C2  UNL     1     -31.526   4.747   1.809  1.00 20.00     0.007 A 
HETATM    8  C3  UNL     1     -32.123   4.593   0.439  1.00 20.00     0.007 A 
ENDBRANCH   5   6
ENDBRANCH   3   5
BRANCH   1   9
HETATM    9  C7  UNL     1     -35.179   6.332   3.854  1.00 20.00     0.098 C 
HETATM   10  C5  UNL     1     -34.790   4.958   4.372  1.00 20.00     0.014 C 
ENDBRANCH   1   9
TORSDOF 3
ENDMDL
