MODEL 1
REMARK VINA RESULT:      -1.5      0.000      0.000
REMARK  4 active torsions:
REMARK  status: ('A' for Active; 'I' for Inactive)
REMARK    1  A    between atoms: C1_1  and  C6_6 
REMARK       I    between atoms: C1_1  and  N10_10 
REMARK    2  A    between atoms: C7_7  and  C8_8 
REMARK    3  A    between atoms: C7_7  and  C9_9 
REMARK    4  A    between atoms: C8_8  and  N10_10 
ROOT
HETATM    1  C1  UNL     1     -34.048   7.109   3.725  1.00 20.00     0.218 C 
HETATM    2  C5  UNL     1     -33.193   6.029   1.613  1.00 20.00     0.152 C 
HETATM    3  N10 UNL     1     -33.154   7.088   2.630  1.00 20.00    -0.356 N 
HETATM    4  O11 UNL     1     -34.052   7.976   4.602  1.00 20.00    -0.273 OA
ENDROOT
BRANCH   3   5
HETATM    5  C8  UNL     1     -32.154   8.102   2.446  1.00 20.00     0.125 C 
BRANCH   5   6
HETATM    6  C7  UNL     1     -31.773   8.288   0.979  1.00 20.00     0.024 C 
BRANCH   6   7
HETATM    7  C9  UNL     1     -32.029   9.699   0.413  1.00 20.00    -0.021 C 
HETATM    8  C3  UNL     1     -32.863  10.511   1.407  1.00 20.00     0.009 C 
HETATM    9  C4  UNL     1     -32.732   9.666  -0.944  1.00 20.00     0.009 C 
ENDBRANCH   6   7
ENDBRANCH   5   6
ENDBRANCH   3   5
BRANCH   1  10
HETATM   10  C6  UNL     1     -35.045   5.960   3.772  1.00 20.00     0.098 C 
HETATM   11  C2  UNL     1     -34.469   4.708   4.415  1.00 20.00     0.014 C 
ENDBRANCH   1  10
TORSDOF 4
ENDMDL
MODEL 2
REMARK VINA RESULT:      -1.5      0.323      1.104
REMARK  4 active torsions:
REMARK  status: ('A' for Active; 'I' for Inactive)
REMARK    1  A    between atoms: C1_1  and  C6_6 
REMARK       I    between atoms: C1_1  and  N10_10 
REMARK    2  A    between atoms: C7_7  and  C8_8 
REMARK    3  A    between atoms: C7_7  and  C9_9 
REMARK    4  A    between atoms: C8_8  and  N10_10 
ROOT
HETATM    1  C1  UNL     1     -33.984   7.166   3.676  1.00 20.00     0.218 C 
HETATM    2  C5  UNL     1     -33.063   6.070   1.601  1.00 20.00     0.152 C 
HETATM    3  N10 UNL     1     -33.034   7.116   2.631  1.00 20.00    -0.356 N 
HETATM    4  O11 UNL     1     -33.998   8.024   4.562  1.00 20.00    -0.273 OA
ENDROOT
BRANCH   3   5
HETATM    5  C8  UNL     1     -31.981   8.087   2.513  1.00 20.00     0.125 C 
BRANCH   5   6
HETATM    6  C7  UNL     1     -31.758   8.535   1.070  1.00 20.00     0.024 C 
BRANCH   6   7
HETATM    7  C9  UNL     1     -32.731   9.621   0.568  1.00 20.00    -0.021 C 
HETATM    8  C3  UNL     1     -32.618   9.750  -0.954  1.00 20.00     0.009 C 
HETATM    9  C4  UNL     1     -32.478  10.980   1.221  1.00 20.00     0.009 C 
ENDBRANCH   6   7
ENDBRANCH   5   6
ENDBRANCH   3   5
BRANCH   1  10
HETATM   10  C6  UNL     1     -35.031   6.062   3.657  1.00 20.00     0.098 C 
HETATM   11  C2  UNL     1     -34.574   4.806   4.382  1.00 20.00     0.014 C 
ENDBRANCH   1  10
TORSDOF 4
ENDMDL
MODEL 3
REMARK VINA RESULT:      -0.8      1.383      1.715
REMARK  4 active torsions:
REMARK  status: ('A' for Active; 'I' for Inactive)
REMARK    1  A    between atoms: C1_1  and  C6_6 
REMARK       I    between atoms: C1_1  and  N10_10 
REMARK    2  A    between atoms: C7_7  and  C8_8 
REMARK    3  A    between atoms: C7_7  and  C9_9 
REMARK    4  A    between atoms: C8_8  and  N10_10 
ROOT
HETATM    1  C1  UNL     1     -33.315   5.979   2.741  1.00 20.00     0.218 C 
HETATM    2  C5  UNL     1     -33.853   7.979   4.178  1.00 20.00     0.152 C 
HETATM    3  N10 UNL     1     -33.088   7.325   3.109  1.00 20.00    -0.356 N 
HETATM    4  O11 UNL     1     -32.698   5.389   1.850  1.00 20.00    -0.273 OA
ENDROOT
BRANCH   3   5
HETATM    5  C8  UNL     1     -32.095   8.134   2.458  1.00 20.00     0.125 C 
BRANCH   5   6
HETATM    6  C7  UNL     1     -32.369   8.306   0.966  1.00 20.00     0.024 C 
BRANCH   6   7
HETATM    7  C9  UNL     1     -32.167   9.737   0.428  1.00 20.00    -0.021 C 
HETATM    8  C3  UNL     1     -32.847  10.741   1.362  1.00 20.00     0.009 C 
HETATM    9  C4  UNL     1     -32.706   9.909  -0.993  1.00 20.00     0.009 C 
ENDBRANCH   6   7
ENDBRANCH   5   6
ENDBRANCH   3   5
BRANCH   1  10
HETATM   10  C6  UNL     1     -34.404   5.264   3.528  1.00 20.00     0.098 C 
HETATM   11  C2  UNL     1     -33.911   3.983   4.182  1.00 20.00     0.014 C 
ENDBRANCH   1  10
TORSDOF 4
ENDMDL
MODEL 4
REMARK VINA RESULT:      -0.6      1.416      5.209
REMARK  4 active torsions:
REMARK  status: ('A' for Active; 'I' for Inactive)
REMARK    1  A    between atoms: C1_1  and  C6_6 
REMARK       I    between atoms: C1_1  and  N10_10 
REMARK    2  A    between atoms: C7_7  and  C8_8 
REMARK    3  A    between atoms: C7_7  and  C9_9 
REMARK    4  A    between atoms: C8_8  and  N10_10 
ROOT
HETATM    1  C1  UNL     1     -32.177   7.986   1.960  1.00 20.00     0.218 C 
HETATM    2  C5  UNL     1     -33.119   6.122   0.547  1.00 20.00     0.152 C 
HETATM    3  N10 UNL     1     -32.899   6.776   1.844  1.00 20.00    -0.356 N 
HETATM    4  O11 UNL     1     -31.968   8.571   3.026  1.00 20.00    -0.273 OA
ENDROOT
BRANCH   3   5
HETATM    5  C8  UNL     1     -33.462   6.114   2.988  1.00 20.00     0.125 C 
BRANCH   5   6
HETATM    6  C7  UNL     1     -33.100   4.632   3.041  1.00 20.00     0.024 C 
BRANCH   6   7
HETATM    7  C9  UNL     1     -33.958   3.786   4.003  1.00 20.00    -0.021 C 
HETATM    8  C3  UNL     1     -34.963   4.686   4.726  1.00 20.00     0.009 C 
HETATM    9  C4  UNL     1     -33.113   3.029   5.029  1.00 20.00     0.009 C 
ENDBRANCH   6   7
ENDBRANCH   5   6
ENDBRANCH   3   5
BRANCH   1  10
HETATM   10  C6  UNL     1     -31.649   8.557   0.651  1.00 20.00     0.098 C 
HETATM   11  C2  UNL     1     -32.409   9.794   0.202  1.00 20.00     0.014 C 
ENDBRANCH   1  10
TORSDOF 4
ENDMDL
MODEL 5
REMARK VINA RESULT:      -0.5      2.058      5.796
REMARK  4 active torsions:
REMARK  status: ('A' for Active; 'I' for Inactive)
REMARK    1  A    between atoms: C1_1  and  C6_6 
REMARK       I    between atoms: C1_1  and  N10_10 
REMARK    2  A    between atoms: C7_7  and  C8_8 
REMARK    3  A    between atoms: C7_7  and  C9_9 
REMARK    4  A    between atoms: C8_8  and  N10_10 
ROOT
HETATM    1  C1  UNL     1     -32.695   6.597   2.167  1.00 20.00     0.218 C 
HETATM    2  C5  UNL     1     -34.266   7.111   4.070  1.00 20.00     0.152 C 
HETATM    3  N10 UNL     1     -33.680   6.184   3.093  1.00 20.00    -0.356 N 
HETATM    4  O11 UNL     1     -32.175   5.855   1.329  1.00 20.00    -0.273 OA
ENDROOT
BRANCH   3   5
HETATM    5  C8  UNL     1     -34.166   4.833   3.135  1.00 20.00     0.125 C 
BRANCH   5   6
HETATM    6  C7  UNL     1     -34.135   4.244   4.543  1.00 20.00     0.024 C 
BRANCH   6   7
HETATM    7  C9  UNL     1     -32.964   3.280   4.821  1.00 20.00    -0.021 C 
HETATM    8  C3  UNL     1     -33.373   1.852   4.452  1.00 20.00     0.009 C 
HETATM    9  C4  UNL     1     -32.504   3.325   6.278  1.00 20.00     0.009 C 
ENDBRANCH   6   7
ENDBRANCH   5   6
ENDBRANCH   3   5
BRANCH   1  10
HETATM   10  C6  UNL     1     -32.289   8.061   2.257  1.00 20.00     0.098 C 
HETATM   11  C2  UNL     1     -32.075   8.696   0.893  1.00 20.00     0.014 C 
ENDBRANCH   1  10
TORSDOF 4
ENDMDL
MODEL 6
REMARK VINA RESULT:      -0.0      1.783      2.681
REMARK  4 active torsions:
REMARK  status: ('A' for Active; 'I' for Inactive)
REMARK    1  A    between atoms: C1_1  and  C6_6 
REMARK       I    between atoms: C1_1  and  N10_10 
REMARK    2  A    between atoms: C7_7  and  C8_8 
REMARK    3  A    between atoms: C7_7  and  C9_9 
REMARK    4  A    between atoms: C8_8  and  N10_10 
ROOT
HETATM    1  C1  UNL     1     -33.615   4.817   3.395  1.00 20.00     0.218 C 
HETATM    2  C5  UNL     1     -35.386   6.311   4.388  1.00 20.00     0.152 C 
HETATM    3  N10 UNL     1     -34.315   6.044   3.419  1.00 20.00    -0.356 N 
HETATM    4  O11 UNL     1     -32.710   4.549   2.600  1.00 20.00    -0.273 OA
ENDROOT
BRANCH   3   5
HETATM    5  C8  UNL     1     -34.023   7.105   2.495  1.00 20.00     0.125 C 
BRANCH   5   6
HETATM    6  C7  UNL     1     -32.842   7.962   2.944  1.00 20.00     0.024 C 
BRANCH   6   7
HETATM    7  C9  UNL     1     -31.809   8.276   1.843  1.00 20.00    -0.021 C 
HETATM    8  C3  UNL     1     -32.368   9.345   0.901  1.00 20.00     0.009 C 
HETATM    9  C4  UNL     1     -31.415   7.036   1.040  1.00 20.00     0.009 C 
ENDBRANCH   6   7
ENDBRANCH   5   6
ENDBRANCH   3   5
BRANCH   1  10
HETATM   10  C6  UNL     1     -34.049   3.799   4.440  1.00 20.00     0.098 C 
HETATM   11  C2  UNL     1     -32.936   2.837   4.821  1.00 20.00     0.014 C 
ENDBRANCH   1  10
TORSDOF 4
ENDMDL
MODEL 7
REMARK VINA RESULT:       0.0      1.320      4.689
REMARK  4 active torsions:
REMARK  status: ('A' for Active; 'I' for Inactive)
REMARK    1  A    between atoms: C1_1  and  C6_6 
REMARK       I    between atoms: C1_1  and  N10_10 
REMARK    2  A    between atoms: C7_7  and  C8_8 
REMARK    3  A    between atoms: C7_7  and  C9_9 
REMARK    4  A    between atoms: C8_8  and  N10_10 
ROOT
HETATM    1  C1  UNL     1     -31.993   8.058   1.723  1.00 20.00     0.218 C 
HETATM    2  C5  UNL     1     -33.144   6.140   0.559  1.00 20.00     0.152 C 
HETATM    3  N10 UNL     1     -32.703   6.836   1.775  1.00 20.00    -0.356 N 
HETATM    4  O11 UNL     1     -31.604   8.677   2.717  1.00 20.00    -0.273 OA
ENDROOT
BRANCH   3   5
HETATM    5  C8  UNL     1     -33.036   6.203   3.020  1.00 20.00     0.125 C 
BRANCH   5   6
HETATM    6  C7  UNL     1     -33.973   7.053   3.876  1.00 20.00     0.024 C 
BRANCH   6   7
HETATM    7  C9  UNL     1     -35.328   6.397   4.208  1.00 20.00    -0.021 C 
HETATM    8  C3  UNL     1     -35.128   4.901   4.465  1.00 20.00     0.009 C 
HETATM    9  C4  UNL     1     -36.361   6.597   3.099  1.00 20.00     0.009 C 
ENDBRANCH   6   7
ENDBRANCH   5   6
ENDBRANCH   3   5
BRANCH   1  10
HETATM   10  C6  UNL     1     -31.723   8.594   0.325  1.00 20.00     0.098 C 
HETATM   11  C2  UNL     1     -32.442   9.905   0.050  1.00 20.00     0.014 C 
ENDBRANCH   1  10
TORSDOF 4
ENDMDL
MODEL 8
REMARK VINA RESULT:       0.3      1.879      5.136
REMARK  4 active torsions:
REMARK  status: ('A' for Active; 'I' for Inactive)
REMARK    1  A    between atoms: C1_1  and  C6_6 
REMARK       I    between atoms: C1_1  and  N10_10 
REMARK    2  A    between atoms: C7_7  and  C8_8 
REMARK    3  A    between atoms: C7_7  and  C9_9 
REMARK    4  A    between atoms: C8_8  and  N10_10 
ROOT
HETATM    1  C1  UNL     1     -32.007   8.605   0.980  1.00 20.00     0.218 C 
HETATM    2  C5  UNL     1     -33.279   8.326   3.140  1.00 20.00     0.152 C 
HETATM    3  N10 UNL     1     -32.484   7.786   2.029  1.00 20.00    -0.356 N 
HETATM    4  O11 UNL     1     -31.337   8.195   0.029  1.00 20.00    -0.273 OA
ENDROOT
BRANCH   3   5
HETATM    5  C8  UNL     1     -32.221   6.374   2.071  1.00 20.00     0.125 C 
BRANCH   5   6
HETATM    6  C7  UNL     1     -33.490   5.549   2.272  1.00 20.00     0.024 C 
BRANCH   6   7
HETATM    7  C9  UNL     1     -33.890   5.317   3.743  1.00 20.00    -0.021 C 
HETATM    8  C3  UNL     1     -33.809   3.823   4.070  1.00 20.00     0.009 C 
HETATM    9  C4  UNL     1     -35.293   5.838   4.056  1.00 20.00     0.009 C 
ENDBRANCH   6   7
ENDBRANCH   5   6
ENDBRANCH   3   5
BRANCH   1  10
HETATM   10  C6  UNL     1     -32.373  10.078   1.088  1.00 20.00     0.098 C 
HETATM   11  C2  UNL     1     -32.845  10.664  -0.233  1.00 20.00     0.014 C 
ENDBRANCH   1  10
TORSDOF 4
ENDMDL
MODEL 9
REMARK VINA RESULT:       0.7      1.613      5.409
REMARK  4 active torsions:
REMARK  status: ('A' for Active; 'I' for Inactive)
REMARK    1  A    between atoms: C1_1  and  C6_6 
REMARK       I    between atoms: C1_1  and  N10_10 
REMARK    2  A    between atoms: C7_7  and  C8_8 
REMARK    3  A    between atoms: C7_7  and  C9_9 
REMARK    4  A    between atoms: C8_8  and  N10_10 
ROOT
HETATM    1  C1  UNL     1     -32.636   7.520   2.537  1.00 20.00     0.218 C 
HETATM    2  C5  UNL     1     -32.694   5.365   1.230  1.00 20.00     0.152 C 
HETATM    3  N10 UNL     1     -33.035   6.170   2.410  1.00 20.00    -0.356 N 
HETATM    4  O11 UNL     1     -32.900   8.234   3.508  1.00 20.00    -0.273 OA
ENDROOT
BRANCH   3   5
HETATM    5  C8  UNL     1     -33.799   5.504   3.428  1.00 20.00     0.125 C 
BRANCH   5   6
HETATM    6  C7  UNL     1     -33.696   3.983   3.335  1.00 20.00     0.024 C 
BRANCH   6   7
HETATM    7  C9  UNL     1     -33.595   3.252   4.689  1.00 20.00    -0.021 C 
HETATM    8  C3  UNL     1     -32.475   3.872   5.528  1.00 20.00     0.009 C 
HETATM    9  C4  UNL     1     -33.349   1.752   4.526  1.00 20.00     0.009 C 
ENDBRANCH   6   7
ENDBRANCH   5   6
ENDBRANCH   3   5
BRANCH   1  10
HETATM   10  C6  UNL     1     -31.835   8.074   1.368  1.00 20.00     0.098 C 
HETATM   11  C2  UNL     1     -32.440   9.343   0.790  1.00 20.00     0.014 C 
ENDBRANCH   1  10
TORSDOF 4
ENDMDL
