MODEL 1
REMARK VINA RESULT:      -0.5      0.000      0.000
REMARK  3 active torsions:
REMARK  status: ('A' for Active; 'I' for Inactive)
REMARK    1  A    between atoms: C5_5  and  C9_9 
REMARK    2  A    between atoms: C6_6  and  C10_10 
REMARK    3  A    between atoms: C6_6  and  O11_11 
ROOT
HETATM    1  C1  UNL     1     -34.188   7.997   3.989  1.00 20.00     0.003 C 
HETATM    2  C2  UNL     1     -34.548   6.522   3.844  1.00 20.00     0.005 C 
HETATM    3  C3  UNL     1     -33.678   8.586   2.674  1.00 20.00     0.038 C 
HETATM    4  C4  UNL     1     -32.855   6.283   1.979  1.00 20.00     0.042 C 
HETATM    5  C5  UNL     1     -33.369   5.701   3.306  1.00 20.00    -0.012 C 
HETATM    6  C6  UNL     1     -32.516   7.782   2.070  1.00 20.00     0.058 C 
ENDROOT
BRANCH   6   7
HETATM    7  C10 UNL     1     -32.133   8.338   0.697  1.00 20.00     0.033 C 
HETATM    8  C8  UNL     1     -32.529   9.770   0.555  1.00 20.00     0.008 C 
ENDBRANCH   6   7
BRANCH   6   9
HETATM    9  O11 UNL     1     -31.386   7.942   2.935  1.00 20.00    -0.390 OA
HETATM   10  H31 UNL     1     -30.817   8.604   2.516  1.00 20.00     0.210 HD
ENDBRANCH   6   9
BRANCH   5  11
HETATM   11  C9  UNL     1     -33.769   4.235   3.133  1.00 20.00     0.000 C 
HETATM   12  C7  UNL     1     -33.628   3.471   4.408  1.00 20.00     0.005 C 
ENDBRANCH   5  11
TORSDOF 3
ENDMDL
MODEL 2
REMARK VINA RESULT:      -0.3      1.385      4.459
REMARK  3 active torsions:
REMARK  status: ('A' for Active; 'I' for Inactive)
REMARK    1  A    between atoms: C5_5  and  C9_9 
REMARK    2  A    between atoms: C6_6  and  C10_10 
REMARK    3  A    between atoms: C6_6  and  O11_11 
ROOT
HETATM    1  C1  UNL     1     -31.914   5.904   1.852  1.00 20.00     0.003 C 
HETATM    2  C2  UNL     1     -31.881   6.972   0.763  1.00 20.00     0.005 C 
HETATM    3  C3  UNL     1     -33.187   5.996   2.694  1.00 20.00     0.038 C 
HETATM    4  C4  UNL     1     -33.325   8.483   2.188  1.00 20.00     0.042 C 
HETATM    5  C5  UNL     1     -32.043   8.381   1.345  1.00 20.00    -0.012 C 
HETATM    6  C6  UNL     1     -33.419   7.399   3.276  1.00 20.00     0.058 C 
ENDROOT
BRANCH   6   7
HETATM    7  C10 UNL     1     -34.766   7.467   3.997  1.00 20.00     0.033 C 
HETATM    8  C8  UNL     1     -35.399   6.120   4.107  1.00 20.00     0.008 C 
ENDBRANCH   6   7
BRANCH   6   9
HETATM    9  O11 UNL     1     -32.392   7.637   4.246  1.00 20.00    -0.390 OA
HETATM   10  H31 UNL     1     -32.774   8.243   4.899  1.00 20.00     0.210 HD
ENDBRANCH   6   9
BRANCH   5  11
HETATM   11  C9  UNL     1     -32.045   9.427   0.229  1.00 20.00     0.000 C 
HETATM   12  C7  UNL     1     -32.805  10.651   0.624  1.00 20.00     0.005 C 
ENDBRANCH   5  11
TORSDOF 3
ENDMDL
MODEL 3
REMARK VINA RESULT:      -0.3      1.906      3.961
REMARK  3 active torsions:
REMARK  status: ('A' for Active; 'I' for Inactive)
REMARK    1  A    between atoms: C5_5  and  C9_9 
REMARK    2  A    between atoms: C6_6  and  C10_10 
REMARK    3  A    between atoms: C6_6  and  O11_11 
ROOT
HETATM    1  C1  UNL     1     -33.641   8.423   4.073  1.00 20.00     0.003 C 
HETATM    2  C2  UNL     1     -32.571   8.077   3.043  1.00 20.00     0.005 C 
HETATM    3  C3  UNL     1     -34.159   7.176   4.789  1.00 20.00     0.038 C 
HETATM    4  C4  UNL     1     -33.589   5.780   2.743  1.00 20.00     0.042 C 
HETATM    5  C5  UNL     1     -33.072   7.041   2.029  1.00 20.00    -0.012 C 
HETATM    6  C6  UNL     1     -34.645   6.088   3.820  1.00 20.00     0.058 C 
ENDROOT
BRANCH   6   7
HETATM    7  C10 UNL     1     -35.029   4.820   4.583  1.00 20.00     0.033 C 
HETATM    8  C8  UNL     1     -33.980   3.765   4.461  1.00 20.00     0.008 C 
ENDBRANCH   6   7
BRANCH   6   9
HETATM    9  O11 UNL     1     -35.824   6.582   3.174  1.00 20.00    -0.390 OA
HETATM   10  H31 UNL     1     -36.082   5.906   2.531  1.00 20.00     0.210 HD
ENDBRANCH   6   9
BRANCH   5  11
HETATM   11  C9  UNL     1     -31.968   6.683   1.034  1.00 20.00     0.000 C 
HETATM   12  C7  UNL     1     -31.779   5.205   0.929  1.00 20.00     0.005 C 
ENDBRANCH   5  11
TORSDOF 3
ENDMDL
MODEL 4
REMARK VINA RESULT:       0.0      1.300      1.665
REMARK  3 active torsions:
REMARK  status: ('A' for Active; 'I' for Inactive)
REMARK    1  A    between atoms: C5_5  and  C9_9 
REMARK    2  A    between atoms: C6_6  and  C10_10 
REMARK    3  A    between atoms: C6_6  and  O11_11 
ROOT
HETATM    1  C1  UNL     1     -35.517   6.531   4.230  1.00 20.00     0.003 C 
HETATM    2  C2  UNL     1     -35.267   5.027   4.280  1.00 20.00     0.005 C 
HETATM    3  C3  UNL     1     -34.895   7.166   2.987  1.00 20.00     0.038 C 
HETATM    4  C4  UNL     1     -33.141   5.327   2.943  1.00 20.00     0.042 C 
HETATM    5  C5  UNL     1     -33.772   4.697   4.196  1.00 20.00    -0.012 C 
HETATM    6  C6  UNL     1     -33.402   6.840   2.832  1.00 20.00     0.058 C 
ENDROOT
BRANCH   6   7
HETATM    7  C10 UNL     1     -32.864   7.390   1.510  1.00 20.00     0.033 C 
HETATM    8  C8  UNL     1     -31.679   8.271   1.723  1.00 20.00     0.008 C 
ENDBRANCH   6   7
BRANCH   6   9
HETATM    9  O11 UNL     1     -32.704   7.501   3.894  1.00 20.00    -0.390 OA
HETATM   10  H31 UNL     1     -31.768   7.282   3.780  1.00 20.00     0.210 HD
ENDBRANCH   6   9
BRANCH   5  11
HETATM   11  C9  UNL     1     -33.553   3.183   4.207  1.00 20.00     0.000 C 
HETATM   12  C7  UNL     1     -32.752   2.752   5.391  1.00 20.00     0.005 C 
ENDBRANCH   5  11
TORSDOF 3
ENDMDL
MODEL 5
REMARK VINA RESULT:       0.6      1.517      2.376
REMARK  3 active torsions:
REMARK  status: ('A' for Active; 'I' for Inactive)
REMARK    1  A    between atoms: C5_5  and  C9_9 
REMARK    2  A    between atoms: C6_6  and  C10_10 
REMARK    3  A    between atoms: C6_6  and  O11_11 
ROOT
HETATM    1  C1  UNL     1     -32.307   5.287   1.564  1.00 20.00     0.003 C 
HETATM    2  C2  UNL     1     -33.146   5.310   2.837  1.00 20.00     0.005 C 
HETATM    3  C3  UNL     1     -31.567   6.607   1.351  1.00 20.00     0.038 C 
HETATM    4  C4  UNL     1     -33.391   7.821   2.641  1.00 20.00     0.042 C 
HETATM    5  C5  UNL     1     -34.129   6.487   2.848  1.00 20.00    -0.012 C 
HETATM    6  C6  UNL     1     -32.500   7.827   1.385  1.00 20.00     0.058 C 
ENDROOT
BRANCH   6   7
HETATM    7  C10 UNL     1     -31.694   9.124   1.297  1.00 20.00     0.033 C 
HETATM    8  C8  UNL     1     -32.318  10.096   0.353  1.00 20.00     0.008 C 
ENDBRANCH   6   7
BRANCH   6   9
HETATM    9  O11 UNL     1     -33.342   7.758   0.229  1.00 20.00    -0.390 OA
HETATM   10  H31 UNL     1     -33.201   6.881  -0.155  1.00 20.00     0.210 HD
ENDBRANCH   6   9
BRANCH   5  11
HETATM   11  C9  UNL     1     -34.929   6.510   4.151  1.00 20.00     0.000 C 
HETATM   12  C7  UNL     1     -35.327   5.136   4.577  1.00 20.00     0.005 C 
ENDBRANCH   5  11
TORSDOF 3
ENDMDL
MODEL 6
REMARK VINA RESULT:       0.6      1.258      1.933
REMARK  3 active torsions:
REMARK  status: ('A' for Active; 'I' for Inactive)
REMARK    1  A    between atoms: C5_5  and  C9_9 
REMARK    2  A    between atoms: C6_6  and  C10_10 
REMARK    3  A    between atoms: C6_6  and  O11_11 
ROOT
HETATM    1  C1  UNL     1     -33.788   7.064   3.737  1.00 20.00     0.003 C 
HETATM    2  C2  UNL     1     -33.837   5.913   2.738  1.00 20.00     0.005 C 
HETATM    3  C3  UNL     1     -33.634   8.414   3.037  1.00 20.00     0.038 C 
HETATM    4  C4  UNL     1     -32.453   7.261   1.104  1.00 20.00     0.042 C 
HETATM    5  C5  UNL     1     -32.609   5.908   1.818  1.00 20.00    -0.012 C 
HETATM    6  C6  UNL     1     -32.438   8.456   2.074  1.00 20.00     0.058 C 
ENDROOT
BRANCH   6   7
HETATM    7  C10 UNL     1     -32.409   9.779   1.308  1.00 20.00     0.033 C 
HETATM    8  C8  UNL     1     -32.469   9.561  -0.167  1.00 20.00     0.008 C 
ENDBRANCH   6   7
BRANCH   6   9
HETATM    9  O11 UNL     1     -31.246   8.385   2.866  1.00 20.00    -0.390 OA
HETATM   10  H31 UNL     1     -30.578   8.903   2.394  1.00 20.00     0.210 HD
ENDBRANCH   6   9
BRANCH   5  11
HETATM   11  C9  UNL     1     -32.703   4.769   0.801  1.00 20.00     0.000 C 
HETATM   12  C7  UNL     1     -31.352   4.325   0.346  1.00 20.00     0.005 C 
ENDBRANCH   5  11
TORSDOF 3
ENDMDL
MODEL 7
REMARK VINA RESULT:       0.9      2.053      4.703
REMARK  3 active torsions:
REMARK  status: ('A' for Active; 'I' for Inactive)
REMARK    1  A    between atoms: C5_5  and  C9_9 
REMARK    2  A    between atoms: C6_6  and  C10_10 
REMARK    3  A    between atoms: C6_6  and  O11_11 
ROOT
HETATM    1  C1  UNL     1     -35.355   6.195   3.789  1.00 20.00     0.003 C 
HETATM    2  C2  UNL     1     -34.269   6.968   3.047  1.00 20.00     0.005 C 
HETATM    3  C3  UNL     1     -34.759   5.152   4.734  1.00 20.00     0.038 C 
HETATM    4  C4  UNL     1     -32.714   4.981   3.234  1.00 20.00     0.042 C 
HETATM    5  C5  UNL     1     -33.323   6.030   2.288  1.00 20.00    -0.012 C 
HETATM    6  C6  UNL     1     -33.774   4.203   4.033  1.00 20.00     0.058 C 
ENDROOT
BRANCH   6   7
HETATM    7  C10 UNL     1     -33.114   3.268   5.047  1.00 20.00     0.033 C 
HETATM    8  C8  UNL     1     -33.239   1.838   4.638  1.00 20.00     0.008 C 
ENDBRANCH   6   7
BRANCH   6   9
HETATM    9  O11 UNL     1     -34.530   3.395   3.123  1.00 20.00    -0.390 OA
HETATM   10  H31 UNL     1     -34.480   3.839   2.264  1.00 20.00     0.210 HD
ENDBRANCH   6   9
BRANCH   5  11
HETATM   11  C9  UNL     1     -32.223   6.827   1.586  1.00 20.00     0.000 C 
HETATM   12  C7  UNL     1     -32.129   8.220   2.115  1.00 20.00     0.005 C 
ENDBRANCH   5  11
TORSDOF 3
ENDMDL
MODEL 8
REMARK VINA RESULT:       1.0      1.760      3.079
REMARK  3 active torsions:
REMARK  status: ('A' for Active; 'I' for Inactive)
REMARK    1  A    between atoms: C5_5  and  C9_9 
REMARK    2  A    between atoms: C6_6  and  C10_10 
REMARK    3  A    between atoms: C6_6  and  O11_11 
ROOT
HETATM    1  C1  UNL     1     -31.675   8.082   1.793  1.00 20.00     0.003 C 
HETATM    2  C2  UNL     1     -32.862   8.289   2.729  1.00 20.00     0.005 C 
HETATM    3  C3  UNL     1     -31.974   7.028   0.727  1.00 20.00     0.038 C 
HETATM    4  C4  UNL     1     -33.617   5.911   2.312  1.00 20.00     0.042 C 
HETATM    5  C5  UNL     1     -33.308   6.974   3.380  1.00 20.00    -0.012 C 
HETATM    6  C6  UNL     1     -32.459   5.697   1.321  1.00 20.00     0.058 C 
ENDROOT
BRANCH   6   7
HETATM    7  C10 UNL     1     -32.865   4.727   0.210  1.00 20.00     0.033 C 
HETATM    8  C8  UNL     1     -34.219   5.047  -0.330  1.00 20.00     0.008 C 
ENDBRANCH   6   7
BRANCH   6   9
HETATM    9  O11 UNL     1     -31.357   5.114   2.027  1.00 20.00    -0.390 OA
HETATM   10  H31 UNL     1     -31.345   5.532   2.900  1.00 20.00     0.210 HD
ENDBRANCH   6   9
BRANCH   5  11
HETATM   11  C9  UNL     1     -34.522   7.203   4.280  1.00 20.00     0.000 C 
HETATM   12  C7  UNL     1     -35.482   6.062   4.212  1.00 20.00     0.005 C 
ENDBRANCH   5  11
TORSDOF 3
ENDMDL
MODEL 9
REMARK VINA RESULT:       1.0      2.044      3.133
REMARK  3 active torsions:
REMARK  status: ('A' for Active; 'I' for Inactive)
REMARK    1  A    between atoms: C5_5  and  C9_9 
REMARK    2  A    between atoms: C6_6  and  C10_10 
REMARK    3  A    between atoms: C6_6  and  O11_11 
ROOT
HETATM    1  C1  UNL     1     -33.111   5.802   1.610  1.00 20.00     0.003 C 
HETATM    2  C2  UNL     1     -32.797   4.504   2.347  1.00 20.00     0.005 C 
HETATM    3  C3  UNL     1     -33.266   6.976   2.576  1.00 20.00     0.038 C 
HETATM    4  C4  UNL     1     -34.006   5.364   4.396  1.00 20.00     0.042 C 
HETATM    5  C5  UNL     1     -33.850   4.189   3.416  1.00 20.00    -0.012 C 
HETATM    6  C6  UNL     1     -34.286   6.703   3.691  1.00 20.00     0.058 C 
ENDROOT
BRANCH   6   7
HETATM    7  C10 UNL     1     -34.305   7.855   4.698  1.00 20.00     0.033 C 
HETATM    8  C8  UNL     1     -32.930   8.366   4.974  1.00 20.00     0.008 C 
ENDBRANCH   6   7
BRANCH   6   9
HETATM    9  O11 UNL     1     -35.581   6.636   3.082  1.00 20.00    -0.390 OA
HETATM   10  H31 UNL     1     -35.428   6.475   2.140  1.00 20.00     0.210 HD
ENDBRANCH   6   9
BRANCH   5  11
HETATM   11  C9  UNL     1     -33.491   2.905   4.166  1.00 20.00     0.000 C 
HETATM   12  C7  UNL     1     -32.756   3.195   5.433  1.00 20.00     0.005 C 
ENDBRANCH   5  11
TORSDOF 3
ENDMDL
