MODEL 1
REMARK VINA RESULT:      -1.8      0.000      0.000
REMARK  3 active torsions:
REMARK  status: ('A' for Active; 'I' for Inactive)
REMARK    1  A    between atoms: C5_5  and  C8_8 
REMARK    2  A    between atoms: C6_6  and  C9_9 
REMARK    3  A    between atoms: C9_9  and  C10_10 
ROOT
HETATM    1  C1  UNL     1     -33.673   7.755   4.284  1.00 20.00     0.001 C 
HETATM    2  C2  UNL     1     -32.917   8.517   3.199  1.00 20.00     0.005 C 
HETATM    3  C3  UNL     1     -34.672   6.766   3.686  1.00 20.00     0.005 C 
HETATM    4  C4  UNL     1     -33.242   6.580   1.608  1.00 20.00     0.009 C 
HETATM    5  C5  UNL     1     -32.232   7.570   2.207  1.00 20.00    -0.014 C 
HETATM    6  C6  UNL     1     -34.032   5.805   2.674  1.00 20.00    -0.013 C 
ENDROOT
BRANCH   6   7
HETATM    7  C9  UNL     1     -33.168   4.747   3.365  1.00 20.00     0.020 C 
BRANCH   7   8
HETATM    8  C10 UNL     1     -33.956   3.861   4.317  1.00 20.00     0.115 C 
HETATM    9 CL11 UNL     1     -32.912   2.708   5.180  1.00 20.00    -0.130 Cl
ENDBRANCH   7   8
ENDBRANCH   6   7
BRANCH   5  10
HETATM   10  C8  UNL     1     -31.539   8.364   1.098  1.00 20.00     0.000 C 
HETATM   11  C7  UNL     1     -32.403   9.471   0.591  1.00 20.00     0.005 C 
ENDBRANCH   5  10
TORSDOF 3
ENDMDL
MODEL 2
REMARK VINA RESULT:      -0.7      2.962      4.807
REMARK  3 active torsions:
REMARK  status: ('A' for Active; 'I' for Inactive)
REMARK    1  A    between atoms: C5_5  and  C8_8 
REMARK    2  A    between atoms: C6_6  and  C9_9 
REMARK    3  A    between atoms: C9_9  and  C10_10 
ROOT
HETATM    1  C1  UNL     1     -32.373   8.719   3.779  1.00 20.00     0.001 C 
HETATM    2  C2  UNL     1     -33.378   7.763   4.414  1.00 20.00     0.005 C 
HETATM    3  C3  UNL     1     -31.456   8.000   2.793  1.00 20.00     0.005 C 
HETATM    4  C4  UNL     1     -33.260   6.279   2.371  1.00 20.00     0.009 C 
HETATM    5  C5  UNL     1     -34.189   7.001   3.359  1.00 20.00    -0.014 C 
HETATM    6  C6  UNL     1     -32.225   7.211   1.723  1.00 20.00    -0.013 C 
ENDROOT
BRANCH   6   7
HETATM    7  C9  UNL     1     -32.865   8.137   0.686  1.00 20.00     0.020 C 
BRANCH   7   8
HETATM    8  C10 UNL     1     -31.954   9.279   0.262  1.00 20.00     0.115 C 
HETATM    9 CL11 UNL     1     -32.682  10.871   0.577  1.00 20.00    -0.130 Cl
ENDBRANCH   7   8
ENDBRANCH   6   7
BRANCH   5  10
HETATM   10  C8  UNL     1     -35.139   6.006   4.027  1.00 20.00     0.000 C 
HETATM   11  C7  UNL     1     -34.501   4.668   4.199  1.00 20.00     0.005 C 
ENDBRANCH   5  10
TORSDOF 3
ENDMDL
MODEL 3
REMARK VINA RESULT:      -0.5      2.680      4.799
REMARK  3 active torsions:
REMARK  status: ('A' for Active; 'I' for Inactive)
REMARK    1  A    between atoms: C5_5  and  C8_8 
REMARK    2  A    between atoms: C6_6  and  C9_9 
REMARK    3  A    between atoms: C9_9  and  C10_10 
ROOT
HETATM    1  C1  UNL     1     -35.531   6.537   3.871  1.00 20.00     0.001 C 
HETATM    2  C2  UNL     1     -35.230   5.104   4.302  1.00 20.00     0.005 C 
HETATM    3  C3  UNL     1     -34.322   7.450   4.063  1.00 20.00     0.005 C 
HETATM    4  C4  UNL     1     -32.780   5.464   3.791  1.00 20.00     0.009 C 
HETATM    5  C5  UNL     1     -33.993   4.541   3.592  1.00 20.00    -0.014 C 
HETATM    6  C6  UNL     1     -33.054   6.919   3.379  1.00 20.00    -0.013 C 
ENDROOT
BRANCH   6   7
HETATM    7  C9  UNL     1     -33.122   7.076   1.858  1.00 20.00     0.020 C 
BRANCH   7   8
HETATM    8  C10 UNL     1     -31.930   7.825   1.282  1.00 20.00     0.115 C 
HETATM    9 CL11 UNL     1     -32.391   9.412   0.621  1.00 20.00    -0.130 Cl
ENDBRANCH   7   8
ENDBRANCH   6   7
BRANCH   5  10
HETATM   10  C8  UNL     1     -33.681   3.131   4.093  1.00 20.00     0.000 C 
HETATM   11  C7  UNL     1     -32.842   3.159   5.328  1.00 20.00     0.005 C 
ENDBRANCH   5  10
TORSDOF 3
ENDMDL
MODEL 4
REMARK VINA RESULT:      -0.4      3.161      4.640
REMARK  3 active torsions:
REMARK  status: ('A' for Active; 'I' for Inactive)
REMARK    1  A    between atoms: C5_5  and  C8_8 
REMARK    2  A    between atoms: C6_6  and  C9_9 
REMARK    3  A    between atoms: C9_9  and  C10_10 
ROOT
HETATM    1  C1  UNL     1     -34.136   7.293   3.707  1.00 20.00     0.001 C 
HETATM    2  C2  UNL     1     -33.902   5.977   2.972  1.00 20.00     0.005 C 
HETATM    3  C3  UNL     1     -32.833   8.063   3.913  1.00 20.00     0.005 C 
HETATM    4  C4  UNL     1     -31.857   6.960   1.857  1.00 20.00     0.009 C 
HETATM    5  C5  UNL     1     -33.167   6.186   1.642  1.00 20.00    -0.014 C 
HETATM    6  C6  UNL     1     -32.055   8.286   2.609  1.00 20.00    -0.013 C 
ENDROOT
BRANCH   6   7
HETATM    7  C9  UNL     1     -32.718   9.346   1.726  1.00 20.00     0.020 C 
BRANCH   7   8
HETATM    8  C10 UNL     1     -32.018   9.534   0.389  1.00 20.00     0.115 C 
HETATM    9 CL11 UNL     1     -33.062  10.333  -0.809  1.00 20.00    -0.130 Cl
ENDBRANCH   7   8
ENDBRANCH   6   7
BRANCH   5  10
HETATM   10  C8  UNL     1     -32.892   4.844   0.963  1.00 20.00     0.000 C 
HETATM   11  C7  UNL     1     -31.430   4.625   0.751  1.00 20.00     0.005 C 
ENDBRANCH   5  10
TORSDOF 3
ENDMDL
MODEL 5
REMARK VINA RESULT:      -0.3      1.432      2.351
REMARK  3 active torsions:
REMARK  status: ('A' for Active; 'I' for Inactive)
REMARK    1  A    between atoms: C5_5  and  C8_8 
REMARK    2  A    between atoms: C6_6  and  C9_9 
REMARK    3  A    between atoms: C9_9  and  C10_10 
ROOT
HETATM    1  C1  UNL     1     -32.712   5.631   1.235  1.00 20.00     0.001 C 
HETATM    2  C2  UNL     1     -32.034   6.903   0.734  1.00 20.00     0.005 C 
HETATM    3  C3  UNL     1     -32.689   5.542   2.759  1.00 20.00     0.005 C 
HETATM    4  C4  UNL     1     -32.609   8.066   2.904  1.00 20.00     0.009 C 
HETATM    5  C5  UNL     1     -32.637   8.161   1.371  1.00 20.00    -0.014 C 
HETATM    6  C6  UNL     1     -33.271   6.788   3.442  1.00 20.00    -0.013 C 
ENDROOT
BRANCH   6   7
HETATM    7  C9  UNL     1     -34.796   6.842   3.317  1.00 20.00     0.020 C 
BRANCH   7   8
HETATM    8  C10 UNL     1     -35.510   5.959   4.329  1.00 20.00     0.115 C 
HETATM    9 CL11 UNL     1     -34.707   4.385   4.531  1.00 20.00    -0.130 Cl
ENDBRANCH   7   8
ENDBRANCH   6   7
BRANCH   5  10
HETATM   10  C8  UNL     1     -31.893   9.411   0.899  1.00 20.00     0.000 C 
HETATM   11  C7  UNL     1     -32.588  10.063  -0.251  1.00 20.00     0.005 C 
ENDBRANCH   5  10
TORSDOF 3
ENDMDL
MODEL 6
REMARK VINA RESULT:      -0.3      1.301      1.785
REMARK  3 active torsions:
REMARK  status: ('A' for Active; 'I' for Inactive)
REMARK    1  A    between atoms: C5_5  and  C8_8 
REMARK    2  A    between atoms: C6_6  and  C9_9 
REMARK    3  A    between atoms: C9_9  and  C10_10 
ROOT
HETATM    1  C1  UNL     1     -33.457   7.923   4.343  1.00 20.00     0.001 C 
HETATM    2  C2  UNL     1     -32.665   7.821   3.043  1.00 20.00     0.005 C 
HETATM    3  C3  UNL     1     -34.890   7.423   4.171  1.00 20.00     0.005 C 
HETATM    4  C4  UNL     1     -34.133   5.903   2.297  1.00 20.00     0.009 C 
HETATM    5  C5  UNL     1     -32.689   6.399   2.468  1.00 20.00    -0.014 C 
HETATM    6  C6  UNL     1     -34.964   6.006   3.585  1.00 20.00    -0.013 C 
ENDROOT
BRANCH   6   7
HETATM    7  C9  UNL     1     -34.556   4.946   4.611  1.00 20.00     0.020 C 
BRANCH   7   8
HETATM    8  C10 UNL     1     -33.877   3.738   3.983  1.00 20.00     0.115 C 
HETATM    9 CL11 UNL     1     -32.882   2.844   5.156  1.00 20.00    -0.130 Cl
ENDBRANCH   7   8
ENDBRANCH   6   7
BRANCH   5  10
HETATM   10  C8  UNL     1     -31.942   6.346   1.135  1.00 20.00     0.000 C 
HETATM   11  C7  UNL     1     -31.872   4.954   0.599  1.00 20.00     0.005 C 
ENDBRANCH   5  10
TORSDOF 3
ENDMDL
MODEL 7
REMARK VINA RESULT:       0.3      2.217      4.342
REMARK  3 active torsions:
REMARK  status: ('A' for Active; 'I' for Inactive)
REMARK    1  A    between atoms: C5_5  and  C8_8 
REMARK    2  A    between atoms: C6_6  and  C9_9 
REMARK    3  A    between atoms: C9_9  and  C10_10 
ROOT
HETATM    1  C1  UNL     1     -35.524   6.464   3.867  1.00 20.00     0.001 C 
HETATM    2  C2  UNL     1     -35.237   5.082   4.448  1.00 20.00     0.005 C 
HETATM    3  C3  UNL     1     -34.279   7.348   3.873  1.00 20.00     0.005 C 
HETATM    4  C4  UNL     1     -32.817   5.288   3.747  1.00 20.00     0.009 C 
HETATM    5  C5  UNL     1     -34.067   4.394   3.735  1.00 20.00    -0.014 C 
HETATM    6  C6  UNL     1     -33.075   6.693   3.181  1.00 20.00    -0.013 C 
ENDROOT
BRANCH   6   7
HETATM    7  C9  UNL     1     -33.238   6.672   1.659  1.00 20.00     0.020 C 
BRANCH   7   8
HETATM    8  C10 UNL     1     -32.291   5.701   0.971  1.00 20.00     0.115 C 
HETATM    9 CL11 UNL     1     -33.162   4.398   0.128  1.00 20.00    -0.130 Cl
ENDBRANCH   7   8
ENDBRANCH   6   7
BRANCH   5  10
HETATM   10  C8  UNL     1     -33.764   3.042   4.383  1.00 20.00     0.000 C 
HETATM   11  C7  UNL     1     -32.543   3.104   5.240  1.00 20.00     0.005 C 
ENDBRANCH   5  10
TORSDOF 3
ENDMDL
MODEL 8
REMARK VINA RESULT:       0.3      2.690      5.009
REMARK  3 active torsions:
REMARK  status: ('A' for Active; 'I' for Inactive)
REMARK    1  A    between atoms: C5_5  and  C8_8 
REMARK    2  A    between atoms: C6_6  and  C9_9 
REMARK    3  A    between atoms: C9_9  and  C10_10 
ROOT
HETATM    1  C1  UNL     1     -32.401   5.200   1.236  1.00 20.00     0.001 C 
HETATM    2  C2  UNL     1     -33.022   4.275   2.280  1.00 20.00     0.005 C 
HETATM    3  C3  UNL     1     -33.281   6.419   0.969  1.00 20.00     0.005 C 
HETATM    4  C4  UNL     1     -34.234   6.242   3.304  1.00 20.00     0.009 C 
HETATM    5  C5  UNL     1     -33.348   5.018   3.581  1.00 20.00    -0.014 C 
HETATM    6  C6  UNL     1     -33.645   7.189   2.247  1.00 20.00    -0.013 C 
ENDROOT
BRANCH   6   7
HETATM    7  C9  UNL     1     -32.453   7.979   2.792  1.00 20.00     0.020 C 
BRANCH   7   8
HETATM    8  C10 UNL     1     -31.550   8.529   1.698  1.00 20.00     0.115 C 
HETATM    9 CL11 UNL     1     -32.392   9.705   0.663  1.00 20.00    -0.130 Cl
ENDBRANCH   7   8
ENDBRANCH   6   7
BRANCH   5  10
HETATM   10  C8  UNL     1     -34.027   4.080   4.579  1.00 20.00     0.000 C 
HETATM   11  C7  UNL     1     -33.226   2.839   4.801  1.00 20.00     0.005 C 
ENDBRANCH   5  10
TORSDOF 3
ENDMDL
MODEL 9
REMARK VINA RESULT:       0.7      2.899      4.867
REMARK  3 active torsions:
REMARK  status: ('A' for Active; 'I' for Inactive)
REMARK    1  A    between atoms: C5_5  and  C8_8 
REMARK    2  A    between atoms: C6_6  and  C9_9 
REMARK    3  A    between atoms: C9_9  and  C10_10 
ROOT
HETATM    1  C1  UNL     1     -32.052   4.755   2.438  1.00 20.00     0.001 C 
HETATM    2  C2  UNL     1     -33.329   4.873   3.265  1.00 20.00     0.005 C 
HETATM    3  C3  UNL     1     -32.227   5.349   1.042  1.00 20.00     0.005 C 
HETATM    4  C4  UNL     1     -34.005   6.912   1.932  1.00 20.00     0.009 C 
HETATM    5  C5  UNL     1     -33.830   6.320   3.339  1.00 20.00    -0.014 C 
HETATM    6  C6  UNL     1     -32.741   6.796   1.066  1.00 20.00    -0.013 C 
ENDROOT
BRANCH   6   7
HETATM    7  C9  UNL     1     -31.654   7.776   1.513  1.00 20.00     0.020 C 
BRANCH   7   8
HETATM    8  C10 UNL     1     -32.111   9.227   1.486  1.00 20.00     0.115 C 
HETATM    9 CL11 UNL     1     -32.509   9.775  -0.159  1.00 20.00    -0.130 Cl
ENDBRANCH   7   8
ENDBRANCH   6   7
BRANCH   5  10
HETATM   10  C8  UNL     1     -35.144   6.395   4.119  1.00 20.00     0.000 C 
HETATM   11  C7  UNL     1     -35.507   5.074   4.711  1.00 20.00     0.005 C 
ENDBRANCH   5  10
TORSDOF 3
ENDMDL
