MODEL 1
REMARK VINA RESULT:       0.4      0.000      0.000
REMARK  1 active torsions:
REMARK  status: ('A' for Active; 'I' for Inactive)
REMARK    1  A    between atoms: C6_6  and  C9_9 
ROOT
HETATM    1  C1  UNL     1     -32.593   7.848   2.094  1.00 20.00     0.085 C 
HETATM    2  C2  UNL     1     -35.650   6.658   4.093  1.00 20.00     0.003 C 
HETATM    3  C3  UNL     1     -35.350   5.163   4.022  1.00 20.00     0.005 C 
HETATM    4  C4  UNL     1     -34.821   7.449   3.081  1.00 20.00     0.041 C 
HETATM    5  C5  UNL     1     -33.022   5.666   3.169  1.00 20.00     0.045 C 
HETATM    6  C6  UNL     1     -33.854   4.872   4.192  1.00 20.00    -0.012 C 
HETATM    7  C7  UNL     1     -33.312   7.177   3.191  1.00 20.00     0.125 C 
HETATM    8  N10 UNL     1     -32.026   8.377   1.230  1.00 20.00    -0.195 NA
HETATM    9 CL11 UNL     1     -32.672   7.901   4.709  1.00 20.00    -0.103 Cl
ENDROOT
BRANCH   6  10
HETATM   10  C9  UNL     1     -33.581   3.375   4.059  1.00 20.00     0.000 C 
HETATM   11  C8  UNL     1     -32.819   2.848   5.230  1.00 20.00     0.005 C 
ENDBRANCH   6  10
TORSDOF 1
ENDMDL
MODEL 2
REMARK VINA RESULT:       0.7      2.482      4.475
REMARK  1 active torsions:
REMARK  status: ('A' for Active; 'I' for Inactive)
REMARK    1  A    between atoms: C6_6  and  C9_9 
ROOT
HETATM    1  C1  UNL     1     -34.059   4.725   3.906  1.00 20.00     0.085 C 
HETATM    2  C2  UNL     1     -33.250   8.424   4.559  1.00 20.00     0.003 C 
HETATM    3  C3  UNL     1     -32.344   8.634   3.348  1.00 20.00     0.005 C 
HETATM    4  C4  UNL     1     -33.484   6.939   4.838  1.00 20.00     0.041 C 
HETATM    5  C5  UNL     1     -33.113   6.426   2.384  1.00 20.00     0.045 C 
HETATM    6  C6  UNL     1     -32.882   7.920   2.102  1.00 20.00    -0.012 C 
HETATM    7  C7  UNL     1     -34.003   6.168   3.613  1.00 20.00     0.125 C 
HETATM    8  N10 UNL     1     -34.104   3.589   4.138  1.00 20.00    -0.195 NA
HETATM    9 CL11 UNL     1     -35.697   6.660   3.256  1.00 20.00    -0.103 Cl
ENDROOT
BRANCH   6  10
HETATM   10  C9  UNL     1     -31.925   8.102   0.925  1.00 20.00     0.000 C 
HETATM   11  C8  UNL     1     -32.129   9.417   0.248  1.00 20.00     0.005 C 
ENDBRANCH   6  10
TORSDOF 1
ENDMDL
MODEL 3
REMARK VINA RESULT:       0.9      1.322      1.627
REMARK  1 active torsions:
REMARK  status: ('A' for Active; 'I' for Inactive)
REMARK    1  A    between atoms: C6_6  and  C9_9 
ROOT
HETATM    1  C1  UNL     1     -32.419   8.776   0.954  1.00 20.00     0.085 C 
HETATM    2  C2  UNL     1     -34.258   7.938   4.221  1.00 20.00     0.003 C 
HETATM    3  C3  UNL     1     -34.503   6.461   3.924  1.00 20.00     0.005 C 
HETATM    4  C4  UNL     1     -33.853   8.706   2.964  1.00 20.00     0.041 C 
HETATM    5  C5  UNL     1     -32.890   6.579   1.980  1.00 20.00     0.045 C 
HETATM    6  C6  UNL     1     -33.293   5.805   3.248  1.00 20.00    -0.012 C 
HETATM    7  C7  UNL     1     -32.656   8.079   2.230  1.00 20.00     0.125 C 
HETATM    8  N10 UNL     1     -32.232   9.325  -0.050  1.00 20.00    -0.195 NA
HETATM    9 CL11 UNL     1     -31.158   8.311   3.200  1.00 20.00    -0.103 Cl
ENDROOT
BRANCH   6  10
HETATM   10  C9  UNL     1     -33.593   4.345   2.912  1.00 20.00     0.000 C 
HETATM   11  C8  UNL     1     -33.651   3.499   4.142  1.00 20.00     0.005 C 
ENDBRANCH   6  10
TORSDOF 1
ENDMDL
MODEL 4
REMARK VINA RESULT:       1.3      2.554      5.057
REMARK  1 active torsions:
REMARK  status: ('A' for Active; 'I' for Inactive)
REMARK    1  A    between atoms: C6_6  and  C9_9 
ROOT
HETATM    1  C1  UNL     1     -34.728   6.794   3.616  1.00 20.00     0.085 C 
HETATM    2  C2  UNL     1     -31.405   6.923   1.692  1.00 20.00     0.003 C 
HETATM    3  C3  UNL     1     -31.730   8.146   0.839  1.00 20.00     0.005 C 
HETATM    4  C4  UNL     1     -32.658   6.342   2.346  1.00 20.00     0.041 C 
HETATM    5  C5  UNL     1     -33.741   8.632   2.293  1.00 20.00     0.045 C 
HETATM    6  C6  UNL     1     -32.478   9.219   1.640  1.00 20.00    -0.012 C 
HETATM    7  C7  UNL     1     -33.461   7.381   3.145  1.00 20.00     0.125 C 
HETATM    8  N10 UNL     1     -35.725   6.331   3.987  1.00 20.00    -0.195 NA
HETATM    9 CL11 UNL     1     -32.554   7.842   4.629  1.00 20.00    -0.103 Cl
ENDROOT
BRANCH   6  10
HETATM   10  C9  UNL     1     -32.838  10.403   0.744  1.00 20.00     0.000 C 
HETATM   11  C8  UNL     1     -32.747  10.045  -0.704  1.00 20.00     0.005 C 
ENDBRANCH   6  10
TORSDOF 1
ENDMDL
MODEL 5
REMARK VINA RESULT:       1.4      2.145      2.779
REMARK  1 active torsions:
REMARK  status: ('A' for Active; 'I' for Inactive)
REMARK    1  A    between atoms: C6_6  and  C9_9 
ROOT
HETATM    1  C1  UNL     1     -32.451   9.540   0.973  1.00 20.00     0.085 C 
HETATM    2  C2  UNL     1     -33.818   7.170   3.669  1.00 20.00     0.003 C 
HETATM    3  C3  UNL     1     -33.822   5.902   2.819  1.00 20.00     0.005 C 
HETATM    4  C4  UNL     1     -33.668   8.424   2.810  1.00 20.00     0.041 C 
HETATM    5  C5  UNL     1     -32.432   7.071   1.059  1.00 20.00     0.045 C 
HETATM    6  C6  UNL     1     -32.579   5.809   1.926  1.00 20.00    -0.012 C 
HETATM    7  C7  UNL     1     -32.447   8.376   1.876  1.00 20.00     0.125 C 
HETATM    8  N10 UNL     1     -32.453  10.457   0.263  1.00 20.00    -0.195 NA
HETATM    9 CL11 UNL     1     -30.935   8.510   2.842  1.00 20.00    -0.103 Cl
ENDROOT
BRANCH   6  10
HETATM   10  C9  UNL     1     -32.642   4.560   1.048  1.00 20.00     0.000 C 
HETATM   11  C8  UNL     1     -31.353   4.326   0.331  1.00 20.00     0.005 C 
ENDBRANCH   6  10
TORSDOF 1
ENDMDL
MODEL 6
REMARK VINA RESULT:       1.5      1.959      2.929
REMARK  1 active torsions:
REMARK  status: ('A' for Active; 'I' for Inactive)
REMARK    1  A    between atoms: C6_6  and  C9_9 
ROOT
HETATM    1  C1  UNL     1     -32.445   9.065   0.757  1.00 20.00     0.085 C 
HETATM    2  C2  UNL     1     -32.126   8.402   4.528  1.00 20.00     0.003 C 
HETATM    3  C3  UNL     1     -33.524   7.824   4.735  1.00 20.00     0.005 C 
HETATM    4  C4  UNL     1     -32.008   9.126   3.187  1.00 20.00     0.041 C 
HETATM    5  C5  UNL     1     -33.825   7.641   2.231  1.00 20.00     0.045 C 
HETATM    6  C6  UNL     1     -33.940   6.908   3.578  1.00 20.00    -0.012 C 
HETATM    7  C7  UNL     1     -32.436   8.260   1.992  1.00 20.00     0.125 C 
HETATM    8  N10 UNL     1     -32.451   9.698  -0.215  1.00 20.00    -0.195 NA
HETATM    9 CL11 UNL     1     -31.225   6.958   1.718  1.00 20.00    -0.103 Cl
ENDROOT
BRANCH   6  10
HETATM   10  C9  UNL     1     -35.364   6.393   3.789  1.00 20.00     0.000 C 
HETATM   11  C8  UNL     1     -35.377   5.105   4.544  1.00 20.00     0.005 C 
ENDBRANCH   6  10
TORSDOF 1
ENDMDL
MODEL 7
REMARK VINA RESULT:       1.8      2.722      3.823
REMARK  1 active torsions:
REMARK  status: ('A' for Active; 'I' for Inactive)
REMARK    1  A    between atoms: C6_6  and  C9_9 
ROOT
HETATM    1  C1  UNL     1     -33.142   4.738   0.220  1.00 20.00     0.085 C 
HETATM    2  C2  UNL     1     -31.692   7.995   1.651  1.00 20.00     0.003 C 
HETATM    3  C3  UNL     1     -32.800   8.263   2.667  1.00 20.00     0.005 C 
HETATM    4  C4  UNL     1     -32.112   6.947   0.622  1.00 20.00     0.041 C 
HETATM    5  C5  UNL     1     -33.693   5.923   2.317  1.00 20.00     0.045 C 
HETATM    6  C6  UNL     1     -33.267   6.975   3.355  1.00 20.00    -0.012 C 
HETATM    7  C7  UNL     1     -32.612   5.640   1.258  1.00 20.00     0.125 C 
HETATM    8  N10 UNL     1     -33.558   4.028  -0.597  1.00 20.00    -0.195 NA
HETATM    9 CL11 UNL     1     -31.233   4.762   2.011  1.00 20.00    -0.103 Cl
ENDROOT
BRANCH   6  10
HETATM   10  C9  UNL     1     -34.413   7.270   4.321  1.00 20.00     0.000 C 
HETATM   11  C8  UNL     1     -35.466   6.212   4.264  1.00 20.00     0.005 C 
ENDBRANCH   6  10
TORSDOF 1
ENDMDL
MODEL 8
REMARK VINA RESULT:       2.0      2.774      3.920
REMARK  1 active torsions:
REMARK  status: ('A' for Active; 'I' for Inactive)
REMARK    1  A    between atoms: C6_6  and  C9_9 
ROOT
HETATM    1  C1  UNL     1     -35.081   5.269   4.511  1.00 20.00     0.085 C 
HETATM    2  C2  UNL     1     -33.290   8.571   3.708  1.00 20.00     0.003 C 
HETATM    3  C3  UNL     1     -32.277   7.999   2.719  1.00 20.00     0.005 C 
HETATM    4  C4  UNL     1     -33.961   7.470   4.528  1.00 20.00     0.041 C 
HETATM    5  C5  UNL     1     -33.578   5.832   2.634  1.00 20.00     0.045 C 
HETATM    6  C6  UNL     1     -32.906   6.941   1.805  1.00 20.00    -0.012 C 
HETATM    7  C7  UNL     1     -34.590   6.368   3.661  1.00 20.00     0.125 C 
HETATM    8  N10 UNL     1     -35.468   4.404   5.181  1.00 20.00    -0.195 NA
HETATM    9 CL11 UNL     1     -36.040   7.013   2.812  1.00 20.00    -0.103 Cl
ENDROOT
BRANCH   6  10
HETATM   10  C9  UNL     1     -31.854   6.348   0.868  1.00 20.00     0.000 C 
HETATM   11  C8  UNL     1     -31.900   4.856   0.864  1.00 20.00     0.005 C 
ENDBRANCH   6  10
TORSDOF 1
ENDMDL
MODEL 9
REMARK VINA RESULT:       2.1      2.769      4.707
REMARK  1 active torsions:
REMARK  status: ('A' for Active; 'I' for Inactive)
REMARK    1  A    between atoms: C6_6  and  C9_9 
ROOT
HETATM    1  C1  UNL     1     -31.696   4.667   0.725  1.00 20.00     0.085 C 
HETATM    2  C2  UNL     1     -33.917   6.478   3.284  1.00 20.00     0.003 C 
HETATM    3  C3  UNL     1     -33.269   7.854   3.154  1.00 20.00     0.005 C 
HETATM    4  C4  UNL     1     -33.049   5.384   2.663  1.00 20.00     0.041 C 
HETATM    5  C5  UNL     1     -32.046   7.087   1.077  1.00 20.00     0.045 C 
HETATM    6  C6  UNL     1     -32.924   8.188   1.698  1.00 20.00    -0.012 C 
HETATM    7  C7  UNL     1     -32.653   5.679   1.207  1.00 20.00     0.125 C 
HETATM    8  N10 UNL     1     -30.944   3.870   0.345  1.00 20.00    -0.195 NA
HETATM    9 CL11 UNL     1     -34.096   5.534   0.142  1.00 20.00    -0.103 Cl
ENDROOT
BRANCH   6  10
HETATM   10  C9  UNL     1     -32.225   9.544   1.610  1.00 20.00     0.000 C 
HETATM   11  C8  UNL     1     -32.472  10.206   0.295  1.00 20.00     0.005 C 
ENDBRANCH   6  10
TORSDOF 1
ENDMDL
