MODEL 1
REMARK VINA RESULT:      -2.2      0.000      0.000
REMARK  1 active torsions:
REMARK  status: ('A' for Active; 'I' for Inactive)
REMARK    1  A    between atoms: C8_8  and  C10_10 
ROOT
HETATM    1  C1  UNL     1     -32.389   9.011   0.801  1.00 20.00     0.088 C 
HETATM    2  C2  UNL     1     -32.788   7.100   2.212  1.00 20.00    -0.070 C 
HETATM    3  C3  UNL     1     -32.440   7.611   1.022  1.00 20.00     0.096 C 
HETATM    4  C4  UNL     1     -33.142   7.967   3.386  1.00 20.00     0.035 C 
HETATM    5  C5  UNL     1     -32.880   5.609   2.428  1.00 20.00     0.039 C 
HETATM    6  C6  UNL     1     -34.524   7.613   3.940  1.00 20.00     0.005 C 
HETATM    7  C7  UNL     1     -34.828   6.108   3.961  1.00 20.00     0.005 C 
HETATM    8  C8  UNL     1     -33.577   5.245   3.752  1.00 20.00    -0.011 C 
HETATM    9  N11 UNL     1     -32.343  10.155   0.613  1.00 20.00    -0.192 NA
ENDROOT
BRANCH   8  10
HETATM   10  C10 UNL     1     -33.925   3.758   3.790  1.00 20.00     0.000 C 
HETATM   11  C9  UNL     1     -33.145   3.034   4.838  1.00 20.00     0.005 C 
ENDBRANCH   8  10
TORSDOF 1
ENDMDL
MODEL 2
REMARK VINA RESULT:      -1.1      2.705      5.023
REMARK  1 active torsions:
REMARK  status: ('A' for Active; 'I' for Inactive)
REMARK    1  A    between atoms: C8_8  and  C10_10 
ROOT
HETATM    1  C1  UNL     1     -35.240   5.781   4.343  1.00 20.00     0.088 C 
HETATM    2  C2  UNL     1     -33.510   6.917   3.110  1.00 20.00    -0.070 C 
HETATM    3  C3  UNL     1     -34.626   6.960   3.853  1.00 20.00     0.096 C 
HETATM    4  C4  UNL     1     -32.835   5.624   2.750  1.00 20.00     0.035 C 
HETATM    5  C5  UNL     1     -32.884   8.174   2.560  1.00 20.00     0.039 C 
HETATM    6  C6  UNL     1     -32.666   5.490   1.236  1.00 20.00     0.005 C 
HETATM    7  C7  UNL     1     -32.278   6.796   0.528  1.00 20.00     0.005 C 
HETATM    8  C8  UNL     1     -31.803   7.883   1.501  1.00 20.00    -0.011 C 
HETATM    9  N11 UNL     1     -35.748   4.819   4.748  1.00 20.00    -0.192 NA
ENDROOT
BRANCH   8  10
HETATM   10  C10 UNL     1     -31.421   9.159   0.754  1.00 20.00     0.000 C 
HETATM   11  C9  UNL     1     -32.626   9.906   0.284  1.00 20.00     0.005 C 
ENDBRANCH   8  10
TORSDOF 1
ENDMDL
MODEL 3
REMARK VINA RESULT:      -1.1      2.636      4.909
REMARK  1 active torsions:
REMARK  status: ('A' for Active; 'I' for Inactive)
REMARK    1  A    between atoms: C8_8  and  C10_10 
ROOT
HETATM    1  C1  UNL     1     -33.631   3.845   3.900  1.00 20.00     0.088 C 
HETATM    2  C2  UNL     1     -33.256   5.852   2.622  1.00 20.00    -0.070 C 
HETATM    3  C3  UNL     1     -33.028   4.546   2.826  1.00 20.00     0.096 C 
HETATM    4  C4  UNL     1     -34.162   6.657   3.510  1.00 20.00     0.035 C 
HETATM    5  C5  UNL     1     -32.581   6.601   1.501  1.00 20.00     0.039 C 
HETATM    6  C6  UNL     1     -33.440   7.882   4.075  1.00 20.00     0.005 C 
HETATM    7  C7  UNL     1     -32.507   8.579   3.074  1.00 20.00     0.005 C 
HETATM    8  C8  UNL     1     -32.741   8.128   1.627  1.00 20.00    -0.011 C 
HETATM    9  N11 UNL     1     -34.121   3.263   4.777  1.00 20.00    -0.192 NA
ENDROOT
BRANCH   8  10
HETATM   10  C10 UNL     1     -31.799   8.853   0.668  1.00 20.00     0.000 C 
HETATM   11  C9  UNL     1     -32.496   9.951  -0.067  1.00 20.00     0.005 C 
ENDBRANCH   8  10
TORSDOF 1
ENDMDL
MODEL 4
REMARK VINA RESULT:       0.3      1.018      2.026
REMARK  1 active torsions:
REMARK  status: ('A' for Active; 'I' for Inactive)
REMARK    1  A    between atoms: C8_8  and  C10_10 
ROOT
HETATM    1  C1  UNL     1     -32.306   9.023   1.179  1.00 20.00     0.088 C 
HETATM    2  C2  UNL     1     -33.225   7.072   2.253  1.00 20.00    -0.070 C 
HETATM    3  C3  UNL     1     -32.858   8.361   2.305  1.00 20.00     0.096 C 
HETATM    4  C4  UNL     1     -33.081   6.246   1.007  1.00 20.00     0.035 C 
HETATM    5  C5  UNL     1     -33.774   6.363   3.466  1.00 20.00     0.039 C 
HETATM    6  C6  UNL     1     -32.266   4.979   1.273  1.00 20.00     0.005 C 
HETATM    7  C7  UNL     1     -32.563   4.310   2.623  1.00 20.00     0.005 C 
HETATM    8  C8  UNL     1     -33.847   4.836   3.278  1.00 20.00    -0.011 C 
HETATM    9  N11 UNL     1     -31.855   9.572   0.261  1.00 20.00    -0.192 NA
ENDROOT
BRANCH   8  10
HETATM   10  C10 UNL     1     -34.107   4.138   4.611  1.00 20.00     0.000 C 
HETATM   11  C9  UNL     1     -33.194   2.974   4.813  1.00 20.00     0.005 C 
ENDBRANCH   8  10
TORSDOF 1
ENDMDL
