MODEL 1
REMARK VINA RESULT:      -1.9      0.000      0.000
REMARK  3 active torsions:
REMARK  status: ('A' for Active; 'I' for Inactive)
REMARK    1  A    between atoms: C1_1  and  C9_9 
REMARK    2  A    between atoms: C6_6  and  C9_9 
REMARK    3  A    between atoms: C7_7  and  C10_10 
ROOT
HETATM    1  C2  UNL     1     -34.237   7.834   4.152  1.00 20.00     0.001 C 
HETATM    2  C3  UNL     1     -33.638   8.331   2.839  1.00 20.00     0.005 C 
HETATM    3  C4  UNL     1     -34.666   6.373   4.059  1.00 20.00     0.005 C 
HETATM    4  C5  UNL     1     -32.912   5.974   2.283  1.00 20.00     0.009 C 
HETATM    5  C6  UNL     1     -32.475   7.444   2.378  1.00 20.00    -0.008 C 
HETATM    6  C7  UNL     1     -33.509   5.472   3.605  1.00 20.00    -0.014 C 
ENDROOT
BRANCH   5   7
HETATM    7  C9  UNL     1     -31.924   7.930   1.038  1.00 20.00     0.074 C 
BRANCH   7   8
HETATM    8  C1  UNL     1     -32.290   9.361   0.756  1.00 20.00     0.231 C 
HETATM    9  O11 UNL     1     -32.616   9.803  -0.342  1.00 20.00    -0.307 OA
ENDBRANCH   7   8
ENDBRANCH   5   7
BRANCH   6  10
HETATM   10  C10 UNL     1     -33.975   4.024   3.471  1.00 20.00     0.000 C 
HETATM   11  C8  UNL     1     -33.446   3.170   4.576  1.00 20.00     0.005 C 
ENDBRANCH   6  10
TORSDOF 3
ENDMDL
MODEL 2
REMARK VINA RESULT:      -1.7      1.239      2.236
REMARK  3 active torsions:
REMARK  status: ('A' for Active; 'I' for Inactive)
REMARK    1  A    between atoms: C1_1  and  C9_9 
REMARK    2  A    between atoms: C6_6  and  C9_9 
REMARK    3  A    between atoms: C7_7  and  C10_10 
ROOT
HETATM    1  C2  UNL     1     -32.484   5.371   1.453  1.00 20.00     0.001 C 
HETATM    2  C3  UNL     1     -31.716   6.680   1.292  1.00 20.00     0.005 C 
HETATM    3  C4  UNL     1     -33.261   5.330   2.765  1.00 20.00     0.005 C 
HETATM    4  C5  UNL     1     -33.418   7.853   2.747  1.00 20.00     0.009 C 
HETATM    5  C6  UNL     1     -32.640   7.897   1.423  1.00 20.00    -0.008 C 
HETATM    6  C7  UNL     1     -34.195   6.539   2.906  1.00 20.00    -0.014 C 
ENDROOT
BRANCH   5   7
HETATM    7  C9  UNL     1     -31.843   9.195   1.309  1.00 20.00     0.074 C 
BRANCH   7   8
HETATM    8  C1  UNL     1     -32.437  10.144   0.304  1.00 20.00     0.231 C 
HETATM    9  O11 UNL     1     -32.951   9.813  -0.760  1.00 20.00    -0.307 OA
ENDBRANCH   7   8
ENDBRANCH   5   7
BRANCH   6  10
HETATM   10  C10 UNL     1     -34.924   6.503   4.248  1.00 20.00     0.000 C 
HETATM   11  C8  UNL     1     -35.332   5.115   4.617  1.00 20.00     0.005 C 
ENDBRANCH   6  10
TORSDOF 3
ENDMDL
MODEL 3
REMARK VINA RESULT:      -1.6      2.691      5.048
REMARK  3 active torsions:
REMARK  status: ('A' for Active; 'I' for Inactive)
REMARK    1  A    between atoms: C1_1  and  C9_9 
REMARK    2  A    between atoms: C6_6  and  C9_9 
REMARK    3  A    between atoms: C7_7  and  C10_10 
ROOT
HETATM    1  C2  UNL     1     -32.156   5.822   1.458  1.00 20.00     0.001 C 
HETATM    2  C3  UNL     1     -33.357   5.855   2.399  1.00 20.00     0.005 C 
HETATM    3  C4  UNL     1     -32.011   7.128   0.682  1.00 20.00     0.005 C 
HETATM    4  C5  UNL     1     -33.155   8.369   2.565  1.00 20.00     0.009 C 
HETATM    5  C6  UNL     1     -33.297   7.057   3.350  1.00 20.00    -0.008 C 
HETATM    6  C7  UNL     1     -31.943   8.339   1.622  1.00 20.00    -0.014 C 
ENDROOT
BRANCH   5   7
HETATM    7  C9  UNL     1     -34.533   7.097   4.247  1.00 20.00     0.074 C 
BRANCH   7   8
HETATM    8  C1  UNL     1     -35.460   5.940   3.995  1.00 20.00     0.231 C 
HETATM    9  O11 UNL     1     -35.505   4.913   4.666  1.00 20.00    -0.307 OA
ENDBRANCH   7   8
ENDBRANCH   5   7
BRANCH   6  10
HETATM   10  C10 UNL     1     -31.849   9.637   0.823  1.00 20.00     0.000 C 
HETATM   11  C8  UNL     1     -32.714   9.598  -0.394  1.00 20.00     0.005 C 
ENDBRANCH   6  10
TORSDOF 3
ENDMDL
MODEL 4
REMARK VINA RESULT:      -1.3      1.219      2.595
REMARK  3 active torsions:
REMARK  status: ('A' for Active; 'I' for Inactive)
REMARK    1  A    between atoms: C1_1  and  C9_9 
REMARK    2  A    between atoms: C6_6  and  C9_9 
REMARK    3  A    between atoms: C7_7  and  C10_10 
ROOT
HETATM    1  C2  UNL     1     -32.716   5.246   1.478  1.00 20.00     0.001 C 
HETATM    2  C3  UNL     1     -31.808   6.416   1.108  1.00 20.00     0.005 C 
HETATM    3  C4  UNL     1     -33.325   5.422   2.865  1.00 20.00     0.005 C 
HETATM    4  C5  UNL     1     -33.151   7.933   2.620  1.00 20.00     0.009 C 
HETATM    5  C6  UNL     1     -32.541   7.758   1.221  1.00 20.00    -0.008 C 
HETATM    6  C7  UNL     1     -34.069   6.759   2.990  1.00 20.00    -0.014 C 
ENDROOT
BRANCH   5   7
HETATM    7  C9  UNL     1     -31.600   8.917   0.895  1.00 20.00     0.074 C 
BRANCH   7   8
HETATM    8  C1  UNL     1     -32.302  10.038   0.177  1.00 20.00     0.231 C 
HETATM    9  O11 UNL     1     -33.023   9.903  -0.806  1.00 20.00    -0.307 OA
ENDBRANCH   7   8
ENDBRANCH   5   7
BRANCH   6  10
HETATM   10  C10 UNL     1     -34.627   6.935   4.402  1.00 20.00     0.000 C 
HETATM   11  C8  UNL     1     -33.904   8.006   5.150  1.00 20.00     0.005 C 
ENDBRANCH   6  10
TORSDOF 3
ENDMDL
MODEL 5
REMARK VINA RESULT:      -1.3      2.739      4.902
REMARK  3 active torsions:
REMARK  status: ('A' for Active; 'I' for Inactive)
REMARK    1  A    between atoms: C1_1  and  C9_9 
REMARK    2  A    between atoms: C6_6  and  C9_9 
REMARK    3  A    between atoms: C7_7  and  C10_10 
ROOT
HETATM    1  C2  UNL     1     -34.639   7.462   4.032  1.00 20.00     0.001 C 
HETATM    2  C3  UNL     1     -34.397   5.969   4.242  1.00 20.00     0.005 C 
HETATM    3  C4  UNL     1     -33.433   8.145   3.395  1.00 20.00     0.005 C 
HETATM    4  C5  UNL     1     -32.779   5.962   2.300  1.00 20.00     0.009 C 
HETATM    5  C6  UNL     1     -33.995   5.273   2.937  1.00 20.00    -0.008 C 
HETATM    6  C7  UNL     1     -33.024   7.462   2.084  1.00 20.00    -0.014 C 
ENDROOT
BRANCH   5   7
HETATM    7  C9  UNL     1     -33.709   3.792   3.180  1.00 20.00     0.074 C 
BRANCH   7   8
HETATM    8  C1  UNL     1     -33.644   3.456   4.646  1.00 20.00     0.231 C 
HETATM    9  O11 UNL     1     -32.769   2.780   5.176  1.00 20.00    -0.307 OA
ENDBRANCH   7   8
ENDBRANCH   5   7
BRANCH   6  10
HETATM   10  C10 UNL     1     -31.785   8.130   1.491  1.00 20.00     0.000 C 
HETATM   11  C8  UNL     1     -32.146   9.299   0.634  1.00 20.00     0.005 C 
ENDBRANCH   6  10
TORSDOF 3
ENDMDL
MODEL 6
REMARK VINA RESULT:      -0.9      1.297      1.653
REMARK  3 active torsions:
REMARK  status: ('A' for Active; 'I' for Inactive)
REMARK    1  A    between atoms: C1_1  and  C9_9 
REMARK    2  A    between atoms: C6_6  and  C9_9 
REMARK    3  A    between atoms: C7_7  and  C10_10 
ROOT
HETATM    1  C2  UNL     1     -32.276   8.538   4.557  1.00 20.00     0.001 C 
HETATM    2  C3  UNL     1     -31.919   8.939   3.127  1.00 20.00     0.005 C 
HETATM    3  C4  UNL     1     -33.683   7.955   4.643  1.00 20.00     0.005 C 
HETATM    4  C5  UNL     1     -33.510   7.185   2.241  1.00 20.00     0.009 C 
HETATM    5  C6  UNL     1     -32.091   7.768   2.153  1.00 20.00    -0.008 C 
HETATM    6  C7  UNL     1     -33.867   6.777   3.678  1.00 20.00    -0.014 C 
ENDROOT
BRANCH   5   7
HETATM    7  C9  UNL     1     -31.776   8.204   0.723  1.00 20.00     0.074 C 
BRANCH   7   8
HETATM    8  C1  UNL     1     -32.350   9.557   0.399  1.00 20.00     0.231 C 
HETATM    9  O11 UNL     1     -32.905   9.854  -0.653  1.00 20.00    -0.307 OA
ENDBRANCH   7   8
ENDBRANCH   5   7
BRANCH   6  10
HETATM   10  C10 UNL     1     -35.297   6.243   3.746  1.00 20.00     0.000 C 
HETATM   11  C8  UNL     1     -35.381   4.999   4.568  1.00 20.00     0.005 C 
ENDBRANCH   6  10
TORSDOF 3
ENDMDL
MODEL 7
REMARK VINA RESULT:      -0.8      2.845      4.493
REMARK  3 active torsions:
REMARK  status: ('A' for Active; 'I' for Inactive)
REMARK    1  A    between atoms: C1_1  and  C9_9 
REMARK    2  A    between atoms: C6_6  and  C9_9 
REMARK    3  A    between atoms: C7_7  and  C10_10 
ROOT
HETATM    1  C2  UNL     1     -33.843   8.301   3.686  1.00 20.00     0.001 C 
HETATM    2  C3  UNL     1     -34.213   7.085   4.531  1.00 20.00     0.005 C 
HETATM    3  C4  UNL     1     -32.692   7.996   2.732  1.00 20.00     0.005 C 
HETATM    4  C5  UNL     1     -33.367   5.560   2.700  1.00 20.00     0.009 C 
HETATM    5  C6  UNL     1     -34.530   5.865   3.657  1.00 20.00    -0.008 C 
HETATM    6  C7  UNL     1     -32.999   6.781   1.846  1.00 20.00    -0.014 C 
ENDROOT
BRANCH   5   7
HETATM    7  C9  UNL     1     -34.848   4.648   4.523  1.00 20.00     0.074 C 
BRANCH   7   8
HETATM    8  C1  UNL     1     -33.873   3.522   4.307  1.00 20.00     0.231 C 
HETATM    9  O11 UNL     1     -33.110   3.077   5.158  1.00 20.00    -0.307 OA
ENDBRANCH   7   8
ENDBRANCH   5   7
BRANCH   6  10
HETATM   10  C10 UNL     1     -31.813   6.465   0.936  1.00 20.00     0.000 C 
HETATM   11  C8  UNL     1     -31.597   4.993   0.805  1.00 20.00     0.005 C 
ENDBRANCH   6  10
TORSDOF 3
ENDMDL
MODEL 8
REMARK VINA RESULT:      -0.1      2.750      4.218
REMARK  3 active torsions:
REMARK  status: ('A' for Active; 'I' for Inactive)
REMARK    1  A    between atoms: C1_1  and  C9_9 
REMARK    2  A    between atoms: C6_6  and  C9_9 
REMARK    3  A    between atoms: C7_7  and  C10_10 
ROOT
HETATM    1  C2  UNL     1     -32.288   8.473   2.447  1.00 20.00     0.001 C 
HETATM    2  C3  UNL     1     -33.137   8.014   3.630  1.00 20.00     0.005 C 
HETATM    3  C4  UNL     1     -31.632   7.295   1.733  1.00 20.00     0.005 C 
HETATM    4  C5  UNL     1     -33.518   5.791   2.489  1.00 20.00     0.009 C 
HETATM    5  C6  UNL     1     -34.183   6.976   3.205  1.00 20.00    -0.008 C 
HETATM    6  C7  UNL     1     -32.668   6.252   1.296  1.00 20.00    -0.014 C 
ENDROOT
BRANCH   5   7
HETATM    7  C9  UNL     1     -34.986   6.494   4.411  1.00 20.00     0.074 C 
BRANCH   7   8
HETATM    8  C1  UNL     1     -35.307   5.025   4.335  1.00 20.00     0.231 C 
HETATM    9  O11 UNL     1     -34.562   4.121   4.699  1.00 20.00    -0.307 OA
ENDBRANCH   7   8
ENDBRANCH   5   7
BRANCH   6  10
HETATM   10  C10 UNL     1     -31.984   5.060   0.629  1.00 20.00     0.000 C 
HETATM   11  C8  UNL     1     -32.965   4.195  -0.093  1.00 20.00     0.005 C 
ENDBRANCH   6  10
TORSDOF 3
ENDMDL
MODEL 9
REMARK VINA RESULT:      -0.0      1.345      2.123
REMARK  3 active torsions:
REMARK  status: ('A' for Active; 'I' for Inactive)
REMARK    1  A    between atoms: C1_1  and  C9_9 
REMARK    2  A    between atoms: C6_6  and  C9_9 
REMARK    3  A    between atoms: C7_7  and  C10_10 
ROOT
HETATM    1  C2  UNL     1     -33.815   6.832   3.740  1.00 20.00     0.001 C 
HETATM    2  C3  UNL     1     -33.609   8.199   3.093  1.00 20.00     0.005 C 
HETATM    3  C4  UNL     1     -33.842   5.715   2.700  1.00 20.00     0.005 C 
HETATM    4  C5  UNL     1     -32.380   7.104   1.174  1.00 20.00     0.009 C 
HETATM    5  C6  UNL     1     -32.348   8.228   2.221  1.00 20.00    -0.008 C 
HETATM    6  C7  UNL     1     -32.582   5.728   1.825  1.00 20.00    -0.014 C 
ENDROOT
BRANCH   5   7
HETATM    7  C9  UNL     1     -32.190   9.589   1.545  1.00 20.00     0.074 C 
BRANCH   7   8
HETATM    8  C1  UNL     1     -32.196   9.485   0.043  1.00 20.00     0.231 C 
HETATM    9  O11 UNL     1     -33.051   9.965  -0.693  1.00 20.00    -0.307 OA
ENDBRANCH   7   8
ENDBRANCH   5   7
BRANCH   6  10
HETATM   10  C10 UNL     1     -32.654   4.634   0.761  1.00 20.00     0.000 C 
HETATM   11  C8  UNL     1     -31.295   4.242   0.280  1.00 20.00     0.005 C 
ENDBRANCH   6  10
TORSDOF 3
ENDMDL
