MODEL 1
REMARK VINA RESULT:      -1.7      0.000      0.000
REMARK  3 active torsions:
REMARK  status: ('A' for Active; 'I' for Inactive)
REMARK    1  A    between atoms: C5_5  and  C9_9 
REMARK    2  A    between atoms: C6_6  and  C10_10 
REMARK    3  A    between atoms: C10_10  and  O11_11 
ROOT
HETATM    1  C1  UNL     1     -32.492   5.722   1.188  1.00 20.00     0.001 C 
HETATM    2  C2  UNL     1     -31.332   6.709   1.297  1.00 20.00     0.005 C 
HETATM    3  C3  UNL     1     -33.397   5.776   2.416  1.00 20.00     0.007 C 
HETATM    4  C4  UNL     1     -32.732   8.184   2.802  1.00 20.00     0.011 C 
HETATM    5  C5  UNL     1     -31.791   8.144   1.587  1.00 20.00    -0.014 C 
HETATM    6  C6  UNL     1     -33.904   7.196   2.691  1.00 20.00     0.014 C 
ENDROOT
BRANCH   6   7
HETATM    7  C10 UNL     1     -34.752   7.226   3.961  1.00 20.00     0.118 C 
HETATM    8  C8  UNL     1     -35.233   5.838   4.343  1.00 20.00     0.040 C 
BRANCH   7   9
HETATM    9  O11 UNL     1     -33.974   7.769   5.020  1.00 20.00    -0.396 OA
HETATM   10  H31 UNL     1     -34.559   8.355   5.526  1.00 20.00     0.210 HD
ENDBRANCH   7   9
ENDBRANCH   6   7
BRANCH   5  11
HETATM   11  C9  UNL     1     -32.426   8.796   0.355  1.00 20.00     0.000 C 
HETATM   12  C7  UNL     1     -32.483  10.282   0.487  1.00 20.00     0.005 C 
ENDBRANCH   5  11
TORSDOF 3
ENDMDL
MODEL 2
REMARK VINA RESULT:       0.1      1.566      2.934
REMARK  3 active torsions:
REMARK  status: ('A' for Active; 'I' for Inactive)
REMARK    1  A    between atoms: C5_5  and  C9_9 
REMARK    2  A    between atoms: C6_6  and  C10_10 
REMARK    3  A    between atoms: C10_10  and  O11_11 
ROOT
HETATM    1  C1  UNL     1     -32.014   8.103   3.054  1.00 20.00     0.001 C 
HETATM    2  C2  UNL     1     -32.079   7.793   1.559  1.00 20.00     0.005 C 
HETATM    3  C3  UNL     1     -33.357   7.864   3.738  1.00 20.00     0.007 C 
HETATM    4  C4  UNL     1     -33.946   6.141   1.985  1.00 20.00     0.011 C 
HETATM    5  C5  UNL     1     -32.613   6.386   1.261  1.00 20.00    -0.014 C 
HETATM    6  C6  UNL     1     -33.882   6.444   3.490  1.00 20.00     0.014 C 
ENDROOT
BRANCH   6   7
HETATM    7  C10 UNL     1     -35.255   6.260   4.133  1.00 20.00     0.118 C 
HETATM    8  C8  UNL     1     -36.371   6.675   3.191  1.00 20.00     0.040 C 
BRANCH   7   9
HETATM    9  O11 UNL     1     -35.416   4.894   4.490  1.00 20.00    -0.396 OA
HETATM   10  H31 UNL     1     -36.035   4.871   5.238  1.00 20.00     0.210 HD
ENDBRANCH   7   9
ENDBRANCH   6   7
BRANCH   5  11
HETATM   11  C9  UNL     1     -31.579   5.305   1.593  1.00 20.00     0.000 C 
HETATM   12  C7  UNL     1     -31.402   4.348   0.461  1.00 20.00     0.005 C 
ENDBRANCH   5  11
TORSDOF 3
ENDMDL
MODEL 3
REMARK VINA RESULT:       0.3      1.801      2.841
REMARK  3 active torsions:
REMARK  status: ('A' for Active; 'I' for Inactive)
REMARK    1  A    between atoms: C5_5  and  C9_9 
REMARK    2  A    between atoms: C6_6  and  C10_10 
REMARK    3  A    between atoms: C10_10  and  O11_11 
ROOT
HETATM    1  C1  UNL     1     -33.806   8.031   3.967  1.00 20.00     0.001 C 
HETATM    2  C2  UNL     1     -33.818   8.243   2.454  1.00 20.00     0.005 C 
HETATM    3  C3  UNL     1     -34.371   6.667   4.350  1.00 20.00     0.007 C 
HETATM    4  C4  UNL     1     -33.664   5.743   2.105  1.00 20.00     0.011 C 
HETATM    5  C5  UNL     1     -33.116   7.116   1.685  1.00 20.00    -0.014 C 
HETATM    6  C6  UNL     1     -33.647   5.524   3.626  1.00 20.00     0.014 C 
ENDROOT
BRANCH   6   7
HETATM    7  C10 UNL     1     -34.278   4.179   3.981  1.00 20.00     0.118 C 
HETATM    8  C8  UNL     1     -33.299   3.280   4.714  1.00 20.00     0.040 C 
BRANCH   7   9
HETATM    9  O11 UNL     1     -35.419   4.409   4.799  1.00 20.00    -0.396 OA
HETATM   10  H31 UNL     1     -36.132   4.701   4.209  1.00 20.00     0.210 HD
ENDBRANCH   7   9
ENDBRANCH   6   7
BRANCH   5  11
HETATM   11  C9  UNL     1     -31.594   7.190   1.835  1.00 20.00     0.000 C 
HETATM   12  C7  UNL     1     -31.050   8.475   1.304  1.00 20.00     0.005 C 
ENDBRANCH   5  11
TORSDOF 3
ENDMDL
MODEL 4
REMARK VINA RESULT:       0.8      2.018      4.043
REMARK  3 active torsions:
REMARK  status: ('A' for Active; 'I' for Inactive)
REMARK    1  A    between atoms: C5_5  and  C9_9 
REMARK    2  A    between atoms: C6_6  and  C10_10 
REMARK    3  A    between atoms: C10_10  and  O11_11 
ROOT
HETATM    1  C1  UNL     1     -34.446   4.813   4.148  1.00 20.00     0.001 C 
HETATM    2  C2  UNL     1     -35.433   5.971   4.281  1.00 20.00     0.005 C 
HETATM    3  C3  UNL     1     -33.700   4.859   2.818  1.00 20.00     0.007 C 
HETATM    4  C4  UNL     1     -34.002   7.367   2.732  1.00 20.00     0.011 C 
HETATM    5  C5  UNL     1     -34.783   7.342   4.056  1.00 20.00    -0.014 C 
HETATM    6  C6  UNL     1     -33.003   6.207   2.599  1.00 20.00     0.014 C 
ENDROOT
BRANCH   6   7
HETATM    7  C10 UNL     1     -32.321   6.242   1.232  1.00 20.00     0.118 C 
HETATM    8  C8  UNL     1     -31.538   7.527   1.033  1.00 20.00     0.040 C 
BRANCH   7   9
HETATM    9  O11 UNL     1     -31.444   5.128   1.127  1.00 20.00    -0.396 OA
HETATM   10  H31 UNL     1     -30.585   5.474   0.837  1.00 20.00     0.210 HD
ENDBRANCH   7   9
ENDBRANCH   6   7
BRANCH   5  11
HETATM   11  C9  UNL     1     -33.906   7.756   5.241  1.00 20.00     0.000 C 
HETATM   12  C7  UNL     1     -32.678   8.477   4.792  1.00 20.00     0.005 C 
ENDBRANCH   5  11
TORSDOF 3
ENDMDL
MODEL 5
REMARK VINA RESULT:       0.9      2.362      3.938
REMARK  3 active torsions:
REMARK  status: ('A' for Active; 'I' for Inactive)
REMARK    1  A    between atoms: C5_5  and  C9_9 
REMARK    2  A    between atoms: C6_6  and  C10_10 
REMARK    3  A    between atoms: C10_10  and  O11_11 
ROOT
HETATM    1  C1  UNL     1     -34.565   4.719   4.407  1.00 20.00     0.001 C 
HETATM    2  C2  UNL     1     -35.500   5.921   4.289  1.00 20.00     0.005 C 
HETATM    3  C3  UNL     1     -33.709   4.546   3.156  1.00 20.00     0.007 C 
HETATM    4  C4  UNL     1     -33.875   7.026   2.696  1.00 20.00     0.011 C 
HETATM    5  C5  UNL     1     -34.765   7.220   3.934  1.00 20.00    -0.014 C 
HETATM    6  C6  UNL     1     -32.929   5.821   2.816  1.00 20.00     0.014 C 
ENDROOT
BRANCH   6   7
HETATM    7  C10 UNL     1     -32.134   5.634   1.524  1.00 20.00     0.118 C 
HETATM    8  C8  UNL     1     -33.008   5.102   0.404  1.00 20.00     0.040 C 
BRANCH   7   9
HETATM    9  O11 UNL     1     -31.577   6.886   1.142  1.00 20.00    -0.396 OA
HETATM   10  H31 UNL     1     -30.908   7.110   1.809  1.00 20.00     0.210 HD
ENDBRANCH   7   9
ENDBRANCH   6   7
BRANCH   5  11
HETATM   11  C9  UNL     1     -33.971   7.765   5.124  1.00 20.00     0.000 C 
HETATM   12  C7  UNL     1     -32.722   8.455   4.683  1.00 20.00     0.005 C 
ENDBRANCH   5  11
TORSDOF 3
ENDMDL
MODEL 6
REMARK VINA RESULT:       0.9      2.440      3.656
REMARK  3 active torsions:
REMARK  status: ('A' for Active; 'I' for Inactive)
REMARK    1  A    between atoms: C5_5  and  C9_9 
REMARK    2  A    between atoms: C6_6  and  C10_10 
REMARK    3  A    between atoms: C10_10  and  O11_11 
ROOT
HETATM    1  C1  UNL     1     -35.350   6.332   4.213  1.00 20.00     0.001 C 
HETATM    2  C2  UNL     1     -35.135   6.706   2.748  1.00 20.00     0.005 C 
HETATM    3  C3  UNL     1     -34.861   4.917   4.512  1.00 20.00     0.007 C 
HETATM    4  C4  UNL     1     -33.189   5.096   2.624  1.00 20.00     0.011 C 
HETATM    5  C5  UNL     1     -33.685   6.510   2.285  1.00 20.00    -0.014 C 
HETATM    6  C6  UNL     1     -33.397   4.719   4.099  1.00 20.00     0.014 C 
ENDROOT
BRANCH   6   7
HETATM    7  C10 UNL     1     -32.960   3.277   4.351  1.00 20.00     0.118 C 
HETATM    8  C8  UNL     1     -32.625   3.043   5.813  1.00 20.00     0.040 C 
BRANCH   7   9
HETATM    9  O11 UNL     1     -34.009   2.403   3.956  1.00 20.00    -0.396 OA
HETATM   10  H31 UNL     1     -34.039   1.687   4.611  1.00 20.00     0.210 HD
ENDBRANCH   7   9
ENDBRANCH   6   7
BRANCH   5  11
HETATM   11  C9  UNL     1     -32.758   7.589   2.853  1.00 20.00     0.000 C 
HETATM   12  C7  UNL     1     -31.790   8.078   1.827  1.00 20.00     0.005 C 
ENDBRANCH   5  11
TORSDOF 3
ENDMDL
MODEL 7
REMARK VINA RESULT:       1.1      1.106      2.744
REMARK  3 active torsions:
REMARK  status: ('A' for Active; 'I' for Inactive)
REMARK    1  A    between atoms: C5_5  and  C9_9 
REMARK    2  A    between atoms: C6_6  and  C10_10 
REMARK    3  A    between atoms: C10_10  and  O11_11 
ROOT
HETATM    1  C1  UNL     1     -31.412   8.160   1.995  1.00 20.00     0.001 C 
HETATM    2  C2  UNL     1     -31.795   7.476   0.684  1.00 20.00     0.005 C 
HETATM    3  C3  UNL     1     -32.620   8.343   2.909  1.00 20.00     0.007 C 
HETATM    4  C4  UNL     1     -33.732   6.338   1.846  1.00 20.00     0.011 C 
HETATM    5  C5  UNL     1     -32.540   6.151   0.894  1.00 20.00    -0.014 C 
HETATM    6  C6  UNL     1     -33.348   7.019   3.169  1.00 20.00     0.014 C 
ENDROOT
BRANCH   6   7
HETATM    7  C10 UNL     1     -34.586   7.248   4.033  1.00 20.00     0.118 C 
HETATM    8  C8  UNL     1     -35.302   5.945   4.339  1.00 20.00     0.040 C 
BRANCH   7   9
HETATM    9  O11 UNL     1     -34.190   7.871   5.248  1.00 20.00    -0.396 OA
HETATM   10  H31 UNL     1     -33.981   8.795   5.034  1.00 20.00     0.210 HD
ENDBRANCH   7   9
ENDBRANCH   6   7
BRANCH   5  11
HETATM   11  C9  UNL     1     -31.599   5.041   1.372  1.00 20.00     0.000 C 
HETATM   12  C7  UNL     1     -31.214   4.127   0.256  1.00 20.00     0.005 C 
ENDBRANCH   5  11
TORSDOF 3
ENDMDL
