MODEL 1
REMARK VINA RESULT:      -1.7      0.000      0.000
REMARK  3 active torsions:
REMARK  status: ('A' for Active; 'I' for Inactive)
REMARK    1  A    between atoms: C1_1  and  C6_6 
REMARK    2  A    between atoms: C1_1  and  C10_10 
REMARK    3  A    between atoms: C7_7  and  C11_11 
ROOT
HETATM    1  C2  UNL     1     -35.466   6.363   4.124  1.00 20.00     0.001 C 
HETATM    2  C3  UNL     1     -34.383   7.365   3.733  1.00 20.00     0.012 C 
HETATM    3  C4  UNL     1     -34.869   5.013   4.514  1.00 20.00     0.005 C 
HETATM    4  C5  UNL     1     -32.878   5.464   3.024  1.00 20.00     0.016 C 
HETATM    5  C6  UNL     1     -33.488   6.807   2.633  1.00 20.00     0.055 C 
HETATM    6  C7  UNL     1     -33.965   4.449   3.409  1.00 20.00    -0.014 C 
ENDROOT
BRANCH   5   7
HETATM    7  C1  UNL     1     -32.350   7.787   2.425  1.00 20.00     0.130 C 
HETATM    8  O12 UNL     1     -31.797   8.329   3.381  1.00 20.00    -0.298 OA
BRANCH   7   9
HETATM    9  C10 UNL     1     -31.947   8.047   0.985  1.00 20.00     0.074 C 
HETATM   10  C8  UNL     1     -32.323   9.441   0.516  1.00 20.00     0.013 C 
ENDBRANCH   7   9
ENDBRANCH   5   7
BRANCH   6  11
HETATM   11  C11 UNL     1     -33.339   3.127   3.845  1.00 20.00     0.000 C 
HETATM   12  C9  UNL     1     -33.011   3.125   5.302  1.00 20.00     0.005 C 
ENDBRANCH   6  11
TORSDOF 3
ENDMDL
MODEL 2
REMARK VINA RESULT:      -1.0      1.860      3.070
REMARK  3 active torsions:
REMARK  status: ('A' for Active; 'I' for Inactive)
REMARK    1  A    between atoms: C1_1  and  C6_6 
REMARK    2  A    between atoms: C1_1  and  C10_10 
REMARK    3  A    between atoms: C7_7  and  C11_11 
ROOT
HETATM    1  C2  UNL     1     -32.282   5.248   1.736  1.00 20.00     0.001 C 
HETATM    2  C3  UNL     1     -31.931   6.435   0.844  1.00 20.00     0.012 C 
HETATM    3  C4  UNL     1     -33.547   5.510   2.550  1.00 20.00     0.005 C 
HETATM    4  C5  UNL     1     -33.089   7.994   2.459  1.00 20.00     0.016 C 
HETATM    5  C6  UNL     1     -31.821   7.719   1.656  1.00 20.00     0.055 C 
HETATM    6  C7  UNL     1     -33.441   6.806   3.366  1.00 20.00    -0.014 C 
ENDROOT
BRANCH   5   7
HETATM    7  C1  UNL     1     -31.638   8.865   0.679  1.00 20.00     0.130 C 
HETATM    8  O12 UNL     1     -30.726   8.857  -0.145  1.00 20.00    -0.298 OA
BRANCH   7   9
HETATM    9  C10 UNL     1     -32.639  10.001   0.788  1.00 20.00     0.074 C 
HETATM   10  C8  UNL     1     -33.042  10.558  -0.566  1.00 20.00     0.013 C 
ENDBRANCH   7   9
ENDBRANCH   5   7
BRANCH   6  11
HETATM   11  C11 UNL     1     -34.737   7.073   4.128  1.00 20.00     0.000 C 
HETATM   12  C9  UNL     1     -35.509   5.816   4.362  1.00 20.00     0.005 C 
ENDBRANCH   6  11
TORSDOF 3
ENDMDL
MODEL 3
REMARK VINA RESULT:      -0.4      1.633      4.876
REMARK  3 active torsions:
REMARK  status: ('A' for Active; 'I' for Inactive)
REMARK    1  A    between atoms: C1_1  and  C6_6 
REMARK    2  A    between atoms: C1_1  and  C10_10 
REMARK    3  A    between atoms: C7_7  and  C11_11 
ROOT
HETATM    1  C2  UNL     1     -32.231   8.663   4.403  1.00 20.00     0.001 C 
HETATM    2  C3  UNL     1     -33.537   7.894   4.584  1.00 20.00     0.012 C 
HETATM    3  C4  UNL     1     -32.004   9.052   2.944  1.00 20.00     0.005 C 
HETATM    4  C5  UNL     1     -33.381   7.066   2.202  1.00 20.00     0.016 C 
HETATM    5  C6  UNL     1     -33.593   6.681   3.664  1.00 20.00     0.055 C 
HETATM    6  C7  UNL     1     -32.063   7.832   2.014  1.00 20.00    -0.014 C 
ENDROOT
BRANCH   5   7
HETATM    7  C1  UNL     1     -34.979   6.077   3.784  1.00 20.00     0.130 C 
HETATM    8  O12 UNL     1     -35.963   6.650   3.321  1.00 20.00    -0.298 OA
BRANCH   7   9
HETATM    9  C10 UNL     1     -35.064   4.742   4.502  1.00 20.00     0.074 C 
HETATM   10  C8  UNL     1     -33.867   3.850   4.223  1.00 20.00     0.013 C 
ENDBRANCH   7   9
ENDBRANCH   5   7
BRANCH   6  11
HETATM   11  C11 UNL     1     -31.888   8.254   0.557  1.00 20.00     0.000 C 
HETATM   12  C9  UNL     1     -32.378   9.645   0.323  1.00 20.00     0.005 C 
ENDBRANCH   6  11
TORSDOF 3
ENDMDL
MODEL 4
REMARK VINA RESULT:      -0.4      1.332      2.195
REMARK  3 active torsions:
REMARK  status: ('A' for Active; 'I' for Inactive)
REMARK    1  A    between atoms: C1_1  and  C6_6 
REMARK    2  A    between atoms: C1_1  and  C10_10 
REMARK    3  A    between atoms: C7_7  and  C11_11 
ROOT
HETATM    1  C2  UNL     1     -33.207   8.629   4.792  1.00 20.00     0.001 C 
HETATM    2  C3  UNL     1     -32.240   8.467   3.622  1.00 20.00     0.012 C 
HETATM    3  C4  UNL     1     -33.945   7.328   5.098  1.00 20.00     0.005 C 
HETATM    4  C5  UNL     1     -33.681   6.613   2.688  1.00 20.00     0.016 C 
HETATM    5  C6  UNL     1     -32.954   7.922   2.391  1.00 20.00     0.055 C 
HETATM    6  C7  UNL     1     -34.662   6.775   3.858  1.00 20.00    -0.014 C 
ENDROOT
BRANCH   5   7
HETATM    7  C1  UNL     1     -31.900   7.634   1.339  1.00 20.00     0.130 C 
HETATM    8  O12 UNL     1     -31.478   6.494   1.159  1.00 20.00    -0.298 OA
BRANCH   7   9
HETATM    9  C10 UNL     1     -31.413   8.828   0.539  1.00 20.00     0.074 C 
HETATM   10  C8  UNL     1     -32.530   9.797   0.195  1.00 20.00     0.013 C 
ENDBRANCH   7   9
ENDBRANCH   5   7
BRANCH   6  11
HETATM   11  C11 UNL     1     -35.346   5.448   4.177  1.00 20.00     0.000 C 
HETATM   12  C9  UNL     1     -34.358   4.333   4.299  1.00 20.00     0.005 C 
ENDBRANCH   6  11
TORSDOF 3
ENDMDL
MODEL 5
REMARK VINA RESULT:      -0.2      1.310      5.108
REMARK  3 active torsions:
REMARK  status: ('A' for Active; 'I' for Inactive)
REMARK    1  A    between atoms: C1_1  and  C6_6 
REMARK    2  A    between atoms: C1_1  and  C10_10 
REMARK    3  A    between atoms: C7_7  and  C11_11 
ROOT
HETATM    1  C2  UNL     1     -32.023   5.670   1.217  1.00 20.00     0.001 C 
HETATM    2  C3  UNL     1     -32.805   5.612   2.526  1.00 20.00     0.012 C 
HETATM    3  C4  UNL     1     -31.415   7.051   0.984  1.00 20.00     0.005 C 
HETATM    4  C5  UNL     1     -33.258   8.093   2.366  1.00 20.00     0.016 C 
HETATM    5  C6  UNL     1     -33.862   6.709   2.583  1.00 20.00     0.055 C 
HETATM    6  C7  UNL     1     -32.477   8.158   1.044  1.00 20.00    -0.014 C 
ENDROOT
BRANCH   5   7
HETATM    7  C1  UNL     1     -34.473   6.686   3.971  1.00 20.00     0.130 C 
HETATM    8  O12 UNL     1     -34.324   7.630   4.745  1.00 20.00    -0.298 OA
BRANCH   7   9
HETATM    9  C10 UNL     1     -35.265   5.443   4.332  1.00 20.00     0.074 C 
HETATM   10  C8  UNL     1     -34.378   4.232   4.564  1.00 20.00     0.013 C 
ENDBRANCH   7   9
ENDBRANCH   5   7
BRANCH   6  11
HETATM   11  C11 UNL     1     -31.837   9.532   0.862  1.00 20.00     0.000 C 
HETATM   12  C9  UNL     1     -32.624  10.388  -0.075  1.00 20.00     0.005 C 
ENDBRANCH   6  11
TORSDOF 3
ENDMDL
MODEL 6
REMARK VINA RESULT:      -0.1      0.973      1.278
REMARK  3 active torsions:
REMARK  status: ('A' for Active; 'I' for Inactive)
REMARK    1  A    between atoms: C1_1  and  C6_6 
REMARK    2  A    between atoms: C1_1  and  C10_10 
REMARK    3  A    between atoms: C7_7  and  C11_11 
ROOT
HETATM    1  C2  UNL     1     -35.622   6.071   4.248  1.00 20.00     0.001 C 
HETATM    2  C3  UNL     1     -34.560   7.033   3.722  1.00 20.00     0.012 C 
HETATM    3  C4  UNL     1     -34.997   4.802   4.823  1.00 20.00     0.005 C 
HETATM    4  C5  UNL     1     -33.010   5.086   3.286  1.00 20.00     0.016 C 
HETATM    5  C6  UNL     1     -33.650   6.347   2.711  1.00 20.00     0.055 C 
HETATM    6  C7  UNL     1     -34.076   4.111   3.808  1.00 20.00    -0.014 C 
ENDROOT
BRANCH   5   7
HETATM    7  C1  UNL     1     -32.533   7.314   2.369  1.00 20.00     0.130 C 
HETATM    8  O12 UNL     1     -32.379   8.355   3.004  1.00 20.00    -0.298 OA
BRANCH   7   9
HETATM    9  C10 UNL     1     -31.635   6.915   1.212  1.00 20.00     0.074 C 
HETATM   10  C8  UNL     1     -31.930   5.516   0.699  1.00 20.00     0.013 C 
ENDBRANCH   7   9
ENDBRANCH   5   7
BRANCH   6  11
HETATM   11  C11 UNL     1     -33.422   2.877   4.425  1.00 20.00     0.000 C 
HETATM   12  C9  UNL     1     -32.722   3.203   5.704  1.00 20.00     0.005 C 
ENDBRANCH   6  11
TORSDOF 3
ENDMDL
MODEL 7
REMARK VINA RESULT:      -0.1      1.741      4.780
REMARK  3 active torsions:
REMARK  status: ('A' for Active; 'I' for Inactive)
REMARK    1  A    between atoms: C1_1  and  C6_6 
REMARK    2  A    between atoms: C1_1  and  C10_10 
REMARK    3  A    between atoms: C7_7  and  C11_11 
ROOT
HETATM    1  C2  UNL     1     -33.929   8.500   4.115  1.00 20.00     0.001 C 
HETATM    2  C3  UNL     1     -34.574   7.138   4.352  1.00 20.00     0.012 C 
HETATM    3  C4  UNL     1     -33.396   8.631   2.690  1.00 20.00     0.005 C 
HETATM    4  C5  UNL     1     -33.091   6.124   2.576  1.00 20.00     0.016 C 
HETATM    5  C6  UNL     1     -33.614   6.007   4.005  1.00 20.00     0.055 C 
HETATM    6  C7  UNL     1     -32.431   7.491   2.336  1.00 20.00    -0.014 C 
ENDROOT
BRANCH   5   7
HETATM    7  C1  UNL     1     -34.383   4.704   4.107  1.00 20.00     0.130 C 
HETATM    8  O12 UNL     1     -35.572   4.692   4.420  1.00 20.00    -0.298 OA
BRANCH   7   9
HETATM    9  C10 UNL     1     -33.600   3.441   3.802  1.00 20.00     0.074 C 
HETATM   10  C8  UNL     1     -32.983   2.821   5.043  1.00 20.00     0.013 C 
ENDBRANCH   7   9
ENDBRANCH   5   7
BRANCH   6  11
HETATM   11  C11 UNL     1     -31.956   7.614   0.890  1.00 20.00     0.000 C 
HETATM   12  C9  UNL     1     -32.002   9.028   0.413  1.00 20.00     0.005 C 
ENDBRANCH   6  11
TORSDOF 3
ENDMDL
MODEL 8
REMARK VINA RESULT:      -0.0      1.605      2.757
REMARK  3 active torsions:
REMARK  status: ('A' for Active; 'I' for Inactive)
REMARK    1  A    between atoms: C1_1  and  C6_6 
REMARK    2  A    between atoms: C1_1  and  C10_10 
REMARK    3  A    between atoms: C7_7  and  C11_11 
ROOT
HETATM    1  C2  UNL     1     -32.169   5.541   1.695  1.00 20.00     0.001 C 
HETATM    2  C3  UNL     1     -32.024   6.911   1.040  1.00 20.00     0.012 C 
HETATM    3  C4  UNL     1     -33.508   5.398   2.414  1.00 20.00     0.005 C 
HETATM    4  C5  UNL     1     -33.586   7.901   2.762  1.00 20.00     0.016 C 
HETATM    5  C6  UNL     1     -32.241   8.030   2.052  1.00 20.00     0.055 C 
HETATM    6  C7  UNL     1     -33.731   6.526   3.431  1.00 20.00    -0.014 C 
ENDROOT
BRANCH   5   7
HETATM    7  C1  UNL     1     -32.247   9.342   1.291  1.00 20.00     0.130 C 
HETATM    8  O12 UNL     1     -32.366  10.416   1.879  1.00 20.00    -0.298 OA
BRANCH   7   9
HETATM    9  C10 UNL     1     -32.098   9.240  -0.216  1.00 20.00     0.074 C 
HETATM   10  C8  UNL     1     -32.880  10.312  -0.954  1.00 20.00     0.013 C 
ENDBRANCH   7   9
ENDBRANCH   5   7
BRANCH   6  11
HETATM   11  C11 UNL     1     -35.099   6.391   4.096  1.00 20.00     0.000 C 
HETATM   12  C9  UNL     1     -35.343   4.999   4.580  1.00 20.00     0.005 C 
ENDBRANCH   6  11
TORSDOF 3
ENDMDL
MODEL 9
REMARK VINA RESULT:       0.5      1.693      5.159
REMARK  3 active torsions:
REMARK  status: ('A' for Active; 'I' for Inactive)
REMARK    1  A    between atoms: C1_1  and  C6_6 
REMARK    2  A    between atoms: C1_1  and  C10_10 
REMARK    3  A    between atoms: C7_7  and  C11_11 
ROOT
HETATM    1  C2  UNL     1     -31.865   5.401   0.895  1.00 20.00     0.001 C 
HETATM    2  C3  UNL     1     -32.539   4.716   2.080  1.00 20.00     0.012 C 
HETATM    3  C4  UNL     1     -31.544   6.863   1.197  1.00 20.00     0.005 C 
HETATM    4  C5  UNL     1     -33.461   6.941   2.843  1.00 20.00     0.016 C 
HETATM    5  C6  UNL     1     -33.779   5.483   2.525  1.00 20.00     0.055 C 
HETATM    6  C7  UNL     1     -32.790   7.637   1.649  1.00 20.00    -0.014 C 
ENDROOT
BRANCH   5   7
HETATM    7  C1  UNL     1     -34.287   4.835   3.799  1.00 20.00     0.130 C 
HETATM    8  O12 UNL     1     -35.093   5.412   4.526  1.00 20.00    -0.298 OA
BRANCH   7   9
HETATM    9  C10 UNL     1     -33.741   3.453   4.108  1.00 20.00     0.074 C 
HETATM   10  C8  UNL     1     -33.002   3.399   5.433  1.00 20.00     0.013 C 
ENDBRANCH   7   9
ENDBRANCH   5   7
BRANCH   6  11
HETATM   11  C11 UNL     1     -32.433   9.080   1.996  1.00 20.00     0.000 C 
HETATM   12  C9  UNL     1     -32.432   9.955   0.785  1.00 20.00     0.005 C 
ENDBRANCH   6  11
TORSDOF 3
ENDMDL
