MODEL 1
REMARK VINA RESULT:      -0.3      0.000      0.000
REMARK  2 active torsions:
REMARK  status: ('A' for Active; 'I' for Inactive)
REMARK    1  A    between atoms: C8_8  and  C12_12 
REMARK    2  A    between atoms: C11_11  and  N13_13 
ROOT
HETATM    1  C1  UNL     1     -32.907  10.904  -0.035  1.00 20.00     0.013 C 
HETATM    2  C2  UNL     1     -32.370   9.858   0.205  1.00 20.00    -0.087 C 
HETATM    3  C11 UNL     1     -31.711   8.581   0.493  1.00 20.00     0.364 C 
ENDROOT
BRANCH   3   4
HETATM    4  N13 UNL     1     -32.388   7.886   1.588  1.00 20.00     0.099 N 
HETATM    5  C6  UNL     1     -31.909   8.352   2.890  1.00 20.00     0.273 C 
HETATM    6  C3  UNL     1     -32.865   8.053   4.062  1.00 20.00     0.031 C 
HETATM    7  C4  UNL     1     -34.187   7.380   3.676  1.00 20.00     0.007 C 
HETATM    8  C8  UNL     1     -34.049   5.911   3.229  1.00 20.00    -0.010 C 
HETATM    9  C5  UNL     1     -32.693   5.562   2.597  1.00 20.00     0.035 C 
HETATM   10  C7  UNL     1     -32.287   6.433   1.403  1.00 20.00     0.274 C 
BRANCH   8  11
HETATM   11  C12 UNL     1     -34.304   4.972   4.417  1.00 20.00    -0.019 C 
HETATM   12  C9  UNL     1     -35.789   4.948   4.763  1.00 20.00     0.010 C 
HETATM   13  C10 UNL     1     -33.796   3.569   4.103  1.00 20.00     0.010 C 
ENDBRANCH   8  11
ENDBRANCH   3   4
TORSDOF 2
ENDMDL
MODEL 2
REMARK VINA RESULT:       0.2      1.329      5.309
REMARK  2 active torsions:
REMARK  status: ('A' for Active; 'I' for Inactive)
REMARK    1  A    between atoms: C8_8  and  C12_12 
REMARK    2  A    between atoms: C11_11  and  N13_13 
ROOT
HETATM    1  C1  UNL     1     -32.745   2.707   4.842  1.00 20.00     0.013 C 
HETATM    2  C2  UNL     1     -33.557   3.524   4.504  1.00 20.00    -0.087 C 
HETATM    3  C11 UNL     1     -34.552   4.517   4.091  1.00 20.00     0.364 C 
ENDROOT
BRANCH   3   4
HETATM    4  N13 UNL     1     -33.899   5.723   3.582  1.00 20.00     0.099 N 
HETATM    5  C6  UNL     1     -34.730   6.908   3.798  1.00 20.00     0.273 C 
HETATM    6  C3  UNL     1     -33.959   8.243   3.748  1.00 20.00     0.031 C 
HETATM    7  C4  UNL     1     -32.444   8.118   3.550  1.00 20.00     0.007 C 
HETATM    8  C8  UNL     1     -32.020   7.659   2.141  1.00 20.00    -0.010 C 
HETATM    9  C5  UNL     1     -33.053   6.780   1.419  1.00 20.00     0.035 C 
HETATM   10  C7  UNL     1     -33.492   5.527   2.185  1.00 20.00     0.274 C 
BRANCH   8  11
HETATM   11  C12 UNL     1     -31.698   8.876   1.264  1.00 20.00    -0.019 C 
HETATM   12  C9  UNL     1     -31.187   8.426  -0.100  1.00 20.00     0.010 C 
HETATM   13  C10 UNL     1     -32.928   9.765   1.117  1.00 20.00     0.010 C 
ENDBRANCH   8  11
ENDBRANCH   3   4
TORSDOF 2
ENDMDL
MODEL 3
REMARK VINA RESULT:       0.4      0.843      2.145
REMARK  2 active torsions:
REMARK  status: ('A' for Active; 'I' for Inactive)
REMARK    1  A    between atoms: C8_8  and  C12_12 
REMARK    2  A    between atoms: C11_11  and  N13_13 
ROOT
HETATM    1  C1  UNL     1     -32.998  10.239  -0.407  1.00 20.00     0.013 C 
HETATM    2  C2  UNL     1     -32.293   9.661   0.374  1.00 20.00    -0.087 C 
HETATM    3  C11 UNL     1     -31.427   8.959   1.324  1.00 20.00     0.364 C 
ENDROOT
BRANCH   3   4
HETATM    4  N13 UNL     1     -32.042   7.702   1.753  1.00 20.00     0.099 N 
HETATM    5  C6  UNL     1     -32.748   7.052   0.648  1.00 20.00     0.273 C 
HETATM    6  C3  UNL     1     -33.003   5.545   0.856  1.00 20.00     0.031 C 
HETATM    7  C4  UNL     1     -32.424   4.954   2.146  1.00 20.00     0.007 C 
HETATM    8  C8  UNL     1     -33.148   5.398   3.433  1.00 20.00    -0.010 C 
HETATM    9  C5  UNL     1     -33.809   6.782   3.347  1.00 20.00     0.035 C 
HETATM   10  C7  UNL     1     -32.876   7.927   2.940  1.00 20.00     0.274 C 
BRANCH   8  11
HETATM   11  C12 UNL     1     -34.207   4.360   3.828  1.00 20.00    -0.019 C 
HETATM   12  C9  UNL     1     -33.571   3.237   4.639  1.00 20.00     0.010 C 
HETATM   13  C10 UNL     1     -35.334   5.024   4.611  1.00 20.00     0.010 C 
ENDBRANCH   8  11
ENDBRANCH   3   4
TORSDOF 2
ENDMDL
MODEL 4
REMARK VINA RESULT:       0.7      1.211      5.562
REMARK  2 active torsions:
REMARK  status: ('A' for Active; 'I' for Inactive)
REMARK    1  A    between atoms: C8_8  and  C12_12 
REMARK    2  A    between atoms: C11_11  and  N13_13 
ROOT
HETATM    1  C1  UNL     1     -33.165   2.840   4.820  1.00 20.00     0.013 C 
HETATM    2  C2  UNL     1     -33.845   3.779   4.510  1.00 20.00    -0.087 C 
HETATM    3  C11 UNL     1     -34.681   4.922   4.134  1.00 20.00     0.364 C 
ENDROOT
BRANCH   3   4
HETATM    4  N13 UNL     1     -33.966   5.802   3.208  1.00 20.00     0.099 N 
HETATM    5  C6  UNL     1     -32.720   5.187   2.746  1.00 20.00     0.273 C 
HETATM    6  C3  UNL     1     -32.159   5.792   1.443  1.00 20.00     0.031 C 
HETATM    7  C4  UNL     1     -33.020   6.886   0.804  1.00 20.00     0.007 C 
HETATM    8  C8  UNL     1     -33.040   8.219   1.579  1.00 20.00    -0.010 C 
HETATM    9  C5  UNL     1     -32.819   8.078   3.093  1.00 20.00     0.035 C 
HETATM   10  C7  UNL     1     -33.788   7.130   3.807  1.00 20.00     0.274 C 
BRANCH   8  11
HETATM   11  C12 UNL     1     -31.987   9.178   1.006  1.00 20.00    -0.019 C 
HETATM   12  C9  UNL     1     -31.193   8.493  -0.100  1.00 20.00     0.010 C 
HETATM   13  C10 UNL     1     -32.652  10.449   0.491  1.00 20.00     0.010 C 
ENDBRANCH   8  11
ENDBRANCH   3   4
TORSDOF 2
ENDMDL
