MODEL 1
REMARK VINA RESULT:      -1.7      0.000      0.000
REMARK  3 active torsions:
REMARK  status: ('A' for Active; 'I' for Inactive)
REMARK    1  A    between atoms: C5_5  and  C8_8 
REMARK    2  A    between atoms: C6_6  and  C9_9 
REMARK    3  A    between atoms: C9_9  and  C10_10 
ROOT
HETATM    1  C1  UNL     1     -32.663   5.992   1.249  1.00 20.00     0.001 C 
HETATM    2  C2  UNL     1     -33.609   5.517   2.350  1.00 20.00     0.005 C 
HETATM    3  C3  UNL     1     -31.607   6.952   1.789  1.00 20.00     0.005 C 
HETATM    4  C4  UNL     1     -33.189   7.654   3.634  1.00 20.00     0.009 C 
HETATM    5  C5  UNL     1     -34.257   6.692   3.093  1.00 20.00    -0.014 C 
HETATM    6  C6  UNL     1     -32.209   8.139   2.554  1.00 20.00    -0.013 C 
ENDROOT
BRANCH   6   7
HETATM    7  C9  UNL     1     -32.862   9.150   1.608  1.00 20.00     0.020 C 
BRANCH   7   8
HETATM    8  C10 UNL     1     -31.995   9.489   0.406  1.00 20.00     0.115 C 
HETATM    9 CL11 UNL     1     -32.928  10.260  -0.898  1.00 20.00    -0.130 Cl
ENDBRANCH   7   8
ENDBRANCH   6   7
BRANCH   5  10
HETATM   10  C8  UNL     1     -35.146   6.184   4.228  1.00 20.00     0.000 C 
HETATM   11  C7  UNL     1     -34.913   4.735   4.504  1.00 20.00     0.005 C 
ENDBRANCH   5  10
TORSDOF 3
ENDMDL
MODEL 2
REMARK VINA RESULT:      -0.7      1.464      2.774
REMARK  3 active torsions:
REMARK  status: ('A' for Active; 'I' for Inactive)
REMARK    1  A    between atoms: C5_5  and  C8_8 
REMARK    2  A    between atoms: C6_6  and  C9_9 
REMARK    3  A    between atoms: C9_9  and  C10_10 
ROOT
HETATM    1  C1  UNL     1     -35.235   6.619   4.230  1.00 20.00     0.001 C 
HETATM    2  C2  UNL     1     -34.988   5.121   4.396  1.00 20.00     0.005 C 
HETATM    3  C3  UNL     1     -35.045   7.064   2.783  1.00 20.00     0.005 C 
HETATM    4  C4  UNL     1     -33.427   5.157   2.407  1.00 20.00     0.009 C 
HETATM    5  C5  UNL     1     -33.610   4.707   3.864  1.00 20.00    -0.014 C 
HETATM    6  C6  UNL     1     -33.684   6.658   2.202  1.00 20.00    -0.013 C 
ENDROOT
BRANCH   6   7
HETATM    7  C9  UNL     1     -32.548   7.512   2.772  1.00 20.00     0.020 C 
BRANCH   7   8
HETATM    8  C10 UNL     1     -31.608   8.046   1.702  1.00 20.00     0.115 C 
HETATM    9 CL11 UNL     1     -32.365   9.323   0.722  1.00 20.00    -0.130 Cl
ENDBRANCH   7   8
ENDBRANCH   6   7
BRANCH   5  10
HETATM   10  C8  UNL     1     -33.421   3.195   3.986  1.00 20.00     0.000 C 
HETATM   11  C7  UNL     1     -32.839   2.817   5.308  1.00 20.00     0.005 C 
ENDBRANCH   5  10
TORSDOF 3
ENDMDL
MODEL 3
REMARK VINA RESULT:       0.2      2.852      4.770
REMARK  3 active torsions:
REMARK  status: ('A' for Active; 'I' for Inactive)
REMARK    1  A    between atoms: C5_5  and  C8_8 
REMARK    2  A    between atoms: C6_6  and  C9_9 
REMARK    3  A    between atoms: C9_9  and  C10_10 
ROOT
HETATM    1  C1  UNL     1     -31.836   5.535   1.437  1.00 20.00     0.001 C 
HETATM    2  C2  UNL     1     -31.549   7.006   1.144  1.00 20.00     0.005 C 
HETATM    3  C3  UNL     1     -33.336   5.255   1.503  1.00 20.00     0.005 C 
HETATM    4  C4  UNL     1     -33.750   7.648   2.211  1.00 20.00     0.009 C 
HETATM    5  C5  UNL     1     -32.242   7.934   2.150  1.00 20.00    -0.014 C 
HETATM    6  C6  UNL     1     -34.075   6.172   2.487  1.00 20.00    -0.013 C 
ENDROOT
BRANCH   6   7
HETATM    7  C9  UNL     1     -33.786   5.790   3.942  1.00 20.00     0.020 C 
BRANCH   7   8
HETATM    8  C10 UNL     1     -34.479   4.506   4.370  1.00 20.00     0.115 C 
HETATM    9 CL11 UNL     1     -33.327   3.173   4.619  1.00 20.00    -0.130 Cl
ENDBRANCH   7   8
ENDBRANCH   6   7
BRANCH   5  10
HETATM   10  C8  UNL     1     -31.988   9.398   1.791  1.00 20.00     0.000 C 
HETATM   11  C7  UNL     1     -32.387   9.698   0.385  1.00 20.00     0.005 C 
ENDBRANCH   5  10
TORSDOF 3
ENDMDL
MODEL 4
REMARK VINA RESULT:       0.6      2.267      3.208
REMARK  3 active torsions:
REMARK  status: ('A' for Active; 'I' for Inactive)
REMARK    1  A    between atoms: C5_5  and  C8_8 
REMARK    2  A    between atoms: C6_6  and  C9_9 
REMARK    3  A    between atoms: C9_9  and  C10_10 
ROOT
HETATM    1  C1  UNL     1     -32.001   8.315   3.427  1.00 20.00     0.001 C 
HETATM    2  C2  UNL     1     -33.351   7.954   4.043  1.00 20.00     0.005 C 
HETATM    3  C3  UNL     1     -32.058   8.311   1.902  1.00 20.00     0.005 C 
HETATM    4  C4  UNL     1     -33.938   6.620   1.977  1.00 20.00     0.009 C 
HETATM    5  C5  UNL     1     -33.881   6.616   3.512  1.00 20.00    -0.014 C 
HETATM    6  C6  UNL     1     -32.598   6.996   1.324  1.00 20.00    -0.013 C 
ENDROOT
BRANCH   6   7
HETATM    7  C9  UNL     1     -31.573   5.864   1.439  1.00 20.00     0.020 C 
BRANCH   7   8
HETATM    8  C10 UNL     1     -32.090   4.535   0.912  1.00 20.00     0.115 C 
HETATM    9 CL11 UNL     1     -30.951   3.775  -0.224  1.00 20.00    -0.130 Cl
ENDBRANCH   7   8
ENDBRANCH   6   7
BRANCH   5  10
HETATM   10  C8  UNL     1     -35.261   6.316   4.098  1.00 20.00     0.000 C 
HETATM   11  C7  UNL     1     -35.347   4.920   4.619  1.00 20.00     0.005 C 
ENDBRANCH   5  10
TORSDOF 3
ENDMDL
MODEL 5
REMARK VINA RESULT:       0.9      3.154      4.546
REMARK  3 active torsions:
REMARK  status: ('A' for Active; 'I' for Inactive)
REMARK    1  A    between atoms: C5_5  and  C8_8 
REMARK    2  A    between atoms: C6_6  and  C9_9 
REMARK    3  A    between atoms: C9_9  and  C10_10 
ROOT
HETATM    1  C1  UNL     1     -31.829   6.829   1.638  1.00 20.00     0.001 C 
HETATM    2  C2  UNL     1     -32.400   7.923   2.538  1.00 20.00     0.005 C 
HETATM    3  C3  UNL     1     -32.921   5.897   1.120  1.00 20.00     0.005 C 
HETATM    4  C4  UNL     1     -34.323   6.404   3.164  1.00 20.00     0.009 C 
HETATM    5  C5  UNL     1     -33.225   7.340   3.692  1.00 20.00    -0.014 C 
HETATM    6  C6  UNL     1     -33.783   5.300   2.241  1.00 20.00    -0.013 C 
ENDROOT
BRANCH   6   7
HETATM    7  C9  UNL     1     -33.027   4.224   3.025  1.00 20.00     0.020 C 
BRANCH   7   8
HETATM    8  C10 UNL     1     -33.808   3.694   4.217  1.00 20.00     0.115 C 
HETATM    9 CL11 UNL     1     -32.777   2.780   5.342  1.00 20.00    -0.130 Cl
ENDBRANCH   7   8
ENDBRANCH   6   7
BRANCH   5  10
HETATM   10  C8  UNL     1     -33.834   8.461   4.534  1.00 20.00     0.000 C 
HETATM   11  C7  UNL     1     -33.128   8.616   5.840  1.00 20.00     0.005 C 
ENDBRANCH   5  10
TORSDOF 3
ENDMDL
MODEL 6
REMARK VINA RESULT:       0.9      2.560      4.561
REMARK  3 active torsions:
REMARK  status: ('A' for Active; 'I' for Inactive)
REMARK    1  A    between atoms: C5_5  and  C8_8 
REMARK    2  A    between atoms: C6_6  and  C9_9 
REMARK    3  A    between atoms: C9_9  and  C10_10 
ROOT
HETATM    1  C1  UNL     1     -34.136   6.545   3.334  1.00 20.00     0.001 C 
HETATM    2  C2  UNL     1     -33.356   7.838   3.111  1.00 20.00     0.005 C 
HETATM    3  C3  UNL     1     -33.305   5.316   2.975  1.00 20.00     0.005 C 
HETATM    4  C4  UNL     1     -31.974   6.697   1.326  1.00 20.00     0.009 C 
HETATM    5  C5  UNL     1     -32.810   7.936   1.680  1.00 20.00    -0.014 C 
HETATM    6  C6  UNL     1     -32.725   5.376   1.555  1.00 20.00    -0.013 C 
ENDROOT
BRANCH   6   7
HETATM    7  C9  UNL     1     -33.804   5.144   0.493  1.00 20.00     0.020 C 
BRANCH   7   8
HETATM    8  C10 UNL     1     -33.462   4.016  -0.468  1.00 20.00     0.115 C 
HETATM    9 CL11 UNL     1     -34.830   2.905  -0.711  1.00 20.00    -0.130 Cl
ENDBRANCH   7   8
ENDBRANCH   6   7
BRANCH   5  10
HETATM   10  C8  UNL     1     -31.981   9.209   1.509  1.00 20.00     0.000 C 
HETATM   11  C7  UNL     1     -32.423   9.999   0.322  1.00 20.00     0.005 C 
ENDBRANCH   5  10
TORSDOF 3
ENDMDL
MODEL 7
REMARK VINA RESULT:       1.0      2.188      4.277
REMARK  3 active torsions:
REMARK  status: ('A' for Active; 'I' for Inactive)
REMARK    1  A    between atoms: C5_5  and  C8_8 
REMARK    2  A    between atoms: C6_6  and  C9_9 
REMARK    3  A    between atoms: C9_9  and  C10_10 
ROOT
HETATM    1  C1  UNL     1     -31.244   5.731   1.524  1.00 20.00     0.001 C 
HETATM    2  C2  UNL     1     -31.145   7.207   1.148  1.00 20.00     0.005 C 
HETATM    3  C3  UNL     1     -32.632   5.166   1.231  1.00 20.00     0.005 C 
HETATM    4  C4  UNL     1     -33.632   7.470   1.524  1.00 20.00     0.009 C 
HETATM    5  C5  UNL     1     -32.239   8.044   1.824  1.00 20.00    -0.014 C 
HETATM    6  C6  UNL     1     -33.761   5.980   1.876  1.00 20.00    -0.013 C 
ENDROOT
BRANCH   6   7
HETATM    7  C9  UNL     1     -33.826   5.758   3.390  1.00 20.00     0.020 C 
BRANCH   7   8
HETATM    8  C10 UNL     1     -34.767   6.722   4.095  1.00 20.00     0.115 C 
HETATM    9 CL11 UNL     1     -33.889   7.998   4.969  1.00 20.00    -0.130 Cl
ENDBRANCH   7   8
ENDBRANCH   6   7
BRANCH   5  10
HETATM   10  C8  UNL     1     -32.152   9.503   1.376  1.00 20.00     0.000 C 
HETATM   11  C7  UNL     1     -32.448   9.651  -0.079  1.00 20.00     0.005 C 
ENDBRANCH   5  10
TORSDOF 3
ENDMDL
MODEL 8
REMARK VINA RESULT:       1.0      2.662      4.136
REMARK  3 active torsions:
REMARK  status: ('A' for Active; 'I' for Inactive)
REMARK    1  A    between atoms: C5_5  and  C8_8 
REMARK    2  A    between atoms: C6_6  and  C9_9 
REMARK    3  A    between atoms: C9_9  and  C10_10 
ROOT
HETATM    1  C1  UNL     1     -32.267   8.551   2.031  1.00 20.00     0.001 C 
HETATM    2  C2  UNL     1     -32.005   7.320   1.167  1.00 20.00     0.005 C 
HETATM    3  C3  UNL     1     -32.284   8.204   3.517  1.00 20.00     0.005 C 
HETATM    4  C4  UNL     1     -33.015   5.848   2.959  1.00 20.00     0.009 C 
HETATM    5  C5  UNL     1     -33.003   6.193   1.462  1.00 20.00    -0.014 C 
HETATM    6  C6  UNL     1     -33.260   7.069   3.858  1.00 20.00    -0.013 C 
ENDROOT
BRANCH   6   7
HETATM    7  C9  UNL     1     -34.717   7.537   3.796  1.00 20.00     0.020 C 
BRANCH   7   8
HETATM    8  C10 UNL     1     -35.704   6.394   3.620  1.00 20.00     0.115 C 
HETATM    9 CL11 UNL     1     -35.349   5.030   4.705  1.00 20.00    -0.130 Cl
ENDBRANCH   7   8
ENDBRANCH   6   7
BRANCH   5  10
HETATM   10  C8  UNL     1     -32.674   4.954   0.628  1.00 20.00     0.000 C 
HETATM   11  C7  UNL     1     -31.269   4.501   0.847  1.00 20.00     0.005 C 
ENDBRANCH   5  10
TORSDOF 3
ENDMDL
MODEL 9
REMARK VINA RESULT:       1.1      2.280      4.394
REMARK  3 active torsions:
REMARK  status: ('A' for Active; 'I' for Inactive)
REMARK    1  A    between atoms: C5_5  and  C8_8 
REMARK    2  A    between atoms: C6_6  and  C9_9 
REMARK    3  A    between atoms: C9_9  and  C10_10 
ROOT
HETATM    1  C1  UNL     1     -34.175   6.588   3.354  1.00 20.00     0.001 C 
HETATM    2  C2  UNL     1     -33.463   7.919   3.129  1.00 20.00     0.005 C 
HETATM    3  C3  UNL     1     -33.246   5.402   3.104  1.00 20.00     0.005 C 
HETATM    4  C4  UNL     1     -31.891   6.803   1.493  1.00 20.00     0.009 C 
HETATM    5  C5  UNL     1     -32.825   7.998   1.736  1.00 20.00    -0.014 C 
HETATM    6  C6  UNL     1     -32.573   5.446   1.726  1.00 20.00    -0.013 C 
ENDROOT
BRANCH   6   7
HETATM    7  C9  UNL     1     -33.557   5.104   0.604  1.00 20.00     0.020 C 
BRANCH   7   8
HETATM    8  C10 UNL     1     -33.016   4.070  -0.370  1.00 20.00     0.115 C 
HETATM    9 CL11 UNL     1     -31.263   3.829  -0.187  1.00 20.00    -0.130 Cl
ENDBRANCH   7   8
ENDBRANCH   6   7
BRANCH   5  10
HETATM   10  C8  UNL     1     -32.066   9.315   1.568  1.00 20.00     0.000 C 
HETATM   11  C7  UNL     1     -32.436  10.006   0.298  1.00 20.00     0.005 C 
ENDBRANCH   5  10
TORSDOF 3
ENDMDL
