MODEL 1
REMARK VINA RESULT:       1.3      0.000      0.000
REMARK  0 active torsions:
REMARK  status: ('A' for Active; 'I' for Inactive)
ROOT
HETATM    1  C1  UNL     1     -33.626   5.318   2.690  1.00 20.00     0.066 C 
HETATM    2  C2  UNL     1     -33.073   7.630   3.536  1.00 20.00     0.077 C 
HETATM    3  C3  UNL     1     -32.821   5.648   1.440  1.00 20.00     0.171 C 
HETATM    4  C4  UNL     1     -35.588   6.970   3.210  1.00 20.00     0.207 A 
HETATM    5  C5  UNL     1     -34.128   6.591   3.294  1.00 20.00     0.087 A 
HETATM    6  C6  UNL     1     -32.239   7.851   2.258  1.00 20.00     0.056 C 
HETATM    7  C7  UNL     1     -33.013   8.645   1.196  1.00 20.00     0.045 C 
HETATM    8  C8  UNL     1     -30.967   8.634   2.616  1.00 20.00     0.045 C 
HETATM    9  O9  UNL     1     -35.022   6.400   4.398  1.00 20.00    -0.375 OA
HETATM   10  O10 UNL     1     -31.784   6.590   1.730  1.00 20.00    -0.381 OA
ENDROOT
TORSDOF 0
ENDMDL
MODEL 2
REMARK VINA RESULT:       1.7      1.079      3.744
REMARK  0 active torsions:
REMARK  status: ('A' for Active; 'I' for Inactive)
ROOT
HETATM    1  C1  UNL     1     -32.221   8.371   3.757  1.00 20.00     0.066 C 
HETATM    2  C2  UNL     1     -33.185   6.304   2.680  1.00 20.00     0.077 C 
HETATM    3  C3  UNL     1     -33.450   8.404   4.656  1.00 20.00     0.171 C 
HETATM    4  C4  UNL     1     -32.725   8.410   1.190  1.00 20.00     0.207 A 
HETATM    5  C5  UNL     1     -32.564   7.656   2.489  1.00 20.00     0.087 A 
HETATM    6  C6  UNL     1     -34.366   6.393   3.667  1.00 20.00     0.056 C 
HETATM    7  C7  UNL     1     -35.598   7.052   3.031  1.00 20.00     0.045 C 
HETATM    8  C8  UNL     1     -34.753   4.977   4.117  1.00 20.00     0.045 C 
HETATM    9  O9  UNL     1     -31.526   7.688   1.501  1.00 20.00    -0.375 OA
HETATM   10  O10 UNL     1     -33.969   7.087   4.865  1.00 20.00    -0.381 OA
ENDROOT
TORSDOF 0
ENDMDL
MODEL 3
REMARK VINA RESULT:       1.8      1.409      2.284
REMARK  0 active torsions:
REMARK  status: ('A' for Active; 'I' for Inactive)
ROOT
HETATM    1  C1  UNL     1     -33.796   7.808   4.659  1.00 20.00     0.066 C 
HETATM    2  C2  UNL     1     -34.021   7.367   2.186  1.00 20.00     0.077 C 
HETATM    3  C3  UNL     1     -32.341   8.175   4.402  1.00 20.00     0.171 C 
HETATM    4  C4  UNL     1     -34.491   5.413   3.867  1.00 20.00     0.207 A 
HETATM    5  C5  UNL     1     -34.261   6.879   3.584  1.00 20.00     0.087 A 
HETATM    6  C6  UNL     1     -32.552   7.805   2.018  1.00 20.00     0.056 C 
HETATM    7  C7  UNL     1     -31.600   6.602   1.940  1.00 20.00     0.045 C 
HETATM    8  C8  UNL     1     -32.413   8.617   0.722  1.00 20.00     0.045 C 
HETATM    9  O9  UNL     1     -35.576   6.348   3.798  1.00 20.00    -0.375 OA
HETATM   10  O10 UNL     1     -32.169   8.699   3.081  1.00 20.00    -0.381 OA
ENDROOT
TORSDOF 0
ENDMDL
MODEL 4
REMARK VINA RESULT:       2.0      1.407      3.378
REMARK  0 active torsions:
REMARK  status: ('A' for Active; 'I' for Inactive)
ROOT
HETATM    1  C1  UNL     1     -33.023   7.989   3.179  1.00 20.00     0.066 C 
HETATM    2  C2  UNL     1     -31.672   6.905   1.345  1.00 20.00     0.077 C 
HETATM    3  C3  UNL     1     -33.950   6.783   3.128  1.00 20.00     0.171 C 
HETATM    4  C4  UNL     1     -32.735   9.260   0.910  1.00 20.00     0.207 A 
HETATM    5  C5  UNL     1     -32.351   8.143   1.851  1.00 20.00     0.087 A 
HETATM    6  C6  UNL     1     -32.638   5.704   1.403  1.00 20.00     0.056 C 
HETATM    7  C7  UNL     1     -33.704   5.771   0.300  1.00 20.00     0.045 C 
HETATM    8  C8  UNL     1     -31.838   4.406   1.225  1.00 20.00     0.045 C 
HETATM    9  O9  UNL     1     -31.561   9.333   1.730  1.00 20.00    -0.375 OA
HETATM   10  O10 UNL     1     -33.246   5.611   2.706  1.00 20.00    -0.381 OA
ENDROOT
TORSDOF 0
ENDMDL
MODEL 5
REMARK VINA RESULT:       2.2      1.164      3.666
REMARK  0 active torsions:
REMARK  status: ('A' for Active; 'I' for Inactive)
ROOT
HETATM    1  C1  UNL     1     -32.377   7.434   2.670  1.00 20.00     0.066 C 
HETATM    2  C2  UNL     1     -33.773   5.353   2.961  1.00 20.00     0.077 C 
HETATM    3  C3  UNL     1     -33.457   8.193   3.429  1.00 20.00     0.171 C 
HETATM    4  C4  UNL     1     -33.207   6.168   0.536  1.00 20.00     0.207 A 
HETATM    5  C5  UNL     1     -32.989   6.229   2.029  1.00 20.00     0.087 A 
HETATM    6  C6  UNL     1     -34.786   6.197   3.762  1.00 20.00     0.056 C 
HETATM    7  C7  UNL     1     -35.980   6.632   2.900  1.00 20.00     0.045 C 
HETATM    8  C8  UNL     1     -35.316   5.364   4.938  1.00 20.00     0.045 C 
HETATM    9  O9  UNL     1     -32.099   5.511   1.164  1.00 20.00    -0.375 OA
HETATM   10  O10 UNL     1     -34.133   7.336   4.354  1.00 20.00    -0.381 OA
ENDROOT
TORSDOF 0
ENDMDL
MODEL 6
REMARK VINA RESULT:       2.2      1.496      2.908
REMARK  0 active torsions:
REMARK  status: ('A' for Active; 'I' for Inactive)
ROOT
HETATM    1  C1  UNL     1     -33.765   6.003   2.616  1.00 20.00     0.066 C 
HETATM    2  C2  UNL     1     -32.524   7.204   0.778  1.00 20.00     0.077 C 
HETATM    3  C3  UNL     1     -33.514   7.218   3.499  1.00 20.00     0.171 C 
HETATM    4  C4  UNL     1     -31.614   4.896   1.620  1.00 20.00     0.207 A 
HETATM    5  C5  UNL     1     -32.705   5.939   1.563  1.00 20.00     0.087 A 
HETATM    6  C6  UNL     1     -32.364   8.406   1.730  1.00 20.00     0.056 C 
HETATM    7  C7  UNL     1     -30.982   8.429   2.400  1.00 20.00     0.045 C 
HETATM    8  C8  UNL     1     -32.536   9.707   0.933  1.00 20.00     0.045 C 
HETATM    9  O9  UNL     1     -32.751   4.754   0.758  1.00 20.00    -0.375 OA
HETATM   10  O10 UNL     1     -33.416   8.411   2.715  1.00 20.00    -0.381 OA
ENDROOT
TORSDOF 0
ENDMDL
MODEL 7
REMARK VINA RESULT:       2.3      1.268      3.424
REMARK  0 active torsions:
REMARK  status: ('A' for Active; 'I' for Inactive)
ROOT
HETATM    1  C1  UNL     1     -32.155   6.050   1.434  1.00 20.00     0.066 C 
HETATM    2  C2  UNL     1     -33.855   7.680   2.336  1.00 20.00     0.077 C 
HETATM    3  C3  UNL     1     -32.459   5.160   2.631  1.00 20.00     0.171 C 
HETATM    4  C4  UNL     1     -31.378   8.477   2.025  1.00 20.00     0.207 A 
HETATM    5  C5  UNL     1     -32.476   7.467   1.786  1.00 20.00     0.087 A 
HETATM    6  C6  UNL     1     -34.130   6.690   3.486  1.00 20.00     0.056 C 
HETATM    7  C7  UNL     1     -33.379   7.076   4.769  1.00 20.00     0.045 C 
HETATM    8  C8  UNL     1     -35.635   6.679   3.791  1.00 20.00     0.045 C 
HETATM    9  O9  UNL     1     -32.094   8.419   0.784  1.00 20.00    -0.375 OA
HETATM   10  O10 UNL     1     -33.805   5.346   3.081  1.00 20.00    -0.381 OA
ENDROOT
TORSDOF 0
ENDMDL
MODEL 8
REMARK VINA RESULT:       2.8      1.498      3.080
REMARK  0 active torsions:
REMARK  status: ('A' for Active; 'I' for Inactive)
ROOT
HETATM    1  C1  UNL     1     -31.791   7.253   1.267  1.00 20.00     0.066 C 
HETATM    2  C2  UNL     1     -33.016   6.051   3.116  1.00 20.00     0.077 C 
HETATM    3  C3  UNL     1     -32.506   8.525   1.700  1.00 20.00     0.171 C 
HETATM    4  C4  UNL     1     -33.364   5.257   0.643  1.00 20.00     0.207 A 
HETATM    5  C5  UNL     1     -32.614   6.071   1.671  1.00 20.00     0.087 A 
HETATM    6  C6  UNL     1     -33.652   7.400   3.511  1.00 20.00     0.056 C 
HETATM    7  C7  UNL     1     -35.072   7.553   2.945  1.00 20.00     0.045 C 
HETATM    8  C8  UNL     1     -33.729   7.490   5.042  1.00 20.00     0.045 C 
HETATM    9  O9  UNL     1     -32.112   4.817   1.188  1.00 20.00    -0.375 OA
HETATM   10  O10 UNL     1     -32.811   8.493   3.097  1.00 20.00    -0.381 OA
ENDROOT
TORSDOF 0
ENDMDL
MODEL 9
REMARK VINA RESULT:       2.9      1.827      3.063
REMARK  0 active torsions:
REMARK  status: ('A' for Active; 'I' for Inactive)
ROOT
HETATM    1  C1  UNL     1     -35.409   4.969   4.104  1.00 20.00     0.066 C 
HETATM    2  C2  UNL     1     -33.204   5.318   2.928  1.00 20.00     0.077 C 
HETATM    3  C3  UNL     1     -35.501   6.482   4.253  1.00 20.00     0.171 C 
HETATM    4  C4  UNL     1     -33.256   3.886   5.122  1.00 20.00     0.207 A 
HETATM    5  C5  UNL     1     -33.970   4.579   3.986  1.00 20.00     0.087 A 
HETATM    6  C6  UNL     1     -33.412   6.838   3.083  1.00 20.00     0.056 C 
HETATM    7  C7  UNL     1     -32.633   7.406   4.279  1.00 20.00     0.045 C 
HETATM    8  C8  UNL     1     -32.926   7.545   1.810  1.00 20.00     0.045 C 
HETATM    9  O9  UNL     1     -33.746   3.163   3.985  1.00 20.00    -0.375 OA
HETATM   10  O10 UNL     1     -34.816   7.146   3.188  1.00 20.00    -0.381 OA
ENDROOT
TORSDOF 0
ENDMDL
