MODEL 1
REMARK VINA RESULT:      -1.7      0.000      0.000
REMARK  5 active torsions:
REMARK  status: ('A' for Active; 'I' for Inactive)
REMARK    1  A    between atoms: C4_4  and  C5_5 
REMARK    2  A    between atoms: C5_5  and  C7_7 
REMARK    3  A    between atoms: C6_6  and  C7_7 
REMARK    4  A    between atoms: C6_6  and  O10_10 
REMARK    5  A    between atoms: C7_7  and  N8_8 
ROOT
HETATM    1  C1  UNL     1     -33.541   3.508   4.392  1.00 20.00     0.332 C 
HETATM    2  N8  UNL     1     -34.240   4.132   3.690  1.00 20.00    -0.240 NA
HETATM    3  O9  UNL     1     -32.844   2.875   5.098  1.00 20.00    -0.260 OA
ENDROOT
BRANCH   2   4
HETATM    4  C7  UNL     1     -33.787   5.512   3.465  1.00 20.00     0.136 C 
BRANCH   4   5
HETATM    5  C5  UNL     1     -34.891   6.479   3.911  1.00 20.00     0.029 C 
BRANCH   5   6
HETATM    6  C4  UNL     1     -34.385   7.920   4.035  1.00 20.00    -0.002 C 
HETATM    7  C2  UNL     1     -33.217   8.016   5.005  1.00 20.00     0.005 C 
ENDBRANCH   5   6
ENDBRANCH   4   5
BRANCH   4   8
HETATM    8  C6  UNL     1     -33.438   5.663   1.985  1.00 20.00     0.194 C 
BRANCH   8   9
HETATM    9  O10 UNL     1     -32.083   6.067   1.825  1.00 20.00    -0.394 OA
HETATM   10  C3  UNL     1     -31.984   7.461   1.565  1.00 20.00     0.201 C 
ENDBRANCH   8   9
ENDBRANCH   4   8
ENDBRANCH   2   4
TORSDOF 5
ENDMDL
MODEL 2
REMARK VINA RESULT:      -1.6      2.390      3.146
REMARK  5 active torsions:
REMARK  status: ('A' for Active; 'I' for Inactive)
REMARK    1  A    between atoms: C4_4  and  C5_5 
REMARK    2  A    between atoms: C5_5  and  C7_7 
REMARK    3  A    between atoms: C6_6  and  C7_7 
REMARK    4  A    between atoms: C6_6  and  O10_10 
REMARK    5  A    between atoms: C7_7  and  N8_8 
ROOT
HETATM    1  C1  UNL     1     -32.193   5.444   1.217  1.00 20.00     0.332 C 
HETATM    2  N8  UNL     1     -33.038   6.165   1.586  1.00 20.00    -0.240 NA
HETATM    3  O9  UNL     1     -31.349   4.714   0.843  1.00 20.00    -0.260 OA
ENDROOT
BRANCH   2   4
HETATM    4  C7  UNL     1     -32.554   7.295   2.393  1.00 20.00     0.136 C 
BRANCH   4   5
HETATM    5  C5  UNL     1     -33.751   7.977   3.067  1.00 20.00     0.029 C 
BRANCH   5   6
HETATM    6  C4  UNL     1     -34.220   7.224   4.316  1.00 20.00    -0.002 C 
HETATM    7  C2  UNL     1     -35.347   6.255   3.990  1.00 20.00     0.005 C 
ENDBRANCH   5   6
ENDBRANCH   4   5
BRANCH   4   8
HETATM    8  C6  UNL     1     -31.782   8.240   1.473  1.00 20.00     0.194 C 
BRANCH   8   9
HETATM    9  O10 UNL     1     -32.512   9.441   1.256  1.00 20.00    -0.394 OA
HETATM   10  C3  UNL     1     -32.474   9.833  -0.110  1.00 20.00     0.201 C 
ENDBRANCH   8   9
ENDBRANCH   4   8
ENDBRANCH   2   4
TORSDOF 5
ENDMDL
MODEL 3
REMARK VINA RESULT:      -1.5      2.444      3.713
REMARK  5 active torsions:
REMARK  status: ('A' for Active; 'I' for Inactive)
REMARK    1  A    between atoms: C4_4  and  C5_5 
REMARK    2  A    between atoms: C5_5  and  C7_7 
REMARK    3  A    between atoms: C6_6  and  C7_7 
REMARK    4  A    between atoms: C6_6  and  O10_10 
REMARK    5  A    between atoms: C7_7  and  N8_8 
ROOT
HETATM    1  C1  UNL     1     -34.498   6.810   3.837  1.00 20.00     0.332 C 
HETATM    2  N8  UNL     1     -33.567   7.447   3.525  1.00 20.00    -0.240 NA
HETATM    3  O9  UNL     1     -35.433   6.170   4.158  1.00 20.00    -0.260 OA
ENDROOT
BRANCH   2   4
HETATM    4  C7  UNL     1     -33.236   7.368   2.095  1.00 20.00     0.136 C 
BRANCH   4   5
HETATM    5  C5  UNL     1     -33.150   5.893   1.683  1.00 20.00     0.029 C 
BRANCH   5   6
HETATM    6  C4  UNL     1     -31.705   5.438   1.455  1.00 20.00    -0.002 C 
HETATM    7  C2  UNL     1     -31.620   4.392   0.353  1.00 20.00     0.005 C 
ENDBRANCH   5   6
ENDBRANCH   4   5
BRANCH   4   8
HETATM    8  C6  UNL     1     -31.924   8.119   1.868  1.00 20.00     0.194 C 
BRANCH   8   9
HETATM    9  O10 UNL     1     -31.898   8.708   0.574  1.00 20.00    -0.394 OA
HETATM   10  C3  UNL     1     -32.542   9.975   0.567  1.00 20.00     0.201 C 
ENDBRANCH   8   9
ENDBRANCH   4   8
ENDBRANCH   2   4
TORSDOF 5
ENDMDL
MODEL 4
REMARK VINA RESULT:      -1.4      2.526      4.048
REMARK  5 active torsions:
REMARK  status: ('A' for Active; 'I' for Inactive)
REMARK    1  A    between atoms: C4_4  and  C5_5 
REMARK    2  A    between atoms: C5_5  and  C7_7 
REMARK    3  A    between atoms: C6_6  and  C7_7 
REMARK    4  A    between atoms: C6_6  and  O10_10 
REMARK    5  A    between atoms: C7_7  and  N8_8 
ROOT
HETATM    1  C1  UNL     1     -32.634   5.449   1.067  1.00 20.00     0.332 C 
HETATM    2  N8  UNL     1     -32.062   6.137   1.822  1.00 20.00    -0.240 NA
HETATM    3  O9  UNL     1     -33.204   4.752   0.309  1.00 20.00    -0.260 OA
ENDROOT
BRANCH   2   4
HETATM    4  C7  UNL     1     -32.725   7.423   2.083  1.00 20.00     0.136 C 
BRANCH   4   5
HETATM    5  C5  UNL     1     -31.814   8.561   1.605  1.00 20.00     0.029 C 
BRANCH   5   6
HETATM    6  C4  UNL     1     -32.220   9.087   0.224  1.00 20.00    -0.002 C 
HETATM    7  C2  UNL     1     -32.660  10.542   0.292  1.00 20.00     0.005 C 
ENDBRANCH   5   6
ENDBRANCH   4   5
BRANCH   4   8
HETATM    8  C6  UNL     1     -33.030   7.505   3.579  1.00 20.00     0.194 C 
BRANCH   8   9
HETATM    9  O10 UNL     1     -34.431   7.606   3.802  1.00 20.00    -0.394 OA
HETATM   10  C3  UNL     1     -35.028   6.323   3.948  1.00 20.00     0.201 C 
ENDBRANCH   8   9
ENDBRANCH   4   8
ENDBRANCH   2   4
TORSDOF 5
ENDMDL
MODEL 5
REMARK VINA RESULT:      -1.4      1.831      3.755
REMARK  5 active torsions:
REMARK  status: ('A' for Active; 'I' for Inactive)
REMARK    1  A    between atoms: C4_4  and  C5_5 
REMARK    2  A    between atoms: C5_5  and  C7_7 
REMARK    3  A    between atoms: C6_6  and  C7_7 
REMARK    4  A    between atoms: C6_6  and  O10_10 
REMARK    5  A    between atoms: C7_7  and  N8_8 
ROOT
HETATM    1  C1  UNL     1     -34.183   7.460   4.314  1.00 20.00     0.332 C 
HETATM    2  N8  UNL     1     -34.501   6.590   3.597  1.00 20.00    -0.240 NA
HETATM    3  O9  UNL     1     -33.871   8.337   5.035  1.00 20.00    -0.260 OA
ENDROOT
BRANCH   2   4
HETATM    4  C7  UNL     1     -33.376   5.808   3.066  1.00 20.00     0.136 C 
BRANCH   4   5
HETATM    5  C5  UNL     1     -33.001   6.350   1.680  1.00 20.00     0.029 C 
BRANCH   5   6
HETATM    6  C4  UNL     1     -31.842   7.350   1.741  1.00 20.00    -0.002 C 
HETATM    7  C2  UNL     1     -32.235   8.692   1.143  1.00 20.00     0.005 C 
ENDBRANCH   5   6
ENDBRANCH   4   5
BRANCH   4   8
HETATM    8  C6  UNL     1     -33.794   4.339   3.028  1.00 20.00     0.194 C 
BRANCH   8   9
HETATM    9  O10 UNL     1     -34.123   3.875   4.332  1.00 20.00    -0.394 OA
HETATM   10  C3  UNL     1     -33.166   2.938   4.808  1.00 20.00     0.201 C 
ENDBRANCH   8   9
ENDBRANCH   4   8
ENDBRANCH   2   4
TORSDOF 5
ENDMDL
MODEL 6
REMARK VINA RESULT:      -1.4      2.563      4.150
REMARK  5 active torsions:
REMARK  status: ('A' for Active; 'I' for Inactive)
REMARK    1  A    between atoms: C4_4  and  C5_5 
REMARK    2  A    between atoms: C5_5  and  C7_7 
REMARK    3  A    between atoms: C6_6  and  C7_7 
REMARK    4  A    between atoms: C6_6  and  O10_10 
REMARK    5  A    between atoms: C7_7  and  N8_8 
ROOT
HETATM    1  C1  UNL     1     -32.168   8.969   0.925  1.00 20.00     0.332 C 
HETATM    2  N8  UNL     1     -31.917   8.037   1.588  1.00 20.00    -0.240 NA
HETATM    3  O9  UNL     1     -32.413   9.909   0.260  1.00 20.00    -0.260 OA
ENDROOT
BRANCH   2   4
HETATM    4  C7  UNL     1     -33.097   7.292   2.049  1.00 20.00     0.136 C 
BRANCH   4   5
HETATM    5  C5  UNL     1     -33.150   7.339   3.581  1.00 20.00     0.029 C 
BRANCH   5   6
HETATM    6  C4  UNL     1     -34.584   7.446   4.109  1.00 20.00    -0.002 C 
HETATM    7  C2  UNL     1     -35.270   6.088   4.133  1.00 20.00     0.005 C 
ENDBRANCH   5   6
ENDBRANCH   4   5
BRANCH   4   8
HETATM    8  C6  UNL     1     -33.000   5.866   1.509  1.00 20.00     0.194 C 
BRANCH   8   9
HETATM    9  O10 UNL     1     -31.641   5.471   1.370  1.00 20.00    -0.394 OA
HETATM   10  C3  UNL     1     -31.493   4.453   0.389  1.00 20.00     0.201 C 
ENDBRANCH   8   9
ENDBRANCH   4   8
ENDBRANCH   2   4
TORSDOF 5
ENDMDL
MODEL 7
REMARK VINA RESULT:      -1.4      2.066      3.260
REMARK  5 active torsions:
REMARK  status: ('A' for Active; 'I' for Inactive)
REMARK    1  A    between atoms: C4_4  and  C5_5 
REMARK    2  A    between atoms: C5_5  and  C7_7 
REMARK    3  A    between atoms: C6_6  and  C7_7 
REMARK    4  A    between atoms: C6_6  and  O10_10 
REMARK    5  A    between atoms: C7_7  and  N8_8 
ROOT
HETATM    1  C1  UNL     1     -34.000   7.626   4.491  1.00 20.00     0.332 C 
HETATM    2  N8  UNL     1     -34.791   7.121   3.789  1.00 20.00    -0.240 NA
HETATM    3  O9  UNL     1     -33.210   8.140   5.196  1.00 20.00    -0.260 OA
ENDROOT
BRANCH   2   4
HETATM    4  C7  UNL     1     -34.362   5.830   3.233  1.00 20.00     0.136 C 
BRANCH   4   5
HETATM    5  C5  UNL     1     -34.479   4.753   4.319  1.00 20.00     0.029 C 
BRANCH   5   6
HETATM    6  C4  UNL     1     -33.664   3.500   3.984  1.00 20.00    -0.002 C 
HETATM    7  C2  UNL     1     -32.971   2.942   5.218  1.00 20.00     0.005 C 
ENDBRANCH   5   6
ENDBRANCH   4   5
BRANCH   4   8
HETATM    8  C6  UNL     1     -32.933   5.987   2.714  1.00 20.00     0.194 C 
BRANCH   8   9
HETATM    9  O10 UNL     1     -32.912   6.757   1.518  1.00 20.00    -0.394 OA
HETATM   10  C3  UNL     1     -31.946   7.798   1.586  1.00 20.00     0.201 C 
ENDBRANCH   8   9
ENDBRANCH   4   8
ENDBRANCH   2   4
TORSDOF 5
ENDMDL
MODEL 8
REMARK VINA RESULT:      -1.4      2.327      3.372
REMARK  5 active torsions:
REMARK  status: ('A' for Active; 'I' for Inactive)
REMARK    1  A    between atoms: C4_4  and  C5_5 
REMARK    2  A    between atoms: C5_5  and  C7_7 
REMARK    3  A    between atoms: C6_6  and  C7_7 
REMARK    4  A    between atoms: C6_6  and  O10_10 
REMARK    5  A    between atoms: C7_7  and  N8_8 
ROOT
HETATM    1  C1  UNL     1     -34.628   6.840   3.922  1.00 20.00     0.332 C 
HETATM    2  N8  UNL     1     -33.858   7.696   3.712  1.00 20.00    -0.240 NA
HETATM    3  O9  UNL     1     -35.407   5.984   4.138  1.00 20.00    -0.260 OA
ENDROOT
BRANCH   2   4
HETATM    4  C7  UNL     1     -32.744   7.302   2.838  1.00 20.00     0.136 C 
BRANCH   4   5
HETATM    5  C5  UNL     1     -32.040   8.564   2.324  1.00 20.00     0.029 C 
BRANCH   5   6
HETATM    6  C4  UNL     1     -32.085   8.672   0.796  1.00 20.00    -0.002 C 
HETATM    7  C2  UNL     1     -32.498  10.067   0.350  1.00 20.00     0.005 C 
ENDBRANCH   5   6
ENDBRANCH   4   5
BRANCH   4   8
HETATM    8  C6  UNL     1     -33.309   6.443   1.707  1.00 20.00     0.194 C 
BRANCH   8   9
HETATM    9  O10 UNL     1     -32.763   5.130   1.751  1.00 20.00    -0.394 OA
HETATM   10  C3  UNL     1     -31.679   4.987   0.843  1.00 20.00     0.201 C 
ENDBRANCH   8   9
ENDBRANCH   4   8
ENDBRANCH   2   4
TORSDOF 5
ENDMDL
MODEL 9
REMARK VINA RESULT:      -1.1      2.114      4.014
REMARK  5 active torsions:
REMARK  status: ('A' for Active; 'I' for Inactive)
REMARK    1  A    between atoms: C4_4  and  C5_5 
REMARK    2  A    between atoms: C5_5  and  C7_7 
REMARK    3  A    between atoms: C6_6  and  C7_7 
REMARK    4  A    between atoms: C6_6  and  O10_10 
REMARK    5  A    between atoms: C7_7  and  N8_8 
ROOT
HETATM    1  C1  UNL     1     -32.406   7.345   1.642  1.00 20.00     0.332 C 
HETATM    2  N8  UNL     1     -32.862   6.271   1.743  1.00 20.00    -0.240 NA
HETATM    3  O9  UNL     1     -31.945   8.422   1.534  1.00 20.00    -0.260 OA
ENDROOT
BRANCH   2   4
HETATM    4  C7  UNL     1     -33.419   5.977   3.071  1.00 20.00     0.136 C 
BRANCH   4   5
HETATM    5  C5  UNL     1     -33.843   4.503   3.121  1.00 20.00     0.029 C 
BRANCH   5   6
HETATM    6  C4  UNL     1     -33.984   3.988   4.557  1.00 20.00    -0.002 C 
HETATM    7  C2  UNL     1     -33.071   2.798   4.812  1.00 20.00     0.005 C 
ENDBRANCH   5   6
ENDBRANCH   4   5
BRANCH   4   8
HETATM    8  C6  UNL     1     -34.586   6.932   3.319  1.00 20.00     0.194 C 
BRANCH   8   9
HETATM    9  O10 UNL     1     -34.530   7.464   4.637  1.00 20.00    -0.394 OA
HETATM   10  C3  UNL     1     -33.300   8.137   4.874  1.00 20.00     0.201 C 
ENDBRANCH   8   9
ENDBRANCH   4   8
ENDBRANCH   2   4
TORSDOF 5
ENDMDL
