MODEL 1
REMARK VINA RESULT:      -0.6      0.000      0.000
REMARK  0 active torsions:
REMARK  status: ('A' for Active; 'I' for Inactive)
ROOT
HETATM    1  C1  UNL     1     -33.887   4.475   3.741  1.00 20.00     0.064 C 
HETATM    2  C2  UNL     1     -32.492   5.529   1.999  1.00 20.00     0.020 C 
HETATM    3  C3  UNL     1     -33.822   6.939   3.623  1.00 20.00     0.020 C 
HETATM    4  C4  UNL     1     -32.309   6.746   1.091  1.00 20.00     0.010 C 
HETATM    5  C5  UNL     1     -33.640   8.156   2.715  1.00 20.00     0.010 C 
HETATM    6  C6  UNL     1     -33.775   5.628   2.831  1.00 20.00     0.093 C 
HETATM    7  C7  UNL     1     -32.361   8.091   1.850  1.00 20.00    -0.048 C 
HETATM    8  C8  UNL     1     -32.391   9.242   0.826  1.00 20.00     0.015 C 
HETATM    9  C9  UNL     1     -31.106   8.268   2.725  1.00 20.00     0.015 C 
HETATM   10  N10 UNL     1     -33.974   3.567   4.457  1.00 20.00    -0.197 NA
ENDROOT
TORSDOF 0
ENDMDL
MODEL 2
REMARK VINA RESULT:      -0.2      2.587      4.232
REMARK  0 active torsions:
REMARK  status: ('A' for Active; 'I' for Inactive)
ROOT
HETATM    1  C1  UNL     1     -31.986   8.575   1.274  1.00 20.00     0.064 C 
HETATM    2  C2  UNL     1     -33.168   6.432   1.590  1.00 20.00     0.020 C 
HETATM    3  C3  UNL     1     -33.340   8.273   3.315  1.00 20.00     0.020 C 
HETATM    4  C4  UNL     1     -33.716   5.429   2.606  1.00 20.00     0.010 C 
HETATM    5  C5  UNL     1     -33.887   7.270   4.331  1.00 20.00     0.010 C 
HETATM    6  C6  UNL     1     -32.443   7.595   2.275  1.00 20.00     0.093 C 
HETATM    7  C7  UNL     1     -34.619   6.075   3.681  1.00 20.00    -0.048 C 
HETATM    8  C8  UNL     1     -34.930   5.027   4.768  1.00 20.00     0.015 C 
HETATM    9  C9  UNL     1     -35.956   6.528   3.065  1.00 20.00     0.015 C 
HETATM   10  N10 UNL     1     -31.627   9.346   0.485  1.00 20.00    -0.197 NA
ENDROOT
TORSDOF 0
ENDMDL
MODEL 3
REMARK VINA RESULT:       1.3      1.234      2.151
REMARK  0 active torsions:
REMARK  status: ('A' for Active; 'I' for Inactive)
ROOT
HETATM    1  C1  UNL     1     -34.759   5.607   4.017  1.00 20.00     0.064 C 
HETATM    2  C2  UNL     1     -33.473   7.696   3.745  1.00 20.00     0.020 C 
HETATM    3  C3  UNL     1     -33.410   5.895   1.971  1.00 20.00     0.020 C 
HETATM    4  C4  UNL     1     -32.233   8.345   3.131  1.00 20.00     0.010 C 
HETATM    5  C5  UNL     1     -32.168   6.543   1.358  1.00 20.00     0.010 C 
HETATM    6  C6  UNL     1     -33.521   6.189   3.471  1.00 20.00     0.093 C 
HETATM    7  C7  UNL     1     -32.077   8.064   1.620  1.00 20.00    -0.048 C 
HETATM    8  C8  UNL     1     -30.696   8.569   1.157  1.00 20.00     0.015 C 
HETATM    9  C9  UNL     1     -33.151   8.818   0.814  1.00 20.00     0.015 C 
HETATM   10  N10 UNL     1     -35.734   5.149   4.447  1.00 20.00    -0.197 NA
ENDROOT
TORSDOF 0
ENDMDL
MODEL 4
REMARK VINA RESULT:       1.6      1.817      2.330
REMARK  0 active torsions:
REMARK  status: ('A' for Active; 'I' for Inactive)
ROOT
HETATM    1  C1  UNL     1     -33.571   3.083   4.203  1.00 20.00     0.064 C 
HETATM    2  C2  UNL     1     -32.827   5.231   3.243  1.00 20.00     0.020 C 
HETATM    3  C3  UNL     1     -34.931   5.095   4.640  1.00 20.00     0.020 C 
HETATM    4  C4  UNL     1     -33.264   6.599   2.718  1.00 20.00     0.010 C 
HETATM    5  C5  UNL     1     -35.368   6.462   4.114  1.00 20.00     0.010 C 
HETATM    6  C6  UNL     1     -34.028   4.365   3.640  1.00 20.00     0.093 C 
HETATM    7  C7  UNL     1     -34.186   7.365   3.693  1.00 20.00    -0.048 C 
HETATM    8  C8  UNL     1     -34.740   8.614   2.979  1.00 20.00     0.015 C 
HETATM    9  C9  UNL     1     -33.397   7.837   4.928  1.00 20.00     0.015 C 
HETATM   10  N10 UNL     1     -33.211   2.073   4.646  1.00 20.00    -0.197 NA
ENDROOT
TORSDOF 0
ENDMDL
