MODEL 1
REMARK VINA RESULT:      -1.3      0.000      0.000
REMARK  2 active torsions:
REMARK  status: ('A' for Active; 'I' for Inactive)
REMARK    1  A    between atoms: C2_2  and  C9_9 
REMARK    2  A    between atoms: C9_9  and  N11_11 
ROOT
HETATM    1  C1  UNL     1     -32.400   9.032   0.794  1.00 20.00    -0.109 C 
HETATM    2  C2  UNL     1     -32.305   7.994   1.389  1.00 20.00    -0.077 C 
HETATM    3  C8  UNL     1     -32.517  10.297   0.068  1.00 20.00     0.112 C 
ENDROOT
BRANCH   2   4
HETATM    4  C9  UNL     1     -32.186   6.722   2.111  1.00 20.00     0.367 C 
BRANCH   4   5
HETATM    5  N11 UNL     1     -33.482   6.277   2.593  1.00 20.00     0.117 N 
HETATM    6  C6  UNL     1     -33.424   5.045   3.375  1.00 20.00     0.275 C 
HETATM    7  C4  UNL     1     -34.770   5.000   4.092  1.00 20.00     0.033 C 
HETATM    8  C5  UNL     1     -35.384   6.386   3.896  1.00 20.00     0.053 C 
HETATM    9  C7  UNL     1     -34.241   7.257   3.380  1.00 20.00     0.329 C 
HETATM   10  C3  UNL     1     -33.500   7.864   4.500  1.00 20.00     0.095 C 
HETATM   11  N10 UNL     1     -32.916   8.343   5.382  1.00 20.00    -0.195 NA
ENDBRANCH   4   5
ENDBRANCH   2   4
TORSDOF 2
ENDMDL
MODEL 2
REMARK VINA RESULT:       0.4      1.506      4.610
REMARK  2 active torsions:
REMARK  status: ('A' for Active; 'I' for Inactive)
REMARK    1  A    between atoms: C2_2  and  C9_9 
REMARK    2  A    between atoms: C9_9  and  N11_11 
ROOT
HETATM    1  C1  UNL     1     -33.857   4.085   4.379  1.00 20.00    -0.109 C 
HETATM    2  C2  UNL     1     -34.396   5.094   4.017  1.00 20.00    -0.077 C 
HETATM    3  C8  UNL     1     -33.200   2.854   4.819  1.00 20.00     0.112 C 
ENDROOT
BRANCH   2   4
HETATM    4  C9  UNL     1     -35.060   6.324   3.571  1.00 20.00     0.367 C 
BRANCH   4   5
HETATM    5  N11 UNL     1     -34.090   7.379   3.332  1.00 20.00     0.117 N 
HETATM    6  C6  UNL     1     -33.048   7.457   4.353  1.00 20.00     0.275 C 
HETATM    7  C4  UNL     1     -31.964   8.315   3.707  1.00 20.00     0.033 C 
HETATM    8  C5  UNL     1     -32.346   8.412   2.231  1.00 20.00     0.053 C 
HETATM    9  C7  UNL     1     -33.420   7.346   2.027  1.00 20.00     0.329 C 
HETATM   10  C3  UNL     1     -32.812   6.051   1.672  1.00 20.00     0.095 C 
HETATM   11  N10 UNL     1     -32.332   5.032   1.392  1.00 20.00    -0.195 NA
ENDBRANCH   4   5
ENDBRANCH   2   4
TORSDOF 2
ENDMDL
MODEL 3
REMARK VINA RESULT:       0.6      1.670      2.665
REMARK  2 active torsions:
REMARK  status: ('A' for Active; 'I' for Inactive)
REMARK    1  A    between atoms: C2_2  and  C9_9 
REMARK    2  A    between atoms: C9_9  and  N11_11 
ROOT
HETATM    1  C1  UNL     1     -31.520   4.565   0.436  1.00 20.00    -0.109 C 
HETATM    2  C2  UNL     1     -32.055   5.414   1.096  1.00 20.00    -0.077 C 
HETATM    3  C8  UNL     1     -30.869   3.531  -0.368  1.00 20.00     0.112 C 
ENDROOT
BRANCH   2   4
HETATM    4  C9  UNL     1     -32.705   6.456   1.897  1.00 20.00     0.367 C 
BRANCH   4   5
HETATM    5  N11 UNL     1     -33.838   5.915   2.628  1.00 20.00     0.117 N 
HETATM    6  C6  UNL     1     -33.496   4.783   3.486  1.00 20.00     0.275 C 
HETATM    7  C4  UNL     1     -34.692   4.656   4.423  1.00 20.00     0.033 C 
HETATM    8  C5  UNL     1     -35.506   5.934   4.223  1.00 20.00     0.053 C 
HETATM    9  C7  UNL     1     -34.584   6.875   3.451  1.00 20.00     0.329 C 
HETATM   10  C3  UNL     1     -33.759   7.675   4.375  1.00 20.00     0.095 C 
HETATM   11  N10 UNL     1     -33.111   8.304   5.103  1.00 20.00    -0.195 NA
ENDBRANCH   4   5
ENDBRANCH   2   4
TORSDOF 2
ENDMDL
MODEL 4
REMARK VINA RESULT:       0.7      1.188      2.512
REMARK  2 active torsions:
REMARK  status: ('A' for Active; 'I' for Inactive)
REMARK    1  A    between atoms: C2_2  and  C9_9 
REMARK    2  A    between atoms: C9_9  and  N11_11 
ROOT
HETATM    1  C1  UNL     1     -32.480   9.287   0.679  1.00 20.00    -0.109 C 
HETATM    2  C2  UNL     1     -32.155   8.676   1.660  1.00 20.00    -0.077 C 
HETATM    3  C8  UNL     1     -32.875  10.030  -0.516  1.00 20.00     0.112 C 
ENDROOT
BRANCH   2   4
HETATM    4  C9  UNL     1     -31.751   7.932   2.858  1.00 20.00     0.367 C 
BRANCH   4   5
HETATM    5  N11 UNL     1     -32.894   7.279   3.472  1.00 20.00     0.117 N 
HETATM    6  C6  UNL     1     -34.157   7.982   3.254  1.00 20.00     0.275 C 
HETATM    7  C4  UNL     1     -35.220   6.948   3.610  1.00 20.00     0.033 C 
HETATM    8  C5  UNL     1     -34.476   5.617   3.719  1.00 20.00     0.053 C 
HETATM    9  C7  UNL     1     -33.106   5.876   3.096  1.00 20.00     0.329 C 
HETATM   10  C3  UNL     1     -33.133   5.618   1.645  1.00 20.00     0.095 C 
HETATM   11  N10 UNL     1     -33.155   5.414   0.503  1.00 20.00    -0.195 NA
ENDBRANCH   4   5
ENDBRANCH   2   4
TORSDOF 2
ENDMDL
