MODEL 1
REMARK VINA RESULT:       0.8      0.000      0.000
REMARK  0 active torsions:
REMARK  status: ('A' for Active; 'I' for Inactive)
ROOT
HETATM    1  C1  UNL     1     -32.905   8.384   3.608  1.00 20.00     0.035 C 
HETATM    2  C2  UNL     1     -33.557   7.256   4.406  1.00 20.00     0.011 C 
HETATM    3  C3  UNL     1     -33.510   5.629   2.456  1.00 20.00     0.043 C 
HETATM    4  C4  UNL     1     -32.165   7.871   2.417  1.00 20.00     0.151 A 
HETATM    5  C5  UNL     1     -32.490   6.525   1.827  1.00 20.00     0.151 A 
HETATM    6  C6  UNL     1     -34.399   6.289   3.540  1.00 20.00    -0.045 C 
HETATM    7  C7  UNL     1     -35.599   7.017   2.903  1.00 20.00     0.015 C 
HETATM    8  C8  UNL     1     -34.964   5.181   4.453  1.00 20.00     0.015 C 
HETATM    9  O9  UNL     1     -32.986   7.730   1.241  1.00 20.00    -0.375 OA
ENDROOT
TORSDOF 0
ENDMDL
MODEL 2
REMARK VINA RESULT:       0.8      1.675      3.365
REMARK  0 active torsions:
REMARK  status: ('A' for Active; 'I' for Inactive)
ROOT
HETATM    1  C1  UNL     1     -34.191   4.491   3.675  1.00 20.00     0.035 C 
HETATM    2  C2  UNL     1     -32.897   5.015   3.053  1.00 20.00     0.011 C 
HETATM    3  C3  UNL     1     -33.666   7.435   3.092  1.00 20.00     0.043 C 
HETATM    4  C4  UNL     1     -34.935   5.562   4.402  1.00 20.00     0.151 A 
HETATM    5  C5  UNL     1     -34.701   7.015   4.088  1.00 20.00     0.151 A 
HETATM    6  C6  UNL     1     -33.088   6.299   2.212  1.00 20.00    -0.045 C 
HETATM    7  C7  UNL     1     -33.989   6.033   0.991  1.00 20.00     0.015 C 
HETATM    8  C8  UNL     1     -31.710   6.744   1.679  1.00 20.00     0.015 C 
HETATM    9  O9  UNL     1     -35.832   6.317   3.564  1.00 20.00    -0.375 OA
ENDROOT
TORSDOF 0
ENDMDL
MODEL 3
REMARK VINA RESULT:       0.9      1.242      2.799
REMARK  0 active torsions:
REMARK  status: ('A' for Active; 'I' for Inactive)
ROOT
HETATM    1  C1  UNL     1     -34.450   6.035   3.667  1.00 20.00     0.035 C 
HETATM    2  C2  UNL     1     -33.396   5.211   2.929  1.00 20.00     0.011 C 
HETATM    3  C3  UNL     1     -32.145   7.258   2.095  1.00 20.00     0.043 C 
HETATM    4  C4  UNL     1     -33.977   7.422   3.953  1.00 20.00     0.151 A 
HETATM    5  C5  UNL     1     -32.862   8.038   3.153  1.00 20.00     0.151 A 
HETATM    6  C6  UNL     1     -32.812   5.921   1.686  1.00 20.00    -0.045 C 
HETATM    7  C7  UNL     1     -33.898   6.151   0.617  1.00 20.00     0.015 C 
HETATM    8  C8  UNL     1     -31.736   5.008   1.061  1.00 20.00     0.015 C 
HETATM    9  O9  UNL     1     -34.229   8.353   2.883  1.00 20.00    -0.375 OA
ENDROOT
TORSDOF 0
ENDMDL
MODEL 4
REMARK VINA RESULT:       1.1      1.463      3.227
REMARK  0 active torsions:
REMARK  status: ('A' for Active; 'I' for Inactive)
ROOT
HETATM    1  C1  UNL     1     -34.170   7.372   3.878  1.00 20.00     0.035 C 
HETATM    2  C2  UNL     1     -33.785   8.357   2.774  1.00 20.00     0.011 C 
HETATM    3  C3  UNL     1     -32.737   6.563   1.314  1.00 20.00     0.043 C 
HETATM    4  C4  UNL     1     -34.227   5.967   3.378  1.00 20.00     0.151 A 
HETATM    5  C5  UNL     1     -33.490   5.560   2.131  1.00 20.00     0.151 A 
HETATM    6  C6  UNL     1     -32.521   7.942   1.985  1.00 20.00    -0.045 C 
HETATM    7  C7  UNL     1     -31.279   7.924   2.898  1.00 20.00     0.015 C 
HETATM    8  C8  UNL     1     -32.267   8.990   0.882  1.00 20.00     0.015 C 
HETATM    9  O9  UNL     1     -32.961   5.281   3.428  1.00 20.00    -0.375 OA
ENDROOT
TORSDOF 0
ENDMDL
MODEL 5
REMARK VINA RESULT:       1.4      1.291      3.463
REMARK  0 active torsions:
REMARK  status: ('A' for Active; 'I' for Inactive)
ROOT
HETATM    1  C1  UNL     1     -33.465   5.661   1.957  1.00 20.00     0.035 C 
HETATM    2  C2  UNL     1     -32.106   6.348   1.824  1.00 20.00     0.011 C 
HETATM    3  C3  UNL     1     -32.664   8.142   3.534  1.00 20.00     0.043 C 
HETATM    4  C4  UNL     1     -34.143   6.006   3.242  1.00 20.00     0.151 A 
HETATM    5  C5  UNL     1     -33.771   7.250   4.002  1.00 20.00     0.151 A 
HETATM    6  C6  UNL     1     -32.151   7.870   2.098  1.00 20.00    -0.045 C 
HETATM    7  C7  UNL     1     -33.022   8.596   1.053  1.00 20.00     0.015 C 
HETATM    8  C8  UNL     1     -30.719   8.431   1.974  1.00 20.00     0.015 C 
HETATM    9  O9  UNL     1     -34.936   7.207   3.176  1.00 20.00    -0.375 OA
ENDROOT
TORSDOF 0
ENDMDL
MODEL 6
REMARK VINA RESULT:       1.5      1.187      1.884
REMARK  0 active torsions:
REMARK  status: ('A' for Active; 'I' for Inactive)
ROOT
HETATM    1  C1  UNL     1     -32.029   7.829   1.585  1.00 20.00     0.035 C 
HETATM    2  C2  UNL     1     -32.278   8.131   3.063  1.00 20.00     0.011 C 
HETATM    3  C3  UNL     1     -33.506   5.944   3.469  1.00 20.00     0.043 C 
HETATM    4  C4  UNL     1     -32.129   6.370   1.287  1.00 20.00     0.151 A 
HETATM    5  C5  UNL     1     -32.889   5.446   2.200  1.00 20.00     0.151 A 
HETATM    6  C6  UNL     1     -33.569   7.485   3.618  1.00 20.00    -0.045 C 
HETATM    7  C7  UNL     1     -34.820   8.057   2.922  1.00 20.00     0.015 C 
HETATM    8  C8  UNL     1     -33.681   7.828   5.119  1.00 20.00     0.015 C 
HETATM    9  O9  UNL     1     -33.468   5.930   0.986  1.00 20.00    -0.375 OA
ENDROOT
TORSDOF 0
ENDMDL
MODEL 7
REMARK VINA RESULT:       1.7      1.171      2.231
REMARK  0 active torsions:
REMARK  status: ('A' for Active; 'I' for Inactive)
ROOT
HETATM    1  C1  UNL     1     -32.083   5.909   1.934  1.00 20.00     0.035 C 
HETATM    2  C2  UNL     1     -33.505   5.766   2.476  1.00 20.00     0.011 C 
HETATM    3  C3  UNL     1     -33.884   8.275   2.600  1.00 20.00     0.043 C 
HETATM    4  C4  UNL     1     -31.853   7.247   1.313  1.00 20.00     0.151 A 
HETATM    5  C5  UNL     1     -32.721   8.423   1.670  1.00 20.00     0.151 A 
HETATM    6  C6  UNL     1     -33.944   6.939   3.383  1.00 20.00    -0.045 C 
HETATM    7  C7  UNL     1     -33.081   7.008   4.658  1.00 20.00     0.015 C 
HETATM    8  C8  UNL     1     -35.402   6.696   3.826  1.00 20.00     0.015 C 
HETATM    9  O9  UNL     1     -31.426   8.255   2.249  1.00 20.00    -0.375 OA
ENDROOT
TORSDOF 0
ENDMDL
MODEL 8
REMARK VINA RESULT:       1.8      1.180      2.268
REMARK  0 active torsions:
REMARK  status: ('A' for Active; 'I' for Inactive)
ROOT
HETATM    1  C1  UNL     1     -32.604   6.486   1.380  1.00 20.00     0.035 C 
HETATM    2  C2  UNL     1     -33.992   6.158   1.930  1.00 20.00     0.011 C 
HETATM    3  C3  UNL     1     -33.817   7.840   3.825  1.00 20.00     0.043 C 
HETATM    4  C4  UNL     1     -32.127   7.827   1.830  1.00 20.00     0.151 A 
HETATM    5  C5  UNL     1     -32.702   8.479   3.058  1.00 20.00     0.151 A 
HETATM    6  C6  UNL     1     -34.119   6.366   3.457  1.00 20.00    -0.045 C 
HETATM    7  C7  UNL     1     -33.193   5.403   4.227  1.00 20.00     0.015 C 
HETATM    8  C8  UNL     1     -35.569   6.043   3.876  1.00 20.00     0.015 C 
HETATM    9  O9  UNL     1     -31.443   7.803   3.098  1.00 20.00    -0.375 OA
ENDROOT
TORSDOF 0
ENDMDL
MODEL 9
REMARK VINA RESULT:       2.0      1.530      2.904
REMARK  0 active torsions:
REMARK  status: ('A' for Active; 'I' for Inactive)
ROOT
HETATM    1  C1  UNL     1     -32.028   8.285   2.193  1.00 20.00     0.035 C 
HETATM    2  C2  UNL     1     -32.510   7.340   1.092  1.00 20.00     0.011 C 
HETATM    3  C3  UNL     1     -34.097   6.093   2.635  1.00 20.00     0.043 C 
HETATM    4  C4  UNL     1     -32.993   8.359   3.329  1.00 20.00     0.151 A 
HETATM    5  C5  UNL     1     -33.991   7.259   3.568  1.00 20.00     0.151 A 
HETATM    6  C6  UNL     1     -32.941   5.949   1.615  1.00 20.00    -0.045 C 
HETATM    7  C7  UNL     1     -31.748   5.196   2.235  1.00 20.00     0.015 C 
HETATM    8  C8  UNL     1     -33.442   5.112   0.419  1.00 20.00     0.015 C 
HETATM    9  O9  UNL     1     -32.787   7.345   4.332  1.00 20.00    -0.375 OA
ENDROOT
TORSDOF 0
ENDMDL
