MODEL 1
REMARK VINA RESULT:      -0.0      0.000      0.000
REMARK  0 active torsions:
REMARK  status: ('A' for Active; 'I' for Inactive)
ROOT
HETATM    1  C1  UNL     1     -34.461   6.086   3.609  1.00 20.00     0.035 C 
HETATM    2  C2  UNL     1     -33.361   5.252   2.947  1.00 20.00     0.011 C 
HETATM    3  C3  UNL     1     -32.144   7.263   2.008  1.00 20.00     0.043 C 
HETATM    4  C4  UNL     1     -34.127   7.537   3.704  1.00 20.00     0.151 A 
HETATM    5  C5  UNL     1     -33.012   8.121   2.879  1.00 20.00     0.151 A 
HETATM    6  C6  UNL     1     -32.784   5.898   1.665  1.00 20.00    -0.045 C 
HETATM    7  C7  UNL     1     -31.698   4.970   1.088  1.00 20.00     0.015 C 
HETATM    8  C8  UNL     1     -33.878   6.076   0.594  1.00 20.00     0.015 C 
HETATM    9  O9  UNL     1     -32.858   7.843   4.285  1.00 20.00    -0.375 OA
ENDROOT
TORSDOF 0
ENDMDL
MODEL 2
REMARK VINA RESULT:       0.1      1.250      2.899
REMARK  0 active torsions:
REMARK  status: ('A' for Active; 'I' for Inactive)
ROOT
HETATM    1  C1  UNL     1     -32.652   6.049   1.215  1.00 20.00     0.035 C 
HETATM    2  C2  UNL     1     -34.071   6.054   1.788  1.00 20.00     0.011 C 
HETATM    3  C3  UNL     1     -33.500   7.635   3.681  1.00 20.00     0.043 C 
HETATM    4  C4  UNL     1     -31.794   7.147   1.748  1.00 20.00     0.151 A 
HETATM    5  C5  UNL     1     -32.196   7.897   2.990  1.00 20.00     0.151 A 
HETATM    6  C6  UNL     1     -34.117   6.263   3.321  1.00 20.00    -0.045 C 
HETATM    7  C7  UNL     1     -35.587   6.243   3.780  1.00 20.00     0.015 C 
HETATM    8  C8  UNL     1     -33.370   5.134   4.056  1.00 20.00     0.015 C 
HETATM    9  O9  UNL     1     -32.353   8.460   1.672  1.00 20.00    -0.375 OA
ENDROOT
TORSDOF 0
ENDMDL
MODEL 3
REMARK VINA RESULT:       0.5      1.387      2.846
REMARK  0 active torsions:
REMARK  status: ('A' for Active; 'I' for Inactive)
ROOT
HETATM    1  C1  UNL     1     -32.906   8.314   3.298  1.00 20.00     0.035 C 
HETATM    2  C2  UNL     1     -33.345   7.150   4.190  1.00 20.00     0.011 C 
HETATM    3  C3  UNL     1     -33.608   5.529   2.263  1.00 20.00     0.043 C 
HETATM    4  C4  UNL     1     -32.514   7.889   1.922  1.00 20.00     0.151 A 
HETATM    5  C5  UNL     1     -32.901   6.531   1.401  1.00 20.00     0.151 A 
HETATM    6  C6  UNL     1     -34.309   6.164   3.487  1.00 20.00    -0.045 C 
HETATM    7  C7  UNL     1     -34.685   5.047   4.480  1.00 20.00     0.015 C 
HETATM    8  C8  UNL     1     -35.605   6.872   3.051  1.00 20.00     0.015 C 
HETATM    9  O9  UNL     1     -31.563   6.825   1.850  1.00 20.00    -0.375 OA
ENDROOT
TORSDOF 0
ENDMDL
MODEL 4
REMARK VINA RESULT:       1.2      1.410      2.607
REMARK  0 active torsions:
REMARK  status: ('A' for Active; 'I' for Inactive)
ROOT
HETATM    1  C1  UNL     1     -32.980   5.631   1.375  1.00 20.00     0.035 C 
HETATM    2  C2  UNL     1     -31.778   6.479   1.798  1.00 20.00     0.011 C 
HETATM    3  C3  UNL     1     -33.087   7.821   3.498  1.00 20.00     0.043 C 
HETATM    4  C4  UNL     1     -34.129   5.720   2.322  1.00 20.00     0.151 A 
HETATM    5  C5  UNL     1     -34.199   6.828   3.338  1.00 20.00     0.151 A 
HETATM    6  C6  UNL     1     -32.161   7.904   2.262  1.00 20.00    -0.045 C 
HETATM    7  C7  UNL     1     -30.877   8.660   2.653  1.00 20.00     0.015 C 
HETATM    8  C8  UNL     1     -32.852   8.689   1.130  1.00 20.00     0.015 C 
HETATM    9  O9  UNL     1     -33.817   5.485   3.696  1.00 20.00    -0.375 OA
ENDROOT
TORSDOF 0
ENDMDL
MODEL 5
REMARK VINA RESULT:       1.2      1.594      3.436
REMARK  0 active torsions:
REMARK  status: ('A' for Active; 'I' for Inactive)
ROOT
HETATM    1  C1  UNL     1     -32.025   8.004   1.527  1.00 20.00     0.035 C 
HETATM    2  C2  UNL     1     -32.135   8.151   3.046  1.00 20.00     0.011 C 
HETATM    3  C3  UNL     1     -33.575   6.089   3.329  1.00 20.00     0.043 C 
HETATM    4  C4  UNL     1     -32.445   6.660   1.031  1.00 20.00     0.151 A 
HETATM    5  C5  UNL     1     -33.248   5.738   1.909  1.00 20.00     0.151 A 
HETATM    6  C6  UNL     1     -33.461   7.603   3.625  1.00 20.00    -0.045 C 
HETATM    7  C7  UNL     1     -33.460   7.813   5.151  1.00 20.00     0.015 C 
HETATM    8  C8  UNL     1     -34.673   8.353   3.040  1.00 20.00     0.015 C 
HETATM    9  O9  UNL     1     -31.837   5.543   1.682  1.00 20.00    -0.375 OA
ENDROOT
TORSDOF 0
ENDMDL
MODEL 6
REMARK VINA RESULT:       1.2      0.968      2.216
REMARK  0 active torsions:
REMARK  status: ('A' for Active; 'I' for Inactive)
ROOT
HETATM    1  C1  UNL     1     -32.242   8.157   2.536  1.00 20.00     0.035 C 
HETATM    2  C2  UNL     1     -32.776   7.415   1.308  1.00 20.00     0.011 C 
HETATM    3  C3  UNL     1     -33.995   5.662   2.667  1.00 20.00     0.043 C 
HETATM    4  C4  UNL     1     -32.926   7.771   3.804  1.00 20.00     0.151 A 
HETATM    5  C5  UNL     1     -33.754   6.515   3.875  1.00 20.00     0.151 A 
HETATM    6  C6  UNL     1     -32.964   5.897   1.538  1.00 20.00    -0.045 C 
HETATM    7  C7  UNL     1     -33.495   5.261   0.239  1.00 20.00     0.015 C 
HETATM    8  C8  UNL     1     -31.626   5.219   1.890  1.00 20.00     0.015 C 
HETATM    9  O9  UNL     1     -34.354   7.823   3.778  1.00 20.00    -0.375 OA
ENDROOT
TORSDOF 0
ENDMDL
MODEL 7
REMARK VINA RESULT:       1.2      1.648      2.938
REMARK  0 active torsions:
REMARK  status: ('A' for Active; 'I' for Inactive)
ROOT
HETATM    1  C1  UNL     1     -33.868   7.283   3.644  1.00 20.00     0.035 C 
HETATM    2  C2  UNL     1     -33.671   8.319   2.535  1.00 20.00     0.011 C 
HETATM    3  C3  UNL     1     -32.145   6.835   1.164  1.00 20.00     0.043 C 
HETATM    4  C4  UNL     1     -33.433   5.910   3.255  1.00 20.00     0.151 A 
HETATM    5  C5  UNL     1     -32.547   5.699   2.056  1.00 20.00     0.151 A 
HETATM    6  C6  UNL     1     -32.294   8.221   1.837  1.00 20.00    -0.045 C 
HETATM    7  C7  UNL     1     -32.209   9.311   0.752  1.00 20.00     0.015 C 
HETATM    8  C8  UNL     1     -31.146   8.452   2.838  1.00 20.00     0.015 C 
HETATM    9  O9  UNL     1     -33.961   5.420   2.021  1.00 20.00    -0.375 OA
ENDROOT
TORSDOF 0
ENDMDL
MODEL 8
REMARK VINA RESULT:       2.0      1.664      3.247
REMARK  0 active torsions:
REMARK  status: ('A' for Active; 'I' for Inactive)
ROOT
HETATM    1  C1  UNL     1     -34.057   5.187   3.606  1.00 20.00     0.035 C 
HETATM    2  C2  UNL     1     -34.809   6.520   3.586  1.00 20.00     0.011 C 
HETATM    3  C3  UNL     1     -33.009   7.730   2.282  1.00 20.00     0.043 C 
HETATM    4  C4  UNL     1     -32.928   5.132   2.631  1.00 20.00     0.151 A 
HETATM    5  C5  UNL     1     -32.386   6.393   2.015  1.00 20.00     0.151 A 
HETATM    6  C6  UNL     1     -33.877   7.755   3.562  1.00 20.00    -0.045 C 
HETATM    7  C7  UNL     1     -34.743   9.029   3.551  1.00 20.00     0.015 C 
HETATM    8  C8  UNL     1     -32.980   7.796   4.813  1.00 20.00     0.015 C 
HETATM    9  O9  UNL     1     -33.251   5.497   1.289  1.00 20.00    -0.375 OA
ENDROOT
TORSDOF 0
ENDMDL
MODEL 9
REMARK VINA RESULT:       2.4      2.005      3.026
REMARK  0 active torsions:
REMARK  status: ('A' for Active; 'I' for Inactive)
ROOT
HETATM    1  C1  UNL     1     -35.517   6.042   4.257  1.00 20.00     0.035 C 
HETATM    2  C2  UNL     1     -34.970   6.779   3.033  1.00 20.00     0.011 C 
HETATM    3  C3  UNL     1     -32.771   5.525   3.030  1.00 20.00     0.043 C 
HETATM    4  C4  UNL     1     -34.748   4.810   4.599  1.00 20.00     0.151 A 
HETATM    5  C5  UNL     1     -33.375   4.582   4.025  1.00 20.00     0.151 A 
HETATM    6  C6  UNL     1     -33.429   6.925   3.038  1.00 20.00    -0.045 C 
HETATM    7  C7  UNL     1     -32.998   7.684   1.769  1.00 20.00     0.015 C 
HETATM    8  C8  UNL     1     -32.953   7.730   4.262  1.00 20.00     0.015 C 
HETATM    9  O9  UNL     1     -34.539   3.894   3.523  1.00 20.00    -0.375 OA
ENDROOT
TORSDOF 0
ENDMDL
