MODEL 1
REMARK VINA RESULT:       0.0      0.000      0.000
REMARK  0 active torsions:
REMARK  status: ('A' for Active; 'I' for Inactive)
ROOT
HETATM    1  C1  UNL     1     -32.821   8.258   2.505  1.00 20.00     0.004 C 
HETATM    2  C2  UNL     1     -33.455   7.718   3.784  1.00 20.00     0.040 C 
HETATM    3  C3  UNL     1     -31.956   7.199   1.819  1.00 20.00     0.009 C 
HETATM    4  C4  UNL     1     -33.407   5.360   2.800  1.00 20.00     0.049 C 
HETATM    5  C5  UNL     1     -35.318   6.031   4.427  1.00 20.00     0.207 A 
HETATM    6  C6  UNL     1     -34.175   6.430   3.524  1.00 20.00     0.083 A 
HETATM    7  C7  UNL     1     -32.720   5.886   1.518  1.00 20.00    -0.045 C 
HETATM    8  C8  UNL     1     -31.713   4.829   1.023  1.00 20.00     0.015 C 
HETATM    9  C9  UNL     1     -33.758   6.106   0.401  1.00 20.00     0.015 C 
HETATM   10  O10 UNL     1     -35.541   6.574   3.117  1.00 20.00    -0.375 OA
ENDROOT
TORSDOF 0
ENDMDL
MODEL 2
REMARK VINA RESULT:       0.9      1.317      2.735
REMARK  0 active torsions:
REMARK  status: ('A' for Active; 'I' for Inactive)
ROOT
HETATM    1  C1  UNL     1     -32.020   5.643   1.780  1.00 20.00     0.004 C 
HETATM    2  C2  UNL     1     -33.462   5.506   2.258  1.00 20.00     0.040 C 
HETATM    3  C3  UNL     1     -31.822   6.920   0.960  1.00 20.00     0.009 C 
HETATM    4  C4  UNL     1     -33.701   8.051   2.242  1.00 20.00     0.049 C 
HETATM    5  C5  UNL     1     -35.018   6.652   3.990  1.00 20.00     0.207 A 
HETATM    6  C6  UNL     1     -33.916   6.748   2.962  1.00 20.00     0.083 A 
HETATM    7  C7  UNL     1     -32.256   8.204   1.711  1.00 20.00    -0.045 C 
HETATM    8  C8  UNL     1     -32.209   9.391   0.730  1.00 20.00     0.015 C 
HETATM    9  C9  UNL     1     -31.285   8.510   2.867  1.00 20.00     0.015 C 
HETATM   10  O10 UNL     1     -33.638   6.782   4.367  1.00 20.00    -0.375 OA
ENDROOT
TORSDOF 0
ENDMDL
MODEL 3
REMARK VINA RESULT:       1.3      1.784      3.859
REMARK  0 active torsions:
REMARK  status: ('A' for Active; 'I' for Inactive)
ROOT
HETATM    1  C1  UNL     1     -33.218   5.764   1.834  1.00 20.00     0.004 C 
HETATM    2  C2  UNL     1     -32.007   6.511   1.282  1.00 20.00     0.040 C 
HETATM    3  C3  UNL     1     -33.419   6.048   3.324  1.00 20.00     0.009 C 
HETATM    4  C4  UNL     1     -32.334   8.328   3.049  1.00 20.00     0.049 C 
HETATM    5  C5  UNL     1     -31.365   8.962   0.724  1.00 20.00     0.207 A 
HETATM    6  C6  UNL     1     -32.079   7.970   1.612  1.00 20.00     0.083 A 
HETATM    7  C7  UNL     1     -33.534   7.558   3.649  1.00 20.00    -0.045 C 
HETATM    8  C8  UNL     1     -33.526   7.737   5.180  1.00 20.00     0.015 C 
HETATM    9  C9  UNL     1     -34.862   8.128   3.116  1.00 20.00     0.015 C 
HETATM   10  O10 UNL     1     -32.786   8.770   0.655  1.00 20.00    -0.375 OA
ENDROOT
TORSDOF 0
ENDMDL
MODEL 4
REMARK VINA RESULT:       1.8      1.697      2.622
REMARK  0 active torsions:
REMARK  status: ('A' for Active; 'I' for Inactive)
ROOT
HETATM    1  C1  UNL     1     -35.498   6.226   3.621  1.00 20.00     0.004 C 
HETATM    2  C2  UNL     1     -34.928   5.237   4.633  1.00 20.00     0.040 C 
HETATM    3  C3  UNL     1     -34.406   7.131   3.047  1.00 20.00     0.009 C 
HETATM    4  C4  UNL     1     -32.680   5.306   3.420  1.00 20.00     0.049 C 
HETATM    5  C5  UNL     1     -33.433   3.117   4.597  1.00 20.00     0.207 A 
HETATM    6  C6  UNL     1     -33.767   4.486   4.055  1.00 20.00     0.083 A 
HETATM    7  C7  UNL     1     -33.230   6.346   2.416  1.00 20.00    -0.045 C 
HETATM    8  C8  UNL     1     -32.106   7.339   2.061  1.00 20.00     0.015 C 
HETATM    9  C9  UNL     1     -33.676   5.655   1.113  1.00 20.00     0.015 C 
HETATM   10  O10 UNL     1     -34.115   3.290   3.346  1.00 20.00    -0.375 OA
ENDROOT
TORSDOF 0
ENDMDL
MODEL 5
REMARK VINA RESULT:       1.8      1.602      3.422
REMARK  0 active torsions:
REMARK  status: ('A' for Active; 'I' for Inactive)
ROOT
HETATM    1  C1  UNL     1     -32.338   7.976   3.361  1.00 20.00     0.004 C 
HETATM    2  C2  UNL     1     -32.121   7.617   1.894  1.00 20.00     0.040 C 
HETATM    3  C3  UNL     1     -33.791   7.750   3.783  1.00 20.00     0.009 C 
HETATM    4  C4  UNL     1     -34.030   5.923   2.035  1.00 20.00     0.049 C 
HETATM    5  C5  UNL     1     -32.026   5.465   0.447  1.00 20.00     0.207 A 
HETATM    6  C6  UNL     1     -32.627   6.238   1.597  1.00 20.00     0.083 A 
HETATM    7  C7  UNL     1     -34.293   6.311   3.510  1.00 20.00    -0.045 C 
HETATM    8  C8  UNL     1     -35.809   6.255   3.777  1.00 20.00     0.015 C 
HETATM    9  C9  UNL     1     -33.610   5.309   4.461  1.00 20.00     0.015 C 
HETATM   10  O10 UNL     1     -31.676   5.188   1.811  1.00 20.00    -0.375 OA
ENDROOT
TORSDOF 0
ENDMDL
MODEL 6
REMARK VINA RESULT:       1.9      1.464      3.072
REMARK  0 active torsions:
REMARK  status: ('A' for Active; 'I' for Inactive)
ROOT
HETATM    1  C1  UNL     1     -34.285   6.938   3.304  1.00 20.00     0.004 C 
HETATM    2  C2  UNL     1     -33.854   5.568   2.788  1.00 20.00     0.040 C 
HETATM    3  C3  UNL     1     -33.079   7.847   3.553  1.00 20.00     0.009 C 
HETATM    4  C4  UNL     1     -31.769   6.624   1.753  1.00 20.00     0.049 C 
HETATM    5  C5  UNL     1     -32.872   4.572   0.603  1.00 20.00     0.207 A 
HETATM    6  C6  UNL     1     -32.946   5.701   1.604  1.00 20.00     0.083 A 
HETATM    7  C7  UNL     1     -32.168   8.010   2.311  1.00 20.00    -0.045 C 
HETATM    8  C8  UNL     1     -30.892   8.766   2.728  1.00 20.00     0.015 C 
HETATM    9  C9  UNL     1     -32.876   8.845   1.226  1.00 20.00     0.015 C 
HETATM   10  O10 UNL     1     -33.613   5.773   0.337  1.00 20.00    -0.375 OA
ENDROOT
TORSDOF 0
ENDMDL
MODEL 7
REMARK VINA RESULT:       2.7      1.572      3.474
REMARK  0 active torsions:
REMARK  status: ('A' for Active; 'I' for Inactive)
ROOT
HETATM    1  C1  UNL     1     -32.865   5.554   1.096  1.00 20.00     0.004 C 
HETATM    2  C2  UNL     1     -31.762   6.594   1.264  1.00 20.00     0.040 C 
HETATM    3  C3  UNL     1     -33.535   5.227   2.432  1.00 20.00     0.009 C 
HETATM    4  C4  UNL     1     -32.990   7.555   3.290  1.00 20.00     0.049 C 
HETATM    5  C5  UNL     1     -31.592   9.133   1.772  1.00 20.00     0.207 A 
HETATM    6  C6  UNL     1     -32.268   7.801   1.994  1.00 20.00     0.083 A 
HETATM    7  C7  UNL     1     -34.090   6.476   3.160  1.00 20.00    -0.045 C 
HETATM    8  C8  UNL     1     -34.551   6.062   4.571  1.00 20.00     0.015 C 
HETATM    9  C9  UNL     1     -35.314   7.040   2.412  1.00 20.00     0.015 C 
HETATM   10  O10 UNL     1     -32.850   8.811   1.160  1.00 20.00    -0.375 OA
ENDROOT
TORSDOF 0
ENDMDL
MODEL 8
REMARK VINA RESULT:       2.8      1.799      3.040
REMARK  0 active torsions:
REMARK  status: ('A' for Active; 'I' for Inactive)
ROOT
HETATM    1  C1  UNL     1     -33.538   6.507   3.600  1.00 20.00     0.004 C 
HETATM    2  C2  UNL     1     -33.524   7.906   2.990  1.00 20.00     0.040 C 
HETATM    3  C3  UNL     1     -33.847   5.441   2.547  1.00 20.00     0.009 C 
HETATM    4  C4  UNL     1     -32.829   6.909   0.742  1.00 20.00     0.049 C 
HETATM    5  C5  UNL     1     -32.003   9.282   1.401  1.00 20.00     0.207 A 
HETATM    6  C6  UNL     1     -32.623   7.962   1.795  1.00 20.00     0.083 A 
HETATM    7  C7  UNL     1     -32.885   5.481   1.334  1.00 20.00    -0.045 C 
HETATM    8  C8  UNL     1     -33.410   4.515   0.254  1.00 20.00     0.015 C 
HETATM    9  C9  UNL     1     -31.477   5.010   1.743  1.00 20.00     0.015 C 
HETATM   10  O10 UNL     1     -31.253   8.267   2.085  1.00 20.00    -0.375 OA
ENDROOT
TORSDOF 0
ENDMDL
MODEL 9
REMARK VINA RESULT:       2.9      1.504      3.184
REMARK  0 active torsions:
REMARK  status: ('A' for Active; 'I' for Inactive)
ROOT
HETATM    1  C1  UNL     1     -32.130   6.534   1.878  1.00 20.00     0.004 C 
HETATM    2  C2  UNL     1     -32.917   5.230   1.968  1.00 20.00     0.040 C 
HETATM    3  C3  UNL     1     -33.027   7.748   2.133  1.00 20.00     0.009 C 
HETATM    4  C4  UNL     1     -34.543   6.335   3.602  1.00 20.00     0.049 C 
HETATM    5  C5  UNL     1     -34.032   3.797   3.822  1.00 20.00     0.207 A 
HETATM    6  C6  UNL     1     -33.682   5.152   3.254  1.00 20.00     0.083 A 
HETATM    7  C7  UNL     1     -33.783   7.677   3.483  1.00 20.00    -0.045 C 
HETATM    8  C8  UNL     1     -34.802   8.832   3.541  1.00 20.00     0.015 C 
HETATM    9  C9  UNL     1     -32.806   7.851   4.661  1.00 20.00     0.015 C 
HETATM   10  O10 UNL     1     -32.958   4.587   4.354  1.00 20.00    -0.375 OA
ENDROOT
TORSDOF 0
ENDMDL
