MODEL 1
REMARK VINA RESULT:      -1.8      0.000      0.000
REMARK  4 active torsions:
REMARK  status: ('A' for Active; 'I' for Inactive)
REMARK    1  A    between atoms: C7_7  and  C10_10 
REMARK    2  A    between atoms: C8_8  and  N11_11 
REMARK    3  A    between atoms: C9_9  and  N11_11 
REMARK    4  A    between atoms: C10_10  and  N11_11 
ROOT
HETATM    1  C1  UNL     1     -35.353   6.122   4.098  1.00 20.00     0.013 C 
HETATM    2  C2  UNL     1     -34.495   6.892   3.761  1.00 20.00    -0.087 C 
HETATM    3  C9  UNL     1     -33.450   7.833   3.356  1.00 20.00     0.365 C 
ENDROOT
BRANCH   3   4
HETATM    4  N11 UNL     1     -32.917   7.479   2.041  1.00 20.00     0.104 N 
BRANCH   4   5
HETATM    5  C8  UNL     1     -32.796   6.027   1.912  1.00 20.00     0.224 A 
HETATM    6  C5  UNL     1     -33.224   5.337   0.646  1.00 20.00     0.038 A 
HETATM    7  C6  UNL     1     -31.767   5.424   0.997  1.00 20.00     0.038 A 
ENDBRANCH   4   5
BRANCH   4   8
HETATM    8  C10 UNL     1     -31.621   8.121   1.824  1.00 20.00     0.278 C 
BRANCH   8   9
HETATM    9  C7  UNL     1     -31.643   8.982   0.606  1.00 20.00     0.014 A 
HETATM   10  C3  UNL     1     -32.900   9.110  -0.208  1.00 20.00     0.007 A 
HETATM   11  C4  UNL     1     -32.411  10.274   0.608  1.00 20.00     0.007 A 
ENDBRANCH   8   9
ENDBRANCH   4   8
ENDBRANCH   3   4
TORSDOF 4
ENDMDL
MODEL 2
REMARK VINA RESULT:      -1.2      0.726      3.901
REMARK  4 active torsions:
REMARK  status: ('A' for Active; 'I' for Inactive)
REMARK    1  A    between atoms: C7_7  and  C10_10 
REMARK    2  A    between atoms: C8_8  and  N11_11 
REMARK    3  A    between atoms: C9_9  and  N11_11 
REMARK    4  A    between atoms: C10_10  and  N11_11 
ROOT
HETATM    1  C1  UNL     1     -32.597   9.792  -0.073  1.00 20.00     0.013 C 
HETATM    2  C2  UNL     1     -32.168   9.227   0.896  1.00 20.00    -0.087 C 
HETATM    3  C9  UNL     1     -31.642   8.543   2.079  1.00 20.00     0.365 C 
ENDROOT
BRANCH   3   4
HETATM    4  N11 UNL     1     -32.303   7.252   2.266  1.00 20.00     0.104 N 
BRANCH   4   5
HETATM    5  C8  UNL     1     -32.099   6.399   1.096  1.00 20.00     0.224 A 
HETATM    6  C5  UNL     1     -31.785   4.937   1.266  1.00 20.00     0.038 A 
HETATM    7  C6  UNL     1     -33.119   5.359   0.722  1.00 20.00     0.038 A 
ENDBRANCH   4   5
BRANCH   4   8
HETATM    8  C10 UNL     1     -33.732   7.440   2.518  1.00 20.00     0.278 C 
BRANCH   8   9
HETATM    9  C7  UNL     1     -34.130   6.847   3.827  1.00 20.00     0.014 A 
HETATM   10  C3  UNL     1     -35.530   6.338   4.034  1.00 20.00     0.007 A 
HETATM   11  C4  UNL     1     -34.383   5.370   3.943  1.00 20.00     0.007 A 
ENDBRANCH   8   9
ENDBRANCH   4   8
ENDBRANCH   3   4
TORSDOF 4
ENDMDL
MODEL 3
REMARK VINA RESULT:      -1.2      0.785      3.067
REMARK  4 active torsions:
REMARK  status: ('A' for Active; 'I' for Inactive)
REMARK    1  A    between atoms: C7_7  and  C10_10 
REMARK    2  A    between atoms: C8_8  and  N11_11 
REMARK    3  A    between atoms: C9_9  and  N11_11 
REMARK    4  A    between atoms: C10_10  and  N11_11 
ROOT
HETATM    1  C1  UNL     1     -31.236   4.453   0.791  1.00 20.00     0.013 C 
HETATM    2  C2  UNL     1     -32.106   5.229   1.079  1.00 20.00    -0.087 C 
HETATM    3  C9  UNL     1     -33.170   6.172   1.425  1.00 20.00     0.365 C 
ENDROOT
BRANCH   3   4
HETATM    4  N11 UNL     1     -32.716   7.110   2.452  1.00 20.00     0.104 N 
BRANCH   4   5
HETATM    5  C8  UNL     1     -33.856   7.658   3.185  1.00 20.00     0.224 A 
HETATM    6  C5  UNL     1     -34.693   6.771   4.065  1.00 20.00     0.038 A 
HETATM    7  C6  UNL     1     -33.802   7.810   4.680  1.00 20.00     0.038 A 
ENDBRANCH   4   5
BRANCH   4   8
HETATM    8  C10 UNL     1     -31.930   8.186   1.849  1.00 20.00     0.278 C 
BRANCH   8   9
HETATM    9  C7  UNL     1     -32.727   8.932   0.834  1.00 20.00     0.014 A 
HETATM   10  C3  UNL     1     -32.661  10.433   0.772  1.00 20.00     0.007 A 
HETATM   11  C4  UNL     1     -32.041   9.607  -0.321  1.00 20.00     0.007 A 
ENDBRANCH   8   9
ENDBRANCH   4   8
ENDBRANCH   3   4
TORSDOF 4
ENDMDL
MODEL 4
REMARK VINA RESULT:      -1.1      0.842      3.948
REMARK  4 active torsions:
REMARK  status: ('A' for Active; 'I' for Inactive)
REMARK    1  A    between atoms: C7_7  and  C10_10 
REMARK    2  A    between atoms: C8_8  and  N11_11 
REMARK    3  A    between atoms: C9_9  and  N11_11 
REMARK    4  A    between atoms: C10_10  and  N11_11 
ROOT
HETATM    1  C1  UNL     1     -32.682   4.691   0.913  1.00 20.00     0.013 C 
HETATM    2  C2  UNL     1     -32.117   5.735   1.094  1.00 20.00    -0.087 C 
HETATM    3  C9  UNL     1     -31.422   7.005   1.313  1.00 20.00     0.365 C 
ENDROOT
BRANCH   3   4
HETATM    4  N11 UNL     1     -32.382   8.090   1.521  1.00 20.00     0.104 N 
BRANCH   4   5
HETATM    5  C8  UNL     1     -31.948   9.298   0.821  1.00 20.00     0.224 A 
HETATM    6  C5  UNL     1     -32.650   9.745  -0.432  1.00 20.00     0.038 A 
HETATM    7  C6  UNL     1     -32.801  10.536   0.835  1.00 20.00     0.038 A 
ENDBRANCH   4   5
BRANCH   4   8
HETATM    8  C10 UNL     1     -32.548   8.358   2.949  1.00 20.00     0.278 C 
BRANCH   8   9
HETATM    9  C7  UNL     1     -33.934   8.043   3.399  1.00 20.00     0.014 A 
HETATM   10  C3  UNL     1     -34.342   6.618   3.655  1.00 20.00     0.007 A 
HETATM   11  C4  UNL     1     -34.184   7.573   4.805  1.00 20.00     0.007 A 
ENDBRANCH   8   9
ENDBRANCH   4   8
ENDBRANCH   3   4
TORSDOF 4
ENDMDL
MODEL 5
REMARK VINA RESULT:      -0.6      1.951      3.286
REMARK  4 active torsions:
REMARK  status: ('A' for Active; 'I' for Inactive)
REMARK    1  A    between atoms: C7_7  and  C10_10 
REMARK    2  A    between atoms: C8_8  and  N11_11 
REMARK    3  A    between atoms: C9_9  and  N11_11 
REMARK    4  A    between atoms: C10_10  and  N11_11 
ROOT
HETATM    1  C1  UNL     1     -33.071   2.809   5.069  1.00 20.00     0.013 C 
HETATM    2  C2  UNL     1     -33.390   3.444   4.101  1.00 20.00    -0.087 C 
HETATM    3  C9  UNL     1     -33.782   4.214   2.919  1.00 20.00     0.365 C 
ENDROOT
BRANCH   3   4
HETATM    4  N11 UNL     1     -33.304   5.593   3.018  1.00 20.00     0.104 N 
BRANCH   4   5
HETATM    5  C8  UNL     1     -34.423   6.508   3.241  1.00 20.00     0.224 A 
HETATM    6  C5  UNL     1     -35.394   6.263   4.363  1.00 20.00     0.038 A 
HETATM    7  C6  UNL     1     -34.439   7.418   4.437  1.00 20.00     0.038 A 
ENDBRANCH   4   5
BRANCH   4   8
HETATM    8  C10 UNL     1     -32.569   5.968   1.811  1.00 20.00     0.278 C 
BRANCH   8   9
HETATM    9  C7  UNL     1     -32.609   7.442   1.592  1.00 20.00     0.014 A 
HETATM   10  C3  UNL     1     -31.547   8.326   2.186  1.00 20.00     0.007 A 
HETATM   11  C4  UNL     1     -31.595   8.103   0.700  1.00 20.00     0.007 A 
ENDBRANCH   8   9
ENDBRANCH   4   8
ENDBRANCH   3   4
TORSDOF 4
ENDMDL
MODEL 6
REMARK VINA RESULT:      -0.6      2.433      4.664
REMARK  4 active torsions:
REMARK  status: ('A' for Active; 'I' for Inactive)
REMARK    1  A    between atoms: C7_7  and  C10_10 
REMARK    2  A    between atoms: C8_8  and  N11_11 
REMARK    3  A    between atoms: C9_9  and  N11_11 
REMARK    4  A    between atoms: C10_10  and  N11_11 
ROOT
HETATM    1  C1  UNL     1     -33.780   8.499   5.001  1.00 20.00     0.013 C 
HETATM    2  C2  UNL     1     -34.154   7.505   4.442  1.00 20.00    -0.087 C 
HETATM    3  C9  UNL     1     -34.617   6.294   3.761  1.00 20.00     0.365 C 
ENDROOT
BRANCH   3   4
HETATM    4  N11 UNL     1     -33.492   5.575   3.164  1.00 20.00     0.104 N 
BRANCH   4   5
HETATM    5  C8  UNL     1     -33.213   6.086   1.822  1.00 20.00     0.224 A 
HETATM    6  C5  UNL     1     -32.039   6.994   1.582  1.00 20.00     0.038 A 
HETATM    7  C6  UNL     1     -32.023   5.591   1.048  1.00 20.00     0.038 A 
ENDBRANCH   4   5
BRANCH   4   8
HETATM    8  C10 UNL     1     -33.768   4.140   3.117  1.00 20.00     0.278 C 
BRANCH   8   9
HETATM    9  C7  UNL     1     -33.768   3.547   4.485  1.00 20.00     0.014 A 
HETATM   10  C3  UNL     1     -33.364   2.113   4.690  1.00 20.00     0.007 A 
HETATM   11  C4  UNL     1     -32.469   3.221   5.169  1.00 20.00     0.007 A 
ENDBRANCH   8   9
ENDBRANCH   4   8
ENDBRANCH   3   4
TORSDOF 4
ENDMDL
MODEL 7
REMARK VINA RESULT:      -0.6      0.847      4.159
REMARK  4 active torsions:
REMARK  status: ('A' for Active; 'I' for Inactive)
REMARK    1  A    between atoms: C7_7  and  C10_10 
REMARK    2  A    between atoms: C8_8  and  N11_11 
REMARK    3  A    between atoms: C9_9  and  N11_11 
REMARK    4  A    between atoms: C10_10  and  N11_11 
ROOT
HETATM    1  C1  UNL     1     -32.421   9.926   0.069  1.00 20.00     0.013 C 
HETATM    2  C2  UNL     1     -32.244   9.047   0.868  1.00 20.00    -0.087 C 
HETATM    3  C9  UNL     1     -32.023   7.979   1.844  1.00 20.00     0.365 C 
ENDROOT
BRANCH   3   4
HETATM    4  N11 UNL     1     -33.252   7.215   2.061  1.00 20.00     0.104 N 
BRANCH   4   5
HETATM    5  C8  UNL     1     -33.453   6.963   3.487  1.00 20.00     0.224 A 
HETATM    6  C5  UNL     1     -34.366   7.844   4.295  1.00 20.00     0.038 A 
HETATM    7  C6  UNL     1     -34.765   6.429   3.992  1.00 20.00     0.038 A 
ENDBRANCH   4   5
BRANCH   4   8
HETATM    8  C10 UNL     1     -33.208   5.955   1.320  1.00 20.00     0.278 C 
BRANCH   8   9
HETATM    9  C7  UNL     1     -31.805   5.565   1.001  1.00 20.00     0.014 A 
HETATM   10  C3  UNL     1     -31.170   4.387   1.686  1.00 20.00     0.007 A 
HETATM   11  C4  UNL     1     -31.526   4.306   0.228  1.00 20.00     0.007 A 
ENDBRANCH   8   9
ENDBRANCH   4   8
ENDBRANCH   3   4
TORSDOF 4
ENDMDL
MODEL 8
REMARK VINA RESULT:      -0.5      2.254      5.142
REMARK  4 active torsions:
REMARK  status: ('A' for Active; 'I' for Inactive)
REMARK    1  A    between atoms: C7_7  and  C10_10 
REMARK    2  A    between atoms: C8_8  and  N11_11 
REMARK    3  A    between atoms: C9_9  and  N11_11 
REMARK    4  A    between atoms: C10_10  and  N11_11 
ROOT
HETATM    1  C1  UNL     1     -31.674   8.155   1.720  1.00 20.00     0.013 C 
HETATM    2  C2  UNL     1     -32.190   7.079   1.583  1.00 20.00    -0.087 C 
HETATM    3  C9  UNL     1     -32.816   5.766   1.411  1.00 20.00     0.365 C 
ENDROOT
BRANCH   3   4
HETATM    4  N11 UNL     1     -33.693   5.460   2.540  1.00 20.00     0.104 N 
BRANCH   4   5
HETATM    5  C8  UNL     1     -34.400   6.663   2.979  1.00 20.00     0.224 A 
HETATM    6  C5  UNL     1     -35.516   6.565   3.983  1.00 20.00     0.038 A 
HETATM    7  C6  UNL     1     -34.211   7.194   4.373  1.00 20.00     0.038 A 
ENDBRANCH   4   5
BRANCH   4   8
HETATM    8  C10 UNL     1     -32.924   4.888   3.645  1.00 20.00     0.278 C 
BRANCH   8   9
HETATM    9  C7  UNL     1     -33.670   3.777   4.302  1.00 20.00     0.014 A 
HETATM   10  C3  UNL     1     -33.160   2.365   4.215  1.00 20.00     0.007 A 
HETATM   11  C4  UNL     1     -33.106   3.105   5.523  1.00 20.00     0.007 A 
ENDBRANCH   8   9
ENDBRANCH   4   8
ENDBRANCH   3   4
TORSDOF 4
ENDMDL
MODEL 9
REMARK VINA RESULT:      -0.5      0.884      4.021
REMARK  4 active torsions:
REMARK  status: ('A' for Active; 'I' for Inactive)
REMARK    1  A    between atoms: C7_7  and  C10_10 
REMARK    2  A    between atoms: C8_8  and  N11_11 
REMARK    3  A    between atoms: C9_9  and  N11_11 
REMARK    4  A    between atoms: C10_10  and  N11_11 
ROOT
HETATM    1  C1  UNL     1     -32.567  10.016  -0.388  1.00 20.00     0.013 C 
HETATM    2  C2  UNL     1     -32.461   9.550   0.714  1.00 20.00    -0.087 C 
HETATM    3  C9  UNL     1     -32.330   8.988   2.060  1.00 20.00     0.365 C 
ENDROOT
BRANCH   3   4
HETATM    4  N11 UNL     1     -32.809   7.606   2.091  1.00 20.00     0.104 N 
BRANCH   4   5
HETATM    5  C8  UNL     1     -33.173   7.221   3.454  1.00 20.00     0.224 A 
HETATM    6  C5  UNL     1     -34.251   7.966   4.192  1.00 20.00     0.038 A 
HETATM    7  C6  UNL     1     -34.492   6.557   3.734  1.00 20.00     0.038 A 
ENDBRANCH   4   5
BRANCH   4   8
HETATM    8  C10 UNL     1     -31.792   6.700   1.558  1.00 20.00     0.278 C 
BRANCH   8   9
HETATM    9  C7  UNL     1     -32.311   5.305   1.462  1.00 20.00     0.014 A 
HETATM   10  C3  UNL     1     -33.303   4.938   0.394  1.00 20.00     0.007 A 
HETATM   11  C4  UNL     1     -31.894   4.420   0.320  1.00 20.00     0.007 A 
ENDBRANCH   8   9
ENDBRANCH   4   8
ENDBRANCH   3   4
TORSDOF 4
ENDMDL
