MODEL 1
REMARK VINA RESULT:      -1.6      0.000      0.000
REMARK  3 active torsions:
REMARK  status: ('A' for Active; 'I' for Inactive)
REMARK    1  A    between atoms: C4_4  and  C5_5 
REMARK    2  A    between atoms: C4_4  and  C6_6 
REMARK    3  A    between atoms: C5_5  and  C7_7 
ROOT
HETATM    1  C5  UNL     1     -33.426   6.746   2.294  1.00 20.00     0.009 C 
ENDROOT
BRANCH   1   2
HETATM    2  C4  UNL     1     -32.383   7.866   2.404  1.00 20.00     0.016 C 
BRANCH   2   3
HETATM    3  C6  UNL     1     -31.835   8.230   1.028  1.00 20.00     0.114 C 
HETATM    4 CL8  UNL     1     -32.478   9.803   0.500  1.00 20.00    -0.130 Cl
ENDBRANCH   2   3
ENDBRANCH   1   2
BRANCH   1   5
HETATM    5  C7  UNL     1     -34.322   6.532   3.543  1.00 20.00    -0.051 C 
HETATM    6  C1  UNL     1     -35.804   6.768   3.213  1.00 20.00     0.014 C 
HETATM    7  C2  UNL     1     -34.149   5.115   4.117  1.00 20.00     0.014 C 
HETATM    8  C3  UNL     1     -33.894   7.549   4.620  1.00 20.00     0.014 C 
ENDBRANCH   1   5
TORSDOF 3
ENDMDL
MODEL 2
REMARK VINA RESULT:      -1.5      0.063      1.533
REMARK  3 active torsions:
REMARK  status: ('A' for Active; 'I' for Inactive)
REMARK    1  A    between atoms: C4_4  and  C5_5 
REMARK    2  A    between atoms: C4_4  and  C6_6 
REMARK    3  A    between atoms: C5_5  and  C7_7 
ROOT
HETATM    1  C5  UNL     1     -33.393   6.770   2.283  1.00 20.00     0.009 C 
ENDROOT
BRANCH   1   2
HETATM    2  C4  UNL     1     -32.344   7.887   2.356  1.00 20.00     0.016 C 
BRANCH   2   3
HETATM    3  C6  UNL     1     -31.854   8.259   0.960  1.00 20.00     0.114 C 
HETATM    4 CL8  UNL     1     -32.487   9.853   0.485  1.00 20.00    -0.130 Cl
ENDBRANCH   2   3
ENDBRANCH   1   2
BRANCH   1   5
HETATM    5  C7  UNL     1     -34.285   6.597   3.541  1.00 20.00    -0.051 C 
HETATM    6  C1  UNL     1     -33.881   7.582   4.650  1.00 20.00     0.014 C 
HETATM    7  C2  UNL     1     -35.771   6.796   3.203  1.00 20.00     0.014 C 
HETATM    8  C3  UNL     1     -34.094   5.161   4.071  1.00 20.00     0.014 C 
ENDBRANCH   1   5
TORSDOF 3
ENDMDL
MODEL 3
REMARK VINA RESULT:      -1.5      0.068      1.521
REMARK  3 active torsions:
REMARK  status: ('A' for Active; 'I' for Inactive)
REMARK    1  A    between atoms: C4_4  and  C5_5 
REMARK    2  A    between atoms: C4_4  and  C6_6 
REMARK    3  A    between atoms: C5_5  and  C7_7 
ROOT
HETATM    1  C5  UNL     1     -33.406   6.731   2.333  1.00 20.00     0.009 C 
ENDROOT
BRANCH   1   2
HETATM    2  C4  UNL     1     -32.399   7.888   2.388  1.00 20.00     0.016 C 
BRANCH   2   3
HETATM    3  C6  UNL     1     -31.889   8.226   0.991  1.00 20.00     0.114 C 
HETATM    4 CL8  UNL     1     -32.468   9.833   0.490  1.00 20.00    -0.130 Cl
ENDBRANCH   2   3
ENDBRANCH   1   2
BRANCH   1   5
HETATM    5  C7  UNL     1     -34.314   6.566   3.580  1.00 20.00    -0.051 C 
HETATM    6  C1  UNL     1     -34.238   5.136   4.140  1.00 20.00     0.014 C 
HETATM    7  C2  UNL     1     -33.930   7.564   4.685  1.00 20.00     0.014 C 
HETATM    8  C3  UNL     1     -35.769   6.846   3.155  1.00 20.00     0.014 C 
ENDBRANCH   1   5
TORSDOF 3
ENDMDL
MODEL 4
REMARK VINA RESULT:      -1.2      2.541      4.150
REMARK  3 active torsions:
REMARK  status: ('A' for Active; 'I' for Inactive)
REMARK    1  A    between atoms: C4_4  and  C5_5 
REMARK    2  A    between atoms: C4_4  and  C6_6 
REMARK    3  A    between atoms: C5_5  and  C7_7 
ROOT
HETATM    1  C5  UNL     1     -33.854   7.861   2.551  1.00 20.00     0.009 C 
ENDROOT
BRANCH   1   2
HETATM    2  C4  UNL     1     -34.025   7.301   3.970  1.00 20.00     0.016 C 
BRANCH   2   3
HETATM    3  C6  UNL     1     -35.108   6.228   3.999  1.00 20.00     0.114 C 
HETATM    4 CL8  UNL     1     -34.377   4.609   4.098  1.00 20.00    -0.130 Cl
ENDBRANCH   2   3
ENDBRANCH   1   2
BRANCH   1   5
HETATM    5  C7  UNL     1     -32.396   7.939   2.027  1.00 20.00    -0.051 C 
HETATM    6  C1  UNL     1     -32.282   8.905   0.836  1.00 20.00     0.014 C 
HETATM    7  C2  UNL     1     -31.428   8.385   3.135  1.00 20.00     0.014 C 
HETATM    8  C3  UNL     1     -31.980   6.531   1.554  1.00 20.00     0.014 C 
ENDBRANCH   1   5
TORSDOF 3
ENDMDL
MODEL 5
REMARK VINA RESULT:      -1.2      2.540      4.135
REMARK  3 active torsions:
REMARK  status: ('A' for Active; 'I' for Inactive)
REMARK    1  A    between atoms: C4_4  and  C5_5 
REMARK    2  A    between atoms: C4_4  and  C6_6 
REMARK    3  A    between atoms: C5_5  and  C7_7 
ROOT
HETATM    1  C5  UNL     1     -33.845   7.919   2.584  1.00 20.00     0.009 C 
ENDROOT
BRANCH   1   2
HETATM    2  C4  UNL     1     -34.012   7.311   3.984  1.00 20.00     0.016 C 
BRANCH   2   3
HETATM    3  C6  UNL     1     -35.103   6.246   3.983  1.00 20.00     0.114 C 
HETATM    4 CL8  UNL     1     -34.386   4.622   4.098  1.00 20.00    -0.130 Cl
ENDBRANCH   2   3
ENDBRANCH   1   2
BRANCH   1   5
HETATM    5  C7  UNL     1     -32.400   7.926   2.018  1.00 20.00    -0.051 C 
HETATM    6  C1  UNL     1     -31.974   6.521   1.561  1.00 20.00     0.014 C 
HETATM    7  C2  UNL     1     -32.268   8.905   0.840  1.00 20.00     0.014 C 
HETATM    8  C3  UNL     1     -31.448   8.383   3.141  1.00 20.00     0.014 C 
ENDBRANCH   1   5
TORSDOF 3
ENDMDL
MODEL 6
REMARK VINA RESULT:      -1.1      2.526      4.129
REMARK  3 active torsions:
REMARK  status: ('A' for Active; 'I' for Inactive)
REMARK    1  A    between atoms: C4_4  and  C5_5 
REMARK    2  A    between atoms: C4_4  and  C6_6 
REMARK    3  A    between atoms: C5_5  and  C7_7 
ROOT
HETATM    1  C5  UNL     1     -33.770   7.916   2.595  1.00 20.00     0.009 C 
ENDROOT
BRANCH   1   2
HETATM    2  C4  UNL     1     -33.871   7.326   4.008  1.00 20.00     0.016 C 
BRANCH   2   3
HETATM    3  C6  UNL     1     -34.971   6.272   4.075  1.00 20.00     0.114 C 
HETATM    4 CL8  UNL     1     -34.266   4.638   4.082  1.00 20.00    -0.130 Cl
ENDBRANCH   2   3
ENDBRANCH   1   2
BRANCH   1   5
HETATM    5  C7  UNL     1     -32.355   7.905   1.958  1.00 20.00    -0.051 C 
HETATM    6  C1  UNL     1     -31.291   8.387   2.957  1.00 20.00     0.014 C 
HETATM    7  C2  UNL     1     -31.980   6.500   1.457  1.00 20.00     0.014 C 
HETATM    8  C3  UNL     1     -32.364   8.866   0.752  1.00 20.00     0.014 C 
ENDBRANCH   1   5
TORSDOF 3
ENDMDL
MODEL 7
REMARK VINA RESULT:      -1.0      2.756      4.186
REMARK  3 active torsions:
REMARK  status: ('A' for Active; 'I' for Inactive)
REMARK    1  A    between atoms: C4_4  and  C5_5 
REMARK    2  A    between atoms: C4_4  and  C6_6 
REMARK    3  A    between atoms: C5_5  and  C7_7 
ROOT
HETATM    1  C5  UNL     1     -33.186   6.486   3.325  1.00 20.00     0.009 C 
ENDROOT
BRANCH   1   2
HETATM    2  C4  UNL     1     -34.690   6.666   3.568  1.00 20.00     0.016 C 
BRANCH   2   3
HETATM    3  C6  UNL     1     -35.272   5.447   4.276  1.00 20.00     0.114 C 
HETATM    4 CL8  UNL     1     -34.124   4.089   4.217  1.00 20.00    -0.130 Cl
ENDBRANCH   2   3
ENDBRANCH   1   2
BRANCH   1   5
HETATM    5  C7  UNL     1     -32.732   6.517   1.841  1.00 20.00    -0.051 C 
HETATM    6  C1  UNL     1     -31.744   5.380   1.536  1.00 20.00     0.014 C 
HETATM    7  C2  UNL     1     -33.935   6.412   0.889  1.00 20.00     0.014 C 
HETATM    8  C3  UNL     1     -32.023   7.862   1.584  1.00 20.00     0.014 C 
ENDBRANCH   1   5
TORSDOF 3
ENDMDL
MODEL 8
REMARK VINA RESULT:      -1.0      2.771      4.215
REMARK  3 active torsions:
REMARK  status: ('A' for Active; 'I' for Inactive)
REMARK    1  A    between atoms: C4_4  and  C5_5 
REMARK    2  A    between atoms: C4_4  and  C6_6 
REMARK    3  A    between atoms: C5_5  and  C7_7 
ROOT
HETATM    1  C5  UNL     1     -33.207   6.433   3.315  1.00 20.00     0.009 C 
ENDROOT
BRANCH   1   2
HETATM    2  C4  UNL     1     -34.717   6.549   3.565  1.00 20.00     0.016 C 
BRANCH   2   3
HETATM    3  C6  UNL     1     -35.235   5.325   4.313  1.00 20.00     0.114 C 
HETATM    4 CL8  UNL     1     -34.062   3.990   4.206  1.00 20.00    -0.130 Cl
ENDBRANCH   2   3
ENDBRANCH   1   2
BRANCH   1   5
HETATM    5  C7  UNL     1     -32.759   6.524   1.832  1.00 20.00    -0.051 C 
HETATM    6  C1  UNL     1     -33.951   6.349   0.877  1.00 20.00     0.014 C 
HETATM    7  C2  UNL     1     -32.069   7.867   1.540  1.00 20.00     0.014 C 
HETATM    8  C3  UNL     1     -31.749   5.390   1.565  1.00 20.00     0.014 C 
ENDBRANCH   1   5
TORSDOF 3
ENDMDL
MODEL 9
REMARK VINA RESULT:      -1.0      2.754      4.180
REMARK  3 active torsions:
REMARK  status: ('A' for Active; 'I' for Inactive)
REMARK    1  A    between atoms: C4_4  and  C5_5 
REMARK    2  A    between atoms: C4_4  and  C6_6 
REMARK    3  A    between atoms: C5_5  and  C7_7 
ROOT
HETATM    1  C5  UNL     1     -33.168   6.480   3.350  1.00 20.00     0.009 C 
ENDROOT
BRANCH   1   2
HETATM    2  C4  UNL     1     -34.673   6.675   3.578  1.00 20.00     0.016 C 
BRANCH   2   3
HETATM    3  C6  UNL     1     -35.272   5.465   4.288  1.00 20.00     0.114 C 
HETATM    4 CL8  UNL     1     -34.137   4.096   4.245  1.00 20.00    -0.130 Cl
ENDBRANCH   2   3
ENDBRANCH   1   2
BRANCH   1   5
HETATM    5  C7  UNL     1     -32.692   6.567   1.875  1.00 20.00    -0.051 C 
HETATM    6  C1  UNL     1     -31.993   7.908   1.594  1.00 20.00     0.014 C 
HETATM    7  C2  UNL     1     -31.734   5.414   1.530  1.00 20.00     0.014 C 
HETATM    8  C3  UNL     1     -33.931   6.462   0.964  1.00 20.00     0.014 C 
ENDBRANCH   1   5
TORSDOF 3
ENDMDL
