MODEL 1
REMARK VINA RESULT:       0.4      0.000      0.000
REMARK  1 active torsions:
REMARK  status: ('A' for Active; 'I' for Inactive)
REMARK    1  A    between atoms: C8_8  and  N10_10 
ROOT
HETATM    1  C1  UNL     1     -32.037   8.324   1.622  1.00 20.00     0.177 C 
HETATM    2  N9  UNL     1     -31.550   8.286   0.569  1.00 20.00    -0.172 NA
HETATM    3  N10 UNL     1     -32.603   8.371   2.841  1.00 20.00    -0.324 N 
HETATM    4  H22 UNL     1     -33.116   9.211   3.139  1.00 20.00     0.172 HD
ENDROOT
BRANCH   3   5
HETATM    5  C8  UNL     1     -33.014   7.169   3.598  1.00 20.00     0.096 C 
HETATM    6  C5  UNL     1     -34.166   7.496   4.567  1.00 20.00     0.031 C 
HETATM    7  C6  UNL     1     -35.292   6.556   4.092  1.00 20.00    -0.012 C 
HETATM    8  C2  UNL     1     -34.911   5.104   4.432  1.00 20.00     0.005 C 
HETATM    9  C4  UNL     1     -35.105   6.582   2.577  1.00 20.00     0.011 C 
HETATM   10  C3  UNL     1     -33.788   4.799   3.429  1.00 20.00     0.007 C 
HETATM   11  C7  UNL     1     -33.646   6.122   2.656  1.00 20.00     0.009 C 
ENDBRANCH   3   5
TORSDOF 1
ENDMDL
MODEL 2
REMARK VINA RESULT:       0.5      1.096      1.926
REMARK  1 active torsions:
REMARK  status: ('A' for Active; 'I' for Inactive)
REMARK    1  A    between atoms: C8_8  and  N10_10 
ROOT
HETATM    1  C1  UNL     1     -32.244   8.782   1.016  1.00 20.00     0.177 C 
HETATM    2  N9  UNL     1     -32.245   9.764   0.397  1.00 20.00    -0.172 NA
HETATM    3  N10 UNL     1     -32.239   7.645   1.734  1.00 20.00    -0.324 N 
HETATM    4  H22 UNL     1     -31.457   7.441   2.370  1.00 20.00     0.172 HD
ENDROOT
BRANCH   3   5
HETATM    5  C8  UNL     1     -33.467   6.908   2.105  1.00 20.00     0.096 C 
HETATM    6  C5  UNL     1     -33.121   5.569   2.784  1.00 20.00     0.031 C 
HETATM    7  C6  UNL     1     -33.788   5.702   4.167  1.00 20.00    -0.012 C 
HETATM    8  C2  UNL     1     -35.316   5.656   3.993  1.00 20.00     0.005 C 
HETATM    9  C4  UNL     1     -33.555   7.176   4.488  1.00 20.00     0.011 C 
HETATM   10  C3  UNL     1     -35.632   7.014   3.348  1.00 20.00     0.007 C 
HETATM   11  C7  UNL     1     -34.242   7.660   3.207  1.00 20.00     0.009 C 
ENDBRANCH   3   5
TORSDOF 1
ENDMDL
MODEL 3
REMARK VINA RESULT:       0.9      1.229      1.512
REMARK  1 active torsions:
REMARK  status: ('A' for Active; 'I' for Inactive)
REMARK    1  A    between atoms: C8_8  and  N10_10 
ROOT
HETATM    1  C1  UNL     1     -32.463   9.422   0.635  1.00 20.00     0.177 C 
HETATM    2  N9  UNL     1     -32.528   9.689  -0.493  1.00 20.00    -0.172 NA
HETATM    3  N10 UNL     1     -32.388   9.115   1.942  1.00 20.00    -0.324 N 
HETATM    4  H22 UNL     1     -32.760   9.766   2.646  1.00 20.00     0.172 HD
ENDROOT
BRANCH   3   5
HETATM    5  C8  UNL     1     -32.304   7.730   2.453  1.00 20.00     0.096 C 
HETATM    6  C5  UNL     1     -32.985   7.608   3.829  1.00 20.00     0.031 C 
HETATM    7  C6  UNL     1     -34.085   6.559   3.576  1.00 20.00    -0.012 C 
HETATM    8  C2  UNL     1     -33.426   5.185   3.356  1.00 20.00     0.005 C 
HETATM    9  C4  UNL     1     -34.542   6.915   2.164  1.00 20.00     0.011 C 
HETATM   10  C3  UNL     1     -32.788   5.327   1.966  1.00 20.00     0.007 C 
HETATM   11  C7  UNL     1     -33.137   6.774   1.573  1.00 20.00     0.009 C 
ENDBRANCH   3   5
TORSDOF 1
ENDMDL
MODEL 4
REMARK VINA RESULT:       1.2      2.716      4.254
REMARK  1 active torsions:
REMARK  status: ('A' for Active; 'I' for Inactive)
REMARK    1  A    between atoms: C8_8  and  N10_10 
ROOT
HETATM    1  C1  UNL     1     -33.577   3.330   4.310  1.00 20.00     0.177 C 
HETATM    2  N9  UNL     1     -33.256   2.350   4.842  1.00 20.00    -0.172 NA
HETATM    3  N10 UNL     1     -33.952   4.465   3.695  1.00 20.00    -0.324 N 
HETATM    4  H22 UNL     1     -34.927   4.787   3.758  1.00 20.00     0.172 HD
ENDROOT
BRANCH   3   5
HETATM    5  C8  UNL     1     -33.020   5.568   3.375  1.00 20.00     0.096 C 
HETATM    6  C5  UNL     1     -32.148   5.215   2.156  1.00 20.00     0.031 C 
HETATM    7  C6  UNL     1     -32.492   6.333   1.152  1.00 20.00    -0.012 C 
HETATM    8  C2  UNL     1     -31.911   7.663   1.663  1.00 20.00     0.005 C 
HETATM    9  C4  UNL     1     -33.986   6.529   1.400  1.00 20.00     0.011 C 
HETATM   10  C3  UNL     1     -32.821   8.004   2.853  1.00 20.00     0.007 C 
HETATM   11  C7  UNL     1     -33.795   6.812   2.893  1.00 20.00     0.009 C 
ENDBRANCH   3   5
TORSDOF 1
ENDMDL
MODEL 5
REMARK VINA RESULT:       1.2      2.601      3.843
REMARK  1 active torsions:
REMARK  status: ('A' for Active; 'I' for Inactive)
REMARK    1  A    between atoms: C8_8  and  N10_10 
ROOT
HETATM    1  C1  UNL     1     -33.741   3.605   4.564  1.00 20.00     0.177 C 
HETATM    2  N9  UNL     1     -32.975   2.753   4.749  1.00 20.00    -0.172 NA
HETATM    3  N10 UNL     1     -34.631   4.591   4.354  1.00 20.00    -0.324 N 
HETATM    4  H22 UNL     1     -35.267   4.880   5.108  1.00 20.00     0.172 HD
ENDROOT
BRANCH   3   5
HETATM    5  C8  UNL     1     -34.450   5.651   3.338  1.00 20.00     0.096 C 
HETATM    6  C5  UNL     1     -35.277   6.901   3.695  1.00 20.00     0.031 C 
HETATM    7  C6  UNL     1     -34.204   8.000   3.820  1.00 20.00    -0.012 C 
HETATM    8  C2  UNL     1     -33.635   8.306   2.423  1.00 20.00     0.005 C 
HETATM    9  C4  UNL     1     -33.049   7.239   4.467  1.00 20.00     0.011 C 
HETATM   10  C3  UNL     1     -32.791   7.061   2.113  1.00 20.00     0.007 C 
HETATM   11  C7  UNL     1     -33.002   6.183   3.359  1.00 20.00     0.009 C 
ENDBRANCH   3   5
TORSDOF 1
ENDMDL
MODEL 6
REMARK VINA RESULT:       1.3      2.204      3.961
REMARK  1 active torsions:
REMARK  status: ('A' for Active; 'I' for Inactive)
REMARK    1  A    between atoms: C8_8  and  N10_10 
ROOT
HETATM    1  C1  UNL     1     -35.291   5.744   4.341  1.00 20.00     0.177 C 
HETATM    2  N9  UNL     1     -35.775   4.802   4.815  1.00 20.00    -0.172 NA
HETATM    3  N10 UNL     1     -34.734   6.839   3.794  1.00 20.00    -0.324 N 
HETATM    4  H22 UNL     1     -35.094   7.773   4.029  1.00 20.00     0.172 HD
ENDROOT
BRANCH   3   5
HETATM    5  C8  UNL     1     -33.340   6.886   3.302  1.00 20.00     0.096 C 
HETATM    6  C5  UNL     1     -32.893   5.508   2.780  1.00 20.00     0.031 C 
HETATM    7  C6  UNL     1     -32.538   5.795   1.308  1.00 20.00    -0.012 C 
HETATM    8  C2  UNL     1     -31.261   6.653   1.258  1.00 20.00     0.005 C 
HETATM    9  C4  UNL     1     -33.610   6.809   0.918  1.00 20.00     0.011 C 
HETATM   10  C3  UNL     1     -31.746   8.025   1.749  1.00 20.00     0.007 C 
HETATM   11  C7  UNL     1     -33.236   7.777   2.046  1.00 20.00     0.009 C 
ENDBRANCH   3   5
TORSDOF 1
ENDMDL
MODEL 7
REMARK VINA RESULT:       1.5      2.069      4.092
REMARK  1 active torsions:
REMARK  status: ('A' for Active; 'I' for Inactive)
REMARK    1  A    between atoms: C8_8  and  N10_10 
ROOT
HETATM    1  C1  UNL     1     -33.882   4.749   3.525  1.00 20.00     0.177 C 
HETATM    2  N9  UNL     1     -34.548   4.323   4.374  1.00 20.00    -0.172 NA
HETATM    3  N10 UNL     1     -33.108   5.238   2.539  1.00 20.00    -0.324 N 
HETATM    4  H22 UNL     1     -32.611   4.596   1.908  1.00 20.00     0.172 HD
ENDROOT
BRANCH   3   5
HETATM    5  C8  UNL     1     -33.301   6.575   1.937  1.00 20.00     0.096 C 
HETATM    6  C5  UNL     1     -33.521   7.642   3.026  1.00 20.00     0.031 C 
HETATM    7  C6  UNL     1     -32.357   8.624   2.785  1.00 20.00    -0.012 C 
HETATM    8  C2  UNL     1     -32.598   9.374   1.463  1.00 20.00     0.005 C 
HETATM    9  C4  UNL     1     -31.221   7.678   2.404  1.00 20.00     0.011 C 
HETATM   10  C3  UNL     1     -32.338   8.295   0.401  1.00 20.00     0.007 C 
HETATM   11  C7  UNL     1     -32.006   7.053   1.247  1.00 20.00     0.009 C 
ENDBRANCH   3   5
TORSDOF 1
ENDMDL
MODEL 8
REMARK VINA RESULT:       1.6      2.222      3.831
REMARK  1 active torsions:
REMARK  status: ('A' for Active; 'I' for Inactive)
REMARK    1  A    between atoms: C8_8  and  N10_10 
ROOT
HETATM    1  C1  UNL     1     -34.129   4.630   4.050  1.00 20.00     0.177 C 
HETATM    2  N9  UNL     1     -33.819   3.512   4.082  1.00 20.00    -0.172 NA
HETATM    3  N10 UNL     1     -34.490   5.925   4.018  1.00 20.00    -0.324 N 
HETATM    4  H22 UNL     1     -34.677   6.429   4.895  1.00 20.00     0.172 HD
ENDROOT
BRANCH   3   5
HETATM    5  C8  UNL     1     -34.148   6.841   2.909  1.00 20.00     0.096 C 
HETATM    6  C5  UNL     1     -33.173   7.936   3.380  1.00 20.00     0.031 C 
HETATM    7  C6  UNL     1     -31.948   7.721   2.469  1.00 20.00    -0.012 C 
HETATM    8  C2  UNL     1     -32.315   8.131   1.031  1.00 20.00     0.005 C 
HETATM    9  C4  UNL     1     -31.903   6.199   2.356  1.00 20.00     0.011 C 
HETATM   10  C3  UNL     1     -33.257   7.006   0.580  1.00 20.00     0.007 C 
HETATM   11  C7  UNL     1     -33.336   6.103   1.824  1.00 20.00     0.009 C 
ENDBRANCH   3   5
TORSDOF 1
ENDMDL
MODEL 9
REMARK VINA RESULT:       1.7      2.030      4.118
REMARK  1 active torsions:
REMARK  status: ('A' for Active; 'I' for Inactive)
REMARK    1  A    between atoms: C8_8  and  N10_10 
ROOT
HETATM    1  C1  UNL     1     -35.142   5.871   4.194  1.00 20.00     0.177 C 
HETATM    2  N9  UNL     1     -35.659   4.931   4.636  1.00 20.00    -0.172 NA
HETATM    3  N10 UNL     1     -34.547   6.963   3.683  1.00 20.00    -0.324 N 
HETATM    4  H22 UNL     1     -34.920   7.899   3.892  1.00 20.00     0.172 HD
ENDROOT
BRANCH   3   5
HETATM    5  C8  UNL     1     -33.123   7.006   3.284  1.00 20.00     0.096 C 
HETATM    6  C5  UNL     1     -32.891   6.212   1.985  1.00 20.00     0.031 C 
HETATM    7  C6  UNL     1     -32.326   7.277   1.026  1.00 20.00    -0.012 C 
HETATM    8  C2  UNL     1     -30.911   7.670   1.489  1.00 20.00     0.005 C 
HETATM    9  C4  UNL     1     -33.135   8.512   1.415  1.00 20.00     0.011 C 
HETATM   10  C3  UNL     1     -31.179   8.488   2.762  1.00 20.00     0.007 C 
HETATM   11  C7  UNL     1     -32.713   8.440   2.885  1.00 20.00     0.009 C 
ENDBRANCH   3   5
TORSDOF 1
ENDMDL
