MODEL 1
REMARK VINA RESULT:      -1.9      0.000      0.000
REMARK  3 active torsions:
REMARK  status: ('A' for Active; 'I' for Inactive)
REMARK    1  A    between atoms: C4_4  and  C6_6 
REMARK    2  A    between atoms: C5_5  and  C6_6 
REMARK    3  A    between atoms: C5_5  and  O8_8 
ROOT
HETATM    1  C1  UNL     1     -32.914   6.225   1.894  1.00 20.00     0.066 C 
HETATM    2  C6  UNL     1     -32.793   7.226   2.978  1.00 20.00     0.116 C 
HETATM    3  N7  UNL     1     -33.006   5.440   1.046  1.00 20.00    -0.197 NA
ENDROOT
BRANCH   2   4
HETATM    4  C4  UNL     1     -34.168   7.537   3.588  1.00 20.00     0.017 C 
HETATM    5  C2  UNL     1     -34.972   6.286   3.923  1.00 20.00     0.006 C 
ENDBRANCH   2   4
BRANCH   2   6
HETATM    6  C5  UNL     1     -32.157   8.508   2.428  1.00 20.00     0.186 C 
BRANCH   6   7
HETATM    7  O8  UNL     1     -32.104   8.443   1.007  1.00 20.00    -0.395 OA
HETATM    8  C3  UNL     1     -32.409   9.699   0.418  1.00 20.00     0.201 C 
ENDBRANCH   6   7
ENDBRANCH   2   6
TORSDOF 3
ENDMDL
MODEL 2
REMARK VINA RESULT:      -1.9      2.201      3.612
REMARK  3 active torsions:
REMARK  status: ('A' for Active; 'I' for Inactive)
REMARK    1  A    between atoms: C4_4  and  C6_6 
REMARK    2  A    between atoms: C5_5  and  C6_6 
REMARK    3  A    between atoms: C5_5  and  O8_8 
ROOT
HETATM    1  C1  UNL     1     -32.281   8.495   1.248  1.00 20.00     0.066 C 
HETATM    2  C6  UNL     1     -32.328   7.262   2.064  1.00 20.00     0.116 C 
HETATM    3  N7  UNL     1     -32.243   9.463   0.610  1.00 20.00    -0.197 NA
ENDROOT
BRANCH   2   4
HETATM    4  C4  UNL     1     -32.714   6.051   1.200  1.00 20.00     0.017 C 
HETATM    5  C2  UNL     1     -31.625   4.986   1.140  1.00 20.00     0.006 C 
ENDBRANCH   2   4
BRANCH   2   6
HETATM    6  C5  UNL     1     -33.334   7.436   3.208  1.00 20.00     0.186 C 
BRANCH   6   7
HETATM    7  O8  UNL     1     -34.048   6.220   3.405  1.00 20.00    -0.395 OA
HETATM    8  C3  UNL     1     -35.291   6.447   4.054  1.00 20.00     0.201 C 
ENDBRANCH   6   7
ENDBRANCH   2   6
TORSDOF 3
ENDMDL
MODEL 3
REMARK VINA RESULT:      -1.9      1.599      3.440
REMARK  3 active torsions:
REMARK  status: ('A' for Active; 'I' for Inactive)
REMARK    1  A    between atoms: C4_4  and  C6_6 
REMARK    2  A    between atoms: C5_5  and  C6_6 
REMARK    3  A    between atoms: C5_5  and  O8_8 
ROOT
HETATM    1  C1  UNL     1     -32.423   6.000   1.449  1.00 20.00     0.066 C 
HETATM    2  C6  UNL     1     -32.954   7.329   1.826  1.00 20.00     0.116 C 
HETATM    3  N7  UNL     1     -32.008   4.958   1.153  1.00 20.00    -0.197 NA
ENDROOT
BRANCH   2   4
HETATM    4  C4  UNL     1     -31.894   8.421   1.610  1.00 20.00     0.017 C 
HETATM    5  C2  UNL     1     -32.300   9.450   0.561  1.00 20.00     0.006 C 
ENDBRANCH   2   4
BRANCH   2   6
HETATM    6  C5  UNL     1     -33.402   7.310   3.292  1.00 20.00     0.186 C 
BRANCH   6   7
HETATM    7  O8  UNL     1     -34.062   6.080   3.573  1.00 20.00    -0.395 OA
HETATM    8  C3  UNL     1     -35.391   6.295   4.024  1.00 20.00     0.201 C 
ENDBRANCH   6   7
ENDBRANCH   2   6
TORSDOF 3
ENDMDL
MODEL 4
REMARK VINA RESULT:      -1.8      2.005      2.519
REMARK  3 active torsions:
REMARK  status: ('A' for Active; 'I' for Inactive)
REMARK    1  A    between atoms: C4_4  and  C6_6 
REMARK    2  A    between atoms: C5_5  and  C6_6 
REMARK    3  A    between atoms: C5_5  and  O8_8 
ROOT
HETATM    1  C1  UNL     1     -33.695   4.400   3.853  1.00 20.00     0.066 C 
HETATM    2  C6  UNL     1     -33.457   5.769   3.344  1.00 20.00     0.116 C 
HETATM    3  N7  UNL     1     -33.879   3.326   4.252  1.00 20.00    -0.197 NA
ENDROOT
BRANCH   2   4
HETATM    4  C4  UNL     1     -34.638   6.691   3.688  1.00 20.00     0.017 C 
HETATM    5  C2  UNL     1     -34.214   7.958   4.423  1.00 20.00     0.006 C 
ENDBRANCH   2   4
BRANCH   2   6
HETATM    6  C5  UNL     1     -33.245   5.727   1.826  1.00 20.00     0.186 C 
BRANCH   6   7
HETATM    7  O8  UNL     1     -31.956   6.242   1.510  1.00 20.00    -0.395 OA
HETATM    8  C3  UNL     1     -31.925   7.659   1.606  1.00 20.00     0.201 C 
ENDBRANCH   6   7
ENDBRANCH   2   6
TORSDOF 3
ENDMDL
MODEL 5
REMARK VINA RESULT:      -1.8      2.721      3.948
REMARK  3 active torsions:
REMARK  status: ('A' for Active; 'I' for Inactive)
REMARK    1  A    between atoms: C4_4  and  C6_6 
REMARK    2  A    between atoms: C5_5  and  C6_6 
REMARK    3  A    between atoms: C5_5  and  O8_8 
ROOT
HETATM    1  C1  UNL     1     -32.818   7.051   2.150  1.00 20.00     0.066 C 
HETATM    2  C6  UNL     1     -33.830   6.092   2.647  1.00 20.00     0.116 C 
HETATM    3  N7  UNL     1     -32.026   7.802   1.758  1.00 20.00    -0.197 NA
ENDROOT
BRANCH   2   4
HETATM    4  C4  UNL     1     -34.648   6.708   3.794  1.00 20.00     0.017 C 
HETATM    5  C2  UNL     1     -33.915   7.835   4.513  1.00 20.00     0.006 C 
ENDBRANCH   2   4
BRANCH   2   6
HETATM    6  C5  UNL     1     -33.137   4.810   3.123  1.00 20.00     0.186 C 
BRANCH   6   7
HETATM    7  O8  UNL     1     -33.993   4.110   4.020  1.00 20.00    -0.395 OA
HETATM    8  C3  UNL     1     -33.302   3.062   4.685  1.00 20.00     0.201 C 
ENDBRANCH   6   7
ENDBRANCH   2   6
TORSDOF 3
ENDMDL
MODEL 6
REMARK VINA RESULT:      -1.7      1.638      2.476
REMARK  3 active torsions:
REMARK  status: ('A' for Active; 'I' for Inactive)
REMARK    1  A    between atoms: C4_4  and  C6_6 
REMARK    2  A    between atoms: C5_5  and  C6_6 
REMARK    3  A    between atoms: C5_5  and  O8_8 
ROOT
HETATM    1  C1  UNL     1     -33.645   7.240   3.112  1.00 20.00     0.066 C 
HETATM    2  C6  UNL     1     -32.891   7.145   1.842  1.00 20.00     0.116 C 
HETATM    3  N7  UNL     1     -34.237   7.314   4.107  1.00 20.00    -0.197 NA
ENDROOT
BRANCH   2   4
HETATM    4  C4  UNL     1     -32.104   5.827   1.772  1.00 20.00     0.017 C 
HETATM    5  C2  UNL     1     -32.568   4.913   0.643  1.00 20.00     0.006 C 
ENDBRANCH   2   4
BRANCH   2   6
HETATM    6  C5  UNL     1     -31.935   8.338   1.719  1.00 20.00     0.186 C 
BRANCH   6   7
HETATM    7  O8  UNL     1     -32.010   8.875   0.403  1.00 20.00    -0.395 OA
HETATM    8  C3  UNL     1     -32.551  10.189   0.409  1.00 20.00     0.201 C 
ENDBRANCH   6   7
ENDBRANCH   2   6
TORSDOF 3
ENDMDL
MODEL 7
REMARK VINA RESULT:      -1.5      2.227      2.926
REMARK  3 active torsions:
REMARK  status: ('A' for Active; 'I' for Inactive)
REMARK    1  A    between atoms: C4_4  and  C6_6 
REMARK    2  A    between atoms: C5_5  and  C6_6 
REMARK    3  A    between atoms: C5_5  and  O8_8 
ROOT
HETATM    1  C1  UNL     1     -34.062   7.391   4.261  1.00 20.00     0.066 C 
HETATM    2  C6  UNL     1     -34.397   6.235   3.400  1.00 20.00     0.116 C 
HETATM    3  N7  UNL     1     -33.800   8.298   4.935  1.00 20.00    -0.197 NA
ENDROOT
BRANCH   2   4
HETATM    4  C4  UNL     1     -34.864   5.041   4.247  1.00 20.00     0.017 C 
HETATM    5  C2  UNL     1     -33.878   3.878   4.236  1.00 20.00     0.006 C 
ENDBRANCH   2   4
BRANCH   2   6
HETATM    6  C5  UNL     1     -33.174   5.843   2.563  1.00 20.00     0.186 C 
BRANCH   6   7
HETATM    7  O8  UNL     1     -33.007   6.772   1.496  1.00 20.00    -0.395 OA
HETATM    8  C3  UNL     1     -31.887   7.616   1.714  1.00 20.00     0.201 C 
ENDBRANCH   6   7
ENDBRANCH   2   6
TORSDOF 3
ENDMDL
MODEL 8
REMARK VINA RESULT:      -1.3      2.493      3.249
REMARK  3 active torsions:
REMARK  status: ('A' for Active; 'I' for Inactive)
REMARK    1  A    between atoms: C4_4  and  C6_6 
REMARK    2  A    between atoms: C5_5  and  C6_6 
REMARK    3  A    between atoms: C5_5  and  O8_8 
ROOT
HETATM    1  C1  UNL     1     -33.191   5.578   2.376  1.00 20.00     0.066 C 
HETATM    2  C6  UNL     1     -33.736   5.436   3.744  1.00 20.00     0.116 C 
HETATM    3  N7  UNL     1     -32.762   5.691   1.304  1.00 20.00    -0.197 NA
ENDROOT
BRANCH   2   4
HETATM    4  C4  UNL     1     -34.194   3.991   4.001  1.00 20.00     0.017 C 
HETATM    5  C2  UNL     1     -33.138   3.145   4.703  1.00 20.00     0.006 C 
ENDBRANCH   2   4
BRANCH   2   6
HETATM    6  C5  UNL     1     -34.910   6.403   3.936  1.00 20.00     0.186 C 
BRANCH   6   7
HETATM    7  O8  UNL     1     -34.441   7.745   3.847  1.00 20.00    -0.395 OA
HETATM    8  C3  UNL     1     -33.525   8.045   4.889  1.00 20.00     0.201 C 
ENDBRANCH   6   7
ENDBRANCH   2   6
TORSDOF 3
ENDMDL
MODEL 9
REMARK VINA RESULT:      -1.3      3.131      4.606
REMARK  3 active torsions:
REMARK  status: ('A' for Active; 'I' for Inactive)
REMARK    1  A    between atoms: C4_4  and  C6_6 
REMARK    2  A    between atoms: C5_5  and  C6_6 
REMARK    3  A    between atoms: C5_5  and  O8_8 
ROOT
HETATM    1  C1  UNL     1     -34.020   6.745   3.712  1.00 20.00     0.066 C 
HETATM    2  C6  UNL     1     -33.174   5.699   3.094  1.00 20.00     0.116 C 
HETATM    3  N7  UNL     1     -34.682   7.564   4.198  1.00 20.00    -0.197 NA
ENDROOT
BRANCH   2   4
HETATM    4  C4  UNL     1     -32.764   6.102   1.668  1.00 20.00     0.017 C 
HETATM    5  C2  UNL     1     -32.063   7.454   1.606  1.00 20.00     0.006 C 
ENDBRANCH   2   4
BRANCH   2   6
HETATM    6  C5  UNL     1     -33.933   4.368   3.070  1.00 20.00     0.186 C 
BRANCH   6   7
HETATM    7  O8  UNL     1     -34.144   3.914   4.403  1.00 20.00    -0.395 OA
HETATM    8  C3  UNL     1     -33.185   2.936   4.777  1.00 20.00     0.201 C 
ENDBRANCH   6   7
ENDBRANCH   2   6
TORSDOF 3
ENDMDL
