MODEL 1
REMARK VINA RESULT:      -2.3      0.000      0.000
REMARK  3 active torsions:
REMARK  status: ('A' for Active; 'I' for Inactive)
REMARK    1  A    between atoms: C4_4  and  C6_6 
REMARK    2  A    between atoms: C5_5  and  C6_6 
REMARK    3  A    between atoms: C5_5  and  O8_8 
ROOT
HETATM    1  C1  UNL     1     -32.776   6.083   1.712  1.00 20.00     0.066 C 
HETATM    2  C6  UNL     1     -33.233   7.396   2.215  1.00 20.00     0.116 C 
HETATM    3  N7  UNL     1     -32.419   5.052   1.318  1.00 20.00    -0.197 NA
ENDROOT
BRANCH   2   4
HETATM    4  C4  UNL     1     -33.673   7.295   3.685  1.00 20.00     0.017 C 
HETATM    5  C2  UNL     1     -34.952   6.487   3.873  1.00 20.00     0.006 C 
ENDBRANCH   2   4
BRANCH   2   6
HETATM    6  C5  UNL     1     -32.108   8.427   2.070  1.00 20.00     0.186 C 
BRANCH   6   7
HETATM    7  O8  UNL     1     -31.912   8.728   0.692  1.00 20.00    -0.395 OA
HETATM    8  C3  UNL     1     -32.486   9.981   0.348  1.00 20.00     0.201 C 
ENDBRANCH   6   7
ENDBRANCH   2   6
TORSDOF 3
ENDMDL
MODEL 2
REMARK VINA RESULT:      -1.7      1.603      2.494
REMARK  3 active torsions:
REMARK  status: ('A' for Active; 'I' for Inactive)
REMARK    1  A    between atoms: C4_4  and  C6_6 
REMARK    2  A    between atoms: C5_5  and  C6_6 
REMARK    3  A    between atoms: C5_5  and  O8_8 
ROOT
HETATM    1  C1  UNL     1     -33.989   6.778   3.354  1.00 20.00     0.066 C 
HETATM    2  C6  UNL     1     -32.735   6.846   2.572  1.00 20.00     0.116 C 
HETATM    3  N7  UNL     1     -34.972   6.722   3.968  1.00 20.00    -0.197 NA
ENDROOT
BRANCH   2   4
HETATM    4  C4  UNL     1     -32.872   6.068   1.253  1.00 20.00     0.017 C 
HETATM    5  C2  UNL     1     -31.841   4.957   1.104  1.00 20.00     0.006 C 
ENDBRANCH   2   4
BRANCH   2   6
HETATM    6  C5  UNL     1     -32.381   8.310   2.288  1.00 20.00     0.186 C 
BRANCH   6   7
HETATM    7  O8  UNL     1     -32.025   8.457   0.917  1.00 20.00    -0.395 OA
HETATM    8  C3  UNL     1     -32.414   9.727   0.414  1.00 20.00     0.201 C 
ENDBRANCH   6   7
ENDBRANCH   2   6
TORSDOF 3
ENDMDL
MODEL 3
REMARK VINA RESULT:      -1.6      1.948      2.517
REMARK  3 active torsions:
REMARK  status: ('A' for Active; 'I' for Inactive)
REMARK    1  A    between atoms: C4_4  and  C6_6 
REMARK    2  A    between atoms: C5_5  and  C6_6 
REMARK    3  A    between atoms: C5_5  and  O8_8 
ROOT
HETATM    1  C1  UNL     1     -33.980   4.329   3.879  1.00 20.00     0.066 C 
HETATM    2  C6  UNL     1     -34.137   5.574   3.096  1.00 20.00     0.116 C 
HETATM    3  N7  UNL     1     -33.860   3.352   4.492  1.00 20.00    -0.197 NA
ENDROOT
BRANCH   2   4
HETATM    4  C4  UNL     1     -34.935   6.621   3.890  1.00 20.00     0.017 C 
HETATM    5  C2  UNL     1     -34.058   7.710   4.495  1.00 20.00     0.006 C 
ENDBRANCH   2   4
BRANCH   2   6
HETATM    6  C5  UNL     1     -32.757   6.130   2.727  1.00 20.00     0.186 C 
BRANCH   6   7
HETATM    7  O8  UNL     1     -32.845   6.851   1.501  1.00 20.00    -0.395 OA
HETATM    8  C3  UNL     1     -31.988   7.983   1.503  1.00 20.00     0.201 C 
ENDBRANCH   6   7
ENDBRANCH   2   6
TORSDOF 3
ENDMDL
MODEL 4
REMARK VINA RESULT:      -1.6      3.167      4.720
REMARK  3 active torsions:
REMARK  status: ('A' for Active; 'I' for Inactive)
REMARK    1  A    between atoms: C4_4  and  C6_6 
REMARK    2  A    between atoms: C5_5  and  C6_6 
REMARK    3  A    between atoms: C5_5  and  O8_8 
ROOT
HETATM    1  C1  UNL     1     -33.949   7.365   4.202  1.00 20.00     0.066 C 
HETATM    2  C6  UNL     1     -34.311   6.232   3.324  1.00 20.00     0.116 C 
HETATM    3  N7  UNL     1     -33.666   8.256   4.889  1.00 20.00    -0.197 NA
ENDROOT
BRANCH   2   4
HETATM    4  C4  UNL     1     -33.192   5.949   2.308  1.00 20.00     0.017 C 
HETATM    5  C2  UNL     1     -32.471   7.210   1.847  1.00 20.00     0.006 C 
ENDBRANCH   2   4
BRANCH   2   6
HETATM    6  C5  UNL     1     -34.580   4.984   4.173  1.00 20.00     0.186 C 
BRANCH   6   7
HETATM    7  O8  UNL     1     -33.755   3.913   3.723  1.00 20.00    -0.395 OA
HETATM    8  C3  UNL     1     -33.315   3.108   4.807  1.00 20.00     0.201 C 
ENDBRANCH   6   7
ENDBRANCH   2   6
TORSDOF 3
ENDMDL
MODEL 5
REMARK VINA RESULT:      -1.4      1.660      2.304
REMARK  3 active torsions:
REMARK  status: ('A' for Active; 'I' for Inactive)
REMARK    1  A    between atoms: C4_4  and  C6_6 
REMARK    2  A    between atoms: C5_5  and  C6_6 
REMARK    3  A    between atoms: C5_5  and  O8_8 
ROOT
HETATM    1  C1  UNL     1     -33.369   7.495   3.293  1.00 20.00     0.066 C 
HETATM    2  C6  UNL     1     -32.233   7.891   2.432  1.00 20.00     0.116 C 
HETATM    3  N7  UNL     1     -34.259   7.183   3.969  1.00 20.00    -0.197 NA
ENDROOT
BRANCH   2   4
HETATM    4  C4  UNL     1     -31.882   6.768   1.442  1.00 20.00     0.017 C 
HETATM    5  C2  UNL     1     -32.921   5.654   1.407  1.00 20.00     0.006 C 
ENDBRANCH   2   4
BRANCH   2   6
HETATM    6  C5  UNL     1     -32.583   9.175   1.671  1.00 20.00     0.186 C 
BRANCH   6   7
HETATM    7  O8  UNL     1     -32.029   9.118   0.360  1.00 20.00    -0.395 OA
HETATM    8  C3  UNL     1     -32.646  10.062  -0.504  1.00 20.00     0.201 C 
ENDBRANCH   6   7
ENDBRANCH   2   6
TORSDOF 3
ENDMDL
MODEL 6
REMARK VINA RESULT:      -1.3      1.498      3.280
REMARK  3 active torsions:
REMARK  status: ('A' for Active; 'I' for Inactive)
REMARK    1  A    between atoms: C4_4  and  C6_6 
REMARK    2  A    between atoms: C5_5  and  C6_6 
REMARK    3  A    between atoms: C5_5  and  O8_8 
ROOT
HETATM    1  C1  UNL     1     -32.187   6.415   1.463  1.00 20.00     0.066 C 
HETATM    2  C6  UNL     1     -31.912   7.834   1.777  1.00 20.00     0.116 C 
HETATM    3  N7  UNL     1     -32.401   5.302   1.216  1.00 20.00    -0.197 NA
ENDROOT
BRANCH   2   4
HETATM    4  C4  UNL     1     -31.862   8.678   0.492  1.00 20.00     0.017 C 
HETATM    5  C2  UNL     1     -32.584  10.013   0.626  1.00 20.00     0.006 C 
ENDBRANCH   2   4
BRANCH   2   6
HETATM    6  C5  UNL     1     -32.991   8.374   2.722  1.00 20.00     0.186 C 
BRANCH   6   7
HETATM    7  O8  UNL     1     -33.209   7.443   3.778  1.00 20.00    -0.395 OA
HETATM    8  C3  UNL     1     -34.593   7.188   3.967  1.00 20.00     0.201 C 
ENDBRANCH   6   7
ENDBRANCH   2   6
TORSDOF 3
ENDMDL
MODEL 7
REMARK VINA RESULT:      -1.3      2.372      3.593
REMARK  3 active torsions:
REMARK  status: ('A' for Active; 'I' for Inactive)
REMARK    1  A    between atoms: C4_4  and  C6_6 
REMARK    2  A    between atoms: C5_5  and  C6_6 
REMARK    3  A    between atoms: C5_5  and  O8_8 
ROOT
HETATM    1  C1  UNL     1     -32.507   8.815   1.157  1.00 20.00     0.066 C 
HETATM    2  C6  UNL     1     -32.819   7.571   1.893  1.00 20.00     0.116 C 
HETATM    3  N7  UNL     1     -32.264   9.790   0.577  1.00 20.00    -0.197 NA
ENDROOT
BRANCH   2   4
HETATM    4  C4  UNL     1     -31.804   6.467   1.554  1.00 20.00     0.017 C 
HETATM    5  C2  UNL     1     -32.462   5.155   1.145  1.00 20.00     0.006 C 
ENDBRANCH   2   4
BRANCH   2   6
HETATM    6  C5  UNL     1     -32.816   7.847   3.401  1.00 20.00     0.186 C 
BRANCH   6   7
HETATM    7  O8  UNL     1     -34.148   7.783   3.901  1.00 20.00    -0.395 OA
HETATM    8  C3  UNL     1     -34.670   6.465   3.821  1.00 20.00     0.201 C 
ENDBRANCH   6   7
ENDBRANCH   2   6
TORSDOF 3
ENDMDL
MODEL 8
REMARK VINA RESULT:      -1.3      3.045      4.556
REMARK  3 active torsions:
REMARK  status: ('A' for Active; 'I' for Inactive)
REMARK    1  A    between atoms: C4_4  and  C6_6 
REMARK    2  A    between atoms: C5_5  and  C6_6 
REMARK    3  A    between atoms: C5_5  and  O8_8 
ROOT
HETATM    1  C1  UNL     1     -33.909   6.867   3.428  1.00 20.00     0.066 C 
HETATM    2  C6  UNL     1     -33.485   5.939   2.358  1.00 20.00     0.116 C 
HETATM    3  N7  UNL     1     -34.242   7.597   4.266  1.00 20.00    -0.197 NA
ENDROOT
BRANCH   2   4
HETATM    4  C4  UNL     1     -32.371   6.564   1.502  1.00 20.00     0.017 C 
HETATM    5  C2  UNL     1     -32.052   8.002   1.894  1.00 20.00     0.006 C 
ENDBRANCH   2   4
BRANCH   2   6
HETATM    6  C5  UNL     1     -32.999   4.623   2.977  1.00 20.00     0.186 C 
BRANCH   6   7
HETATM    7  O8  UNL     1     -33.933   4.184   3.959  1.00 20.00    -0.395 OA
HETATM    8  C3  UNL     1     -33.424   3.088   4.705  1.00 20.00     0.201 C 
ENDBRANCH   6   7
ENDBRANCH   2   6
TORSDOF 3
ENDMDL
MODEL 9
REMARK VINA RESULT:      -1.3      3.124      4.275
REMARK  3 active torsions:
REMARK  status: ('A' for Active; 'I' for Inactive)
REMARK    1  A    between atoms: C4_4  and  C6_6 
REMARK    2  A    between atoms: C5_5  and  C6_6 
REMARK    3  A    between atoms: C5_5  and  O8_8 
ROOT
HETATM    1  C1  UNL     1     -33.247   5.711   2.276  1.00 20.00     0.066 C 
HETATM    2  C6  UNL     1     -33.657   5.896   3.684  1.00 20.00     0.116 C 
HETATM    3  N7  UNL     1     -32.923   5.567   1.171  1.00 20.00    -0.197 NA
ENDROOT
BRANCH   2   4
HETATM    4  C4  UNL     1     -34.381   7.240   3.870  1.00 20.00     0.017 C 
HETATM    5  C2  UNL     1     -33.643   8.193   4.802  1.00 20.00     0.006 C 
ENDBRANCH   2   4
BRANCH   2   6
HETATM    6  C5  UNL     1     -34.570   4.742   4.114  1.00 20.00     0.186 C 
BRANCH   6   7
HETATM    7  O8  UNL     1     -33.926   3.500   3.845  1.00 20.00    -0.395 OA
HETATM    8  C3  UNL     1     -33.134   3.077   4.945  1.00 20.00     0.201 C 
ENDBRANCH   6   7
ENDBRANCH   2   6
TORSDOF 3
ENDMDL
