MODEL 1
REMARK VINA RESULT:      -1.8      0.000      0.000
REMARK  3 active torsions:
REMARK  status: ('A' for Active; 'I' for Inactive)
REMARK    1  A    between atoms: C6_6  and  C10_10 
REMARK    2  A    between atoms: C7_7  and  N11_11 
REMARK    3  A    between atoms: C9_9  and  N11_11 
ROOT
HETATM    1  C1  UNL     1     -32.482   9.868   0.300  1.00 20.00     0.013 C 
HETATM    2  C2  UNL     1     -32.179   8.930   0.986  1.00 20.00    -0.087 C 
HETATM    3  C9  UNL     1     -31.804   7.785   1.820  1.00 20.00     0.362 C 
ENDROOT
BRANCH   3   4
HETATM    4  N11 UNL     1     -32.778   7.584   2.881  1.00 20.00     0.098 N 
HETATM    5  H28 UNL     1     -32.309   7.218   3.708  1.00 20.00     0.317 HD
BRANCH   4   6
HETATM    6  C7  UNL     1     -33.797   6.648   2.470  1.00 20.00     0.222 C 
HETATM    7  C4  UNL     1     -35.114   6.908   3.200  1.00 20.00     0.036 C 
HETATM    8  C3  UNL     1     -35.035   6.013   4.428  1.00 20.00     0.007 C 
HETATM    9  C6  UNL     1     -34.428   4.730   3.866  1.00 20.00    -0.013 C 
HETATM   10  C5  UNL     1     -33.399   5.211   2.833  1.00 20.00     0.040 C 
BRANCH   9  11
HETATM   11  C10 UNL     1     -33.827   3.837   4.940  1.00 20.00     0.000 C 
HETATM   12  C8  UNL     1     -33.117   2.658   4.355  1.00 20.00     0.005 C 
ENDBRANCH   9  11
ENDBRANCH   4   6
ENDBRANCH   3   4
TORSDOF 3
ENDMDL
MODEL 2
REMARK VINA RESULT:      -1.4      1.253      5.143
REMARK  3 active torsions:
REMARK  status: ('A' for Active; 'I' for Inactive)
REMARK    1  A    between atoms: C6_6  and  C10_10 
REMARK    2  A    between atoms: C7_7  and  N11_11 
REMARK    3  A    between atoms: C9_9  and  N11_11 
ROOT
HETATM    1  C1  UNL     1     -33.520   3.324   4.459  1.00 20.00     0.013 C 
HETATM    2  C2  UNL     1     -34.244   4.277   4.366  1.00 20.00    -0.087 C 
HETATM    3  C9  UNL     1     -35.131   5.438   4.257  1.00 20.00     0.362 C 
ENDROOT
BRANCH   3   4
HETATM    4  N11 UNL     1     -34.673   6.336   3.208  1.00 20.00     0.098 N 
HETATM    5  H28 UNL     1     -34.943   5.964   2.300  1.00 20.00     0.317 HD
BRANCH   4   6
HETATM    6  C7  UNL     1     -33.236   6.475   3.246  1.00 20.00     0.222 C 
HETATM    7  C4  UNL     1     -32.824   7.770   3.945  1.00 20.00     0.036 C 
HETATM    8  C3  UNL     1     -32.716   8.780   2.812  1.00 20.00     0.007 C 
HETATM    9  C6  UNL     1     -32.043   7.969   1.707  1.00 20.00    -0.013 C 
HETATM   10  C5  UNL     1     -32.657   6.568   1.827  1.00 20.00     0.040 C 
BRANCH   9  11
HETATM   11  C10 UNL     1     -32.216   8.585   0.328  1.00 20.00     0.000 C 
HETATM   12  C8  UNL     1     -32.469  10.057   0.399  1.00 20.00     0.005 C 
ENDBRANCH   9  11
ENDBRANCH   4   6
ENDBRANCH   3   4
TORSDOF 3
ENDMDL
MODEL 3
REMARK VINA RESULT:      -0.6      1.748      2.700
REMARK  3 active torsions:
REMARK  status: ('A' for Active; 'I' for Inactive)
REMARK    1  A    between atoms: C6_6  and  C10_10 
REMARK    2  A    between atoms: C7_7  and  N11_11 
REMARK    3  A    between atoms: C9_9  and  N11_11 
ROOT
HETATM    1  C1  UNL     1     -33.015  10.884  -0.813  1.00 20.00     0.013 C 
HETATM    2  C2  UNL     1     -32.689  10.192   0.113  1.00 20.00    -0.087 C 
HETATM    3  C9  UNL     1     -32.294   9.351   1.246  1.00 20.00     0.362 C 
ENDROOT
BRANCH   3   4
HETATM    4  N11 UNL     1     -31.759   8.082   0.779  1.00 20.00     0.098 N 
HETATM    5  H28 UNL     1     -32.409   7.661   0.118  1.00 20.00     0.317 HD
BRANCH   4   6
HETATM    6  C7  UNL     1     -31.563   7.172   1.884  1.00 20.00     0.222 C 
HETATM    7  C4  UNL     1     -31.944   5.744   1.498  1.00 20.00     0.036 C 
HETATM    8  C3  UNL     1     -33.409   5.635   1.898  1.00 20.00     0.007 C 
HETATM    9  C6  UNL     1     -33.443   6.363   3.239  1.00 20.00    -0.013 C 
HETATM   10  C5  UNL     1     -32.473   7.541   3.064  1.00 20.00     0.040 C 
BRANCH   9  11
HETATM   11  C10 UNL     1     -34.843   6.795   3.646  1.00 20.00     0.000 C 
HETATM   12  C8  UNL     1     -35.604   5.683   4.297  1.00 20.00     0.005 C 
ENDBRANCH   9  11
ENDBRANCH   4   6
ENDBRANCH   3   4
TORSDOF 3
ENDMDL
MODEL 4
REMARK VINA RESULT:      -0.2      1.129      5.430
REMARK  3 active torsions:
REMARK  status: ('A' for Active; 'I' for Inactive)
REMARK    1  A    between atoms: C6_6  and  C10_10 
REMARK    2  A    between atoms: C7_7  and  N11_11 
REMARK    3  A    between atoms: C9_9  and  N11_11 
ROOT
HETATM    1  C1  UNL     1     -33.086   2.769   4.747  1.00 20.00     0.013 C 
HETATM    2  C2  UNL     1     -33.720   3.721   4.382  1.00 20.00    -0.087 C 
HETATM    3  C9  UNL     1     -34.497   4.881   3.938  1.00 20.00     0.362 C 
ENDROOT
BRANCH   3   4
HETATM    4  N11 UNL     1     -33.616   5.972   3.554  1.00 20.00     0.098 N 
HETATM    5  H28 UNL     1     -34.021   6.857   3.852  1.00 20.00     0.317 HD
BRANCH   4   6
HETATM    6  C7  UNL     1     -33.433   6.001   2.122  1.00 20.00     0.222 C 
HETATM    7  C4  UNL     1     -31.994   5.656   1.741  1.00 20.00     0.036 C 
HETATM    8  C3  UNL     1     -31.297   7.007   1.681  1.00 20.00     0.007 C 
HETATM    9  C6  UNL     1     -32.339   7.890   0.999  1.00 20.00    -0.013 C 
HETATM   10  C5  UNL     1     -33.682   7.411   1.567  1.00 20.00     0.040 C 
BRANCH   9  11
HETATM   11  C10 UNL     1     -32.092   9.375   1.212  1.00 20.00     0.000 C 
HETATM   12  C8  UNL     1     -32.574  10.194   0.057  1.00 20.00     0.005 C 
ENDBRANCH   9  11
ENDBRANCH   4   6
ENDBRANCH   3   4
TORSDOF 3
ENDMDL
MODEL 5
REMARK VINA RESULT:       0.1      1.927      4.750
REMARK  3 active torsions:
REMARK  status: ('A' for Active; 'I' for Inactive)
REMARK    1  A    between atoms: C6_6  and  C10_10 
REMARK    2  A    between atoms: C7_7  and  N11_11 
REMARK    3  A    between atoms: C9_9  and  N11_11 
ROOT
HETATM    1  C1  UNL     1     -33.359   8.321   5.065  1.00 20.00     0.013 C 
HETATM    2  C2  UNL     1     -33.900   7.523   4.350  1.00 20.00    -0.087 C 
HETATM    3  C9  UNL     1     -34.565   6.551   3.477  1.00 20.00     0.362 C 
ENDROOT
BRANCH   3   4
HETATM    4  N11 UNL     1     -33.645   5.491   3.096  1.00 20.00     0.098 N 
HETATM    5  H28 UNL     1     -32.836   5.505   3.714  1.00 20.00     0.317 HD
BRANCH   4   6
HETATM    6  C7  UNL     1     -33.196   5.668   1.735  1.00 20.00     0.222 C 
HETATM    7  C4  UNL     1     -31.671   5.632   1.646  1.00 20.00     0.036 C 
HETATM    8  C3  UNL     1     -31.262   7.091   1.784  1.00 20.00     0.007 C 
HETATM    9  C6  UNL     1     -32.307   7.812   0.937  1.00 20.00    -0.013 C 
HETATM   10  C5  UNL     1     -33.611   7.044   1.196  1.00 20.00     0.040 C 
BRANCH   9  11
HETATM   11  C10 UNL     1     -32.410   9.295   1.254  1.00 20.00     0.000 C 
HETATM   12  C8  UNL     1     -32.570  10.122   0.018  1.00 20.00     0.005 C 
ENDBRANCH   9  11
ENDBRANCH   4   6
ENDBRANCH   3   4
TORSDOF 3
ENDMDL
MODEL 6
REMARK VINA RESULT:       0.5      1.586      5.446
REMARK  3 active torsions:
REMARK  status: ('A' for Active; 'I' for Inactive)
REMARK    1  A    between atoms: C6_6  and  C10_10 
REMARK    2  A    between atoms: C7_7  and  N11_11 
REMARK    3  A    between atoms: C9_9  and  N11_11 
ROOT
HETATM    1  C1  UNL     1     -35.485   5.037   4.708  1.00 20.00     0.013 C 
HETATM    2  C2  UNL     1     -34.895   5.899   4.116  1.00 20.00    -0.087 C 
HETATM    3  C9  UNL     1     -34.176   6.955   3.397  1.00 20.00     0.362 C 
ENDROOT
BRANCH   3   4
HETATM    4  N11 UNL     1     -33.503   6.412   2.228  1.00 20.00     0.098 N 
HETATM    5  H28 UNL     1     -33.435   5.399   2.315  1.00 20.00     0.317 HD
BRANCH   4   6
HETATM    6  C7  UNL     1     -32.174   6.961   2.101  1.00 20.00     0.222 C 
HETATM    7  C4  UNL     1     -32.011   8.217   2.956  1.00 20.00     0.036 C 
HETATM    8  C3  UNL     1     -32.379   9.352   2.012  1.00 20.00     0.007 C 
HETATM    9  C6  UNL     1     -31.717   8.926   0.704  1.00 20.00    -0.013 C 
HETATM   10  C5  UNL     1     -31.900   7.403   0.657  1.00 20.00     0.040 C 
BRANCH   9  11
HETATM   11  C10 UNL     1     -32.289   9.637  -0.512  1.00 20.00     0.000 C 
HETATM   12  C8  UNL     1     -33.163  10.789  -0.127  1.00 20.00     0.005 C 
ENDBRANCH   9  11
ENDBRANCH   4   6
ENDBRANCH   3   4
TORSDOF 3
ENDMDL
MODEL 7
REMARK VINA RESULT:       0.7      1.688      4.892
REMARK  3 active torsions:
REMARK  status: ('A' for Active; 'I' for Inactive)
REMARK    1  A    between atoms: C6_6  and  C10_10 
REMARK    2  A    between atoms: C7_7  and  N11_11 
REMARK    3  A    between atoms: C9_9  and  N11_11 
ROOT
HETATM    1  C1  UNL     1     -33.107   2.407   5.035  1.00 20.00     0.013 C 
HETATM    2  C2  UNL     1     -33.484   3.373   4.430  1.00 20.00    -0.087 C 
HETATM    3  C9  UNL     1     -33.948   4.552   3.695  1.00 20.00     0.362 C 
ENDROOT
BRANCH   3   4
HETATM    4  N11 UNL     1     -33.184   4.726   2.470  1.00 20.00     0.098 N 
HETATM    5  H28 UNL     1     -32.189   4.712   2.686  1.00 20.00     0.317 HD
BRANCH   4   6
HETATM    6  C7  UNL     1     -33.506   5.985   1.840  1.00 20.00     0.222 C 
HETATM    7  C4  UNL     1     -32.334   6.504   1.009  1.00 20.00     0.036 C 
HETATM    8  C3  UNL     1     -31.562   7.388   1.977  1.00 20.00     0.007 C 
HETATM    9  C6  UNL     1     -32.675   8.120   2.721  1.00 20.00    -0.013 C 
HETATM   10  C5  UNL     1     -33.781   7.069   2.892  1.00 20.00     0.040 C 
BRANCH   9  11
HETATM   11  C10 UNL     1     -32.214   8.725   4.037  1.00 20.00     0.000 C 
HETATM   12  C8  UNL     1     -33.103   8.335   5.175  1.00 20.00     0.005 C 
ENDBRANCH   9  11
ENDBRANCH   4   6
ENDBRANCH   3   4
TORSDOF 3
ENDMDL
MODEL 8
REMARK VINA RESULT:       0.8      1.415      2.292
REMARK  3 active torsions:
REMARK  status: ('A' for Active; 'I' for Inactive)
REMARK    1  A    between atoms: C6_6  and  C10_10 
REMARK    2  A    between atoms: C7_7  and  N11_11 
REMARK    3  A    between atoms: C9_9  and  N11_11 
ROOT
HETATM    1  C1  UNL     1     -31.974   4.715   0.909  1.00 20.00     0.013 C 
HETATM    2  C2  UNL     1     -31.933   5.898   1.108  1.00 20.00    -0.087 C 
HETATM    3  C9  UNL     1     -31.883   7.343   1.347  1.00 20.00     0.362 C 
ENDROOT
BRANCH   3   4
HETATM    4  N11 UNL     1     -32.207   7.645   2.732  1.00 20.00     0.098 N 
HETATM    5  H28 UNL     1     -31.939   6.860   3.322  1.00 20.00     0.317 HD
BRANCH   4   6
HETATM    6  C7  UNL     1     -33.622   7.884   2.887  1.00 20.00     0.222 C 
HETATM    7  C4  UNL     1     -33.945   8.413   4.284  1.00 20.00     0.036 C 
HETATM    8  C3  UNL     1     -34.248   7.157   5.089  1.00 20.00     0.007 C 
HETATM    9  C6  UNL     1     -35.069   6.323   4.109  1.00 20.00    -0.013 C 
HETATM   10  C5  UNL     1     -34.417   6.579   2.743  1.00 20.00     0.040 C 
BRANCH   9  11
HETATM   11  C10 UNL     1     -35.125   4.851   4.482  1.00 20.00     0.000 C 
HETATM   12  C8  UNL     1     -33.870   4.130   4.103  1.00 20.00     0.005 C 
ENDBRANCH   9  11
ENDBRANCH   4   6
ENDBRANCH   3   4
TORSDOF 3
ENDMDL
MODEL 9
REMARK VINA RESULT:       1.2      1.579      4.734
REMARK  3 active torsions:
REMARK  status: ('A' for Active; 'I' for Inactive)
REMARK    1  A    between atoms: C6_6  and  C10_10 
REMARK    2  A    between atoms: C7_7  and  N11_11 
REMARK    3  A    between atoms: C9_9  and  N11_11 
ROOT
HETATM    1  C1  UNL     1     -32.759   2.680   5.117  1.00 20.00     0.013 C 
HETATM    2  C2  UNL     1     -33.443   3.468   4.524  1.00 20.00    -0.087 C 
HETATM    3  C9  UNL     1     -34.277   4.428   3.796  1.00 20.00     0.362 C 
ENDROOT
BRANCH   3   4
HETATM    4  N11 UNL     1     -35.178   5.118   4.705  1.00 20.00     0.098 N 
HETATM    5  H28 UNL     1     -36.078   4.643   4.718  1.00 20.00     0.317 HD
BRANCH   4   6
HETATM    6  C7  UNL     1     -35.378   6.485   4.287  1.00 20.00     0.222 C 
HETATM    7  C4  UNL     1     -35.675   6.568   2.790  1.00 20.00     0.036 C 
HETATM    8  C3  UNL     1     -34.305   6.760   2.156  1.00 20.00     0.007 C 
HETATM    9  C6  UNL     1     -33.631   7.744   3.108  1.00 20.00    -0.013 C 
HETATM   10  C5  UNL     1     -34.106   7.317   4.504  1.00 20.00     0.040 C 
BRANCH   9  11
HETATM   11  C10 UNL     1     -32.117   7.765   2.969  1.00 20.00     0.000 C 
HETATM   12  C8  UNL     1     -31.688   7.981   1.552  1.00 20.00     0.005 C 
ENDBRANCH   9  11
ENDBRANCH   4   6
ENDBRANCH   3   4
TORSDOF 3
ENDMDL
