MODEL 1
REMARK VINA RESULT:      -2.2      0.000      0.000
REMARK  1 active torsions:
REMARK  status: ('A' for Active; 'I' for Inactive)
REMARK    1  A    between atoms: C2_2  and  C3_3 
ROOT
HETATM    1  C1  UNL     1     -33.595   8.040   3.487  1.00 20.00    -0.020 C 
HETATM    2  C2  UNL     1     -32.953   7.565   2.414  1.00 20.00    -0.062 C 
HETATM    3  C5  UNL     1     -34.282   6.953   4.245  1.00 20.00     0.028 C 
HETATM    4  C6  UNL     1     -33.107   6.083   2.285  1.00 20.00     0.038 C 
HETATM    5  C7  UNL     1     -34.239   5.779   3.269  1.00 20.00     0.008 C 
ENDROOT
BRANCH   2   6
HETATM    6  C3  UNL     1     -32.182   8.328   1.483  1.00 20.00     0.002 C 
HETATM    7  C4  UNL     1     -32.695   9.300   0.711  1.00 20.00    -0.030 C 
HETATM    8  C8  UNL     1     -31.896  10.097  -0.266  1.00 20.00     0.036 C 
ENDBRANCH   2   6
TORSDOF 1
ENDMDL
MODEL 2
REMARK VINA RESULT:      -2.1      1.175      2.263
REMARK  1 active torsions:
REMARK  status: ('A' for Active; 'I' for Inactive)
REMARK    1  A    between atoms: C2_2  and  C3_3 
ROOT
HETATM    1  C1  UNL     1     -33.307   5.188   3.336  1.00 20.00    -0.020 C 
HETATM    2  C2  UNL     1     -33.879   6.397   3.298  1.00 20.00    -0.062 C 
HETATM    3  C5  UNL     1     -34.192   4.181   3.991  1.00 20.00     0.028 C 
HETATM    4  C6  UNL     1     -35.237   6.390   3.921  1.00 20.00     0.038 C 
HETATM    5  C7  UNL     1     -35.260   5.048   4.656  1.00 20.00     0.008 C 
ENDROOT
BRANCH   2   6
HETATM    6  C3  UNL     1     -33.316   7.581   2.727  1.00 20.00     0.002 C 
HETATM    7  C4  UNL     1     -32.406   7.571   1.739  1.00 20.00    -0.030 C 
HETATM    8  C8  UNL     1     -31.811   8.805   1.142  1.00 20.00     0.036 C 
ENDBRANCH   2   6
TORSDOF 1
ENDMDL
MODEL 3
REMARK VINA RESULT:      -1.9      0.546      1.487
REMARK  1 active torsions:
REMARK  status: ('A' for Active; 'I' for Inactive)
REMARK    1  A    between atoms: C2_2  and  C3_3 
ROOT
HETATM    1  C1  UNL     1     -32.766   6.035   1.829  1.00 20.00    -0.020 C 
HETATM    2  C2  UNL     1     -32.846   7.341   2.109  1.00 20.00    -0.062 C 
HETATM    3  C5  UNL     1     -33.664   5.227   2.706  1.00 20.00     0.028 C 
HETATM    4  C6  UNL     1     -33.811   7.613   3.217  1.00 20.00     0.038 C 
HETATM    5  C7  UNL     1     -34.052   6.219   3.801  1.00 20.00     0.008 C 
ENDROOT
BRANCH   2   6
HETATM    6  C3  UNL     1     -32.136   8.392   1.450  1.00 20.00     0.002 C 
HETATM    7  C4  UNL     1     -32.715   9.278   0.624  1.00 20.00    -0.030 C 
HETATM    8  C8  UNL     1     -31.977  10.375  -0.070  1.00 20.00     0.036 C 
ENDBRANCH   2   6
TORSDOF 1
ENDMDL
MODEL 4
REMARK VINA RESULT:      -1.7      1.879      4.768
REMARK  1 active torsions:
REMARK  status: ('A' for Active; 'I' for Inactive)
REMARK    1  A    between atoms: C2_2  and  C3_3 
ROOT
HETATM    1  C1  UNL     1     -34.553   6.613   4.118  1.00 20.00    -0.020 C 
HETATM    2  C2  UNL     1     -33.963   5.599   3.474  1.00 20.00    -0.062 C 
HETATM    3  C5  UNL     1     -34.190   7.932   3.519  1.00 20.00     0.028 C 
HETATM    4  C6  UNL     1     -33.113   6.078   2.342  1.00 20.00     0.038 C 
HETATM    5  C7  UNL     1     -33.008   7.581   2.616  1.00 20.00     0.008 C 
ENDROOT
BRANCH   2   6
HETATM    6  C3  UNL     1     -34.108   4.210   3.775  1.00 20.00     0.002 C 
HETATM    7  C4  UNL     1     -33.180   3.487   4.424  1.00 20.00    -0.030 C 
HETATM    8  C8  UNL     1     -33.324   2.034   4.737  1.00 20.00     0.036 C 
ENDBRANCH   2   6
TORSDOF 1
ENDMDL
MODEL 5
REMARK VINA RESULT:      -1.2      2.062      2.930
REMARK  1 active torsions:
REMARK  status: ('A' for Active; 'I' for Inactive)
REMARK    1  A    between atoms: C2_2  and  C3_3 
ROOT
HETATM    1  C1  UNL     1     -33.247   7.674   3.112  1.00 20.00    -0.020 C 
HETATM    2  C2  UNL     1     -33.264   6.451   2.571  1.00 20.00    -0.062 C 
HETATM    3  C5  UNL     1     -34.193   7.781   4.262  1.00 20.00     0.028 C 
HETATM    4  C6  UNL     1     -34.223   5.544   3.273  1.00 20.00     0.038 C 
HETATM    5  C7  UNL     1     -35.044   6.519   4.120  1.00 20.00     0.008 C 
ENDROOT
BRANCH   2   6
HETATM    6  C3  UNL     1     -32.470   6.003   1.469  1.00 20.00     0.002 C 
HETATM    7  C4  UNL     1     -32.160   4.715   1.249  1.00 20.00    -0.030 C 
HETATM    8  C8  UNL     1     -31.328   4.243   0.102  1.00 20.00     0.036 C 
ENDBRANCH   2   6
TORSDOF 1
ENDMDL
MODEL 6
REMARK VINA RESULT:      -1.1      1.187      4.158
REMARK  1 active torsions:
REMARK  status: ('A' for Active; 'I' for Inactive)
REMARK    1  A    between atoms: C2_2  and  C3_3 
ROOT
HETATM    1  C1  UNL     1     -32.718   8.367   2.611  1.00 20.00    -0.020 C 
HETATM    2  C2  UNL     1     -33.255   7.146   2.711  1.00 20.00    -0.062 C 
HETATM    3  C5  UNL     1     -31.781   8.465   1.452  1.00 20.00     0.028 C 
HETATM    4  C6  UNL     1     -32.764   6.233   1.634  1.00 20.00     0.038 C 
HETATM    5  C7  UNL     1     -31.571   7.002   1.062  1.00 20.00     0.008 C 
ENDROOT
BRANCH   2   6
HETATM    6  C3  UNL     1     -34.201   6.717   3.692  1.00 20.00     0.002 C 
HETATM    7  C4  UNL     1     -34.585   5.440   3.849  1.00 20.00    -0.030 C 
HETATM    8  C8  UNL     1     -35.576   4.987   4.869  1.00 20.00     0.036 C 
ENDBRANCH   2   6
TORSDOF 1
ENDMDL
MODEL 7
REMARK VINA RESULT:      -1.1      0.975      4.227
REMARK  1 active torsions:
REMARK  status: ('A' for Active; 'I' for Inactive)
REMARK    1  A    between atoms: C2_2  and  C3_3 
ROOT
HETATM    1  C1  UNL     1     -31.709   7.611   1.420  1.00 20.00    -0.020 C 
HETATM    2  C2  UNL     1     -32.673   8.187   2.147  1.00 20.00    -0.062 C 
HETATM    3  C5  UNL     1     -31.207   8.522   0.349  1.00 20.00     0.028 C 
HETATM    4  C6  UNL     1     -32.969   9.575   1.678  1.00 20.00     0.038 C 
HETATM    5  C7  UNL     1     -32.262   9.627   0.321  1.00 20.00     0.008 C 
ENDROOT
BRANCH   2   6
HETATM    6  C3  UNL     1     -33.357   7.603   3.257  1.00 20.00     0.002 C 
HETATM    7  C4  UNL     1     -34.336   6.692   3.134  1.00 20.00    -0.030 C 
HETATM    8  C8  UNL     1     -35.057   6.082   4.291  1.00 20.00     0.036 C 
ENDBRANCH   2   6
TORSDOF 1
ENDMDL
MODEL 8
REMARK VINA RESULT:      -1.1      1.958      3.138
REMARK  1 active torsions:
REMARK  status: ('A' for Active; 'I' for Inactive)
REMARK    1  A    between atoms: C2_2  and  C3_3 
ROOT
HETATM    1  C1  UNL     1     -34.231   5.756   3.069  1.00 20.00    -0.020 C 
HETATM    2  C2  UNL     1     -33.252   6.460   2.490  1.00 20.00    -0.062 C 
HETATM    3  C5  UNL     1     -34.963   6.565   4.088  1.00 20.00     0.028 C 
HETATM    4  C6  UNL     1     -33.174   7.852   3.030  1.00 20.00     0.038 C 
HETATM    5  C7  UNL     1     -34.049   7.774   4.283  1.00 20.00     0.008 C 
ENDROOT
BRANCH   2   6
HETATM    6  C3  UNL     1     -32.371   5.997   1.464  1.00 20.00     0.002 C 
HETATM    7  C4  UNL     1     -32.179   4.700   1.176  1.00 20.00    -0.030 C 
HETATM    8  C8  UNL     1     -31.257   4.211   0.108  1.00 20.00     0.036 C 
ENDBRANCH   2   6
TORSDOF 1
ENDMDL
MODEL 9
REMARK VINA RESULT:       0.0      1.705      3.309
REMARK  1 active torsions:
REMARK  status: ('A' for Active; 'I' for Inactive)
REMARK    1  A    between atoms: C2_2  and  C3_3 
ROOT
HETATM    1  C1  UNL     1     -33.914   6.436   3.241  1.00 20.00    -0.020 C 
HETATM    2  C2  UNL     1     -33.060   6.427   2.212  1.00 20.00    -0.062 C 
HETATM    3  C5  UNL     1     -33.846   7.717   4.003  1.00 20.00     0.028 C 
HETATM    4  C6  UNL     1     -32.284   7.702   2.122  1.00 20.00     0.038 C 
HETATM    5  C7  UNL     1     -32.563   8.358   3.476  1.00 20.00     0.008 C 
ENDROOT
BRANCH   2   6
HETATM    6  C3  UNL     1     -32.881   5.366   1.270  1.00 20.00     0.002 C 
HETATM    7  C4  UNL     1     -33.787   5.041   0.333  1.00 20.00    -0.030 C 
HETATM    8  C8  UNL     1     -33.607   3.932  -0.650  1.00 20.00     0.036 C 
ENDBRANCH   2   6
TORSDOF 1
ENDMDL
