MODEL 1
REMARK VINA RESULT:      -2.3      0.000      0.000
REMARK  3 active torsions:
REMARK  status: ('A' for Active; 'I' for Inactive)
REMARK    1  A    between atoms: C6_6  and  C10_10 
REMARK    2  A    between atoms: C7_7  and  N11_11 
REMARK    3  A    between atoms: C9_9  and  N11_11 
ROOT
HETATM    1  C1  UNL     1     -33.859   3.561   4.449  1.00 20.00     0.013 C 
HETATM    2  C2  UNL     1     -34.424   4.605   4.267  1.00 20.00    -0.087 C 
HETATM    3  C9  UNL     1     -35.118   5.876   4.045  1.00 20.00     0.362 C 
ENDROOT
BRANCH   3   4
HETATM    4  N11 UNL     1     -34.168   6.983   4.023  1.00 20.00     0.098 N 
HETATM    5  H28 UNL     1     -34.638   7.830   4.347  1.00 20.00     0.317 HD
BRANCH   4   6
HETATM    6  C7  UNL     1     -33.648   7.200   2.685  1.00 20.00     0.222 C 
HETATM    7  C4  UNL     1     -32.825   6.024   2.174  1.00 20.00     0.036 C 
HETATM    8  C3  UNL     1     -32.109   6.627   0.973  1.00 20.00     0.007 C 
HETATM    9  C6  UNL     1     -31.770   8.065   1.398  1.00 20.00    -0.013 C 
HETATM   10  C5  UNL     1     -32.665   8.367   2.614  1.00 20.00     0.040 C 
BRANCH   9  11
HETATM   11  C10 UNL     1     -31.972   9.059   0.262  1.00 20.00     0.000 C 
HETATM   12  C8  UNL     1     -32.659  10.303   0.726  1.00 20.00     0.005 C 
ENDBRANCH   9  11
ENDBRANCH   4   6
ENDBRANCH   3   4
TORSDOF 3
ENDMDL
MODEL 2
REMARK VINA RESULT:      -2.2      1.205      5.077
REMARK  3 active torsions:
REMARK  status: ('A' for Active; 'I' for Inactive)
REMARK    1  A    between atoms: C6_6  and  C10_10 
REMARK    2  A    between atoms: C7_7  and  N11_11 
REMARK    3  A    between atoms: C9_9  and  N11_11 
ROOT
HETATM    1  C1  UNL     1     -32.866  10.620  -0.235  1.00 20.00     0.013 C 
HETATM    2  C2  UNL     1     -32.353   9.697   0.336  1.00 20.00    -0.087 C 
HETATM    3  C9  UNL     1     -31.724   8.570   1.028  1.00 20.00     0.362 C 
ENDROOT
BRANCH   3   4
HETATM    4  N11 UNL     1     -32.148   8.522   2.423  1.00 20.00     0.098 N 
HETATM    5  H28 UNL     1     -31.370   8.814   3.017  1.00 20.00     0.317 HD
BRANCH   4   6
HETATM    6  C7  UNL     1     -32.566   7.183   2.797  1.00 20.00     0.222 C 
HETATM    7  C4  UNL     1     -32.761   6.268   1.595  1.00 20.00     0.036 C 
HETATM    8  C3  UNL     1     -33.533   5.101   2.198  1.00 20.00     0.007 C 
HETATM    9  C6  UNL     1     -34.486   5.744   3.217  1.00 20.00    -0.013 C 
HETATM   10  C5  UNL     1     -33.935   7.158   3.476  1.00 20.00     0.040 C 
BRANCH   9  11
HETATM   11  C10 UNL     1     -34.601   4.918   4.492  1.00 20.00     0.000 C 
HETATM   12  C8  UNL     1     -33.787   3.666   4.420  1.00 20.00     0.005 C 
ENDBRANCH   9  11
ENDBRANCH   4   6
ENDBRANCH   3   4
TORSDOF 3
ENDMDL
MODEL 3
REMARK VINA RESULT:      -1.6      1.330      5.306
REMARK  3 active torsions:
REMARK  status: ('A' for Active; 'I' for Inactive)
REMARK    1  A    between atoms: C6_6  and  C10_10 
REMARK    2  A    between atoms: C7_7  and  N11_11 
REMARK    3  A    between atoms: C9_9  and  N11_11 
ROOT
HETATM    1  C1  UNL     1     -32.631  10.274  -0.190  1.00 20.00     0.013 C 
HETATM    2  C2  UNL     1     -32.337   9.432   0.614  1.00 20.00    -0.087 C 
HETATM    3  C9  UNL     1     -31.977   8.409   1.598  1.00 20.00     0.362 C 
ENDROOT
BRANCH   3   4
HETATM    4  N11 UNL     1     -32.268   7.075   1.083  1.00 20.00     0.098 N 
HETATM    5  H28 UNL     1     -32.643   7.159   0.137  1.00 20.00     0.317 HD
BRANCH   4   6
HETATM    6  C7  UNL     1     -33.228   6.387   1.925  1.00 20.00     0.222 C 
HETATM    7  C4  UNL     1     -33.931   7.320   2.904  1.00 20.00     0.036 C 
HETATM    8  C3  UNL     1     -34.568   6.342   3.883  1.00 20.00     0.007 C 
HETATM    9  C6  UNL     1     -33.540   5.210   4.035  1.00 20.00    -0.013 C 
HETATM   10  C5  UNL     1     -32.578   5.351   2.841  1.00 20.00     0.040 C 
BRANCH   9  11
HETATM   11  C10 UNL     1     -34.203   3.840   4.095  1.00 20.00     0.000 C 
HETATM   12  C8  UNL     1     -33.299   2.810   4.692  1.00 20.00     0.005 C 
ENDBRANCH   9  11
ENDBRANCH   4   6
ENDBRANCH   3   4
TORSDOF 3
ENDMDL
MODEL 4
REMARK VINA RESULT:      -1.2      1.412      2.538
REMARK  3 active torsions:
REMARK  status: ('A' for Active; 'I' for Inactive)
REMARK    1  A    between atoms: C6_6  and  C10_10 
REMARK    2  A    between atoms: C7_7  and  N11_11 
REMARK    3  A    between atoms: C9_9  and  N11_11 
ROOT
HETATM    1  C1  UNL     1     -32.377   3.173   6.482  1.00 20.00     0.013 C 
HETATM    2  C2  UNL     1     -32.859   3.150   5.383  1.00 20.00    -0.087 C 
HETATM    3  C9  UNL     1     -33.445   3.116   4.041  1.00 20.00     0.362 C 
ENDROOT
BRANCH   3   4
HETATM    4  N11 UNL     1     -34.425   4.184   3.881  1.00 20.00     0.098 N 
HETATM    5  H28 UNL     1     -35.002   3.986   3.062  1.00 20.00     0.317 HD
BRANCH   4   6
HETATM    6  C7  UNL     1     -33.776   5.472   3.715  1.00 20.00     0.222 C 
HETATM    7  C4  UNL     1     -34.696   6.643   4.036  1.00 20.00     0.036 C 
HETATM    8  C3  UNL     1     -33.938   7.823   3.442  1.00 20.00     0.007 C 
HETATM    9  C6  UNL     1     -33.312   7.278   2.149  1.00 20.00    -0.013 C 
HETATM   10  C5  UNL     1     -33.360   5.744   2.271  1.00 20.00     0.040 C 
BRANCH   9  11
HETATM   11  C10 UNL     1     -31.899   7.803   1.932  1.00 20.00     0.000 C 
HETATM   12  C8  UNL     1     -31.871   8.940   0.961  1.00 20.00     0.005 C 
ENDBRANCH   9  11
ENDBRANCH   4   6
ENDBRANCH   3   4
TORSDOF 3
ENDMDL
MODEL 5
REMARK VINA RESULT:      -1.2      1.673      5.167
REMARK  3 active torsions:
REMARK  status: ('A' for Active; 'I' for Inactive)
REMARK    1  A    between atoms: C6_6  and  C10_10 
REMARK    2  A    between atoms: C7_7  and  N11_11 
REMARK    3  A    between atoms: C9_9  and  N11_11 
ROOT
HETATM    1  C1  UNL     1     -32.859  10.993   0.371  1.00 20.00     0.013 C 
HETATM    2  C2  UNL     1     -32.397   9.902   0.176  1.00 20.00    -0.087 C 
HETATM    3  C9  UNL     1     -31.835   8.571  -0.066  1.00 20.00     0.362 C 
ENDROOT
BRANCH   3   4
HETATM    4  N11 UNL     1     -31.463   7.933   1.192  1.00 20.00     0.098 N 
HETATM    5  H28 UNL     1     -31.160   6.977   1.002  1.00 20.00     0.317 HD
BRANCH   4   6
HETATM    6  C7  UNL     1     -32.580   7.912   2.119  1.00 20.00     0.222 C 
HETATM    7  C4  UNL     1     -32.222   8.479   3.487  1.00 20.00     0.036 C 
HETATM    8  C3  UNL     1     -33.389   8.011   4.347  1.00 20.00     0.007 C 
HETATM    9  C6  UNL     1     -33.722   6.604   3.827  1.00 20.00    -0.013 C 
HETATM   10  C5  UNL     1     -33.052   6.496   2.444  1.00 20.00     0.040 C 
BRANCH   9  11
HETATM   11  C10 UNL     1     -35.224   6.355   3.770  1.00 20.00     0.000 C 
HETATM   12  C8  UNL     1     -35.616   5.138   4.546  1.00 20.00     0.005 C 
ENDBRANCH   9  11
ENDBRANCH   4   6
ENDBRANCH   3   4
TORSDOF 3
ENDMDL
MODEL 6
REMARK VINA RESULT:      -1.0      1.465      2.318
REMARK  3 active torsions:
REMARK  status: ('A' for Active; 'I' for Inactive)
REMARK    1  A    between atoms: C6_6  and  C10_10 
REMARK    2  A    between atoms: C7_7  and  N11_11 
REMARK    3  A    between atoms: C9_9  and  N11_11 
ROOT
HETATM    1  C1  UNL     1     -33.392   3.384   4.207  1.00 20.00     0.013 C 
HETATM    2  C2  UNL     1     -34.332   4.076   4.486  1.00 20.00    -0.087 C 
HETATM    3  C9  UNL     1     -35.481   4.917   4.830  1.00 20.00     0.362 C 
ENDROOT
BRANCH   3   4
HETATM    4  N11 UNL     1     -35.485   6.135   4.027  1.00 20.00     0.098 N 
HETATM    5  H28 UNL     1     -36.018   5.967   3.172  1.00 20.00     0.317 HD
BRANCH   4   6
HETATM    6  C7  UNL     1     -34.134   6.540   3.682  1.00 20.00     0.222 C 
HETATM    7  C4  UNL     1     -33.775   7.918   4.225  1.00 20.00     0.036 C 
HETATM    8  C3  UNL     1     -32.514   8.257   3.441  1.00 20.00     0.007 C 
HETATM    9  C6  UNL     1     -32.764   7.694   2.032  1.00 20.00    -0.013 C 
HETATM   10  C5  UNL     1     -33.929   6.698   2.177  1.00 20.00     0.040 C 
BRANCH   9  11
HETATM   11  C10 UNL     1     -31.514   7.052   1.443  1.00 20.00     0.000 C 
HETATM   12  C8  UNL     1     -31.703   5.590   1.196  1.00 20.00     0.005 C 
ENDBRANCH   9  11
ENDBRANCH   4   6
ENDBRANCH   3   4
TORSDOF 3
ENDMDL
MODEL 7
REMARK VINA RESULT:      -0.6      1.849      4.764
REMARK  3 active torsions:
REMARK  status: ('A' for Active; 'I' for Inactive)
REMARK    1  A    between atoms: C6_6  and  C10_10 
REMARK    2  A    between atoms: C7_7  and  N11_11 
REMARK    3  A    between atoms: C9_9  and  N11_11 
ROOT
HETATM    1  C1  UNL     1     -32.793  11.032   0.258  1.00 20.00     0.013 C 
HETATM    2  C2  UNL     1     -32.381   9.912   0.126  1.00 20.00    -0.087 C 
HETATM    3  C9  UNL     1     -31.881   8.546  -0.041  1.00 20.00     0.362 C 
ENDROOT
BRANCH   3   4
HETATM    4  N11 UNL     1     -31.098   8.140   1.121  1.00 20.00     0.098 N 
HETATM    5  H28 UNL     1     -30.279   7.619   0.805  1.00 20.00     0.317 HD
BRANCH   4   6
HETATM    6  C7  UNL     1     -31.882   7.310   2.017  1.00 20.00     0.222 C 
HETATM    7  C4  UNL     1     -32.340   6.009   1.369  1.00 20.00     0.036 C 
HETATM    8  C3  UNL     1     -33.412   5.524   2.336  1.00 20.00     0.007 C 
HETATM    9  C6  UNL     1     -34.133   6.801   2.797  1.00 20.00    -0.013 C 
HETATM   10  C5  UNL     1     -33.196   7.968   2.436  1.00 20.00     0.040 C 
BRANCH   9  11
HETATM   11  C10 UNL     1     -34.474   6.761   4.281  1.00 20.00     0.000 C 
HETATM   12  C8  UNL     1     -33.886   7.921   5.018  1.00 20.00     0.005 C 
ENDBRANCH   9  11
ENDBRANCH   4   6
ENDBRANCH   3   4
TORSDOF 3
ENDMDL
MODEL 8
REMARK VINA RESULT:       0.1      1.466      1.932
REMARK  3 active torsions:
REMARK  status: ('A' for Active; 'I' for Inactive)
REMARK    1  A    between atoms: C6_6  and  C10_10 
REMARK    2  A    between atoms: C7_7  and  N11_11 
REMARK    3  A    between atoms: C9_9  and  N11_11 
ROOT
HETATM    1  C1  UNL     1     -33.154   8.370   5.403  1.00 20.00     0.013 C 
HETATM    2  C2  UNL     1     -33.884   7.700   4.724  1.00 20.00    -0.087 C 
HETATM    3  C9  UNL     1     -34.778   6.885   3.898  1.00 20.00     0.362 C 
ENDROOT
BRANCH   3   4
HETATM    4  N11 UNL     1     -34.025   5.861   3.183  1.00 20.00     0.098 N 
HETATM    5  H28 UNL     1     -33.336   5.452   3.816  1.00 20.00     0.317 HD
BRANCH   4   6
HETATM    6  C7  UNL     1     -33.349   6.420   2.027  1.00 20.00     0.222 C 
HETATM    7  C4  UNL     1     -31.986   5.786   1.777  1.00 20.00     0.036 C 
HETATM    8  C3  UNL     1     -31.349   6.762   0.796  1.00 20.00     0.007 C 
HETATM    9  C6  UNL     1     -31.813   8.150   1.266  1.00 20.00    -0.013 C 
HETATM   10  C5  UNL     1     -33.015   7.901   2.195  1.00 20.00     0.040 C 
BRANCH   9  11
HETATM   11  C10 UNL     1     -32.156   9.064   0.096  1.00 20.00     0.000 C 
HETATM   12  C8  UNL     1     -32.601  10.414   0.558  1.00 20.00     0.005 C 
ENDBRANCH   9  11
ENDBRANCH   4   6
ENDBRANCH   3   4
TORSDOF 3
ENDMDL
MODEL 9
REMARK VINA RESULT:       0.3      1.065      1.729
REMARK  3 active torsions:
REMARK  status: ('A' for Active; 'I' for Inactive)
REMARK    1  A    between atoms: C6_6  and  C10_10 
REMARK    2  A    between atoms: C7_7  and  N11_11 
REMARK    3  A    between atoms: C9_9  and  N11_11 
ROOT
HETATM    1  C1  UNL     1     -37.101   6.855   2.683  1.00 20.00     0.013 C 
HETATM    2  C2  UNL     1     -36.161   6.590   3.381  1.00 20.00    -0.087 C 
HETATM    3  C9  UNL     1     -35.017   6.263   4.236  1.00 20.00     0.362 C 
ENDROOT
BRANCH   3   4
HETATM    4  N11 UNL     1     -33.974   7.276   4.109  1.00 20.00     0.098 N 
HETATM    5  H28 UNL     1     -34.351   8.179   4.403  1.00 20.00     0.317 HD
BRANCH   4   6
HETATM    6  C7  UNL     1     -33.501   7.371   2.740  1.00 20.00     0.222 C 
HETATM    7  C4  UNL     1     -32.839   6.088   2.254  1.00 20.00     0.036 C 
HETATM    8  C3  UNL     1     -32.121   6.552   0.993  1.00 20.00     0.007 C 
HETATM    9  C6  UNL     1     -31.605   7.960   1.329  1.00 20.00    -0.013 C 
HETATM   10  C5  UNL     1     -32.400   8.416   2.566  1.00 20.00     0.040 C 
BRANCH   9  11
HETATM   11  C10 UNL     1     -31.752   8.918   0.153  1.00 20.00     0.000 C 
HETATM   12  C8  UNL     1     -32.549  10.129   0.519  1.00 20.00     0.005 C 
ENDBRANCH   9  11
ENDBRANCH   4   6
ENDBRANCH   3   4
TORSDOF 3
ENDMDL
