MODEL 1
REMARK VINA RESULT:      -3.4      0.000      0.000
REMARK  4 active torsions:
REMARK  status: ('A' for Active; 'I' for Inactive)
REMARK    1  A    between atoms: C2_2  and  C5_5 
REMARK    2  A    between atoms: C5_5  and  C6_6 
REMARK    3  A    between atoms: C6_6  and  C7_7 
REMARK    4  A    between atoms: C7_7  and  C8_8 
ROOT
HETATM    1  C1  UNL     1     -33.946   3.955   4.396  1.00 20.00    -0.111 C 
HETATM    2  C2  UNL     1     -34.556   4.958   4.143  1.00 20.00    -0.107 C 
HETATM    3  C3  UNL     1     -33.201   2.735   4.704  1.00 20.00     0.112 C 
ENDROOT
BRANCH   2   4
HETATM    4  C5  UNL     1     -35.304   6.184   3.835  1.00 20.00     0.094 C 
BRANCH   4   5
HETATM    5  C6  UNL     1     -34.476   7.447   4.087  1.00 20.00     0.014 C 
BRANCH   5   6
HETATM    6  C7  UNL     1     -33.040   7.332   3.553  1.00 20.00     0.020 C 
BRANCH   6   7
HETATM    7  C8  UNL     1     -32.965   7.316   2.020  1.00 20.00     0.078 C 
HETATM    8  C4  UNL     1     -31.900   8.283   1.514  1.00 20.00     0.026 C 
HETATM    9 CL9  UNL     1     -32.590   5.675   1.412  1.00 20.00    -0.125 Cl
ENDBRANCH   6   7
ENDBRANCH   5   6
ENDBRANCH   4   5
ENDBRANCH   2   4
TORSDOF 4
ENDMDL
MODEL 2
REMARK VINA RESULT:      -2.9      1.217      1.371
REMARK  4 active torsions:
REMARK  status: ('A' for Active; 'I' for Inactive)
REMARK    1  A    between atoms: C2_2  and  C5_5 
REMARK    2  A    between atoms: C5_5  and  C6_6 
REMARK    3  A    between atoms: C6_6  and  C7_7 
REMARK    4  A    between atoms: C7_7  and  C8_8 
ROOT
HETATM    1  C1  UNL     1     -33.917   3.870   4.437  1.00 20.00    -0.111 C 
HETATM    2  C2  UNL     1     -34.550   4.882   4.311  1.00 20.00    -0.107 C 
HETATM    3  C3  UNL     1     -33.145   2.638   4.590  1.00 20.00     0.112 C 
ENDROOT
BRANCH   2   4
HETATM    4  C5  UNL     1     -35.325   6.121   4.157  1.00 20.00     0.094 C 
BRANCH   4   5
HETATM    5  C6  UNL     1     -34.722   7.056   3.106  1.00 20.00     0.014 C 
BRANCH   5   6
HETATM    6  C7  UNL     1     -33.283   7.477   3.442  1.00 20.00     0.020 C 
BRANCH   6   7
HETATM    7  C8  UNL     1     -32.306   7.278   2.274  1.00 20.00     0.078 C 
HETATM    8  C4  UNL     1     -32.689   6.061   1.441  1.00 20.00     0.026 C 
HETATM    9 CL9  UNL     1     -32.274   8.718   1.213  1.00 20.00    -0.125 Cl
ENDBRANCH   6   7
ENDBRANCH   5   6
ENDBRANCH   4   5
ENDBRANCH   2   4
TORSDOF 4
ENDMDL
MODEL 3
REMARK VINA RESULT:      -2.8      2.101      5.172
REMARK  4 active torsions:
REMARK  status: ('A' for Active; 'I' for Inactive)
REMARK    1  A    between atoms: C2_2  and  C5_5 
REMARK    2  A    between atoms: C5_5  and  C6_6 
REMARK    3  A    between atoms: C6_6  and  C7_7 
REMARK    4  A    between atoms: C7_7  and  C8_8 
ROOT
HETATM    1  C1  UNL     1     -32.349   9.429   0.611  1.00 20.00    -0.111 C 
HETATM    2  C2  UNL     1     -32.074   8.388   1.143  1.00 20.00    -0.107 C 
HETATM    3  C3  UNL     1     -32.684  10.695  -0.038  1.00 20.00     0.112 C 
ENDROOT
BRANCH   2   4
HETATM    4  C5  UNL     1     -31.737   7.114   1.794  1.00 20.00     0.094 C 
BRANCH   4   5
HETATM    5  C6  UNL     1     -32.830   6.060   1.604  1.00 20.00     0.014 C 
BRANCH   5   6
HETATM    6  C7  UNL     1     -33.410   5.560   2.936  1.00 20.00     0.020 C 
BRANCH   6   7
HETATM    7  C8  UNL     1     -34.543   6.446   3.473  1.00 20.00     0.078 C 
HETATM    8  C4  UNL     1     -35.498   5.644   4.348  1.00 20.00     0.026 C 
HETATM    9 CL9  UNL     1     -33.892   7.812   4.429  1.00 20.00    -0.125 Cl
ENDBRANCH   6   7
ENDBRANCH   5   6
ENDBRANCH   4   5
ENDBRANCH   2   4
TORSDOF 4
ENDMDL
MODEL 4
REMARK VINA RESULT:      -2.7      1.951      5.118
REMARK  4 active torsions:
REMARK  status: ('A' for Active; 'I' for Inactive)
REMARK    1  A    between atoms: C2_2  and  C5_5 
REMARK    2  A    between atoms: C5_5  and  C6_6 
REMARK    3  A    between atoms: C6_6  and  C7_7 
REMARK    4  A    between atoms: C7_7  and  C8_8 
ROOT
HETATM    1  C1  UNL     1     -32.424   9.500   0.502  1.00 20.00    -0.111 C 
HETATM    2  C2  UNL     1     -32.131   8.595   1.235  1.00 20.00    -0.107 C 
HETATM    3  C3  UNL     1     -32.781  10.601  -0.391  1.00 20.00     0.112 C 
ENDROOT
BRANCH   2   4
HETATM    4  C5  UNL     1     -31.772   7.487   2.131  1.00 20.00     0.094 C 
BRANCH   4   5
HETATM    5  C6  UNL     1     -32.126   6.122   1.536  1.00 20.00     0.014 C 
BRANCH   5   6
HETATM    6  C7  UNL     1     -33.528   5.643   1.944  1.00 20.00     0.020 C 
BRANCH   6   7
HETATM    7  C8  UNL     1     -33.758   5.667   3.461  1.00 20.00     0.078 C 
HETATM    8  C4  UNL     1     -34.988   6.496   3.815  1.00 20.00     0.026 C 
HETATM    9 CL9  UNL     1     -33.972   4.012   4.105  1.00 20.00    -0.125 Cl
ENDBRANCH   6   7
ENDBRANCH   5   6
ENDBRANCH   4   5
ENDBRANCH   2   4
TORSDOF 4
ENDMDL
MODEL 5
REMARK VINA RESULT:      -1.7      1.226      4.647
REMARK  4 active torsions:
REMARK  status: ('A' for Active; 'I' for Inactive)
REMARK    1  A    between atoms: C2_2  and  C5_5 
REMARK    2  A    between atoms: C5_5  and  C6_6 
REMARK    3  A    between atoms: C6_6  and  C7_7 
REMARK    4  A    between atoms: C7_7  and  C8_8 
ROOT
HETATM    1  C1  UNL     1     -32.424   9.226   0.883  1.00 20.00    -0.111 C 
HETATM    2  C2  UNL     1     -32.452   8.621   1.921  1.00 20.00    -0.107 C 
HETATM    3  C3  UNL     1     -32.391   9.964  -0.378  1.00 20.00     0.112 C 
ENDROOT
BRANCH   2   4
HETATM    4  C5  UNL     1     -32.485   7.881   3.190  1.00 20.00     0.094 C 
BRANCH   4   5
HETATM    5  C6  UNL     1     -33.895   7.802   3.778  1.00 20.00     0.014 C 
BRANCH   5   6
HETATM    6  C7  UNL     1     -34.496   6.391   3.691  1.00 20.00     0.020 C 
BRANCH   6   7
HETATM    7  C8  UNL     1     -33.450   5.304   3.407  1.00 20.00     0.078 C 
HETATM    8  C4  UNL     1     -33.904   3.952   3.946  1.00 20.00     0.026 C 
HETATM    9 CL9  UNL     1     -33.142   5.152   1.651  1.00 20.00    -0.125 Cl
ENDBRANCH   6   7
ENDBRANCH   5   6
ENDBRANCH   4   5
ENDBRANCH   2   4
TORSDOF 4
ENDMDL
MODEL 6
REMARK VINA RESULT:      -1.6      2.614      3.483
REMARK  4 active torsions:
REMARK  status: ('A' for Active; 'I' for Inactive)
REMARK    1  A    between atoms: C2_2  and  C5_5 
REMARK    2  A    between atoms: C5_5  and  C6_6 
REMARK    3  A    between atoms: C6_6  and  C7_7 
REMARK    4  A    between atoms: C7_7  and  C8_8 
ROOT
HETATM    1  C1  UNL     1     -34.324   6.101   3.295  1.00 20.00    -0.111 C 
HETATM    2  C2  UNL     1     -33.453   6.071   2.468  1.00 20.00    -0.107 C 
HETATM    3  C3  UNL     1     -35.386   6.139   4.299  1.00 20.00     0.112 C 
ENDROOT
BRANCH   2   4
HETATM    4  C5  UNL     1     -32.388   6.034   1.457  1.00 20.00     0.094 C 
BRANCH   4   5
HETATM    5  C6  UNL     1     -31.516   7.291   1.486  1.00 20.00     0.014 C 
BRANCH   5   6
HETATM    6  C7  UNL     1     -32.339   8.580   1.638  1.00 20.00     0.020 C 
BRANCH   6   7
HETATM    7  C8  UNL     1     -32.025   9.629   0.562  1.00 20.00     0.078 C 
HETATM    8  C4  UNL     1     -32.594   9.214  -0.790  1.00 20.00     0.026 C 
HETATM    9 CL9  UNL     1     -32.698  11.226   1.006  1.00 20.00    -0.125 Cl
ENDBRANCH   6   7
ENDBRANCH   5   6
ENDBRANCH   4   5
ENDBRANCH   2   4
TORSDOF 4
ENDMDL
MODEL 7
REMARK VINA RESULT:      -1.5      2.327      3.271
REMARK  4 active torsions:
REMARK  status: ('A' for Active; 'I' for Inactive)
REMARK    1  A    between atoms: C2_2  and  C5_5 
REMARK    2  A    between atoms: C5_5  and  C6_6 
REMARK    3  A    between atoms: C6_6  and  C7_7 
REMARK    4  A    between atoms: C7_7  and  C8_8 
ROOT
HETATM    1  C1  UNL     1     -34.333   6.084   3.347  1.00 20.00    -0.111 C 
HETATM    2  C2  UNL     1     -33.448   6.046   2.537  1.00 20.00    -0.107 C 
HETATM    3  C3  UNL     1     -35.412   6.129   4.333  1.00 20.00     0.112 C 
ENDROOT
BRANCH   2   4
HETATM    4  C5  UNL     1     -32.364   5.999   1.545  1.00 20.00     0.094 C 
BRANCH   4   5
HETATM    5  C6  UNL     1     -31.482   7.249   1.591  1.00 20.00     0.014 C 
BRANCH   5   6
HETATM    6  C7  UNL     1     -32.297   8.551   1.590  1.00 20.00     0.020 C 
BRANCH   6   7
HETATM    7  C8  UNL     1     -32.356   9.227   0.213  1.00 20.00     0.078 C 
HETATM    8  C4  UNL     1     -32.669  10.713   0.345  1.00 20.00     0.026 C 
HETATM    9 CL9  UNL     1     -30.807   9.038  -0.662  1.00 20.00    -0.125 Cl
ENDBRANCH   6   7
ENDBRANCH   5   6
ENDBRANCH   4   5
ENDBRANCH   2   4
TORSDOF 4
ENDMDL
MODEL 8
REMARK VINA RESULT:      -1.5      1.701      4.099
REMARK  4 active torsions:
REMARK  status: ('A' for Active; 'I' for Inactive)
REMARK    1  A    between atoms: C2_2  and  C5_5 
REMARK    2  A    between atoms: C5_5  and  C6_6 
REMARK    3  A    between atoms: C6_6  and  C7_7 
REMARK    4  A    between atoms: C7_7  and  C8_8 
ROOT
HETATM    1  C1  UNL     1     -32.542   8.038   2.178  1.00 20.00    -0.111 C 
HETATM    2  C2  UNL     1     -33.282   7.746   3.077  1.00 20.00    -0.107 C 
HETATM    3  C3  UNL     1     -31.640   8.397   1.084  1.00 20.00     0.112 C 
ENDROOT
BRANCH   2   4
HETATM    4  C5  UNL     1     -34.187   7.388   4.178  1.00 20.00     0.094 C 
BRANCH   4   5
HETATM    5  C6  UNL     1     -35.131   6.243   3.803  1.00 20.00     0.014 C 
BRANCH   5   6
HETATM    6  C7  UNL     1     -34.898   4.982   4.649  1.00 20.00     0.020 C 
BRANCH   6   7
HETATM    7  C8  UNL     1     -34.078   3.908   3.921  1.00 20.00     0.078 C 
HETATM    8  C4  UNL     1     -33.214   4.526   2.828  1.00 20.00     0.026 C 
HETATM    9 CL9  UNL     1     -33.021   3.024   5.063  1.00 20.00    -0.125 Cl
ENDBRANCH   6   7
ENDBRANCH   5   6
ENDBRANCH   4   5
ENDBRANCH   2   4
TORSDOF 4
ENDMDL
MODEL 9
REMARK VINA RESULT:      -1.3      1.727      2.180
REMARK  4 active torsions:
REMARK  status: ('A' for Active; 'I' for Inactive)
REMARK    1  A    between atoms: C2_2  and  C5_5 
REMARK    2  A    between atoms: C5_5  and  C6_6 
REMARK    3  A    between atoms: C6_6  and  C7_7 
REMARK    4  A    between atoms: C7_7  and  C8_8 
ROOT
HETATM    1  C1  UNL     1     -33.588   4.083   4.079  1.00 20.00    -0.111 C 
HETATM    2  C2  UNL     1     -33.716   5.175   3.595  1.00 20.00    -0.107 C 
HETATM    3  C3  UNL     1     -33.430   2.754   4.667  1.00 20.00     0.112 C 
ENDROOT
BRANCH   2   4
HETATM    4  C5  UNL     1     -33.872   6.511   3.005  1.00 20.00     0.094 C 
BRANCH   4   5
HETATM    5  C6  UNL     1     -32.869   6.768   1.877  1.00 20.00     0.014 C 
BRANCH   5   6
HETATM    6  C7  UNL     1     -32.270   8.182   1.928  1.00 20.00     0.020 C 
BRANCH   6   7
HETATM    7  C8  UNL     1     -32.380   8.934   0.594  1.00 20.00     0.078 C 
HETATM    8  C4  UNL     1     -32.724  10.402   0.820  1.00 20.00     0.026 C 
HETATM    9 CL9  UNL     1     -30.850   8.835  -0.328  1.00 20.00    -0.125 Cl
ENDBRANCH   6   7
ENDBRANCH   5   6
ENDBRANCH   4   5
ENDBRANCH   2   4
TORSDOF 4
ENDMDL
