MODEL 1
REMARK VINA RESULT:       2.0      0.000      0.000
REMARK  2 active torsions:
REMARK  status: ('A' for Active; 'I' for Inactive)
REMARK    1  A    between atoms: C4_4  and  C10_10 
REMARK    2  A    between atoms: C8_8  and  C10_10 
ROOT
HETATM    1  C5  UNL     1     -32.478   7.121   1.382  1.00 20.00     0.006 C 
HETATM    2  C6  UNL     1     -31.338   7.783   0.621  1.00 20.00     0.016 C 
HETATM    3  C7  UNL     1     -32.331   9.418   2.144  1.00 20.00     0.020 C 
HETATM    4  C8  UNL     1     -32.598   7.986   2.633  1.00 20.00    -0.009 C 
HETATM    5  C9  UNL     1     -31.580   9.274   0.819  1.00 20.00     0.058 C 
HETATM    6 BR12 UNL     1     -32.675   9.967  -0.648  1.00 20.00    -0.091 Br
ENDROOT
BRANCH   4   7
HETATM    7  C10 UNL     1     -33.937   7.832   3.336  1.00 20.00     0.043 C 
BRANCH   7   8
HETATM    8  C4  UNL     1     -34.196   6.405   3.743  1.00 20.00    -0.051 A 
HETATM    9  C1  UNL     1     -35.389   5.968   4.390  1.00 20.00     0.014 A 
HETATM   10  C2  UNL     1     -35.370   4.616   4.653  1.00 20.00     0.050 A 
HETATM   11  S11 UNL     1     -33.919   3.879   4.119  1.00 20.00    -0.113 SA
HETATM   12  C3  UNL     1     -33.312   5.370   3.536  1.00 20.00     0.056 A 
ENDBRANCH   7   8
ENDBRANCH   4   7
TORSDOF 2
ENDMDL
MODEL 2
REMARK VINA RESULT:       2.4      3.484      5.366
REMARK  2 active torsions:
REMARK  status: ('A' for Active; 'I' for Inactive)
REMARK    1  A    between atoms: C4_4  and  C10_10 
REMARK    2  A    between atoms: C8_8  and  C10_10 
ROOT
HETATM    1  C5  UNL     1     -32.937   5.407   2.245  1.00 20.00     0.006 C 
HETATM    2  C6  UNL     1     -33.751   4.140   2.467  1.00 20.00     0.016 C 
HETATM    3  C7  UNL     1     -34.323   5.768   4.200  1.00 20.00     0.020 C 
HETATM    4  C8  UNL     1     -33.767   6.473   2.954  1.00 20.00    -0.009 C 
HETATM    5  C9  UNL     1     -34.247   4.269   3.902  1.00 20.00     0.058 C 
HETATM    6 BR12 UNL     1     -32.977   3.411   5.120  1.00 20.00    -0.091 Br
ENDROOT
BRANCH   4   7
HETATM    7  C10 UNL     1     -32.972   7.727   3.279  1.00 20.00     0.043 C 
BRANCH   7   8
HETATM    8  C4  UNL     1     -32.539   8.456   2.034  1.00 20.00    -0.051 A 
HETATM    9  C1  UNL     1     -31.464   8.032   1.198  1.00 20.00     0.014 A 
HETATM   10  C2  UNL     1     -31.277   8.879   0.127  1.00 20.00     0.050 A 
HETATM   11  S11 UNL     1     -32.395  10.177   0.131  1.00 20.00    -0.113 SA
HETATM   12  C3  UNL     1     -33.131   9.609   1.569  1.00 20.00     0.056 A 
ENDBRANCH   7   8
ENDBRANCH   4   7
TORSDOF 2
ENDMDL
MODEL 3
REMARK VINA RESULT:       2.9      0.960      1.441
REMARK  2 active torsions:
REMARK  status: ('A' for Active; 'I' for Inactive)
REMARK    1  A    between atoms: C4_4  and  C10_10 
REMARK    2  A    between atoms: C8_8  and  C10_10 
ROOT
HETATM    1  C5  UNL     1     -31.124   7.572   0.527  1.00 20.00     0.006 C 
HETATM    2  C6  UNL     1     -30.823   9.059   0.659  1.00 20.00     0.016 C 
HETATM    3  C7  UNL     1     -32.939   8.573   1.784  1.00 20.00     0.020 C 
HETATM    4  C8  UNL     1     -32.067   7.312   1.699  1.00 20.00    -0.009 C 
HETATM    5  C9  UNL     1     -32.160   9.671   1.057  1.00 20.00     0.058 C 
HETATM    6 BR12 UNL     1     -33.134  10.229  -0.547  1.00 20.00    -0.091 Br
ENDROOT
BRANCH   4   7
HETATM    7  C10 UNL     1     -32.874   6.034   1.539  1.00 20.00     0.043 C 
BRANCH   7   8
HETATM    8  C4  UNL     1     -33.731   5.757   2.747  1.00 20.00    -0.051 A 
HETATM    9  C1  UNL     1     -34.639   6.701   3.310  1.00 20.00     0.014 A 
HETATM   10  C2  UNL     1     -35.297   6.194   4.410  1.00 20.00     0.050 A 
HETATM   11  S11 UNL     1     -34.820   4.586   4.758  1.00 20.00    -0.113 SA
HETATM   12  C3  UNL     1     -33.730   4.566   3.438  1.00 20.00     0.056 A 
ENDBRANCH   7   8
ENDBRANCH   4   7
TORSDOF 2
ENDMDL
MODEL 4
REMARK VINA RESULT:       3.4      2.956      4.962
REMARK  2 active torsions:
REMARK  status: ('A' for Active; 'I' for Inactive)
REMARK    1  A    between atoms: C4_4  and  C10_10 
REMARK    2  A    between atoms: C8_8  and  C10_10 
ROOT
HETATM    1  C5  UNL     1     -33.338   4.801   3.460  1.00 20.00     0.006 C 
HETATM    2  C6  UNL     1     -34.547   5.043   4.354  1.00 20.00     0.016 C 
HETATM    3  C7  UNL     1     -34.516   6.730   2.584  1.00 20.00     0.020 C 
HETATM    4  C8  UNL     1     -33.743   5.475   2.152  1.00 20.00    -0.009 C 
HETATM    5  C9  UNL     1     -34.971   6.468   4.021  1.00 20.00     0.058 C 
HETATM    6 BR12 UNL     1     -34.089   7.721   5.239  1.00 20.00    -0.091 Br
ENDROOT
BRANCH   4   7
HETATM    7  C10 UNL     1     -32.559   5.781   1.250  1.00 20.00     0.043 C 
BRANCH   7   8
HETATM    8  C4  UNL     1     -32.332   7.264   1.105  1.00 20.00    -0.051 A 
HETATM    9  C1  UNL     1     -31.685   8.068   2.089  1.00 20.00     0.014 A 
HETATM   10  C2  UNL     1     -31.609   9.390   1.707  1.00 20.00     0.050 A 
HETATM   11  S11 UNL     1     -32.314   9.656   0.169  1.00 20.00    -0.113 SA
HETATM   12  C3  UNL     1     -32.725   8.001   0.011  1.00 20.00     0.056 A 
ENDBRANCH   7   8
ENDBRANCH   4   7
TORSDOF 2
ENDMDL
MODEL 5
REMARK VINA RESULT:       3.6      3.088      5.198
REMARK  2 active torsions:
REMARK  status: ('A' for Active; 'I' for Inactive)
REMARK    1  A    between atoms: C4_4  and  C10_10 
REMARK    2  A    between atoms: C8_8  and  C10_10 
ROOT
HETATM    1  C5  UNL     1     -33.217   8.095   3.352  1.00 20.00     0.006 C 
HETATM    2  C6  UNL     1     -34.133   7.557   4.444  1.00 20.00     0.016 C 
HETATM    3  C7  UNL     1     -33.738   5.793   2.796  1.00 20.00     0.020 C 
HETATM    4  C8  UNL     1     -32.601   6.825   2.772  1.00 20.00    -0.009 C 
HETATM    5  C9  UNL     1     -34.747   6.307   3.826  1.00 20.00     0.058 C 
HETATM    6 BR12 UNL     1     -36.430   6.768   2.938  1.00 20.00    -0.091 Br
ENDROOT
BRANCH   4   7
HETATM    7  C10 UNL     1     -32.009   7.032   1.387  1.00 20.00     0.043 C 
BRANCH   7   8
HETATM    8  C4  UNL     1     -32.261   8.425   0.871  1.00 20.00    -0.051 A 
HETATM    9  C1  UNL     1     -32.601   8.722  -0.482  1.00 20.00     0.014 A 
HETATM   10  C2  UNL     1     -32.775  10.073  -0.686  1.00 20.00     0.050 A 
HETATM   11  S11 UNL     1     -32.531  10.977   0.748  1.00 20.00    -0.113 SA
HETATM   12  C3  UNL     1     -32.189   9.560   1.647  1.00 20.00     0.056 A 
ENDBRANCH   7   8
ENDBRANCH   4   7
TORSDOF 2
ENDMDL
MODEL 6
REMARK VINA RESULT:       3.8      3.442      5.268
REMARK  2 active torsions:
REMARK  status: ('A' for Active; 'I' for Inactive)
REMARK    1  A    between atoms: C4_4  and  C10_10 
REMARK    2  A    between atoms: C8_8  and  C10_10 
ROOT
HETATM    1  C5  UNL     1     -33.160   4.642   3.236  1.00 20.00     0.006 C 
HETATM    2  C6  UNL     1     -33.037   3.181   3.649  1.00 20.00     0.016 C 
HETATM    3  C7  UNL     1     -34.735   4.260   5.039  1.00 20.00     0.020 C 
HETATM    4  C8  UNL     1     -34.563   5.011   3.710  1.00 20.00    -0.009 C 
HETATM    5  C9  UNL     1     -33.706   3.128   5.017  1.00 20.00     0.058 C 
HETATM    6 BR12 UNL     1     -32.369   3.414   6.418  1.00 20.00    -0.091 Br
ENDROOT
BRANCH   4   7
HETATM    7  C10 UNL     1     -34.771   6.511   3.838  1.00 20.00     0.043 C 
BRANCH   7   8
HETATM    8  C4  UNL     1     -33.592   7.288   3.313  1.00 20.00    -0.051 A 
HETATM    9  C1  UNL     1     -32.790   8.153   4.115  1.00 20.00     0.014 A 
HETATM   10  C2  UNL     1     -31.778   8.742   3.387  1.00 20.00     0.050 A 
HETATM   11  S11 UNL     1     -31.798   8.252   1.746  1.00 20.00    -0.113 SA
HETATM   12  C3  UNL     1     -33.163   7.251   2.005  1.00 20.00     0.056 A 
ENDBRANCH   7   8
ENDBRANCH   4   7
TORSDOF 2
ENDMDL
MODEL 7
REMARK VINA RESULT:       4.2      2.950      4.978
REMARK  2 active torsions:
REMARK  status: ('A' for Active; 'I' for Inactive)
REMARK    1  A    between atoms: C4_4  and  C10_10 
REMARK    2  A    between atoms: C8_8  and  C10_10 
ROOT
HETATM    1  C5  UNL     1     -33.784   7.399   3.181  1.00 20.00     0.006 C 
HETATM    2  C6  UNL     1     -34.170   5.940   2.976  1.00 20.00     0.016 C 
HETATM    3  C7  UNL     1     -32.001   6.345   1.921  1.00 20.00     0.020 C 
HETATM    4  C8  UNL     1     -32.266   7.372   3.032  1.00 20.00    -0.009 C 
HETATM    5  C9  UNL     1     -33.257   5.473   1.850  1.00 20.00     0.058 C 
HETATM    6 BR12 UNL     1     -34.149   5.728   0.126  1.00 20.00    -0.091 Br
ENDROOT
BRANCH   4   7
HETATM    7  C10 UNL     1     -31.674   8.740   2.737  1.00 20.00     0.043 C 
BRANCH   7   8
HETATM    8  C4  UNL     1     -32.044   9.227   1.360  1.00 20.00    -0.051 A 
HETATM    9  C1  UNL     1     -31.604   8.607   0.154  1.00 20.00     0.014 A 
HETATM   10  C2  UNL     1     -32.085   9.253  -0.964  1.00 20.00     0.050 A 
HETATM   11  S11 UNL     1     -33.062  10.600  -0.558  1.00 20.00    -0.113 SA
HETATM   12  C3  UNL     1     -32.842  10.322   1.117  1.00 20.00     0.056 A 
ENDBRANCH   7   8
ENDBRANCH   4   7
TORSDOF 2
ENDMDL
MODEL 8
REMARK VINA RESULT:       4.2      1.733      2.671
REMARK  2 active torsions:
REMARK  status: ('A' for Active; 'I' for Inactive)
REMARK    1  A    between atoms: C4_4  and  C10_10 
REMARK    2  A    between atoms: C8_8  and  C10_10 
ROOT
HETATM    1  C5  UNL     1     -33.157   7.475   4.709  1.00 20.00     0.006 C 
HETATM    2  C6  UNL     1     -32.371   8.616   4.078  1.00 20.00     0.016 C 
HETATM    3  C7  UNL     1     -34.137   7.919   2.536  1.00 20.00     0.020 C 
HETATM    4  C8  UNL     1     -34.497   7.543   3.981  1.00 20.00    -0.009 C 
HETATM    5  C9  UNL     1     -32.743   8.547   2.602  1.00 20.00     0.058 C 
HETATM    6 BR12 UNL     1     -31.457   7.420   1.649  1.00 20.00    -0.091 Br
ENDROOT
BRANCH   4   7
HETATM    7  C10 UNL     1     -35.295   6.253   4.084  1.00 20.00     0.043 C 
BRANCH   7   8
HETATM    8  C4  UNL     1     -34.404   5.039   4.058  1.00 20.00    -0.051 A 
HETATM    9  C1  UNL     1     -33.478   4.754   3.012  1.00 20.00     0.014 A 
HETATM   10  C2  UNL     1     -32.791   3.581   3.234  1.00 20.00     0.050 A 
HETATM   11  S11 UNL     1     -33.262   2.828   4.699  1.00 20.00    -0.113 SA
HETATM   12  C3  UNL     1     -34.389   4.072   5.038  1.00 20.00     0.056 A 
ENDBRANCH   7   8
ENDBRANCH   4   7
TORSDOF 2
ENDMDL
MODEL 9
REMARK VINA RESULT:       4.3      1.249      1.864
REMARK  2 active torsions:
REMARK  status: ('A' for Active; 'I' for Inactive)
REMARK    1  A    between atoms: C4_4  and  C10_10 
REMARK    2  A    between atoms: C8_8  and  C10_10 
ROOT
HETATM    1  C5  UNL     1     -32.435  10.146   1.510  1.00 20.00     0.006 C 
HETATM    2  C6  UNL     1     -32.686  10.407   0.031  1.00 20.00     0.016 C 
HETATM    3  C7  UNL     1     -32.753   7.996   0.436  1.00 20.00     0.020 C 
HETATM    4  C8  UNL     1     -33.065   8.773   1.724  1.00 20.00    -0.009 C 
HETATM    5  C9  UNL     1     -32.447   9.054  -0.627  1.00 20.00     0.058 C 
HETATM    6 BR12 UNL     1     -30.577   8.913  -1.189  1.00 20.00    -0.091 Br
ENDROOT
BRANCH   4   7
HETATM    7  C10 UNL     1     -32.564   8.078   2.979  1.00 20.00     0.043 C 
BRANCH   7   8
HETATM    8  C4  UNL     1     -33.479   6.959   3.405  1.00 20.00    -0.051 A 
HETATM    9  C1  UNL     1     -34.756   7.162   4.006  1.00 20.00     0.014 A 
HETATM   10  C2  UNL     1     -35.384   5.972   4.300  1.00 20.00     0.050 A 
HETATM   11  S11 UNL     1     -34.437   4.617   3.850  1.00 20.00    -0.113 SA
HETATM   12  C3  UNL     1     -33.182   5.622   3.262  1.00 20.00     0.056 A 
ENDBRANCH   7   8
ENDBRANCH   4   7
TORSDOF 2
ENDMDL
