MODEL 1
REMARK VINA RESULT:      -2.9      0.000      0.000
REMARK  1 active torsions:
REMARK  status: ('A' for Active; 'I' for Inactive)
REMARK    1  A    between atoms: C7_7  and  C8_8 
ROOT
HETATM    1  C1  UNL     1     -33.480   3.303   4.454  1.00 20.00     0.012 C 
HETATM    2  C2  UNL     1     -34.245   4.225   4.376  1.00 20.00    -0.117 C 
HETATM    3  C8  UNL     1     -35.185   5.349   4.282  1.00 20.00     0.098 C 
ENDROOT
BRANCH   3   4
HETATM    4  C7  UNL     1     -34.590   6.503   3.493  1.00 20.00     0.004 C 
HETATM    5  C5  UNL     1     -33.480   6.060   2.537  1.00 20.00     0.083 C 
HETATM    6  C3  UNL     1     -32.667   7.321   2.405  1.00 20.00     0.127 C 
HETATM    7  C4  UNL     1     -33.051   8.359   3.428  1.00 20.00     0.079 C 
HETATM    8  O9  UNL     1     -31.796   7.486   1.561  1.00 20.00    -0.298 OA
HETATM    9  C6  UNL     1     -33.913   7.545   4.386  1.00 20.00     0.013 C 
ENDBRANCH   3   4
TORSDOF 1
ENDMDL
MODEL 2
REMARK VINA RESULT:      -2.8      2.312      4.619
REMARK  1 active torsions:
REMARK  status: ('A' for Active; 'I' for Inactive)
REMARK    1  A    between atoms: C7_7  and  C8_8 
ROOT
HETATM    1  C1  UNL     1     -32.442  10.028  -0.067  1.00 20.00     0.012 C 
HETATM    2  C2  UNL     1     -32.195   9.190   0.757  1.00 20.00    -0.117 C 
HETATM    3  C8  UNL     1     -31.888   8.167   1.764  1.00 20.00     0.098 C 
ENDROOT
BRANCH   3   4
HETATM    4  C7  UNL     1     -33.075   7.246   1.995  1.00 20.00     0.004 C 
HETATM    5  C5  UNL     1     -33.805   7.536   3.309  1.00 20.00     0.083 C 
HETATM    6  C3  UNL     1     -34.433   6.200   3.611  1.00 20.00     0.127 C 
HETATM    7  C4  UNL     1     -33.886   5.100   2.738  1.00 20.00     0.079 C 
HETATM    8  O9  UNL     1     -35.291   6.028   4.468  1.00 20.00    -0.298 OA
HETATM    9  C6  UNL     1     -32.671   5.776   2.113  1.00 20.00     0.013 C 
ENDBRANCH   3   4
TORSDOF 1
ENDMDL
MODEL 3
REMARK VINA RESULT:      -2.5      2.202      4.285
REMARK  1 active torsions:
REMARK  status: ('A' for Active; 'I' for Inactive)
REMARK    1  A    between atoms: C7_7  and  C8_8 
ROOT
HETATM    1  C1  UNL     1     -32.622  10.076   0.469  1.00 20.00     0.012 C 
HETATM    2  C2  UNL     1     -32.244   8.993   0.823  1.00 20.00    -0.117 C 
HETATM    3  C8  UNL     1     -31.778   7.668   1.250  1.00 20.00     0.098 C 
ENDROOT
BRANCH   3   4
HETATM    4  C7  UNL     1     -32.425   7.251   2.560  1.00 20.00     0.004 C 
HETATM    5  C5  UNL     1     -33.672   6.386   2.358  1.00 20.00     0.083 C 
HETATM    6  C3  UNL     1     -34.441   6.657   3.625  1.00 20.00     0.127 C 
HETATM    7  C4  UNL     1     -33.878   7.822   4.398  1.00 20.00     0.079 C 
HETATM    8  O9  UNL     1     -35.411   6.003   3.987  1.00 20.00    -0.298 OA
HETATM    9  C6  UNL     1     -32.929   8.440   3.378  1.00 20.00     0.013 C 
ENDBRANCH   3   4
TORSDOF 1
ENDMDL
MODEL 4
REMARK VINA RESULT:      -2.1      1.090      1.862
REMARK  1 active torsions:
REMARK  status: ('A' for Active; 'I' for Inactive)
REMARK    1  A    between atoms: C7_7  and  C8_8 
ROOT
HETATM    1  C1  UNL     1     -33.441   2.863   4.636  1.00 20.00     0.012 C 
HETATM    2  C2  UNL     1     -33.820   3.926   4.228  1.00 20.00    -0.117 C 
HETATM    3  C8  UNL     1     -34.289   5.225   3.730  1.00 20.00     0.098 C 
ENDROOT
BRANCH   3   4
HETATM    4  C7  UNL     1     -33.151   6.029   3.125  1.00 20.00     0.004 C 
HETATM    5  C5  UNL     1     -33.482   7.516   2.984  1.00 20.00     0.083 C 
HETATM    6  C3  UNL     1     -32.577   7.926   1.850  1.00 20.00     0.127 C 
HETATM    7  C4  UNL     1     -31.974   6.739   1.144  1.00 20.00     0.079 C 
HETATM    8  O9  UNL     1     -32.356   9.089   1.540  1.00 20.00    -0.298 OA
HETATM    9  C6  UNL     1     -32.806   5.591   1.701  1.00 20.00     0.013 C 
ENDBRANCH   3   4
TORSDOF 1
ENDMDL
MODEL 5
REMARK VINA RESULT:      -1.7      2.008      3.806
REMARK  1 active torsions:
REMARK  status: ('A' for Active; 'I' for Inactive)
REMARK    1  A    between atoms: C7_7  and  C8_8 
ROOT
HETATM    1  C1  UNL     1     -31.365   7.733   1.482  1.00 20.00     0.012 C 
HETATM    2  C2  UNL     1     -32.443   7.776   2.009  1.00 20.00    -0.117 C 
HETATM    3  C8  UNL     1     -33.762   7.835   2.651  1.00 20.00     0.098 C 
ENDROOT
BRANCH   3   4
HETATM    4  C7  UNL     1     -33.924   6.731   3.682  1.00 20.00     0.004 C 
HETATM    5  C5  UNL     1     -33.325   5.399   3.227  1.00 20.00     0.083 C 
HETATM    6  C3  UNL     1     -34.136   4.410   4.022  1.00 20.00     0.127 C 
HETATM    7  C4  UNL     1     -35.337   5.046   4.671  1.00 20.00     0.079 C 
HETATM    8  O9  UNL     1     -33.849   3.224   4.131  1.00 20.00    -0.298 OA
HETATM    9  C6  UNL     1     -35.389   6.398   3.969  1.00 20.00     0.013 C 
ENDBRANCH   3   4
TORSDOF 1
ENDMDL
MODEL 6
REMARK VINA RESULT:      -1.7      1.317      2.338
REMARK  1 active torsions:
REMARK  status: ('A' for Active; 'I' for Inactive)
REMARK    1  A    between atoms: C7_7  and  C8_8 
ROOT
HETATM    1  C1  UNL     1     -35.427   5.083   4.499  1.00 20.00     0.012 C 
HETATM    2  C2  UNL     1     -34.935   6.149   4.249  1.00 20.00    -0.117 C 
HETATM    3  C8  UNL     1     -34.340   7.456   3.945  1.00 20.00     0.098 C 
ENDROOT
BRANCH   3   4
HETATM    4  C7  UNL     1     -33.044   7.304   3.165  1.00 20.00     0.004 C 
HETATM    5  C5  UNL     1     -32.691   8.550   2.349  1.00 20.00     0.083 C 
HETATM    6  C3  UNL     1     -31.843   7.966   1.250  1.00 20.00     0.127 C 
HETATM    7  C4  UNL     1     -31.922   6.462   1.204  1.00 20.00     0.079 C 
HETATM    8  O9  UNL     1     -31.164   8.637   0.482  1.00 20.00    -0.298 OA
HETATM    9  C6  UNL     1     -33.106   6.186   2.124  1.00 20.00     0.013 C 
ENDBRANCH   3   4
TORSDOF 1
ENDMDL
MODEL 7
REMARK VINA RESULT:      -1.6      1.479      2.159
REMARK  1 active torsions:
REMARK  status: ('A' for Active; 'I' for Inactive)
REMARK    1  A    between atoms: C7_7  and  C8_8 
ROOT
HETATM    1  C1  UNL     1     -35.469   5.082   4.603  1.00 20.00     0.012 C 
HETATM    2  C2  UNL     1     -34.967   6.124   4.282  1.00 20.00    -0.117 C 
HETATM    3  C8  UNL     1     -34.355   7.401   3.894  1.00 20.00     0.098 C 
ENDROOT
BRANCH   3   4
HETATM    4  C7  UNL     1     -33.617   7.281   2.571  1.00 20.00     0.004 C 
HETATM    5  C5  UNL     1     -33.229   5.839   2.236  1.00 20.00     0.083 C 
HETATM    6  C3  UNL     1     -32.038   6.043   1.336  1.00 20.00     0.127 C 
HETATM    7  C4  UNL     1     -31.538   7.464   1.364  1.00 20.00     0.079 C 
HETATM    8  O9  UNL     1     -31.535   5.156   0.658  1.00 20.00    -0.298 OA
HETATM    9  C6  UNL     1     -32.285   8.032   2.565  1.00 20.00     0.013 C 
ENDBRANCH   3   4
TORSDOF 1
ENDMDL
MODEL 8
REMARK VINA RESULT:      -1.2      2.156      4.490
REMARK  1 active torsions:
REMARK  status: ('A' for Active; 'I' for Inactive)
REMARK    1  A    between atoms: C7_7  and  C8_8 
ROOT
HETATM    1  C1  UNL     1     -32.721   9.924  -0.471  1.00 20.00     0.012 C 
HETATM    2  C2  UNL     1     -32.407   9.703   0.667  1.00 20.00    -0.117 C 
HETATM    3  C8  UNL     1     -32.021   9.438   2.058  1.00 20.00     0.098 C 
ENDROOT
BRANCH   3   4
HETATM    4  C7  UNL     1     -32.142   7.961   2.394  1.00 20.00     0.004 C 
HETATM    5  C5  UNL     1     -31.983   7.058   1.169  1.00 20.00     0.083 C 
HETATM    6  C3  UNL     1     -32.752   5.833   1.589  1.00 20.00     0.127 C 
HETATM    7  C4  UNL     1     -33.578   6.073   2.827  1.00 20.00     0.079 C 
HETATM    8  O9  UNL     1     -32.710   4.763   0.994  1.00 20.00    -0.298 OA
HETATM    9  C6  UNL     1     -33.518   7.591   2.949  1.00 20.00     0.013 C 
ENDBRANCH   3   4
TORSDOF 1
ENDMDL
MODEL 9
REMARK VINA RESULT:      -0.6      2.278      3.408
REMARK  1 active torsions:
REMARK  status: ('A' for Active; 'I' for Inactive)
REMARK    1  A    between atoms: C7_7  and  C8_8 
ROOT
HETATM    1  C1  UNL     1     -31.678   4.379   0.372  1.00 20.00     0.012 C 
HETATM    2  C2  UNL     1     -31.881   5.470   0.829  1.00 20.00    -0.117 C 
HETATM    3  C8  UNL     1     -32.126   6.806   1.385  1.00 20.00     0.098 C 
ENDROOT
BRANCH   3   4
HETATM    4  C7  UNL     1     -32.772   6.724   2.758  1.00 20.00     0.004 C 
HETATM    5  C5  UNL     1     -33.930   5.726   2.811  1.00 20.00     0.083 C 
HETATM    6  C3  UNL     1     -34.757   6.275   3.945  1.00 20.00     0.127 C 
HETATM    7  C4  UNL     1     -34.322   7.660   4.350  1.00 20.00     0.079 C 
HETATM    8  O9  UNL     1     -35.676   5.665   4.477  1.00 20.00    -0.298 OA
HETATM    9  C6  UNL     1     -33.403   8.046   3.197  1.00 20.00     0.013 C 
ENDBRANCH   3   4
TORSDOF 1
ENDMDL
