MODEL 1
REMARK VINA RESULT:      -3.0      0.000      0.000
REMARK  2 active torsions:
REMARK  status: ('A' for Active; 'I' for Inactive)
REMARK    1  A    between atoms: C8_8  and  C10_10 
REMARK    2  A    between atoms: C9_9  and  C10_10 
ROOT
HETATM    1  C1  UNL     1     -32.736  10.094  -0.454  1.00 20.00     0.012 C 
HETATM    2  C2  UNL     1     -32.268   9.437   0.435  1.00 20.00    -0.117 C 
HETATM    3  C9  UNL     1     -31.693   8.636   1.524  1.00 20.00     0.093 C 
ENDROOT
BRANCH   3   4
HETATM    4  C10 UNL     1     -32.124   7.187   1.394  1.00 20.00     0.017 C 
BRANCH   4   5
HETATM    5  C8  UNL     1     -32.810   6.708   2.672  1.00 20.00    -0.007 C 
HETATM    6  C5  UNL     1     -33.404   5.312   2.471  1.00 20.00     0.082 C 
HETATM    7  C3  UNL     1     -34.176   4.879   3.697  1.00 20.00     0.127 C 
HETATM    8  C4  UNL     1     -35.197   5.858   4.232  1.00 20.00     0.078 C 
HETATM    9  O11 UNL     1     -34.055   3.751   4.172  1.00 20.00    -0.298 OA
HETATM   10  C6  UNL     1     -34.576   7.238   4.396  1.00 20.00     0.008 C 
HETATM   11  C7  UNL     1     -33.888   7.707   3.115  1.00 20.00     0.005 C 
ENDBRANCH   4   5
ENDBRANCH   3   4
TORSDOF 2
ENDMDL
MODEL 2
REMARK VINA RESULT:      -1.9      1.200      2.028
REMARK  2 active torsions:
REMARK  status: ('A' for Active; 'I' for Inactive)
REMARK    1  A    between atoms: C8_8  and  C10_10 
REMARK    2  A    between atoms: C9_9  and  C10_10 
ROOT
HETATM    1  C1  UNL     1     -33.113  10.620  -0.366  1.00 20.00     0.012 C 
HETATM    2  C2  UNL     1     -32.373   9.764   0.036  1.00 20.00    -0.117 C 
HETATM    3  C9  UNL     1     -31.466   8.717   0.523  1.00 20.00     0.093 C 
ENDROOT
BRANCH   3   4
HETATM    4  C10 UNL     1     -31.747   8.417   1.983  1.00 20.00     0.017 C 
BRANCH   4   5
HETATM    5  C8  UNL     1     -32.818   7.337   2.119  1.00 20.00    -0.007 C 
HETATM    6  C5  UNL     1     -33.441   7.371   3.516  1.00 20.00     0.082 C 
HETATM    7  C3  UNL     1     -34.425   6.236   3.690  1.00 20.00     0.127 C 
HETATM    8  C4  UNL     1     -33.932   4.855   3.323  1.00 20.00     0.078 C 
HETATM    9  O11 UNL     1     -35.530   6.411   4.201  1.00 20.00    -0.298 OA
HETATM   10  C6  UNL     1     -33.299   4.865   1.939  1.00 20.00     0.008 C 
HETATM   11  C7  UNL     1     -32.232   5.952   1.810  1.00 20.00     0.005 C 
ENDBRANCH   4   5
ENDBRANCH   3   4
TORSDOF 2
ENDMDL
MODEL 3
REMARK VINA RESULT:      -1.8      2.276      5.018
REMARK  2 active torsions:
REMARK  status: ('A' for Active; 'I' for Inactive)
REMARK    1  A    between atoms: C8_8  and  C10_10 
REMARK    2  A    between atoms: C9_9  and  C10_10 
ROOT
HETATM    1  C1  UNL     1     -33.344   3.180   4.384  1.00 20.00     0.012 C 
HETATM    2  C2  UNL     1     -34.209   3.991   4.571  1.00 20.00    -0.117 C 
HETATM    3  C9  UNL     1     -35.269   4.982   4.804  1.00 20.00     0.093 C 
ENDROOT
BRANCH   3   4
HETATM    4  C10 UNL     1     -35.256   6.030   3.708  1.00 20.00     0.017 C 
BRANCH   4   5
HETATM    5  C8  UNL     1     -33.824   6.369   3.299  1.00 20.00    -0.007 C 
HETATM    6  C5  UNL     1     -33.547   7.861   3.501  1.00 20.00     0.082 C 
HETATM    7  C3  UNL     1     -32.167   8.220   2.996  1.00 20.00     0.127 C 
HETATM    8  C4  UNL     1     -31.820   7.764   1.598  1.00 20.00     0.078 C 
HETATM    9  O11 UNL     1     -31.406   8.934   3.649  1.00 20.00    -0.298 OA
HETATM   10  C6  UNL     1     -32.131   6.283   1.428  1.00 20.00     0.008 C 
HETATM   11  C7  UNL     1     -33.563   5.953   1.844  1.00 20.00     0.005 C 
ENDBRANCH   4   5
ENDBRANCH   3   4
TORSDOF 2
ENDMDL
MODEL 4
REMARK VINA RESULT:      -1.4      1.219      1.976
REMARK  2 active torsions:
REMARK  status: ('A' for Active; 'I' for Inactive)
REMARK    1  A    between atoms: C8_8  and  C10_10 
REMARK    2  A    between atoms: C9_9  and  C10_10 
ROOT
HETATM    1  C1  UNL     1     -32.597  10.062  -0.218  1.00 20.00     0.012 C 
HETATM    2  C2  UNL     1     -32.369   9.341   0.713  1.00 20.00    -0.117 C 
HETATM    3  C9  UNL     1     -32.089   8.460   1.856  1.00 20.00     0.093 C 
ENDROOT
BRANCH   3   4
HETATM    4  C10 UNL     1     -31.961   7.022   1.391  1.00 20.00     0.017 C 
BRANCH   4   5
HETATM    5  C8  UNL     1     -33.058   6.154   2.004  1.00 20.00    -0.007 C 
HETATM    6  C5  UNL     1     -33.788   6.917   3.112  1.00 20.00     0.082 C 
HETATM    7  C3  UNL     1     -34.803   6.025   3.793  1.00 20.00     0.127 C 
HETATM    8  C4  UNL     1     -34.306   4.677   4.265  1.00 20.00     0.078 C 
HETATM    9  O11 UNL     1     -35.942   6.416   4.044  1.00 20.00    -0.298 OA
HETATM   10  C6  UNL     1     -33.566   3.960   3.144  1.00 20.00     0.008 C 
HETATM   11  C7  UNL     1     -32.474   4.837   2.534  1.00 20.00     0.005 C 
ENDBRANCH   4   5
ENDBRANCH   3   4
TORSDOF 2
ENDMDL
MODEL 5
REMARK VINA RESULT:      -0.7      1.886      4.687
REMARK  2 active torsions:
REMARK  status: ('A' for Active; 'I' for Inactive)
REMARK    1  A    between atoms: C8_8  and  C10_10 
REMARK    2  A    between atoms: C9_9  and  C10_10 
ROOT
HETATM    1  C1  UNL     1     -33.362   3.253   4.826  1.00 20.00     0.012 C 
HETATM    2  C2  UNL     1     -34.232   4.055   4.627  1.00 20.00    -0.117 C 
HETATM    3  C9  UNL     1     -35.300   5.034   4.382  1.00 20.00     0.093 C 
ENDROOT
BRANCH   3   4
HETATM    4  C10 UNL     1     -34.736   6.442   4.404  1.00 20.00     0.017 C 
BRANCH   4   5
HETATM    5  C8  UNL     1     -34.027   6.762   3.089  1.00 20.00    -0.007 C 
HETATM    6  C5  UNL     1     -33.363   5.507   2.519  1.00 20.00     0.082 C 
HETATM    7  C3  UNL     1     -32.570   5.842   1.274  1.00 20.00     0.127 C 
HETATM    8  C4  UNL     1     -31.601   6.997   1.382  1.00 20.00     0.078 C 
HETATM    9  O11 UNL     1     -32.634   5.147   0.261  1.00 20.00    -0.298 OA
HETATM   10  C6  UNL     1     -32.291   8.218   1.975  1.00 20.00     0.008 C 
HETATM   11  C7  UNL     1     -33.001   7.887   3.287  1.00 20.00     0.005 C 
ENDBRANCH   4   5
ENDBRANCH   3   4
TORSDOF 2
ENDMDL
MODEL 6
REMARK VINA RESULT:      -0.6      2.307      4.897
REMARK  2 active torsions:
REMARK  status: ('A' for Active; 'I' for Inactive)
REMARK    1  A    between atoms: C8_8  and  C10_10 
REMARK    2  A    between atoms: C9_9  and  C10_10 
ROOT
HETATM    1  C1  UNL     1     -33.082   2.875   5.165  1.00 20.00     0.012 C 
HETATM    2  C2  UNL     1     -33.575   3.599   4.345  1.00 20.00    -0.117 C 
HETATM    3  C9  UNL     1     -34.178   4.484   3.339  1.00 20.00     0.093 C 
ENDROOT
BRANCH   3   4
HETATM    4  C10 UNL     1     -34.823   5.680   4.011  1.00 20.00     0.017 C 
BRANCH   4   5
HETATM    5  C8  UNL     1     -34.091   6.969   3.643  1.00 20.00    -0.007 C 
HETATM    6  C5  UNL     1     -33.139   6.728   2.468  1.00 20.00     0.082 C 
HETATM    7  C3  UNL     1     -32.334   7.973   2.170  1.00 20.00     0.127 C 
HETATM    8  C4  UNL     1     -31.633   8.620   3.343  1.00 20.00     0.078 C 
HETATM    9  O11 UNL     1     -32.172   8.378   1.020  1.00 20.00    -0.298 OA
HETATM   10  C6  UNL     1     -32.604   8.822   4.498  1.00 20.00     0.008 C 
HETATM   11  C7  UNL     1     -33.336   7.529   4.857  1.00 20.00     0.005 C 
ENDBRANCH   4   5
ENDBRANCH   3   4
TORSDOF 2
ENDMDL
