MODEL 1
REMARK VINA RESULT:      -2.5      0.000      0.000
REMARK  1 active torsions:
REMARK  status: ('A' for Active; 'I' for Inactive)
REMARK    1  A    between atoms: C7_7  and  C9_9 
ROOT
HETATM    1  C1  UNL     1     -32.448  10.045   0.338  1.00 20.00     0.012 C 
HETATM    2  C2  UNL     1     -32.202   8.971   0.817  1.00 20.00    -0.117 C 
HETATM    3  C9  UNL     1     -31.891   7.662   1.396  1.00 20.00     0.097 C 
ENDROOT
BRANCH   3   4
HETATM    4  C7  UNL     1     -33.083   7.112   2.176  1.00 20.00    -0.002 C 
HETATM    5  C4  UNL     1     -33.388   7.972   3.405  1.00 20.00     0.005 C 
HETATM    6  C3  UNL     1     -34.652   7.499   4.129  1.00 20.00     0.002 C 
HETATM    7  C5  UNL     1     -34.894   5.991   4.025  1.00 20.00     0.020 C 
HETATM    8  C8  UNL     1     -33.584   5.230   3.850  1.00 20.00     0.082 C 
HETATM    9  C6  UNL     1     -32.853   5.638   2.565  1.00 20.00     0.025 C 
HETATM   10 CL10 UNL     1     -33.879   3.469   3.858  1.00 20.00    -0.125 Cl
ENDBRANCH   3   4
TORSDOF 1
ENDMDL
MODEL 2
REMARK VINA RESULT:      -1.7      1.367      2.259
REMARK  1 active torsions:
REMARK  status: ('A' for Active; 'I' for Inactive)
REMARK    1  A    between atoms: C7_7  and  C9_9 
ROOT
HETATM    1  C1  UNL     1     -32.718   9.836  -0.398  1.00 20.00     0.012 C 
HETATM    2  C2  UNL     1     -32.272   9.517   0.671  1.00 20.00    -0.117 C 
HETATM    3  C9  UNL     1     -31.723   9.139   1.975  1.00 20.00     0.097 C 
ENDROOT
BRANCH   3   4
HETATM    4  C7  UNL     1     -32.127   7.714   2.346  1.00 20.00    -0.002 C 
HETATM    5  C4  UNL     1     -32.194   6.815   1.110  1.00 20.00     0.005 C 
HETATM    6  C3  UNL     1     -32.484   5.358   1.482  1.00 20.00     0.002 C 
HETATM    7  C5  UNL     1     -33.350   5.203   2.735  1.00 20.00     0.020 C 
HETATM    8  C8  UNL     1     -34.260   6.410   2.932  1.00 20.00     0.082 C 
HETATM    9  C6  UNL     1     -33.460   7.705   3.120  1.00 20.00     0.025 C 
HETATM   10 CL10 UNL     1     -35.348   6.151   4.324  1.00 20.00    -0.125 Cl
ENDBRANCH   3   4
TORSDOF 1
ENDMDL
MODEL 3
REMARK VINA RESULT:      -1.5      2.297      4.593
REMARK  1 active torsions:
REMARK  status: ('A' for Active; 'I' for Inactive)
REMARK    1  A    between atoms: C7_7  and  C9_9 
ROOT
HETATM    1  C1  UNL     1     -33.058   2.549   5.148  1.00 20.00     0.012 C 
HETATM    2  C2  UNL     1     -33.532   3.296   4.335  1.00 20.00    -0.117 C 
HETATM    3  C9  UNL     1     -34.116   4.198   3.340  1.00 20.00     0.097 C 
ENDROOT
BRANCH   3   4
HETATM    4  C7  UNL     1     -33.534   5.604   3.467  1.00 20.00    -0.002 C 
HETATM    5  C4  UNL     1     -34.597   6.607   3.921  1.00 20.00     0.005 C 
HETATM    6  C3  UNL     1     -34.000   7.995   4.166  1.00 20.00     0.002 C 
HETATM    7  C5  UNL     1     -32.806   8.321   3.263  1.00 20.00     0.020 C 
HETATM    8  C8  UNL     1     -32.890   7.566   1.941  1.00 20.00     0.082 C 
HETATM    9  C6  UNL     1     -32.870   6.046   2.149  1.00 20.00     0.025 C 
HETATM   10 CL10 UNL     1     -31.558   8.057   0.857  1.00 20.00    -0.125 Cl
ENDBRANCH   3   4
TORSDOF 1
ENDMDL
MODEL 4
REMARK VINA RESULT:      -1.3      1.752      2.448
REMARK  1 active torsions:
REMARK  status: ('A' for Active; 'I' for Inactive)
REMARK    1  A    between atoms: C7_7  and  C9_9 
ROOT
HETATM    1  C1  UNL     1     -32.878  10.356  -0.005  1.00 20.00     0.012 C 
HETATM    2  C2  UNL     1     -32.134   9.465   0.302  1.00 20.00    -0.117 C 
HETATM    3  C9  UNL     1     -31.218   8.382   0.668  1.00 20.00     0.097 C 
ENDROOT
BRANCH   3   4
HETATM    4  C7  UNL     1     -31.866   7.434   1.675  1.00 20.00    -0.002 C 
HETATM    5  C4  UNL     1     -32.831   6.467   0.986  1.00 20.00     0.005 C 
HETATM    6  C3  UNL     1     -33.399   5.437   1.967  1.00 20.00     0.002 C 
HETATM    7  C5  UNL     1     -33.546   5.963   3.397  1.00 20.00     0.020 C 
HETATM    8  C8  UNL     1     -33.756   7.473   3.413  1.00 20.00     0.082 C 
HETATM    9  C6  UNL     1     -32.566   8.222   2.799  1.00 20.00     0.025 C 
HETATM   10 CL10 UNL     1     -34.051   8.045   5.079  1.00 20.00    -0.125 Cl
ENDBRANCH   3   4
TORSDOF 1
ENDMDL
MODEL 5
REMARK VINA RESULT:      -0.4      2.482      4.899
REMARK  1 active torsions:
REMARK  status: ('A' for Active; 'I' for Inactive)
REMARK    1  A    between atoms: C7_7  and  C9_9 
ROOT
HETATM    1  C1  UNL     1     -33.331   2.929   4.729  1.00 20.00     0.012 C 
HETATM    2  C2  UNL     1     -33.854   3.964   4.415  1.00 20.00    -0.117 C 
HETATM    3  C9  UNL     1     -34.498   5.226   4.041  1.00 20.00     0.097 C 
ENDROOT
BRANCH   3   4
HETATM    4  C7  UNL     1     -33.856   5.818   2.789  1.00 20.00    -0.002 C 
HETATM    5  C4  UNL     1     -32.625   5.015   2.363  1.00 20.00     0.005 C 
HETATM    6  C3  UNL     1     -32.041   5.529   1.044  1.00 20.00     0.002 C 
HETATM    7  C5  UNL     1     -32.232   7.033   0.830  1.00 20.00     0.020 C 
HETATM    8  C8  UNL     1     -32.318   7.776   2.158  1.00 20.00     0.082 C 
HETATM    9  C6  UNL     1     -33.512   7.305   2.999  1.00 20.00     0.025 C 
HETATM   10 CL10 UNL     1     -32.414   9.538   1.884  1.00 20.00    -0.125 Cl
ENDBRANCH   3   4
TORSDOF 1
ENDMDL
MODEL 6
REMARK VINA RESULT:      -0.3      2.367      4.713
REMARK  1 active torsions:
REMARK  status: ('A' for Active; 'I' for Inactive)
REMARK    1  A    between atoms: C7_7  and  C9_9 
ROOT
HETATM    1  C1  UNL     1     -33.506   3.220   4.645  1.00 20.00     0.012 C 
HETATM    2  C2  UNL     1     -34.142   4.202   4.375  1.00 20.00    -0.117 C 
HETATM    3  C9  UNL     1     -34.927   5.397   4.052  1.00 20.00     0.097 C 
ENDROOT
BRANCH   3   4
HETATM    4  C7  UNL     1     -34.150   6.327   3.123  1.00 20.00    -0.002 C 
HETATM    5  C4  UNL     1     -33.289   5.535   2.137  1.00 20.00     0.005 C 
HETATM    6  C3  UNL     1     -32.596   6.453   1.125  1.00 20.00     0.002 C 
HETATM    7  C5  UNL     1     -32.255   7.838   1.682  1.00 20.00     0.020 C 
HETATM    8  C8  UNL     1     -32.042   7.791   3.191  1.00 20.00     0.082 C 
HETATM    9  C6  UNL     1     -33.303   7.328   3.932  1.00 20.00     0.025 C 
HETATM   10 CL10 UNL     1     -31.523   9.389   3.798  1.00 20.00    -0.125 Cl
ENDBRANCH   3   4
TORSDOF 1
ENDMDL
MODEL 7
REMARK VINA RESULT:      -0.3      1.580      2.051
REMARK  1 active torsions:
REMARK  status: ('A' for Active; 'I' for Inactive)
REMARK    1  A    between atoms: C7_7  and  C9_9 
ROOT
HETATM    1  C1  UNL     1     -32.731  10.519  -0.697  1.00 20.00     0.012 C 
HETATM    2  C2  UNL     1     -32.517  10.034   0.381  1.00 20.00    -0.117 C 
HETATM    3  C9  UNL     1     -32.249   9.452   1.698  1.00 20.00     0.097 C 
ENDROOT
BRANCH   3   4
HETATM    4  C7  UNL     1     -32.884   8.068   1.824  1.00 20.00    -0.002 C 
HETATM    5  C4  UNL     1     -33.160   7.715   3.287  1.00 20.00     0.005 C 
HETATM    6  C3  UNL     1     -33.902   6.382   3.419  1.00 20.00     0.002 C 
HETATM    7  C5  UNL     1     -33.562   5.376   2.315  1.00 20.00     0.020 C 
HETATM    8  C8  UNL     1     -32.157   5.606   1.769  1.00 20.00     0.082 C 
HETATM    9  C6  UNL     1     -32.009   6.998   1.143  1.00 20.00     0.025 C 
HETATM   10 CL10 UNL     1     -31.736   4.346   0.576  1.00 20.00    -0.125 Cl
ENDBRANCH   3   4
TORSDOF 1
ENDMDL
MODEL 8
REMARK VINA RESULT:      -0.1      1.580      4.016
REMARK  1 active torsions:
REMARK  status: ('A' for Active; 'I' for Inactive)
REMARK    1  A    between atoms: C7_7  and  C9_9 
ROOT
HETATM    1  C1  UNL     1     -35.484   5.050   4.505  1.00 20.00     0.012 C 
HETATM    2  C2  UNL     1     -35.034   6.149   4.322  1.00 20.00    -0.117 C 
HETATM    3  C9  UNL     1     -34.495   7.494   4.105  1.00 20.00     0.097 C 
ENDROOT
BRANCH   3   4
HETATM    4  C7  UNL     1     -33.253   7.448   3.218  1.00 20.00    -0.002 C 
HETATM    5  C4  UNL     1     -33.234   8.617   2.229  1.00 20.00     0.005 C 
HETATM    6  C3  UNL     1     -31.938   8.649   1.414  1.00 20.00     0.002 C 
HETATM    7  C5  UNL     1     -31.337   7.264   1.157  1.00 20.00     0.020 C 
HETATM    8  C8  UNL     1     -32.415   6.186   1.145  1.00 20.00     0.082 C 
HETATM    9  C6  UNL     1     -33.147   6.094   2.490  1.00 20.00     0.025 C 
HETATM   10 CL10 UNL     1     -31.709   4.601   0.719  1.00 20.00    -0.125 Cl
ENDBRANCH   3   4
TORSDOF 1
ENDMDL
MODEL 9
REMARK VINA RESULT:       0.5      1.779      2.426
REMARK  1 active torsions:
REMARK  status: ('A' for Active; 'I' for Inactive)
REMARK    1  A    between atoms: C7_7  and  C9_9 
ROOT
HETATM    1  C1  UNL     1     -31.176   4.590   0.318  1.00 20.00     0.012 C 
HETATM    2  C2  UNL     1     -31.856   5.427   0.846  1.00 20.00    -0.117 C 
HETATM    3  C9  UNL     1     -32.680   6.457   1.484  1.00 20.00     0.097 C 
ENDROOT
BRANCH   3   4
HETATM    4  C7  UNL     1     -33.704   5.831   2.427  1.00 20.00    -0.002 C 
HETATM    5  C4  UNL     1     -34.184   6.838   3.475  1.00 20.00     0.005 C 
HETATM    6  C3  UNL     1     -35.297   6.258   4.353  1.00 20.00     0.002 C 
HETATM    7  C5  UNL     1     -35.187   4.746   4.567  1.00 20.00     0.020 C 
HETATM    8  C8  UNL     1     -33.740   4.276   4.471  1.00 20.00     0.082 C 
HETATM    9  C6  UNL     1     -33.138   4.560   3.089  1.00 20.00     0.025 C 
HETATM   10 CL10 UNL     1     -33.623   2.534   4.848  1.00 20.00    -0.125 Cl
ENDBRANCH   3   4
TORSDOF 1
ENDMDL
