MODEL 1
REMARK VINA RESULT:      -0.1      0.000      0.000
REMARK  2 active torsions:
REMARK  status: ('A' for Active; 'I' for Inactive)
REMARK    1  A    between atoms: C7_7  and  C10_10 
REMARK    2  A    between atoms: C9_9  and  C10_10 
ROOT
HETATM    1  C2  UNL     1     -34.504   6.974   3.568  1.00 20.00     0.006 C 
HETATM    2  C3  UNL     1     -34.732   5.693   4.379  1.00 20.00     0.020 C 
HETATM    3  C5  UNL     1     -32.875   5.288   2.936  1.00 20.00     0.025 C 
HETATM    4  C7  UNL     1     -33.476   6.619   2.483  1.00 20.00    -0.011 C 
HETATM    5  C8  UNL     1     -34.074   4.590   3.560  1.00 20.00     0.082 C 
HETATM    6 CL12 UNL     1     -33.606   3.201   4.551  1.00 20.00    -0.125 Cl
ENDROOT
BRANCH   4   7
HETATM    7  C10 UNL     1     -32.430   7.701   2.271  1.00 20.00     0.036 C 
BRANCH   7   8
HETATM    8  C9  UNL     1     -32.716   8.530   1.036  1.00 20.00     0.121 C 
HETATM    9  C4  UNL     1     -31.484   8.808   0.193  1.00 20.00     0.034 C 
HETATM   10  C1  UNL     1     -31.879  10.086  -0.505  1.00 20.00     0.029 C 
HETATM   11  C6  UNL     1     -32.637  10.815   0.585  1.00 20.00     0.168 C 
HETATM   12  O11 UNL     1     -33.237   9.814   1.419  1.00 20.00    -0.386 OA
ENDBRANCH   7   8
ENDBRANCH   4   7
TORSDOF 2
ENDMDL
MODEL 2
REMARK VINA RESULT:      -0.1      1.285      1.632
REMARK  2 active torsions:
REMARK  status: ('A' for Active; 'I' for Inactive)
REMARK    1  A    between atoms: C7_7  and  C10_10 
REMARK    2  A    between atoms: C9_9  and  C10_10 
ROOT
HETATM    1  C2  UNL     1     -33.459   8.227   3.723  1.00 20.00     0.006 C 
HETATM    2  C3  UNL     1     -34.277   7.277   4.603  1.00 20.00     0.020 C 
HETATM    3  C5  UNL     1     -33.570   6.030   2.696  1.00 20.00     0.025 C 
HETATM    4  C7  UNL     1     -33.221   7.488   2.397  1.00 20.00    -0.011 C 
HETATM    5  C8  UNL     1     -34.736   6.170   3.662  1.00 20.00     0.082 C 
HETATM    6 CL12 UNL     1     -35.090   4.662   4.516  1.00 20.00    -0.125 Cl
ENDROOT
BRANCH   4   7
HETATM    7  C10 UNL     1     -31.811   7.663   1.857  1.00 20.00     0.036 C 
BRANCH   7   8
HETATM    8  C9  UNL     1     -31.659   8.955   1.080  1.00 20.00     0.121 C 
HETATM    9  C4  UNL     1     -32.630  10.040   1.513  1.00 20.00     0.034 C 
HETATM   10  C1  UNL     1     -32.728  10.872   0.259  1.00 20.00     0.029 C 
HETATM   11  C6  UNL     1     -32.695   9.813  -0.823  1.00 20.00     0.168 C 
HETATM   12  O11 UNL     1     -31.917   8.720  -0.314  1.00 20.00    -0.386 OA
ENDBRANCH   7   8
ENDBRANCH   4   7
TORSDOF 2
ENDMDL
MODEL 3
REMARK VINA RESULT:       0.4      1.225      1.668
REMARK  2 active torsions:
REMARK  status: ('A' for Active; 'I' for Inactive)
REMARK    1  A    between atoms: C7_7  and  C10_10 
REMARK    2  A    between atoms: C9_9  and  C10_10 
ROOT
HETATM    1  C2  UNL     1     -35.333   6.367   4.016  1.00 20.00     0.006 C 
HETATM    2  C3  UNL     1     -35.277   4.916   4.505  1.00 20.00     0.020 C 
HETATM    3  C5  UNL     1     -33.102   5.464   3.690  1.00 20.00     0.025 C 
HETATM    4  C7  UNL     1     -34.009   6.623   3.277  1.00 20.00    -0.011 C 
HETATM    5  C8  UNL     1     -34.083   4.305   3.782  1.00 20.00     0.082 C 
HETATM    6 CL12 UNL     1     -33.409   2.917   4.646  1.00 20.00    -0.125 Cl
ENDROOT
BRANCH   4   7
HETATM    7  C10 UNL     1     -33.407   7.985   3.581  1.00 20.00     0.036 C 
BRANCH   7   8
HETATM    8  C9  UNL     1     -32.354   8.377   2.564  1.00 20.00     0.121 C 
HETATM    9  C4  UNL     1     -32.798   9.487   1.627  1.00 20.00     0.034 C 
HETATM   10  C1  UNL     1     -31.936   9.224   0.418  1.00 20.00     0.029 C 
HETATM   11  C6  UNL     1     -31.912   7.710   0.374  1.00 20.00     0.168 C 
HETATM   12  O11 UNL     1     -32.039   7.251   1.728  1.00 20.00    -0.386 OA
ENDBRANCH   7   8
ENDBRANCH   4   7
TORSDOF 2
ENDMDL
MODEL 4
REMARK VINA RESULT:       0.4      1.469      1.903
REMARK  2 active torsions:
REMARK  status: ('A' for Active; 'I' for Inactive)
REMARK    1  A    between atoms: C7_7  and  C10_10 
REMARK    2  A    between atoms: C9_9  and  C10_10 
ROOT
HETATM    1  C2  UNL     1     -32.499   5.853   1.502  1.00 20.00     0.006 C 
HETATM    2  C3  UNL     1     -33.835   5.379   2.084  1.00 20.00     0.020 C 
HETATM    3  C5  UNL     1     -33.239   7.380   3.239  1.00 20.00     0.025 C 
HETATM    4  C7  UNL     1     -32.013   6.992   2.413  1.00 20.00    -0.011 C 
HETATM    5  C8  UNL     1     -33.919   6.037   3.455  1.00 20.00     0.082 C 
HETATM    6 CL12 UNL     1     -35.587   6.209   4.020  1.00 20.00    -0.125 Cl
ENDROOT
BRANCH   4   7
HETATM    7  C10 UNL     1     -31.419   8.161   1.645  1.00 20.00     0.036 C 
BRANCH   7   8
HETATM    8  C9  UNL     1     -32.483   8.959   0.919  1.00 20.00     0.121 C 
HETATM    9  C4  UNL     1     -32.229   9.091  -0.573  1.00 20.00     0.034 C 
HETATM   10  C1  UNL     1     -32.967  10.368  -0.891  1.00 20.00     0.029 C 
HETATM   11  C6  UNL     1     -32.684  11.207   0.338  1.00 20.00     0.168 C 
HETATM   12  O11 UNL     1     -32.528  10.299   1.438  1.00 20.00    -0.386 OA
ENDBRANCH   7   8
ENDBRANCH   4   7
TORSDOF 2
ENDMDL
MODEL 5
REMARK VINA RESULT:       0.5      2.945      5.305
REMARK  2 active torsions:
REMARK  status: ('A' for Active; 'I' for Inactive)
REMARK    1  A    between atoms: C7_7  and  C10_10 
REMARK    2  A    between atoms: C9_9  and  C10_10 
ROOT
HETATM    1  C2  UNL     1     -32.018   8.007   2.625  1.00 20.00     0.006 C 
HETATM    2  C3  UNL     1     -32.207   9.405   2.026  1.00 20.00     0.020 C 
HETATM    3  C5  UNL     1     -32.640   7.833   0.285  1.00 20.00     0.025 C 
HETATM    4  C7  UNL     1     -32.059   7.024   1.445  1.00 20.00    -0.011 C 
HETATM    5  C8  UNL     1     -32.045   9.212   0.524  1.00 20.00     0.082 C 
HETATM    6 CL12 UNL     1     -32.863  10.472  -0.411  1.00 20.00    -0.125 Cl
ENDROOT
BRANCH   4   7
HETATM    7  C10 UNL     1     -32.850   5.761   1.743  1.00 20.00     0.036 C 
BRANCH   7   8
HETATM    8  C9  UNL     1     -33.395   5.757   3.157  1.00 20.00     0.121 C 
HETATM    9  C4  UNL     1     -33.971   4.417   3.581  1.00 20.00     0.034 C 
HETATM   10  C1  UNL     1     -34.959   4.836   4.640  1.00 20.00     0.029 C 
HETATM   11  C6  UNL     1     -35.512   6.122   4.061  1.00 20.00     0.168 C 
HETATM   12  O11 UNL     1     -34.468   6.707   3.271  1.00 20.00    -0.386 OA
ENDBRANCH   7   8
ENDBRANCH   4   7
TORSDOF 2
ENDMDL
MODEL 6
REMARK VINA RESULT:       1.0      3.252      5.820
REMARK  2 active torsions:
REMARK  status: ('A' for Active; 'I' for Inactive)
REMARK    1  A    between atoms: C7_7  and  C10_10 
REMARK    2  A    between atoms: C9_9  and  C10_10 
ROOT
HETATM    1  C2  UNL     1     -31.469   7.508   1.159  1.00 20.00     0.006 C 
HETATM    2  C3  UNL     1     -31.039   8.744   0.362  1.00 20.00     0.020 C 
HETATM    3  C5  UNL     1     -33.065   9.308   1.490  1.00 20.00     0.025 C 
HETATM    4  C7  UNL     1     -32.886   7.801   1.676  1.00 20.00    -0.011 C 
HETATM    5  C8  UNL     1     -32.312   9.563   0.193  1.00 20.00     0.082 C 
HETATM    6 CL12 UNL     1     -31.981  11.281  -0.068  1.00 20.00    -0.125 Cl
ENDROOT
BRANCH   4   7
HETATM    7  C10 UNL     1     -33.106   7.350   3.111  1.00 20.00     0.036 C 
BRANCH   7   8
HETATM    8  C9  UNL     1     -34.105   6.213   3.199  1.00 20.00     0.121 C 
HETATM    9  C4  UNL     1     -35.078   6.350   4.357  1.00 20.00     0.034 C 
HETATM   10  C1  UNL     1     -35.456   4.911   4.603  1.00 20.00     0.029 C 
HETATM   11  C6  UNL     1     -34.141   4.197   4.367  1.00 20.00     0.168 C 
HETATM   12  O11 UNL     1     -33.413   4.969   3.402  1.00 20.00    -0.386 OA
ENDBRANCH   7   8
ENDBRANCH   4   7
TORSDOF 2
ENDMDL
MODEL 7
REMARK VINA RESULT:       1.8      3.125      5.399
REMARK  2 active torsions:
REMARK  status: ('A' for Active; 'I' for Inactive)
REMARK    1  A    between atoms: C7_7  and  C10_10 
REMARK    2  A    between atoms: C9_9  and  C10_10 
ROOT
HETATM    1  C2  UNL     1     -31.480   7.597   1.328  1.00 20.00     0.006 C 
HETATM    2  C3  UNL     1     -31.235   8.544   0.149  1.00 20.00     0.020 C 
HETATM    3  C5  UNL     1     -32.860   9.583   1.553  1.00 20.00     0.025 C 
HETATM    4  C7  UNL     1     -32.694   8.159   2.086  1.00 20.00    -0.011 C 
HETATM    5  C8  UNL     1     -32.476   9.426   0.090  1.00 20.00     0.082 C 
HETATM    6 CL12 UNL     1     -32.163  10.979  -0.696  1.00 20.00    -0.125 Cl
ENDROOT
BRANCH   4   7
HETATM    7  C10 UNL     1     -32.535   8.105   3.596  1.00 20.00     0.036 C 
BRANCH   7   8
HETATM    8  C9  UNL     1     -33.407   7.032   4.217  1.00 20.00     0.121 C 
HETATM    9  C4  UNL     1     -33.404   5.725   3.444  1.00 20.00     0.034 C 
HETATM   10  C1  UNL     1     -34.737   5.139   3.838  1.00 20.00     0.029 C 
HETATM   11  C6  UNL     1     -35.617   6.371   3.887  1.00 20.00     0.168 C 
HETATM   12  O11 UNL     1     -34.775   7.473   4.253  1.00 20.00    -0.386 OA
ENDBRANCH   7   8
ENDBRANCH   4   7
TORSDOF 2
ENDMDL
MODEL 8
REMARK VINA RESULT:       2.1      3.172      5.685
REMARK  2 active torsions:
REMARK  status: ('A' for Active; 'I' for Inactive)
REMARK    1  A    between atoms: C7_7  and  C10_10 
REMARK    2  A    between atoms: C9_9  and  C10_10 
ROOT
HETATM    1  C2  UNL     1     -33.134   7.880   3.935  1.00 20.00     0.006 C 
HETATM    2  C3  UNL     1     -32.553   8.898   2.948  1.00 20.00     0.020 C 
HETATM    3  C5  UNL     1     -33.040   6.920   1.706  1.00 20.00     0.025 C 
HETATM    4  C7  UNL     1     -33.213   6.544   3.178  1.00 20.00    -0.011 C 
HETATM    5  C8  UNL     1     -32.041   8.063   1.781  1.00 20.00     0.082 C 
HETATM    6 CL12 UNL     1     -31.958   8.987   0.275  1.00 20.00    -0.125 Cl
ENDROOT
BRANCH   4   7
HETATM    7  C10 UNL     1     -34.497   5.777   3.449  1.00 20.00     0.036 C 
BRANCH   7   8
HETATM    8  C9  UNL     1     -34.232   4.310   3.720  1.00 20.00     0.121 C 
HETATM    9  C4  UNL     1     -34.092   3.982   5.196  1.00 20.00     0.034 C 
HETATM   10  C1  UNL     1     -33.236   2.741   5.149  1.00 20.00     0.029 C 
HETATM   11  C6  UNL     1     -32.287   3.059   4.012  1.00 20.00     0.168 C 
HETATM   12  O11 UNL     1     -32.995   3.914   3.103  1.00 20.00    -0.386 OA
ENDBRANCH   7   8
ENDBRANCH   4   7
TORSDOF 2
ENDMDL
MODEL 9
REMARK VINA RESULT:       2.4      1.503      2.098
REMARK  2 active torsions:
REMARK  status: ('A' for Active; 'I' for Inactive)
REMARK    1  A    between atoms: C7_7  and  C10_10 
REMARK    2  A    between atoms: C9_9  and  C10_10 
ROOT
HETATM    1  C2  UNL     1     -32.404   5.271   2.174  1.00 20.00     0.006 C 
HETATM    2  C3  UNL     1     -33.582   4.834   3.052  1.00 20.00     0.020 C 
HETATM    3  C5  UNL     1     -33.758   7.197   2.770  1.00 20.00     0.025 C 
HETATM    4  C7  UNL     1     -32.392   6.808   2.205  1.00 20.00    -0.011 C 
HETATM    5  C8  UNL     1     -34.010   6.097   3.789  1.00 20.00     0.082 C 
HETATM    6 CL12 UNL     1     -35.699   6.033   4.312  1.00 20.00    -0.125 Cl
ENDROOT
BRANCH   4   7
HETATM    7  C10 UNL     1     -32.111   7.433   0.849  1.00 20.00     0.036 C 
BRANCH   7   8
HETATM    8  C9  UNL     1     -31.842   8.920   0.956  1.00 20.00     0.121 C 
HETATM    9  C4  UNL     1     -33.060   9.728   1.369  1.00 20.00     0.034 C 
HETATM   10  C1  UNL     1     -32.737  11.080   0.784  1.00 20.00     0.029 C 
HETATM   11  C6  UNL     1     -32.075  10.704  -0.526  1.00 20.00     0.168 C 
HETATM   12  O11 UNL     1     -31.433   9.437  -0.321  1.00 20.00    -0.386 OA
ENDBRANCH   7   8
ENDBRANCH   4   7
TORSDOF 2
ENDMDL
