MODEL 1
REMARK VINA RESULT:      -2.8      0.000      0.000
REMARK  1 active torsions:
REMARK  status: ('A' for Active; 'I' for Inactive)
REMARK    1  A    between atoms: C6_6  and  C8_8 
ROOT
HETATM    1  C1  UNL     1     -33.855   4.131   4.080  1.00 20.00     0.064 C 
HETATM    2  C2  UNL     1     -34.875   6.398   4.064  1.00 20.00     0.019 C 
HETATM    3  C3  UNL     1     -33.832   7.500   3.928  1.00 20.00     0.006 C 
HETATM    4  C4  UNL     1     -33.206   5.805   2.368  1.00 20.00     0.024 C 
HETATM    5  C5  UNL     1     -34.341   5.226   3.227  1.00 20.00     0.093 C 
HETATM    6  C6  UNL     1     -33.337   7.324   2.497  1.00 20.00    -0.014 C 
HETATM    7  N9  UNL     1     -33.472   3.267   4.753  1.00 20.00    -0.197 NA
ENDROOT
BRANCH   6   8
HETATM    8  C8  UNL     1     -32.040   8.064   2.218  1.00 20.00     0.000 C 
HETATM    9  C7  UNL     1     -32.109   8.858   0.951  1.00 20.00     0.005 C 
ENDBRANCH   6   8
TORSDOF 1
ENDMDL
MODEL 2
REMARK VINA RESULT:      -2.2      2.828      4.477
REMARK  1 active torsions:
REMARK  status: ('A' for Active; 'I' for Inactive)
REMARK    1  A    between atoms: C6_6  and  C8_8 
ROOT
HETATM    1  C1  UNL     1     -32.278   8.896   0.917  1.00 20.00     0.064 C 
HETATM    2  C2  UNL     1     -31.998   8.438   3.345  1.00 20.00     0.019 C 
HETATM    3  C3  UNL     1     -33.319   8.095   4.024  1.00 20.00     0.006 C 
HETATM    4  C4  UNL     1     -33.310   6.895   1.961  1.00 20.00     0.024 C 
HETATM    5  C5  UNL     1     -32.103   7.846   1.931  1.00 20.00     0.093 C 
HETATM    6  C6  UNL     1     -33.656   6.728   3.441  1.00 20.00    -0.014 C 
HETATM    7  N9  UNL     1     -32.417   9.724   0.117  1.00 20.00    -0.197 NA
ENDROOT
BRANCH   6   8
HETATM    8  C8  UNL     1     -35.099   6.317   3.678  1.00 20.00     0.000 C 
HETATM    9  C7  UNL     1     -35.199   5.068   4.496  1.00 20.00     0.005 C 
ENDBRANCH   6   8
TORSDOF 1
ENDMDL
MODEL 3
REMARK VINA RESULT:      -1.6      1.677      2.559
REMARK  1 active torsions:
REMARK  status: ('A' for Active; 'I' for Inactive)
REMARK    1  A    between atoms: C6_6  and  C8_8 
ROOT
HETATM    1  C1  UNL     1     -34.425   6.394   3.622  1.00 20.00     0.064 C 
HETATM    2  C2  UNL     1     -32.839   5.948   1.760  1.00 20.00     0.019 C 
HETATM    3  C3  UNL     1     -32.745   7.119   0.790  1.00 20.00     0.006 C 
HETATM    4  C4  UNL     1     -32.718   8.075   2.977  1.00 20.00     0.024 C 
HETATM    5  C5  UNL     1     -33.048   6.584   3.143  1.00 20.00     0.093 C 
HETATM    6  C6  UNL     1     -32.034   8.187   1.613  1.00 20.00    -0.014 C 
HETATM    7  N9  UNL     1     -35.511   6.245   4.000  1.00 20.00    -0.197 NA
ENDROOT
BRANCH   6   8
HETATM    8  C8  UNL     1     -32.133   9.575   1.004  1.00 20.00     0.000 C 
HETATM    9  C7  UNL     1     -32.611   9.533  -0.413  1.00 20.00     0.005 C 
ENDBRANCH   6   8
TORSDOF 1
ENDMDL
MODEL 4
REMARK VINA RESULT:      -0.7      2.251      4.335
REMARK  1 active torsions:
REMARK  status: ('A' for Active; 'I' for Inactive)
REMARK    1  A    between atoms: C6_6  and  C8_8 
ROOT
HETATM    1  C1  UNL     1     -32.170   7.908   2.395  1.00 20.00     0.064 C 
HETATM    2  C2  UNL     1     -32.799   5.716   1.405  1.00 20.00     0.019 C 
HETATM    3  C3  UNL     1     -32.874   4.610   2.451  1.00 20.00     0.006 C 
HETATM    4  C4  UNL     1     -33.941   6.509   3.425  1.00 20.00     0.024 C 
HETATM    5  C5  UNL     1     -33.282   6.986   2.122  1.00 20.00     0.093 C 
HETATM    6  C6  UNL     1     -34.101   4.997   3.267  1.00 20.00    -0.014 C 
HETATM    7  N9  UNL     1     -31.292   8.635   2.610  1.00 20.00    -0.197 NA
ENDROOT
BRANCH   6   8
HETATM    8  C8  UNL     1     -34.194   4.261   4.593  1.00 20.00     0.000 C 
HETATM    9  C7  UNL     1     -33.332   3.037   4.616  1.00 20.00     0.005 C 
ENDBRANCH   6   8
TORSDOF 1
ENDMDL
MODEL 5
REMARK VINA RESULT:      -0.3      2.343      4.221
REMARK  1 active torsions:
REMARK  status: ('A' for Active; 'I' for Inactive)
REMARK    1  A    between atoms: C6_6  and  C8_8 
ROOT
HETATM    1  C1  UNL     1     -34.085   7.509   4.355  1.00 20.00     0.064 C 
HETATM    2  C2  UNL     1     -33.534   6.035   2.429  1.00 20.00     0.019 C 
HETATM    3  C3  UNL     1     -32.846   4.748   2.866  1.00 20.00     0.006 C 
HETATM    4  C4  UNL     1     -34.637   5.091   4.407  1.00 20.00     0.024 C 
HETATM    5  C5  UNL     1     -34.533   6.362   3.550  1.00 20.00     0.093 C 
HETATM    6  C6  UNL     1     -33.960   3.994   3.584  1.00 20.00    -0.014 C 
HETATM    7  N9  UNL     1     -33.731   8.413   4.989  1.00 20.00    -0.197 NA
ENDROOT
BRANCH   6   8
HETATM    8  C8  UNL     1     -33.451   2.838   4.427  1.00 20.00     0.000 C 
HETATM    9  C7  UNL     1     -32.681   3.310   5.621  1.00 20.00     0.005 C 
ENDBRANCH   6   8
TORSDOF 1
ENDMDL
MODEL 6
REMARK VINA RESULT:      -0.2      3.197      4.513
REMARK  1 active torsions:
REMARK  status: ('A' for Active; 'I' for Inactive)
REMARK    1  A    between atoms: C6_6  and  C8_8 
ROOT
HETATM    1  C1  UNL     1     -32.321   9.439   0.929  1.00 20.00     0.064 C 
HETATM    2  C2  UNL     1     -33.022   8.022   2.848  1.00 20.00     0.019 C 
HETATM    3  C3  UNL     1     -33.572   6.673   2.399  1.00 20.00     0.006 C 
HETATM    4  C4  UNL     1     -31.625   7.062   1.074  1.00 20.00     0.024 C 
HETATM    5  C5  UNL     1     -31.911   8.362   1.842  1.00 20.00     0.093 C 
HETATM    6  C6  UNL     1     -32.335   5.962   1.865  1.00 20.00    -0.014 C 
HETATM    7  N9  UNL     1     -32.645  10.288   0.208  1.00 20.00    -0.197 NA
ENDROOT
BRANCH   6   8
HETATM    8  C8  UNL     1     -32.664   4.737   1.029  1.00 20.00     0.000 C 
HETATM    9  C7  UNL     1     -31.481   4.257   0.247  1.00 20.00     0.005 C 
ENDBRANCH   6   8
TORSDOF 1
ENDMDL
MODEL 7
REMARK VINA RESULT:      -0.0      2.069      3.455
REMARK  1 active torsions:
REMARK  status: ('A' for Active; 'I' for Inactive)
REMARK    1  A    between atoms: C6_6  and  C8_8 
ROOT
HETATM    1  C1  UNL     1     -32.904   4.794   0.493  1.00 20.00     0.064 C 
HETATM    2  C2  UNL     1     -31.928   6.938   1.287  1.00 20.00     0.019 C 
HETATM    3  C3  UNL     1     -32.943   7.793   2.035  1.00 20.00     0.006 C 
HETATM    4  C4  UNL     1     -33.253   5.563   2.827  1.00 20.00     0.024 C 
HETATM    5  C5  UNL     1     -32.286   5.485   1.634  1.00 20.00     0.093 C 
HETATM    6  C6  UNL     1     -33.167   7.008   3.321  1.00 20.00    -0.014 C 
HETATM    7  N9  UNL     1     -33.392   4.249  -0.407  1.00 20.00    -0.197 NA
ENDROOT
BRANCH   6   8
HETATM    8  C8  UNL     1     -34.401   7.454   4.087  1.00 20.00     0.000 C 
HETATM    9  C7  UNL     1     -35.469   6.406   4.091  1.00 20.00     0.005 C 
ENDBRANCH   6   8
TORSDOF 1
ENDMDL
MODEL 8
REMARK VINA RESULT:      -0.0      2.384      4.181
REMARK  1 active torsions:
REMARK  status: ('A' for Active; 'I' for Inactive)
REMARK    1  A    between atoms: C6_6  and  C8_8 
ROOT
HETATM    1  C1  UNL     1     -32.650   8.198   1.887  1.00 20.00     0.064 C 
HETATM    2  C2  UNL     1     -34.235   7.907   3.780  1.00 20.00     0.019 C 
HETATM    3  C3  UNL     1     -34.967   6.573   3.720  1.00 20.00     0.006 C 
HETATM    4  C4  UNL     1     -32.687   6.094   3.201  1.00 20.00     0.024 C 
HETATM    5  C5  UNL     1     -32.829   7.624   3.229  1.00 20.00     0.093 C 
HETATM    6  C6  UNL     1     -33.864   5.565   4.022  1.00 20.00    -0.014 C 
HETATM    7  N9  UNL     1     -32.508   8.651   0.828  1.00 20.00    -0.197 NA
ENDROOT
BRANCH   6   8
HETATM    8  C8  UNL     1     -34.246   4.137   3.673  1.00 20.00     0.000 C 
HETATM    9  C7  UNL     1     -33.478   3.138   4.479  1.00 20.00     0.005 C 
ENDBRANCH   6   8
TORSDOF 1
ENDMDL
