MODEL 1
REMARK VINA RESULT:      -3.2      0.000      0.000
REMARK  4 active torsions:
REMARK  status: ('A' for Active; 'I' for Inactive)
REMARK    1  A    between atoms: C5_5  and  C6_6 
REMARK    2  A    between atoms: C6_6  and  C7_7 
REMARK    3  A    between atoms: C7_7  and  C9_9 
REMARK    4  A    between atoms: C8_8  and  C9_9 
ROOT
HETATM    1  C1  UNL     1     -32.430   9.896  -0.018  1.00 20.00     0.012 C 
HETATM    2  C2  UNL     1     -32.202   9.061   0.813  1.00 20.00    -0.117 C 
HETATM    3  C5  UNL     1     -31.921   8.041   1.833  1.00 20.00     0.093 C 
ENDROOT
BRANCH   3   4
HETATM    4  C6  UNL     1     -31.873   6.629   1.245  1.00 20.00     0.014 C 
BRANCH   4   5
HETATM    5  C7  UNL     1     -33.084   5.777   1.649  1.00 20.00     0.021 C 
BRANCH   5   6
HETATM    6  C9  UNL     1     -33.350   5.771   3.165  1.00 20.00     0.085 C 
HETATM    7 CL10 UNL     1     -33.710   4.078   3.659  1.00 20.00    -0.125 Cl
BRANCH   6   8
HETATM    8  C8  UNL     1     -34.455   6.744   3.650  1.00 20.00    -0.004 C 
HETATM    9  C3  UNL     1     -35.618   6.002   4.319  1.00 20.00     0.011 C 
HETATM   10  C4  UNL     1     -33.945   7.851   4.577  1.00 20.00     0.011 C 
ENDBRANCH   6   8
ENDBRANCH   5   6
ENDBRANCH   4   5
ENDBRANCH   3   4
TORSDOF 4
ENDMDL
MODEL 2
REMARK VINA RESULT:      -2.7      1.589      4.617
REMARK  4 active torsions:
REMARK  status: ('A' for Active; 'I' for Inactive)
REMARK    1  A    between atoms: C5_5  and  C6_6 
REMARK    2  A    between atoms: C6_6  and  C7_7 
REMARK    3  A    between atoms: C7_7  and  C9_9 
REMARK    4  A    between atoms: C8_8  and  C9_9 
ROOT
HETATM    1  C1  UNL     1     -33.503   3.418   4.317  1.00 20.00     0.012 C 
HETATM    2  C2  UNL     1     -34.328   4.286   4.403  1.00 20.00    -0.117 C 
HETATM    3  C5  UNL     1     -35.339   5.347   4.509  1.00 20.00     0.093 C 
ENDROOT
BRANCH   3   4
HETATM    4  C6  UNL     1     -35.036   6.533   3.591  1.00 20.00     0.014 C 
BRANCH   4   5
HETATM    5  C7  UNL     1     -33.533   6.811   3.458  1.00 20.00     0.021 C 
BRANCH   5   6
HETATM    6  C9  UNL     1     -33.069   6.988   2.001  1.00 20.00     0.085 C 
HETATM    7 CL10 UNL     1     -32.611   5.369   1.364  1.00 20.00    -0.125 Cl
BRANCH   6   8
HETATM    8  C8  UNL     1     -31.932   8.019   1.785  1.00 20.00    -0.004 C 
HETATM    9  C3  UNL     1     -32.315   9.087   0.754  1.00 20.00     0.011 C 
HETATM   10  C4  UNL     1     -31.450   8.692   3.073  1.00 20.00     0.011 C 
ENDBRANCH   6   8
ENDBRANCH   5   6
ENDBRANCH   4   5
ENDBRANCH   3   4
TORSDOF 4
ENDMDL
MODEL 3
REMARK VINA RESULT:      -2.7      2.259      5.026
REMARK  4 active torsions:
REMARK  status: ('A' for Active; 'I' for Inactive)
REMARK    1  A    between atoms: C5_5  and  C6_6 
REMARK    2  A    between atoms: C6_6  and  C7_7 
REMARK    3  A    between atoms: C7_7  and  C9_9 
REMARK    4  A    between atoms: C8_8  and  C9_9 
ROOT
HETATM    1  C1  UNL     1     -32.762   2.782   5.530  1.00 20.00     0.012 C 
HETATM    2  C2  UNL     1     -33.441   3.373   4.735  1.00 20.00    -0.117 C 
HETATM    3  C5  UNL     1     -34.269   4.095   3.760  1.00 20.00     0.093 C 
ENDROOT
BRANCH   3   4
HETATM    4  C6  UNL     1     -35.141   5.167   4.419  1.00 20.00     0.014 C 
BRANCH   4   5
HETATM    5  C7  UNL     1     -34.927   6.560   3.811  1.00 20.00     0.021 C 
BRANCH   5   6
HETATM    6  C9  UNL     1     -33.446   6.899   3.564  1.00 20.00     0.085 C 
HETATM    7 CL10 UNL     1     -33.027   8.325   4.578  1.00 20.00    -0.125 Cl
BRANCH   6   8
HETATM    8  C8  UNL     1     -33.055   7.130   2.082  1.00 20.00    -0.004 C 
HETATM    9  C3  UNL     1     -31.932   8.165   1.940  1.00 20.00     0.011 C 
HETATM   10  C4  UNL     1     -32.676   5.850   1.331  1.00 20.00     0.011 C 
ENDBRANCH   6   8
ENDBRANCH   5   6
ENDBRANCH   4   5
ENDBRANCH   3   4
TORSDOF 4
ENDMDL
MODEL 4
REMARK VINA RESULT:      -2.6      1.425      1.785
REMARK  4 active torsions:
REMARK  status: ('A' for Active; 'I' for Inactive)
REMARK    1  A    between atoms: C5_5  and  C6_6 
REMARK    2  A    between atoms: C6_6  and  C7_7 
REMARK    3  A    between atoms: C7_7  and  C9_9 
REMARK    4  A    between atoms: C8_8  and  C9_9 
ROOT
HETATM    1  C1  UNL     1     -32.825  10.661   0.011  1.00 20.00     0.012 C 
HETATM    2  C2  UNL     1     -32.317   9.626   0.346  1.00 20.00    -0.117 C 
HETATM    3  C5  UNL     1     -31.694   8.360   0.754  1.00 20.00     0.093 C 
ENDROOT
BRANCH   3   4
HETATM    4  C6  UNL     1     -31.822   8.106   2.258  1.00 20.00     0.014 C 
BRANCH   4   5
HETATM    5  C7  UNL     1     -33.163   7.464   2.638  1.00 20.00     0.021 C 
BRANCH   5   6
HETATM    6  C9  UNL     1     -33.094   5.931   2.763  1.00 20.00     0.085 C 
HETATM    7 CL10 UNL     1     -32.741   5.256   1.133  1.00 20.00    -0.125 Cl
BRANCH   6   8
HETATM    8  C8  UNL     1     -34.342   5.258   3.391  1.00 20.00    -0.004 C 
HETATM    9  C3  UNL     1     -33.963   4.079   4.296  1.00 20.00     0.011 C 
HETATM   10  C4  UNL     1     -35.252   6.224   4.154  1.00 20.00     0.011 C 
ENDBRANCH   6   8
ENDBRANCH   5   6
ENDBRANCH   4   5
ENDBRANCH   3   4
TORSDOF 4
ENDMDL
MODEL 5
REMARK VINA RESULT:      -2.3      1.593      4.732
REMARK  4 active torsions:
REMARK  status: ('A' for Active; 'I' for Inactive)
REMARK    1  A    between atoms: C5_5  and  C6_6 
REMARK    2  A    between atoms: C6_6  and  C7_7 
REMARK    3  A    between atoms: C7_7  and  C9_9 
REMARK    4  A    between atoms: C8_8  and  C9_9 
ROOT
HETATM    1  C1  UNL     1     -33.499   3.432   4.202  1.00 20.00     0.012 C 
HETATM    2  C2  UNL     1     -34.331   4.275   4.396  1.00 20.00    -0.117 C 
HETATM    3  C5  UNL     1     -35.351   5.306   4.635  1.00 20.00     0.093 C 
ENDROOT
BRANCH   3   4
HETATM    4  C6  UNL     1     -35.198   6.503   3.695  1.00 20.00     0.014 C 
BRANCH   4   5
HETATM    5  C7  UNL     1     -33.742   6.969   3.560  1.00 20.00     0.021 C 
BRANCH   5   6
HETATM    6  C9  UNL     1     -33.308   7.207   2.101  1.00 20.00     0.085 C 
HETATM    7 CL10 UNL     1     -32.719   5.642   1.436  1.00 20.00    -0.125 Cl
BRANCH   6   8
HETATM    8  C8  UNL     1     -32.265   8.334   1.893  1.00 20.00    -0.004 C 
HETATM    9  C3  UNL     1     -30.847   7.777   1.716  1.00 20.00     0.011 C 
HETATM   10  C4  UNL     1     -32.596   9.282   0.738  1.00 20.00     0.011 C 
ENDBRANCH   6   8
ENDBRANCH   5   6
ENDBRANCH   4   5
ENDBRANCH   3   4
TORSDOF 4
ENDMDL
MODEL 6
REMARK VINA RESULT:      -2.1      1.614      2.041
REMARK  4 active torsions:
REMARK  status: ('A' for Active; 'I' for Inactive)
REMARK    1  A    between atoms: C5_5  and  C6_6 
REMARK    2  A    between atoms: C6_6  and  C7_7 
REMARK    3  A    between atoms: C7_7  and  C9_9 
REMARK    4  A    between atoms: C8_8  and  C9_9 
ROOT
HETATM    1  C1  UNL     1     -32.703  10.629   0.328  1.00 20.00     0.012 C 
HETATM    2  C2  UNL     1     -32.277   9.525   0.535  1.00 20.00    -0.117 C 
HETATM    3  C5  UNL     1     -31.755   8.175   0.785  1.00 20.00     0.093 C 
ENDROOT
BRANCH   3   4
HETATM    4  C6  UNL     1     -32.085   7.676   2.193  1.00 20.00     0.014 C 
BRANCH   4   5
HETATM    5  C7  UNL     1     -32.953   6.410   2.185  1.00 20.00     0.021 C 
BRANCH   5   6
HETATM    6  C9  UNL     1     -34.114   6.457   3.194  1.00 20.00     0.085 C 
HETATM    7 CL10 UNL     1     -34.020   8.024   4.075  1.00 20.00    -0.125 Cl
BRANCH   6   8
HETATM    8  C8  UNL     1     -34.188   5.263   4.180  1.00 20.00    -0.004 C 
HETATM    9  C3  UNL     1     -35.611   5.042   4.707  1.00 20.00     0.011 C 
HETATM   10  C4  UNL     1     -33.638   3.952   3.611  1.00 20.00     0.011 C 
ENDBRANCH   6   8
ENDBRANCH   5   6
ENDBRANCH   4   5
ENDBRANCH   3   4
TORSDOF 4
ENDMDL
MODEL 7
REMARK VINA RESULT:      -2.0      1.554      2.014
REMARK  4 active torsions:
REMARK  status: ('A' for Active; 'I' for Inactive)
REMARK    1  A    between atoms: C5_5  and  C6_6 
REMARK    2  A    between atoms: C6_6  and  C7_7 
REMARK    3  A    between atoms: C7_7  and  C9_9 
REMARK    4  A    between atoms: C8_8  and  C9_9 
ROOT
HETATM    1  C1  UNL     1     -32.772  10.605   0.145  1.00 20.00     0.012 C 
HETATM    2  C2  UNL     1     -32.274   9.552   0.438  1.00 20.00    -0.117 C 
HETATM    3  C5  UNL     1     -31.663   8.264   0.793  1.00 20.00     0.093 C 
ENDROOT
BRANCH   3   4
HETATM    4  C6  UNL     1     -32.082   7.787   2.186  1.00 20.00     0.014 C 
BRANCH   4   5
HETATM    5  C7  UNL     1     -32.850   6.458   2.150  1.00 20.00     0.021 C 
BRANCH   5   6
HETATM    6  C9  UNL     1     -34.137   6.472   2.995  1.00 20.00     0.085 C 
HETATM    7 CL10 UNL     1     -33.931   7.696   4.298  1.00 20.00    -0.125 Cl
BRANCH   6   8
HETATM    8  C8  UNL     1     -34.567   5.101   3.575  1.00 20.00    -0.004 C 
HETATM    9  C3  UNL     1     -33.360   4.214   3.904  1.00 20.00     0.011 C 
HETATM   10  C4  UNL     1     -35.483   5.202   4.798  1.00 20.00     0.011 C 
ENDBRANCH   6   8
ENDBRANCH   5   6
ENDBRANCH   4   5
ENDBRANCH   3   4
TORSDOF 4
ENDMDL
MODEL 8
REMARK VINA RESULT:      -1.8      2.034      4.890
REMARK  4 active torsions:
REMARK  status: ('A' for Active; 'I' for Inactive)
REMARK    1  A    between atoms: C5_5  and  C6_6 
REMARK    2  A    between atoms: C6_6  and  C7_7 
REMARK    3  A    between atoms: C7_7  and  C9_9 
REMARK    4  A    between atoms: C8_8  and  C9_9 
ROOT
HETATM    1  C1  UNL     1     -33.884   3.793   4.206  1.00 20.00     0.012 C 
HETATM    2  C2  UNL     1     -34.379   4.879   4.074  1.00 20.00    -0.117 C 
HETATM    3  C5  UNL     1     -34.987   6.207   3.913  1.00 20.00     0.093 C 
ENDROOT
BRANCH   3   4
HETATM    4  C6  UNL     1     -33.963   7.270   3.509  1.00 20.00     0.014 C 
BRANCH   4   5
HETATM    5  C7  UNL     1     -33.168   6.881   2.255  1.00 20.00     0.021 C 
BRANCH   5   6
HETATM    6  C9  UNL     1     -32.036   7.868   1.917  1.00 20.00     0.085 C 
HETATM    7 CL10 UNL     1     -31.655   8.805   3.406  1.00 20.00    -0.125 Cl
BRANCH   6   8
HETATM    8  C8  UNL     1     -32.310   8.809   0.717  1.00 20.00    -0.004 C 
HETATM    9  C3  UNL     1     -32.703  10.220   1.173  1.00 20.00     0.011 C 
HETATM   10  C4  UNL     1     -31.156   8.892  -0.286  1.00 20.00     0.011 C 
ENDBRANCH   6   8
ENDBRANCH   5   6
ENDBRANCH   4   5
ENDBRANCH   3   4
TORSDOF 4
ENDMDL
MODEL 9
REMARK VINA RESULT:      -1.7      1.364      2.358
REMARK  4 active torsions:
REMARK  status: ('A' for Active; 'I' for Inactive)
REMARK    1  A    between atoms: C5_5  and  C6_6 
REMARK    2  A    between atoms: C6_6  and  C7_7 
REMARK    3  A    between atoms: C7_7  and  C9_9 
REMARK    4  A    between atoms: C8_8  and  C9_9 
ROOT
HETATM    1  C1  UNL     1     -32.574  10.258   0.020  1.00 20.00     0.012 C 
HETATM    2  C2  UNL     1     -32.399   9.289   0.706  1.00 20.00    -0.117 C 
HETATM    3  C5  UNL     1     -32.185   8.101   1.543  1.00 20.00     0.093 C 
ENDROOT
BRANCH   3   4
HETATM    4  C6  UNL     1     -32.122   8.443   3.033  1.00 20.00     0.014 C 
BRANCH   4   5
HETATM    5  C7  UNL     1     -33.291   7.846   3.828  1.00 20.00     0.021 C 
BRANCH   5   6
HETATM    6  C9  UNL     1     -33.992   6.681   3.104  1.00 20.00     0.085 C 
HETATM    7 CL10 UNL     1     -35.564   6.382   3.927  1.00 20.00    -0.125 Cl
BRANCH   6   8
HETATM    8  C8  UNL     1     -33.162   5.376   2.987  1.00 20.00    -0.004 C 
HETATM    9  C3  UNL     1     -33.826   4.207   3.723  1.00 20.00     0.011 C 
HETATM   10  C4  UNL     1     -32.846   4.968   1.545  1.00 20.00     0.011 C 
ENDBRANCH   6   8
ENDBRANCH   5   6
ENDBRANCH   4   5
ENDBRANCH   3   4
TORSDOF 4
ENDMDL
