MODEL 1
REMARK VINA RESULT:      -0.8      0.000      0.000
REMARK  4 active torsions:
REMARK  status: ('A' for Active; 'I' for Inactive)
REMARK    1  A    between atoms: C5_5  and  C8_8 
REMARK    2  A    between atoms: C6_6  and  C9_9 
REMARK    3  A    between atoms: C9_9  and  C10_10 
REMARK    4  A    between atoms: C10_10  and  C11_11 
ROOT
HETATM    1  C1  UNL     1     -35.068   6.786   4.201  1.00 20.00     0.001 C 
HETATM    2  C2  UNL     1     -34.918   5.282   4.408  1.00 20.00     0.005 C 
HETATM    3  C3  UNL     1     -34.922   7.172   2.731  1.00 20.00     0.005 C 
HETATM    4  C4  UNL     1     -33.462   5.143   2.346  1.00 20.00     0.009 C 
HETATM    5  C5  UNL     1     -33.601   4.753   3.825  1.00 20.00    -0.014 C 
HETATM    6  C6  UNL     1     -33.623   6.651   2.099  1.00 20.00    -0.014 C 
ENDROOT
BRANCH   6   7
HETATM    7  C9  UNL     1     -32.403   7.441   2.584  1.00 20.00     0.005 C 
BRANCH   7   8
HETATM    8  C10 UNL     1     -31.742   8.192   1.434  1.00 20.00     0.015 C 
BRANCH   8   9
HETATM    9  C11 UNL     1     -32.416   9.541   1.214  1.00 20.00     0.114 C 
HETATM   10 CL12 UNL     1     -32.689   9.823  -0.520  1.00 20.00    -0.130 Cl
ENDBRANCH   8   9
ENDBRANCH   7   8
ENDBRANCH   6   7
BRANCH   5  11
HETATM   11  C8  UNL     1     -33.512   3.236   3.991  1.00 20.00     0.000 C 
HETATM   12  C7  UNL     1     -32.851   2.861   5.276  1.00 20.00     0.005 C 
ENDBRANCH   5  11
TORSDOF 4
ENDMDL
MODEL 2
REMARK VINA RESULT:      -0.8      1.495      2.673
REMARK  4 active torsions:
REMARK  status: ('A' for Active; 'I' for Inactive)
REMARK    1  A    between atoms: C5_5  and  C8_8 
REMARK    2  A    between atoms: C6_6  and  C9_9 
REMARK    3  A    between atoms: C9_9  and  C10_10 
REMARK    4  A    between atoms: C10_10  and  C11_11 
ROOT
HETATM    1  C1  UNL     1     -32.698   5.716   1.279  1.00 20.00     0.001 C 
HETATM    2  C2  UNL     1     -33.607   5.370   2.455  1.00 20.00     0.005 C 
HETATM    3  C3  UNL     1     -31.636   6.742   1.668  1.00 20.00     0.005 C 
HETATM    4  C4  UNL     1     -33.172   7.648   3.461  1.00 20.00     0.009 C 
HETATM    5  C5  UNL     1     -34.245   6.620   3.071  1.00 20.00    -0.014 C 
HETATM    6  C6  UNL     1     -32.228   8.008   2.303  1.00 20.00    -0.014 C 
ENDROOT
BRANCH   6   7
HETATM    7  C9  UNL     1     -32.919   8.893   1.262  1.00 20.00     0.005 C 
BRANCH   7   8
HETATM    8  C10 UNL     1     -32.020   9.124   0.053  1.00 20.00     0.015 C 
BRANCH   8   9
HETATM    9  C11 UNL     1     -32.053  10.587  -0.372  1.00 20.00     0.114 C 
HETATM   10 CL12 UNL     1     -32.487  11.624   1.005  1.00 20.00    -0.130 Cl
ENDBRANCH   8   9
ENDBRANCH   7   8
ENDBRANCH   6   7
BRANCH   5  11
HETATM   11  C8  UNL     1     -35.096   6.246   4.285  1.00 20.00     0.000 C 
HETATM   12  C7  UNL     1     -35.022   4.785   4.580  1.00 20.00     0.005 C 
ENDBRANCH   5  11
TORSDOF 4
ENDMDL
MODEL 3
REMARK VINA RESULT:      -0.5      1.508      2.756
REMARK  4 active torsions:
REMARK  status: ('A' for Active; 'I' for Inactive)
REMARK    1  A    between atoms: C5_5  and  C8_8 
REMARK    2  A    between atoms: C6_6  and  C9_9 
REMARK    3  A    between atoms: C9_9  and  C10_10 
REMARK    4  A    between atoms: C10_10  and  C11_11 
ROOT
HETATM    1  C1  UNL     1     -32.786   5.431   1.243  1.00 20.00     0.001 C 
HETATM    2  C2  UNL     1     -33.748   5.419   2.427  1.00 20.00     0.005 C 
HETATM    3  C3  UNL     1     -31.502   6.191   1.567  1.00 20.00     0.005 C 
HETATM    4  C4  UNL     1     -32.758   7.592   3.256  1.00 20.00     0.009 C 
HETATM    5  C5  UNL     1     -34.054   6.834   2.931  1.00 20.00    -0.014 C 
HETATM    6  C6  UNL     1     -31.758   7.611   2.089  1.00 20.00    -0.014 C 
ENDROOT
BRANCH   6   7
HETATM    7  C9  UNL     1     -32.211   8.552   0.968  1.00 20.00     0.005 C 
BRANCH   7   8
HETATM    8  C10 UNL     1     -32.508   9.947   1.507  1.00 20.00     0.015 C 
BRANCH   8   9
HETATM    9  C11 UNL     1     -32.753  10.925   0.365  1.00 20.00     0.114 C 
HETATM   10 CL12 UNL     1     -32.880  10.056  -1.181  1.00 20.00    -0.130 Cl
ENDBRANCH   8   9
ENDBRANCH   7   8
ENDBRANCH   6   7
BRANCH   5  11
HETATM   11  C8  UNL     1     -34.967   6.783   4.156  1.00 20.00     0.000 C 
HETATM   12  C7  UNL     1     -35.382   5.385   4.476  1.00 20.00     0.005 C 
ENDBRANCH   5  11
TORSDOF 4
ENDMDL
MODEL 4
REMARK VINA RESULT:       0.0      1.858      3.145
REMARK  4 active torsions:
REMARK  status: ('A' for Active; 'I' for Inactive)
REMARK    1  A    between atoms: C5_5  and  C8_8 
REMARK    2  A    between atoms: C6_6  and  C9_9 
REMARK    3  A    between atoms: C9_9  and  C10_10 
REMARK    4  A    between atoms: C10_10  and  C11_11 
ROOT
HETATM    1  C1  UNL     1     -33.134   5.307   1.570  1.00 20.00     0.001 C 
HETATM    2  C2  UNL     1     -33.704   5.694   2.931  1.00 20.00     0.005 C 
HETATM    3  C3  UNL     1     -31.793   5.988   1.305  1.00 20.00     0.005 C 
HETATM    4  C4  UNL     1     -32.462   7.893   2.826  1.00 20.00     0.009 C 
HETATM    5  C5  UNL     1     -33.814   7.215   3.093  1.00 20.00    -0.014 C 
HETATM    6  C6  UNL     1     -31.850   7.513   1.469  1.00 20.00    -0.014 C 
ENDROOT
BRANCH   6   7
HETATM    7  C9  UNL     1     -32.591   8.179   0.306  1.00 20.00     0.005 C 
BRANCH   7   8
HETATM    8  C10 UNL     1     -31.875   9.446  -0.148  1.00 20.00     0.015 C 
BRANCH   8   9
HETATM    9  C11 UNL     1     -32.806  10.649  -0.072  1.00 20.00     0.114 C 
HETATM   10 CL12 UNL     1     -32.438  11.630   1.364  1.00 20.00    -0.130 Cl
ENDBRANCH   8   9
ENDBRANCH   7   8
ENDBRANCH   6   7
BRANCH   5  11
HETATM   11  C8  UNL     1     -34.326   7.570   4.489  1.00 20.00     0.000 C 
HETATM   12  C7  UNL     1     -33.289   8.281   5.292  1.00 20.00     0.005 C 
ENDBRANCH   5  11
TORSDOF 4
ENDMDL
MODEL 5
REMARK VINA RESULT:       0.4      2.827      5.488
REMARK  4 active torsions:
REMARK  status: ('A' for Active; 'I' for Inactive)
REMARK    1  A    between atoms: C5_5  and  C8_8 
REMARK    2  A    between atoms: C6_6  and  C9_9 
REMARK    3  A    between atoms: C9_9  and  C10_10 
REMARK    4  A    between atoms: C10_10  and  C11_11 
ROOT
HETATM    1  C1  UNL     1     -31.836   5.603   1.404  1.00 20.00     0.001 C 
HETATM    2  C2  UNL     1     -31.555   7.070   1.093  1.00 20.00     0.005 C 
HETATM    3  C3  UNL     1     -33.335   5.323   1.497  1.00 20.00     0.005 C 
HETATM    4  C4  UNL     1     -33.738   7.722   2.187  1.00 20.00     0.009 C 
HETATM    5  C5  UNL     1     -32.232   8.008   2.100  1.00 20.00    -0.014 C 
HETATM    6  C6  UNL     1     -34.059   6.248   2.484  1.00 20.00    -0.014 C 
ENDROOT
BRANCH   6   7
HETATM    7  C9  UNL     1     -33.746   5.881   3.938  1.00 20.00     0.005 C 
BRANCH   7   8
HETATM    8  C10 UNL     1     -34.500   4.625   4.362  1.00 20.00     0.015 C 
BRANCH   8   9
HETATM    9  C11 UNL     1     -33.638   3.385   4.161  1.00 20.00     0.114 C 
HETATM   10 CL12 UNL     1     -32.734   3.011   5.646  1.00 20.00    -0.130 Cl
ENDBRANCH   8   9
ENDBRANCH   7   8
ENDBRANCH   6   7
BRANCH   5  11
HETATM   11  C8  UNL     1     -31.984   9.468   1.723  1.00 20.00     0.000 C 
HETATM   12  C7  UNL     1     -32.415   9.757   0.324  1.00 20.00     0.005 C 
ENDBRANCH   5  11
TORSDOF 4
ENDMDL
MODEL 6
REMARK VINA RESULT:       0.6      2.710      5.369
REMARK  4 active torsions:
REMARK  status: ('A' for Active; 'I' for Inactive)
REMARK    1  A    between atoms: C5_5  and  C8_8 
REMARK    2  A    between atoms: C6_6  and  C9_9 
REMARK    3  A    between atoms: C9_9  and  C10_10 
REMARK    4  A    between atoms: C10_10  and  C11_11 
ROOT
HETATM    1  C1  UNL     1     -31.600   5.733   1.556  1.00 20.00     0.001 C 
HETATM    2  C2  UNL     1     -31.227   7.073   0.929  1.00 20.00     0.005 C 
HETATM    3  C3  UNL     1     -33.109   5.500   1.536  1.00 20.00     0.005 C 
HETATM    4  C4  UNL     1     -33.493   7.999   1.560  1.00 20.00     0.009 C 
HETATM    5  C5  UNL     1     -31.976   8.239   1.585  1.00 20.00    -0.014 C 
HETATM    6  C6  UNL     1     -33.903   6.650   2.171  1.00 20.00    -0.014 C 
ENDROOT
BRANCH   6   7
HETATM    7  C9  UNL     1     -33.772   6.653   3.697  1.00 20.00     0.005 C 
BRANCH   7   8
HETATM    8  C10 UNL     1     -35.118   6.401   4.366  1.00 20.00     0.015 C 
BRANCH   8   9
HETATM    9  C11 UNL     1     -35.414   4.908   4.434  1.00 20.00     0.114 C 
HETATM   10 CL12 UNL     1     -33.900   3.975   4.476  1.00 20.00    -0.130 Cl
ENDBRANCH   8   9
ENDBRANCH   7   8
ENDBRANCH   6   7
BRANCH   5  11
HETATM   11  C8  UNL     1     -31.630   9.557   0.892  1.00 20.00     0.000 C 
HETATM   12  C7  UNL     1     -32.639   9.914  -0.148  1.00 20.00     0.005 C 
ENDBRANCH   5  11
TORSDOF 4
ENDMDL
MODEL 7
REMARK VINA RESULT:       1.2      3.108      5.096
REMARK  4 active torsions:
REMARK  status: ('A' for Active; 'I' for Inactive)
REMARK    1  A    between atoms: C5_5  and  C8_8 
REMARK    2  A    between atoms: C6_6  and  C9_9 
REMARK    3  A    between atoms: C9_9  and  C10_10 
REMARK    4  A    between atoms: C10_10  and  C11_11 
ROOT
HETATM    1  C1  UNL     1     -31.848   6.864   1.570  1.00 20.00     0.001 C 
HETATM    2  C2  UNL     1     -32.381   7.961   2.487  1.00 20.00     0.005 C 
HETATM    3  C3  UNL     1     -32.964   5.936   1.094  1.00 20.00     0.005 C 
HETATM    4  C4  UNL     1     -34.287   6.455   3.185  1.00 20.00     0.009 C 
HETATM    5  C5  UNL     1     -33.166   7.386   3.671  1.00 20.00    -0.014 C 
HETATM    6  C6  UNL     1     -33.788   5.346   2.246  1.00 20.00    -0.014 C 
ENDROOT
BRANCH   6   7
HETATM    7  C9  UNL     1     -33.008   4.267   3.005  1.00 20.00     0.005 C 
BRANCH   7   8
HETATM    8  C10 UNL     1     -33.790   3.772   4.215  1.00 20.00     0.015 C 
BRANCH   8   9
HETATM    9  C11 UNL     1     -33.030   2.662   4.931  1.00 20.00     0.114 C 
HETATM   10 CL12 UNL     1     -32.393   3.249   6.485  1.00 20.00    -0.130 Cl
ENDBRANCH   8   9
ENDBRANCH   7   8
ENDBRANCH   6   7
BRANCH   5  11
HETATM   11  C8  UNL     1     -33.740   8.512   4.532  1.00 20.00     0.000 C 
HETATM   12  C7  UNL     1     -33.096   8.559   5.878  1.00 20.00     0.005 C 
ENDBRANCH   5  11
TORSDOF 4
ENDMDL
MODEL 8
REMARK VINA RESULT:       1.3      2.780      4.405
REMARK  4 active torsions:
REMARK  status: ('A' for Active; 'I' for Inactive)
REMARK    1  A    between atoms: C5_5  and  C8_8 
REMARK    2  A    between atoms: C6_6  and  C9_9 
REMARK    3  A    between atoms: C9_9  and  C10_10 
REMARK    4  A    between atoms: C10_10  and  C11_11 
ROOT
HETATM    1  C1  UNL     1     -32.392   8.759   1.975  1.00 20.00     0.001 C 
HETATM    2  C2  UNL     1     -32.075   7.571   1.071  1.00 20.00     0.005 C 
HETATM    3  C3  UNL     1     -32.269   8.393   3.452  1.00 20.00     0.005 C 
HETATM    4  C4  UNL     1     -32.805   5.985   2.900  1.00 20.00     0.009 C 
HETATM    5  C5  UNL     1     -32.935   6.347   1.413  1.00 20.00    -0.014 C 
HETATM    6  C6  UNL     1     -33.102   7.164   3.839  1.00 20.00    -0.014 C 
ENDROOT
BRANCH   6   7
HETATM    7  C9  UNL     1     -34.599   7.488   3.888  1.00 20.00     0.005 C 
BRANCH   7   8
HETATM    8  C10 UNL     1     -35.440   6.245   3.621  1.00 20.00     0.015 C 
BRANCH   8   9
HETATM    9  C11 UNL     1     -35.331   5.261   4.779  1.00 20.00     0.114 C 
HETATM   10 CL12 UNL     1     -34.230   3.929   4.361  1.00 20.00    -0.130 Cl
ENDBRANCH   8   9
ENDBRANCH   7   8
ENDBRANCH   6   7
BRANCH   5  11
HETATM   11  C8  UNL     1     -32.548   5.157   0.534  1.00 20.00     0.000 C 
HETATM   12  C7  UNL     1     -31.270   4.533   0.985  1.00 20.00     0.005 C 
ENDBRANCH   5  11
TORSDOF 4
ENDMDL
MODEL 9
REMARK VINA RESULT:       1.4      1.396      1.396
REMARK  4 active torsions:
REMARK  status: ('A' for Active; 'I' for Inactive)
REMARK    1  A    between atoms: C5_5  and  C8_8 
REMARK    2  A    between atoms: C6_6  and  C9_9 
REMARK    3  A    between atoms: C9_9  and  C10_10 
REMARK    4  A    between atoms: C10_10  and  C11_11 
ROOT
HETATM    1  C1  UNL     1     -34.683   6.739   3.752  1.00 20.00     0.001 C 
HETATM    2  C2  UNL     1     -34.684   5.319   4.311  1.00 20.00     0.005 C 
HETATM    3  C3  UNL     1     -34.579   6.746   2.228  1.00 20.00     0.005 C 
HETATM    4  C4  UNL     1     -33.369   4.527   2.302  1.00 20.00     0.009 C 
HETATM    5  C5  UNL     1     -33.467   4.516   3.835  1.00 20.00    -0.014 C 
HETATM    6  C6  UNL     1     -33.381   5.942   1.704  1.00 20.00    -0.014 C 
ENDROOT
BRANCH   6   7
HETATM    7  C9  UNL     1     -32.058   6.674   1.949  1.00 20.00     0.005 C 
BRANCH   7   8
HETATM    8  C10 UNL     1     -31.924   7.888   1.038  1.00 20.00     0.015 C 
BRANCH   8   9
HETATM    9  C11 UNL     1     -31.928   9.176   1.852  1.00 20.00     0.114 C 
HETATM   10 CL12 UNL     1     -31.723   8.818   3.582  1.00 20.00    -0.130 Cl
ENDBRANCH   8   9
ENDBRANCH   7   8
ENDBRANCH   6   7
BRANCH   5  11
HETATM   11  C8  UNL     1     -33.532   3.082   4.359  1.00 20.00     0.000 C 
HETATM   12  C7  UNL     1     -32.772   2.926   5.634  1.00 20.00     0.005 C 
ENDBRANCH   5  11
TORSDOF 4
ENDMDL
