MODEL 1
REMARK VINA RESULT:      -3.2      0.000      0.000
REMARK  4 active torsions:
REMARK  status: ('A' for Active; 'I' for Inactive)
REMARK    1  A    between atoms: C4_4  and  C6_6 
REMARK    2  A    between atoms: C5_5  and  C8_8 
REMARK    3  A    between atoms: C6_6  and  C7_7 
REMARK    4  A    between atoms: C7_7  and  C8_8 
ROOT
HETATM    1  C1  UNL     1     -33.525   3.429   4.267  1.00 20.00     0.012 C 
HETATM    2  C2  UNL     1     -34.324   4.318   4.374  1.00 20.00    -0.117 C 
HETATM    3  C4  UNL     1     -35.306   5.403   4.507  1.00 20.00     0.093 C 
ENDROOT
BRANCH   3   4
HETATM    4  C6  UNL     1     -35.031   6.559   3.541  1.00 20.00     0.014 C 
BRANCH   4   5
HETATM    5  C7  UNL     1     -33.536   6.903   3.440  1.00 20.00     0.021 C 
BRANCH   5   6
HETATM    6  C8  UNL     1     -33.040   7.004   1.989  1.00 20.00     0.082 C 
HETATM    7 CL9  UNL     1     -32.494   5.405   1.392  1.00 20.00    -0.125 Cl
BRANCH   6   8
HETATM    8  C5  UNL     1     -31.928   8.049   1.807  1.00 20.00     0.016 C 
HETATM    9  C3  UNL     1     -32.238   9.175   0.828  1.00 20.00     0.006 C 
ENDBRANCH   6   8
ENDBRANCH   5   6
ENDBRANCH   4   5
ENDBRANCH   3   4
TORSDOF 4
ENDMDL
MODEL 2
REMARK VINA RESULT:      -3.1      1.564      5.040
REMARK  4 active torsions:
REMARK  status: ('A' for Active; 'I' for Inactive)
REMARK    1  A    between atoms: C4_4  and  C6_6 
REMARK    2  A    between atoms: C5_5  and  C8_8 
REMARK    3  A    between atoms: C6_6  and  C7_7 
REMARK    4  A    between atoms: C7_7  and  C8_8 
ROOT
HETATM    1  C1  UNL     1     -32.448   9.994  -0.004  1.00 20.00     0.012 C 
HETATM    2  C2  UNL     1     -32.236   9.091   0.758  1.00 20.00    -0.117 C 
HETATM    3  C4  UNL     1     -31.971   7.989   1.693  1.00 20.00     0.093 C 
ENDROOT
BRANCH   3   4
HETATM    4  C6  UNL     1     -32.854   6.769   1.419  1.00 20.00     0.014 C 
BRANCH   4   5
HETATM    5  C7  UNL     1     -33.053   5.890   2.664  1.00 20.00     0.021 C 
BRANCH   5   6
HETATM    6  C8  UNL     1     -34.349   6.211   3.424  1.00 20.00     0.082 C 
HETATM    7 CL9  UNL     1     -34.150   7.684   4.426  1.00 20.00    -0.125 Cl
BRANCH   6   8
HETATM    8  C5  UNL     1     -34.843   5.041   4.290  1.00 20.00     0.016 C 
HETATM    9  C3  UNL     1     -33.923   3.827   4.340  1.00 20.00     0.006 C 
ENDBRANCH   6   8
ENDBRANCH   5   6
ENDBRANCH   4   5
ENDBRANCH   3   4
TORSDOF 4
ENDMDL
MODEL 3
REMARK VINA RESULT:      -3.0      1.676      4.539
REMARK  4 active torsions:
REMARK  status: ('A' for Active; 'I' for Inactive)
REMARK    1  A    between atoms: C4_4  and  C6_6 
REMARK    2  A    between atoms: C5_5  and  C8_8 
REMARK    3  A    between atoms: C6_6  and  C7_7 
REMARK    4  A    between atoms: C7_7  and  C8_8 
ROOT
HETATM    1  C1  UNL     1     -32.435   9.768  -0.001  1.00 20.00     0.012 C 
HETATM    2  C2  UNL     1     -32.229   8.953   0.855  1.00 20.00    -0.117 C 
HETATM    3  C4  UNL     1     -31.975   7.959   1.908  1.00 20.00     0.093 C 
ENDROOT
BRANCH   3   4
HETATM    4  C6  UNL     1     -32.005   6.525   1.372  1.00 20.00     0.014 C 
BRANCH   4   5
HETATM    5  C7  UNL     1     -33.290   5.775   1.760  1.00 20.00     0.021 C 
BRANCH   5   6
HETATM    6  C8  UNL     1     -33.508   5.706   3.280  1.00 20.00     0.082 C 
HETATM    7 CL9  UNL     1     -33.843   4.023   3.797  1.00 20.00    -0.125 Cl
BRANCH   6   8
HETATM    8  C5  UNL     1     -34.622   6.645   3.769  1.00 20.00     0.016 C 
HETATM    9  C3  UNL     1     -34.155   7.879   4.530  1.00 20.00     0.006 C 
ENDBRANCH   6   8
ENDBRANCH   5   6
ENDBRANCH   4   5
ENDBRANCH   3   4
TORSDOF 4
ENDMDL
MODEL 4
REMARK VINA RESULT:      -2.7      1.501      1.948
REMARK  4 active torsions:
REMARK  status: ('A' for Active; 'I' for Inactive)
REMARK    1  A    between atoms: C4_4  and  C6_6 
REMARK    2  A    between atoms: C5_5  and  C8_8 
REMARK    3  A    between atoms: C6_6  and  C7_7 
REMARK    4  A    between atoms: C7_7  and  C8_8 
ROOT
HETATM    1  C1  UNL     1     -33.624   3.460   4.305  1.00 20.00     0.012 C 
HETATM    2  C2  UNL     1     -34.352   4.413   4.366  1.00 20.00    -0.117 C 
HETATM    3  C4  UNL     1     -35.248   5.575   4.443  1.00 20.00     0.093 C 
ENDROOT
BRANCH   3   4
HETATM    4  C6  UNL     1     -34.937   6.620   3.367  1.00 20.00     0.014 C 
BRANCH   4   5
HETATM    5  C7  UNL     1     -33.602   7.342   3.609  1.00 20.00     0.021 C 
BRANCH   5   6
HETATM    6  C8  UNL     1     -32.585   7.116   2.481  1.00 20.00     0.082 C 
HETATM    7 CL9  UNL     1     -32.242   8.650   1.618  1.00 20.00    -0.125 Cl
BRANCH   6   8
HETATM    8  C5  UNL     1     -33.025   6.031   1.484  1.00 20.00     0.016 C 
HETATM    9  C3  UNL     1     -31.949   5.028   1.088  1.00 20.00     0.006 C 
ENDBRANCH   6   8
ENDBRANCH   5   6
ENDBRANCH   4   5
ENDBRANCH   3   4
TORSDOF 4
ENDMDL
MODEL 5
REMARK VINA RESULT:      -2.4      1.444      1.647
REMARK  4 active torsions:
REMARK  status: ('A' for Active; 'I' for Inactive)
REMARK    1  A    between atoms: C4_4  and  C6_6 
REMARK    2  A    between atoms: C5_5  and  C8_8 
REMARK    3  A    between atoms: C6_6  and  C7_7 
REMARK    4  A    between atoms: C7_7  and  C8_8 
ROOT
HETATM    1  C1  UNL     1     -33.877   3.757   4.264  1.00 20.00     0.012 C 
HETATM    2  C2  UNL     1     -34.370   4.841   4.105  1.00 20.00    -0.117 C 
HETATM    3  C4  UNL     1     -34.978   6.164   3.911  1.00 20.00     0.093 C 
ENDROOT
BRANCH   3   4
HETATM    4  C6  UNL     1     -33.953   7.217   3.480  1.00 20.00     0.014 C 
BRANCH   4   5
HETATM    5  C7  UNL     1     -33.239   6.848   2.170  1.00 20.00     0.021 C 
BRANCH   5   6
HETATM    6  C8  UNL     1     -31.956   7.660   1.937  1.00 20.00     0.082 C 
HETATM    7 CL9  UNL     1     -31.655   8.778   3.305  1.00 20.00    -0.125 Cl
BRANCH   6   8
HETATM    8  C5  UNL     1     -31.969   8.434   0.609  1.00 20.00     0.016 C 
HETATM    9  C3  UNL     1     -32.501   9.860   0.684  1.00 20.00     0.006 C 
ENDBRANCH   6   8
ENDBRANCH   5   6
ENDBRANCH   4   5
ENDBRANCH   3   4
TORSDOF 4
ENDMDL
MODEL 6
REMARK VINA RESULT:      -2.4      1.232      2.016
REMARK  4 active torsions:
REMARK  status: ('A' for Active; 'I' for Inactive)
REMARK    1  A    between atoms: C4_4  and  C6_6 
REMARK    2  A    between atoms: C5_5  and  C8_8 
REMARK    3  A    between atoms: C6_6  and  C7_7 
REMARK    4  A    between atoms: C7_7  and  C8_8 
ROOT
HETATM    1  C1  UNL     1     -35.283   5.375   4.273  1.00 20.00     0.012 C 
HETATM    2  C2  UNL     1     -34.850   6.476   4.070  1.00 20.00    -0.117 C 
HETATM    3  C4  UNL     1     -34.324   7.825   3.817  1.00 20.00     0.093 C 
ENDROOT
BRANCH   3   4
HETATM    4  C6  UNL     1     -32.872   7.978   4.279  1.00 20.00     0.014 C 
BRANCH   4   5
HETATM    5  C7  UNL     1     -31.927   8.383   3.136  1.00 20.00     0.021 C 
BRANCH   5   6
HETATM    6  C8  UNL     1     -32.443   7.961   1.752  1.00 20.00     0.082 C 
HETATM    7 CL9  UNL     1     -32.182   6.208   1.484  1.00 20.00    -0.125 Cl
BRANCH   6   8
HETATM    8  C5  UNL     1     -31.820   8.774   0.606  1.00 20.00     0.016 C 
HETATM    9  C3  UNL     1     -32.535  10.073   0.257  1.00 20.00     0.006 C 
ENDBRANCH   6   8
ENDBRANCH   5   6
ENDBRANCH   4   5
ENDBRANCH   3   4
TORSDOF 4
ENDMDL
MODEL 7
REMARK VINA RESULT:      -2.4      1.587      5.223
REMARK  4 active torsions:
REMARK  status: ('A' for Active; 'I' for Inactive)
REMARK    1  A    between atoms: C4_4  and  C6_6 
REMARK    2  A    between atoms: C5_5  and  C8_8 
REMARK    3  A    between atoms: C6_6  and  C7_7 
REMARK    4  A    between atoms: C7_7  and  C8_8 
ROOT
HETATM    1  C1  UNL     1     -32.799  10.726   0.265  1.00 20.00     0.012 C 
HETATM    2  C2  UNL     1     -32.295   9.648   0.419  1.00 20.00    -0.117 C 
HETATM    3  C4  UNL     1     -31.678   8.326   0.601  1.00 20.00     0.093 C 
ENDROOT
BRANCH   3   4
HETATM    4  C6  UNL     1     -31.945   7.747   1.993  1.00 20.00     0.014 C 
BRANCH   4   5
HETATM    5  C7  UNL     1     -32.719   6.420   1.943  1.00 20.00     0.021 C 
BRANCH   5   6
HETATM    6  C8  UNL     1     -33.945   6.406   2.869  1.00 20.00     0.082 C 
HETATM    7 CL9  UNL     1     -33.886   7.777   4.022  1.00 20.00    -0.125 Cl
BRANCH   6   8
HETATM    8  C5  UNL     1     -34.108   5.079   3.628  1.00 20.00     0.016 C 
HETATM    9  C3  UNL     1     -35.290   5.011   4.587  1.00 20.00     0.006 C 
ENDBRANCH   6   8
ENDBRANCH   5   6
ENDBRANCH   4   5
ENDBRANCH   3   4
TORSDOF 4
ENDMDL
MODEL 8
REMARK VINA RESULT:      -2.3      1.679      5.114
REMARK  4 active torsions:
REMARK  status: ('A' for Active; 'I' for Inactive)
REMARK    1  A    between atoms: C4_4  and  C6_6 
REMARK    2  A    between atoms: C5_5  and  C8_8 
REMARK    3  A    between atoms: C6_6  and  C7_7 
REMARK    4  A    between atoms: C7_7  and  C8_8 
ROOT
HETATM    1  C1  UNL     1     -32.840  10.151  -0.206  1.00 20.00     0.012 C 
HETATM    2  C2  UNL     1     -32.275   9.436   0.576  1.00 20.00    -0.117 C 
HETATM    3  C4  UNL     1     -31.578   8.565   1.532  1.00 20.00     0.093 C 
ENDROOT
BRANCH   3   4
HETATM    4  C6  UNL     1     -32.295   7.226   1.727  1.00 20.00     0.014 C 
BRANCH   4   5
HETATM    5  C7  UNL     1     -33.203   7.214   2.967  1.00 20.00     0.021 C 
BRANCH   5   6
HETATM    6  C8  UNL     1     -34.129   5.989   3.021  1.00 20.00     0.082 C 
HETATM    7 CL9  UNL     1     -35.395   6.204   4.271  1.00 20.00    -0.125 Cl
BRANCH   6   8
HETATM    8  C5  UNL     1     -33.369   4.673   3.254  1.00 20.00     0.016 C 
HETATM    9  C3  UNL     1     -33.907   3.793   4.375  1.00 20.00     0.006 C 
ENDBRANCH   6   8
ENDBRANCH   5   6
ENDBRANCH   4   5
ENDBRANCH   3   4
TORSDOF 4
ENDMDL
MODEL 9
REMARK VINA RESULT:      -2.3      1.165      5.048
REMARK  4 active torsions:
REMARK  status: ('A' for Active; 'I' for Inactive)
REMARK    1  A    between atoms: C4_4  and  C6_6 
REMARK    2  A    between atoms: C5_5  and  C8_8 
REMARK    3  A    between atoms: C6_6  and  C7_7 
REMARK    4  A    between atoms: C7_7  and  C8_8 
ROOT
HETATM    1  C1  UNL     1     -32.823  10.693   0.053  1.00 20.00     0.012 C 
HETATM    2  C2  UNL     1     -32.322   9.633   0.311  1.00 20.00    -0.117 C 
HETATM    3  C4  UNL     1     -31.710   8.333   0.621  1.00 20.00     0.093 C 
ENDROOT
BRANCH   3   4
HETATM    4  C6  UNL     1     -31.646   8.066   2.128  1.00 20.00     0.014 C 
BRANCH   4   5
HETATM    5  C7  UNL     1     -33.036   8.047   2.785  1.00 20.00     0.021 C 
BRANCH   5   6
HETATM    6  C8  UNL     1     -33.478   6.639   3.212  1.00 20.00     0.082 C 
HETATM    7 CL9  UNL     1     -33.338   5.487   1.846  1.00 20.00    -0.125 Cl
BRANCH   6   8
HETATM    8  C5  UNL     1     -34.902   6.608   3.792  1.00 20.00     0.016 C 
HETATM    9  C3  UNL     1     -35.318   5.295   4.442  1.00 20.00     0.006 C 
ENDBRANCH   6   8
ENDBRANCH   5   6
ENDBRANCH   4   5
ENDBRANCH   3   4
TORSDOF 4
ENDMDL
