MODEL 1
REMARK VINA RESULT:       0.4      0.000      0.000
REMARK  1 active torsions:
REMARK  status: ('A' for Active; 'I' for Inactive)
REMARK    1  A    between atoms: C8_8  and  C9_9 
ROOT
HETATM    1  C1  UNL     1     -31.610   6.875   1.451  1.00 20.00     0.006 C 
HETATM    2  C2  UNL     1     -31.393   8.037   0.477  1.00 20.00     0.020 C 
HETATM    3  C5  UNL     1     -33.268   8.608   1.836  1.00 20.00     0.025 C 
HETATM    4  C8  UNL     1     -32.656   7.358   2.468  1.00 20.00    -0.009 C 
HETATM    5  C10 UNL     1     -32.071   9.232   1.134  1.00 20.00     0.082 C 
HETATM    6 CL12 UNL     1     -32.547  10.468  -0.039  1.00 20.00    -0.125 Cl
ENDROOT
BRANCH   4   7
HETATM    7  C9  UNL     1     -33.695   6.295   2.815  1.00 20.00    -0.006 C 
HETATM    8  C3  UNL     1     -34.668   6.801   3.886  1.00 20.00     0.031 C 
HETATM    9  C6  UNL     1     -35.621   5.691   4.314  1.00 20.00     0.168 C 
HETATM   10  O11 UNL     1     -34.896   4.552   4.774  1.00 20.00    -0.391 OA
HETATM   11  C7  UNL     1     -34.070   3.992   3.754  1.00 20.00     0.168 C 
HETATM   12  C4  UNL     1     -33.025   5.002   3.291  1.00 20.00     0.031 C 
ENDBRANCH   4   7
TORSDOF 1
ENDMDL
MODEL 2
REMARK VINA RESULT:       0.9      0.948      1.722
REMARK  1 active torsions:
REMARK  status: ('A' for Active; 'I' for Inactive)
REMARK    1  A    between atoms: C8_8  and  C9_9 
ROOT
HETATM    1  C1  UNL     1     -31.272   7.586   1.305  1.00 20.00     0.006 C 
HETATM    2  C2  UNL     1     -31.477   8.442   0.051  1.00 20.00     0.020 C 
HETATM    3  C5  UNL     1     -33.049   9.201   1.678  1.00 20.00     0.025 C 
HETATM    4  C8  UNL     1     -32.115   8.239   2.412  1.00 20.00    -0.009 C 
HETATM    5  C10 UNL     1     -32.164   9.707   0.548  1.00 20.00     0.082 C 
HETATM    6 CL12 UNL     1     -33.092  10.517  -0.722  1.00 20.00    -0.125 Cl
ENDROOT
BRANCH   4   7
HETATM    7  C9  UNL     1     -32.862   7.226   3.277  1.00 20.00    -0.006 C 
HETATM    8  C3  UNL     1     -33.175   5.950   2.489  1.00 20.00     0.031 C 
HETATM    9  C6  UNL     1     -34.028   5.000   3.321  1.00 20.00     0.168 C 
HETATM   10  O11 UNL     1     -35.225   5.644   3.756  1.00 20.00    -0.391 OA
HETATM   11  C7  UNL     1     -34.957   6.770   4.591  1.00 20.00     0.168 C 
HETATM   12  C4  UNL     1     -34.158   7.825   3.834  1.00 20.00     0.031 C 
ENDBRANCH   4   7
TORSDOF 1
ENDMDL
MODEL 3
REMARK VINA RESULT:       1.7      3.314      5.150
REMARK  1 active torsions:
REMARK  status: ('A' for Active; 'I' for Inactive)
REMARK    1  A    between atoms: C8_8  and  C9_9 
ROOT
HETATM    1  C1  UNL     1     -32.648   8.430   4.172  1.00 20.00     0.006 C 
HETATM    2  C2  UNL     1     -33.891   7.745   4.748  1.00 20.00     0.020 C 
HETATM    3  C5  UNL     1     -33.644   6.971   2.504  1.00 20.00     0.025 C 
HETATM    4  C8  UNL     1     -32.366   7.746   2.824  1.00 20.00    -0.009 C 
HETATM    5  C10 UNL     1     -34.093   6.508   3.882  1.00 20.00     0.082 C 
HETATM    6 CL12 UNL     1     -35.769   5.944   3.890  1.00 20.00    -0.125 Cl
ENDROOT
BRANCH   4   7
HETATM    7  C9  UNL     1     -31.969   8.725   1.722  1.00 20.00    -0.006 C 
HETATM    8  C3  UNL     1     -33.019   9.829   1.559  1.00 20.00     0.031 C 
HETATM    9  C6  UNL     1     -32.677  10.726   0.376  1.00 20.00     0.168 C 
HETATM   10  O11 UNL     1     -32.547   9.959  -0.819  1.00 20.00    -0.391 OA
HETATM   11  C7  UNL     1     -31.494   9.000  -0.732  1.00 20.00     0.168 C 
HETATM   12  C4  UNL     1     -31.765   8.000   0.387  1.00 20.00     0.031 C 
ENDBRANCH   4   7
TORSDOF 1
ENDMDL
MODEL 4
REMARK VINA RESULT:       2.1      3.399      5.451
REMARK  1 active torsions:
REMARK  status: ('A' for Active; 'I' for Inactive)
REMARK    1  A    between atoms: C8_8  and  C9_9 
ROOT
HETATM    1  C1  UNL     1     -34.493   7.651   3.488  1.00 20.00     0.006 C 
HETATM    2  C2  UNL     1     -34.958   6.309   4.063  1.00 20.00     0.020 C 
HETATM    3  C5  UNL     1     -32.977   5.880   2.804  1.00 20.00     0.025 C 
HETATM    4  C8  UNL     1     -33.099   7.401   2.889  1.00 20.00    -0.009 C 
HETATM    5  C10 UNL     1     -33.716   5.428   4.055  1.00 20.00     0.082 C 
HETATM    6 CL12 UNL     1     -34.110   3.704   4.018  1.00 20.00    -0.125 Cl
ENDROOT
BRANCH   4   7
HETATM    7  C9  UNL     1     -32.889   8.093   1.545  1.00 20.00    -0.006 C 
HETATM    8  C3  UNL     1     -31.490   7.807   0.988  1.00 20.00     0.031 C 
HETATM    9  C6  UNL     1     -31.246   8.602  -0.289  1.00 20.00     0.168 C 
HETATM   10  O11 UNL     1     -31.433   9.997  -0.059  1.00 20.00    -0.391 OA
HETATM   11  C7  UNL     1     -32.767  10.302   0.348  1.00 20.00     0.168 C 
HETATM   12  C4  UNL     1     -33.102   9.607   1.663  1.00 20.00     0.031 C 
ENDBRANCH   4   7
TORSDOF 1
ENDMDL
MODEL 5
REMARK VINA RESULT:       2.3      1.119      1.342
REMARK  1 active torsions:
REMARK  status: ('A' for Active; 'I' for Inactive)
REMARK    1  A    between atoms: C8_8  and  C9_9 
ROOT
HETATM    1  C1  UNL     1     -32.504   8.003   3.495  1.00 20.00     0.006 C 
HETATM    2  C2  UNL     1     -31.431   8.599   2.577  1.00 20.00     0.020 C 
HETATM    3  C5  UNL     1     -33.044   7.540   1.172  1.00 20.00     0.025 C 
HETATM    4  C8  UNL     1     -33.646   7.541   2.576  1.00 20.00    -0.009 C 
HETATM    5  C10 UNL     1     -32.111   8.742   1.222  1.00 20.00     0.082 C 
HETATM    6 CL12 UNL     1     -30.956   8.754  -0.117  1.00 20.00    -0.125 Cl
ENDROOT
BRANCH   4   7
HETATM    7  C9  UNL     1     -34.231   6.189   2.976  1.00 20.00    -0.006 C 
HETATM    8  C3  UNL     1     -35.084   6.307   4.243  1.00 20.00     0.031 C 
HETATM    9  C6  UNL     1     -35.557   4.934   4.703  1.00 20.00     0.168 C 
HETATM   10  O11 UNL     1     -34.450   4.059   4.908  1.00 20.00    -0.391 OA
HETATM   11  C7  UNL     1     -33.708   3.841   3.709  1.00 20.00     0.168 C 
HETATM   12  C4  UNL     1     -33.124   5.150   3.189  1.00 20.00     0.031 C 
ENDBRANCH   4   7
TORSDOF 1
ENDMDL
MODEL 6
REMARK VINA RESULT:       2.9      1.192      1.999
REMARK  1 active torsions:
REMARK  status: ('A' for Active; 'I' for Inactive)
REMARK    1  A    between atoms: C8_8  and  C9_9 
ROOT
HETATM    1  C1  UNL     1     -32.239   8.627   3.521  1.00 20.00     0.006 C 
HETATM    2  C2  UNL     1     -31.335   9.029   2.352  1.00 20.00     0.020 C 
HETATM    3  C5  UNL     1     -32.819   7.346   1.540  1.00 20.00     0.025 C 
HETATM    4  C8  UNL     1     -33.335   7.728   2.927  1.00 20.00    -0.009 C 
HETATM    5  C10 UNL     1     -32.103   8.616   1.103  1.00 20.00     0.082 C 
HETATM    6 CL12 UNL     1     -31.041   8.346  -0.286  1.00 20.00    -0.125 Cl
ENDROOT
BRANCH   4   7
HETATM    7  C9  UNL     1     -33.659   6.517   3.798  1.00 20.00    -0.006 C 
HETATM    8  C3  UNL     1     -33.130   5.225   3.166  1.00 20.00     0.031 C 
HETATM    9  C6  UNL     1     -33.568   4.011   3.978  1.00 20.00     0.168 C 
HETATM   10  O11 UNL     1     -34.988   3.976   4.109  1.00 20.00    -0.391 OA
HETATM   11  C7  UNL     1     -35.492   5.117   4.801  1.00 20.00     0.168 C 
HETATM   12  C4  UNL     1     -35.169   6.398   4.039  1.00 20.00     0.031 C 
ENDBRANCH   4   7
TORSDOF 1
ENDMDL
