MODEL 1
REMARK VINA RESULT:      -1.0      0.000      0.000
REMARK  2 active torsions:
REMARK  status: ('A' for Active; 'I' for Inactive)
REMARK    1  A    between atoms: C6_6  and  C7_7 
REMARK    2  A    between atoms: C8_8  and  O9_9 
ROOT
HETATM    1  C1  UNL     1     -32.758   5.988   1.784  1.00 20.00     0.003 C 
HETATM    2  C2  UNL     1     -31.612   6.994   1.693  1.00 20.00     0.007 C 
HETATM    3  C5  UNL     1     -33.864   6.657   2.604  1.00 20.00     0.032 C 
HETATM    4  C7  UNL     1     -32.231   8.351   2.037  1.00 20.00     0.018 C 
HETATM    5  C8  UNL     1     -33.280   7.981   3.088  1.00 20.00     0.122 C 
ENDROOT
BRANCH   4   6
HETATM    6  C6  UNL     1     -32.849   9.019   0.811  1.00 20.00    -0.008 A 
HETATM    7  C3  UNL     1     -32.642  10.487   0.563  1.00 20.00     0.005 A 
HETATM    8  C4  UNL     1     -31.976   9.474  -0.325  1.00 20.00     0.005 A 
ENDBRANCH   4   6
BRANCH   5   9
HETATM    9  O9  UNL     1     -32.647   7.761   4.347  1.00 20.00    -0.395 OA
HETATM   10  H23 UNL     1     -32.355   6.834   4.360  1.00 20.00     0.210 HD
ENDBRANCH   5   9
TORSDOF 2
ENDMDL
MODEL 2
REMARK VINA RESULT:      -0.8      1.979      3.675
REMARK  2 active torsions:
REMARK  status: ('A' for Active; 'I' for Inactive)
REMARK    1  A    between atoms: C6_6  and  C7_7 
REMARK    2  A    between atoms: C8_8  and  O9_9 
ROOT
HETATM    1  C1  UNL     1     -31.824   5.797   1.332  1.00 20.00     0.003 C 
HETATM    2  C2  UNL     1     -33.327   6.035   1.206  1.00 20.00     0.007 C 
HETATM    3  C5  UNL     1     -31.232   7.062   1.961  1.00 20.00     0.032 C 
HETATM    4  C7  UNL     1     -33.640   7.189   2.161  1.00 20.00     0.018 C 
HETATM    5  C8  UNL     1     -32.385   8.057   2.056  1.00 20.00     0.122 C 
ENDROOT
BRANCH   4   6
HETATM    6  C6  UNL     1     -33.887   6.696   3.585  1.00 20.00    -0.008 A 
HETATM    7  C3  UNL     1     -35.289   6.449   4.069  1.00 20.00     0.005 A 
HETATM    8  C4  UNL     1     -34.361   5.291   3.829  1.00 20.00     0.005 A 
ENDBRANCH   4   6
BRANCH   5   9
HETATM    9  O9  UNL     1     -32.422   8.820   0.851  1.00 20.00    -0.395 OA
HETATM   10  H23 UNL     1     -33.285   9.266   0.824  1.00 20.00     0.210 HD
ENDBRANCH   5   9
TORSDOF 2
ENDMDL
MODEL 3
REMARK VINA RESULT:      -0.4      2.071      3.052
REMARK  2 active torsions:
REMARK  status: ('A' for Active; 'I' for Inactive)
REMARK    1  A    between atoms: C6_6  and  C7_7 
REMARK    2  A    between atoms: C8_8  and  O9_9 
ROOT
HETATM    1  C1  UNL     1     -35.317   5.369   4.025  1.00 20.00     0.003 C 
HETATM    2  C2  UNL     1     -33.813   5.105   4.025  1.00 20.00     0.007 C 
HETATM    3  C5  UNL     1     -35.497   6.871   3.782  1.00 20.00     0.032 C 
HETATM    4  C7  UNL     1     -33.184   6.317   3.335  1.00 20.00     0.018 C 
HETATM    5  C8  UNL     1     -34.091   7.464   3.786  1.00 20.00     0.122 C 
ENDROOT
BRANCH   4   6
HETATM    6  C6  UNL     1     -33.161   6.158   1.817  1.00 20.00    -0.008 A 
HETATM    7  C3  UNL     1     -32.037   6.746   1.010  1.00 20.00     0.005 A 
HETATM    8  C4  UNL     1     -32.152   5.255   1.164  1.00 20.00     0.005 A 
ENDBRANCH   4   6
BRANCH   5   9
HETATM    9  O9  UNL     1     -33.766   7.843   5.122  1.00 20.00    -0.395 OA
HETATM   10  H23 UNL     1     -32.798   7.806   5.201  1.00 20.00     0.210 HD
ENDBRANCH   5   9
TORSDOF 2
ENDMDL
MODEL 4
REMARK VINA RESULT:      -0.3      1.853      3.664
REMARK  2 active torsions:
REMARK  status: ('A' for Active; 'I' for Inactive)
REMARK    1  A    between atoms: C6_6  and  C7_7 
REMARK    2  A    between atoms: C8_8  and  O9_9 
ROOT
HETATM    1  C1  UNL     1     -32.087   8.455   1.102  1.00 20.00     0.003 C 
HETATM    2  C2  UNL     1     -31.814   8.013   2.538  1.00 20.00     0.007 C 
HETATM    3  C5  UNL     1     -32.810   7.293   0.416  1.00 20.00     0.032 C 
HETATM    4  C7  UNL     1     -32.765   6.841   2.793  1.00 20.00     0.018 C 
HETATM    5  C8  UNL     1     -32.816   6.151   1.428  1.00 20.00     0.122 C 
ENDROOT
BRANCH   4   6
HETATM    6  C6  UNL     1     -34.140   7.317   3.254  1.00 20.00    -0.008 A 
HETATM    7  C3  UNL     1     -35.036   6.399   4.039  1.00 20.00     0.005 A 
HETATM    8  C4  UNL     1     -34.401   7.585   4.710  1.00 20.00     0.005 A 
ENDBRANCH   4   6
BRANCH   5   9
HETATM    9  O9  UNL     1     -31.637   5.372   1.235  1.00 20.00    -0.395 OA
HETATM   10  H23 UNL     1     -31.020   5.913   0.715  1.00 20.00     0.210 HD
ENDBRANCH   5   9
TORSDOF 2
ENDMDL
MODEL 5
REMARK VINA RESULT:      -0.1      2.833      4.967
REMARK  2 active torsions:
REMARK  status: ('A' for Active; 'I' for Inactive)
REMARK    1  A    between atoms: C6_6  and  C7_7 
REMARK    2  A    between atoms: C8_8  and  O9_9 
ROOT
HETATM    1  C1  UNL     1     -33.164   7.111   3.104  1.00 20.00     0.003 C 
HETATM    2  C2  UNL     1     -33.491   5.751   2.490  1.00 20.00     0.007 C 
HETATM    3  C5  UNL     1     -34.201   7.355   4.204  1.00 20.00     0.032 C 
HETATM    4  C7  UNL     1     -34.380   5.043   3.514  1.00 20.00     0.018 C 
HETATM    5  C8  UNL     1     -35.190   6.198   4.107  1.00 20.00     0.122 C 
ENDROOT
BRANCH   4   6
HETATM    6  C6  UNL     1     -33.555   4.311   4.570  1.00 20.00    -0.008 A 
HETATM    7  C3  UNL     1     -33.565   2.809   4.633  1.00 20.00     0.005 A 
HETATM    8  C4  UNL     1     -32.332   3.534   4.172  1.00 20.00     0.005 A 
ENDBRANCH   4   6
BRANCH   5   9
HETATM    9  O9  UNL     1     -36.233   6.569   3.208  1.00 20.00    -0.395 OA
HETATM   10  H23 UNL     1     -37.073   6.307   3.622  1.00 20.00     0.210 HD
ENDBRANCH   5   9
TORSDOF 2
ENDMDL
MODEL 6
REMARK VINA RESULT:       1.3      1.996      3.879
REMARK  2 active torsions:
REMARK  status: ('A' for Active; 'I' for Inactive)
REMARK    1  A    between atoms: C6_6  and  C7_7 
REMARK    2  A    between atoms: C8_8  and  O9_9 
ROOT
HETATM    1  C1  UNL     1     -32.853  10.294   1.171  1.00 20.00     0.003 C 
HETATM    2  C2  UNL     1     -32.066   9.366   2.093  1.00 20.00     0.007 C 
HETATM    3  C5  UNL     1     -32.700   9.735  -0.247  1.00 20.00     0.032 C 
HETATM    4  C7  UNL     1     -31.872   8.070   1.302  1.00 20.00     0.018 C 
HETATM    5  C8  UNL     1     -31.713   8.577  -0.133  1.00 20.00     0.122 C 
ENDROOT
BRANCH   4   6
HETATM    6  C6  UNL     1     -33.065   7.129   1.455  1.00 20.00    -0.008 A 
HETATM    7  C3  UNL     1     -32.847   5.673   1.762  1.00 20.00     0.005 A 
HETATM    8  C4  UNL     1     -33.430   6.582   2.807  1.00 20.00     0.005 A 
ENDBRANCH   4   6
BRANCH   5   9
HETATM    9  O9  UNL     1     -30.395   9.088  -0.322  1.00 20.00    -0.395 OA
HETATM   10  H23 UNL     1     -30.468   9.845  -0.927  1.00 20.00     0.210 HD
ENDBRANCH   5   9
TORSDOF 2
ENDMDL
MODEL 7
REMARK VINA RESULT:       1.3      2.354      3.411
REMARK  2 active torsions:
REMARK  status: ('A' for Active; 'I' for Inactive)
REMARK    1  A    between atoms: C6_6  and  C7_7 
REMARK    2  A    between atoms: C8_8  and  O9_9 
ROOT
HETATM    1  C1  UNL     1     -33.726   8.189   4.170  1.00 20.00     0.003 C 
HETATM    2  C2  UNL     1     -33.956   8.001   2.671  1.00 20.00     0.007 C 
HETATM    3  C5  UNL     1     -34.165   6.886   4.845  1.00 20.00     0.032 C 
HETATM    4  C7  UNL     1     -34.068   6.490   2.460  1.00 20.00     0.018 C 
HETATM    5  C8  UNL     1     -34.769   6.027   3.739  1.00 20.00     0.122 C 
ENDROOT
BRANCH   4   6
HETATM    6  C6  UNL     1     -32.699   5.839   2.281  1.00 20.00    -0.008 A 
HETATM    7  C3  UNL     1     -32.314   5.234   0.960  1.00 20.00     0.005 A 
HETATM    8  C4  UNL     1     -31.652   6.499   1.428  1.00 20.00     0.005 A 
ENDBRANCH   4   6
BRANCH   5   9
HETATM    9  O9  UNL     1     -36.164   6.312   3.658  1.00 20.00    -0.395 OA
HETATM   10  H23 UNL     1     -36.383   6.394   2.715  1.00 20.00     0.210 HD
ENDBRANCH   5   9
TORSDOF 2
ENDMDL
MODEL 8
REMARK VINA RESULT:       1.4      2.237      3.148
REMARK  2 active torsions:
REMARK  status: ('A' for Active; 'I' for Inactive)
REMARK    1  A    between atoms: C6_6  and  C7_7 
REMARK    2  A    between atoms: C8_8  and  O9_9 
ROOT
HETATM    1  C1  UNL     1     -35.196   7.256   3.607  1.00 20.00     0.003 C 
HETATM    2  C2  UNL     1     -34.246   6.068   3.745  1.00 20.00     0.007 C 
HETATM    3  C5  UNL     1     -34.320   8.510   3.537  1.00 20.00     0.032 C 
HETATM    4  C7  UNL     1     -32.878   6.582   3.291  1.00 20.00     0.018 C 
HETATM    5  C8  UNL     1     -32.890   8.033   3.777  1.00 20.00     0.122 C 
ENDROOT
BRANCH   4   6
HETATM    6  C6  UNL     1     -32.707   6.479   1.777  1.00 20.00    -0.008 A 
HETATM    7  C3  UNL     1     -32.017   5.290   1.170  1.00 20.00     0.005 A 
HETATM    8  C4  UNL     1     -33.498   5.471   0.992  1.00 20.00     0.005 A 
ENDBRANCH   4   6
BRANCH   5   9
HETATM    9  O9  UNL     1     -32.629   8.076   5.178  1.00 20.00    -0.395 OA
HETATM   10  H23 UNL     1     -32.948   8.936   5.501  1.00 20.00     0.210 HD
ENDBRANCH   5   9
TORSDOF 2
ENDMDL
MODEL 9
REMARK VINA RESULT:       1.5      1.738      3.180
REMARK  2 active torsions:
REMARK  status: ('A' for Active; 'I' for Inactive)
REMARK    1  A    between atoms: C6_6  and  C7_7 
REMARK    2  A    between atoms: C8_8  and  O9_9 
ROOT
HETATM    1  C1  UNL     1     -31.931   8.430   3.205  1.00 20.00     0.003 C 
HETATM    2  C2  UNL     1     -32.617   8.123   1.876  1.00 20.00     0.007 C 
HETATM    3  C5  UNL     1     -32.746   7.724   4.292  1.00 20.00     0.032 C 
HETATM    4  C7  UNL     1     -33.503   6.904   2.144  1.00 20.00     0.018 C 
HETATM    5  C8  UNL     1     -33.965   7.140   3.584  1.00 20.00     0.122 C 
ENDROOT
BRANCH   4   6
HETATM    6  C6  UNL     1     -32.731   5.596   1.990  1.00 20.00    -0.008 A 
HETATM    7  C3  UNL     1     -32.847   4.791   0.726  1.00 20.00     0.005 A 
HETATM    8  C4  UNL     1     -31.566   5.511   1.044  1.00 20.00     0.005 A 
ENDBRANCH   4   6
BRANCH   5   9
HETATM    9  O9  UNL     1     -35.007   8.114   3.605  1.00 20.00    -0.395 OA
HETATM   10  H23 UNL     1     -35.074   8.479   2.707  1.00 20.00     0.210 HD
ENDBRANCH   5   9
TORSDOF 2
ENDMDL
