MODEL 1
REMARK VINA RESULT:      -2.6      0.000      0.000
REMARK  2 active torsions:
REMARK  status: ('A' for Active; 'I' for Inactive)
REMARK    1  A    between atoms: C6_6  and  C9_9 
REMARK    2  A    between atoms: C8_8  and  C9_9 
ROOT
HETATM    1  C1  UNL     1     -32.571  10.284  -0.089  1.00 20.00     0.012 C 
HETATM    2  C2  UNL     1     -32.307   9.325   0.583  1.00 20.00    -0.117 C 
HETATM    3  C8  UNL     1     -31.981   8.150   1.402  1.00 20.00     0.093 C 
ENDROOT
BRANCH   3   4
HETATM    4  C9  UNL     1     -32.339   8.402   2.857  1.00 20.00     0.017 C 
BRANCH   4   5
HETATM    5  C6  UNL     1     -32.935   7.157   3.497  1.00 20.00    -0.012 C 
HETATM    6  C3  UNL     1     -34.218   7.445   4.294  1.00 20.00     0.006 C 
HETATM    7  C4  UNL     1     -35.258   6.431   3.812  1.00 20.00     0.020 C 
HETATM    8  C7  UNL     1     -34.464   5.324   3.130  1.00 20.00     0.082 C 
HETATM    9  C5  UNL     1     -33.329   6.095   2.465  1.00 20.00     0.024 C 
HETATM   10 CL10 UNL     1     -33.832   4.163   4.332  1.00 20.00    -0.125 Cl
ENDBRANCH   4   5
ENDBRANCH   3   4
TORSDOF 2
ENDMDL
MODEL 2
REMARK VINA RESULT:      -2.4      1.302      1.824
REMARK  2 active torsions:
REMARK  status: ('A' for Active; 'I' for Inactive)
REMARK    1  A    between atoms: C6_6  and  C9_9 
REMARK    2  A    between atoms: C8_8  and  C9_9 
ROOT
HETATM    1  C1  UNL     1     -32.745  10.602  -0.010  1.00 20.00     0.012 C 
HETATM    2  C2  UNL     1     -32.251   9.575   0.365  1.00 20.00    -0.117 C 
HETATM    3  C8  UNL     1     -31.643   8.317   0.820  1.00 20.00     0.093 C 
ENDROOT
BRANCH   3   4
HETATM    4  C9  UNL     1     -31.951   8.081   2.289  1.00 20.00     0.017 C 
BRANCH   4   5
HETATM    5  C6  UNL     1     -33.306   7.411   2.463  1.00 20.00    -0.012 C 
HETATM    6  C3  UNL     1     -33.257   5.889   2.244  1.00 20.00     0.006 C 
HETATM    7  C4  UNL     1     -33.953   5.261   3.453  1.00 20.00     0.020 C 
HETATM    8  C7  UNL     1     -34.773   6.381   4.081  1.00 20.00     0.082 C 
HETATM    9  C5  UNL     1     -33.880   7.599   3.871  1.00 20.00     0.024 C 
HETATM   10 CL10 UNL     1     -36.334   6.576   3.235  1.00 20.00    -0.125 Cl
ENDBRANCH   4   5
ENDBRANCH   3   4
TORSDOF 2
ENDMDL
MODEL 3
REMARK VINA RESULT:      -1.9      2.437      4.814
REMARK  2 active torsions:
REMARK  status: ('A' for Active; 'I' for Inactive)
REMARK    1  A    between atoms: C6_6  and  C9_9 
REMARK    2  A    between atoms: C8_8  and  C9_9 
ROOT
HETATM    1  C1  UNL     1     -33.177   2.951   5.100  1.00 20.00     0.012 C 
HETATM    2  C2  UNL     1     -33.577   3.701   4.252  1.00 20.00    -0.117 C 
HETATM    3  C8  UNL     1     -34.066   4.616   3.211  1.00 20.00     0.093 C 
ENDROOT
BRANCH   3   4
HETATM    4  C9  UNL     1     -34.484   5.942   3.825  1.00 20.00     0.017 C 
BRANCH   4   5
HETATM    5  C6  UNL     1     -33.891   7.111   3.053  1.00 20.00    -0.012 C 
HETATM    6  C3  UNL     1     -33.139   8.106   3.953  1.00 20.00     0.006 C 
HETATM    7  C4  UNL     1     -31.774   8.328   3.299  1.00 20.00     0.020 C 
HETATM    8  C7  UNL     1     -31.931   7.858   1.858  1.00 20.00     0.082 C 
HETATM    9  C5  UNL     1     -32.870   6.666   2.001  1.00 20.00     0.024 C 
HETATM   10 CL10 UNL     1     -32.665   9.137   0.850  1.00 20.00    -0.125 Cl
ENDBRANCH   4   5
ENDBRANCH   3   4
TORSDOF 2
ENDMDL
MODEL 4
REMARK VINA RESULT:      -0.7      2.222      4.900
REMARK  2 active torsions:
REMARK  status: ('A' for Active; 'I' for Inactive)
REMARK    1  A    between atoms: C6_6  and  C9_9 
REMARK    2  A    between atoms: C8_8  and  C9_9 
ROOT
HETATM    1  C1  UNL     1     -33.158   2.909   4.503  1.00 20.00     0.012 C 
HETATM    2  C2  UNL     1     -33.940   3.816   4.586  1.00 20.00    -0.117 C 
HETATM    3  C8  UNL     1     -34.897   4.926   4.693  1.00 20.00     0.093 C 
ENDROOT
BRANCH   3   4
HETATM    4  C9  UNL     1     -34.890   5.756   3.421  1.00 20.00     0.017 C 
BRANCH   4   5
HETATM    5  C6  UNL     1     -33.532   6.404   3.199  1.00 20.00    -0.012 C 
HETATM    6  C3  UNL     1     -32.778   5.824   1.991  1.00 20.00     0.006 C 
HETATM    7  C4  UNL     1     -32.328   7.022   1.152  1.00 20.00     0.020 C 
HETATM    8  C7  UNL     1     -32.405   8.225   2.084  1.00 20.00     0.082 C 
HETATM    9  C5  UNL     1     -33.634   7.909   2.928  1.00 20.00     0.024 C 
HETATM   10 CL10 UNL     1     -30.939   8.337   3.099  1.00 20.00    -0.125 Cl
ENDBRANCH   4   5
ENDBRANCH   3   4
TORSDOF 2
ENDMDL
MODEL 5
REMARK VINA RESULT:       0.3      2.531      4.574
REMARK  2 active torsions:
REMARK  status: ('A' for Active; 'I' for Inactive)
REMARK    1  A    between atoms: C6_6  and  C9_9 
REMARK    2  A    between atoms: C8_8  and  C9_9 
ROOT
HETATM    1  C1  UNL     1     -35.643   6.189   4.075  1.00 20.00     0.012 C 
HETATM    2  C2  UNL     1     -34.582   5.756   3.719  1.00 20.00    -0.117 C 
HETATM    3  C8  UNL     1     -33.282   5.224   3.287  1.00 20.00     0.093 C 
ENDROOT
BRANCH   3   4
HETATM    4  C9  UNL     1     -33.032   5.557   1.826  1.00 20.00     0.017 C 
BRANCH   4   5
HETATM    5  C6  UNL     1     -32.947   7.061   1.616  1.00 20.00    -0.012 C 
HETATM    6  C3  UNL     1     -32.602   7.830   2.903  1.00 20.00     0.006 C 
HETATM    7  C4  UNL     1     -31.441   8.761   2.548  1.00 20.00     0.020 C 
HETATM    8  C7  UNL     1     -31.448   8.861   1.027  1.00 20.00     0.082 C 
HETATM    9  C5  UNL     1     -31.864   7.456   0.607  1.00 20.00     0.024 C 
HETATM   10 CL10 UNL     1     -32.639  10.073   0.477  1.00 20.00    -0.125 Cl
ENDBRANCH   4   5
ENDBRANCH   3   4
TORSDOF 2
ENDMDL
