MODEL 1
REMARK VINA RESULT:      -3.4      0.000      0.000
REMARK  6 active torsions:
REMARK  status: ('A' for Active; 'I' for Inactive)
REMARK    1  A    between atoms: C3_3  and  C6_6 
REMARK    2  A    between atoms: C4_4  and  C5_5 
REMARK    3  A    between atoms: C4_4  and  C7_7 
REMARK    4  A    between atoms: C5_5  and  C8_8 
REMARK    5  A    between atoms: C6_6  and  C9_9 
REMARK    6  A    between atoms: C7_7  and  C9_9 
ROOT
HETATM    1  C7  UNL     1     -33.532   6.961   3.538  1.00 20.00     0.004 C 
ENDROOT
BRANCH   1   2
HETATM    2  C4  UNL     1     -34.938   6.369   3.678  1.00 20.00     0.001 C 
BRANCH   2   3
HETATM    3  C5  UNL     1     -34.912   5.061   4.472  1.00 20.00     0.015 C 
BRANCH   3   4
HETATM    4  C8  UNL     1     -34.003   4.035   3.809  1.00 20.00     0.114 C 
HETATM    5 CL10 UNL     1     -33.179   3.049   5.038  1.00 20.00    -0.130 Cl
ENDBRANCH   3   4
ENDBRANCH   2   3
ENDBRANCH   1   2
BRANCH   1   6
HETATM    6  C9  UNL     1     -33.096   7.177   2.075  1.00 20.00    -0.019 C 
HETATM    7  C2  UNL     1     -32.677   5.837   1.458  1.00 20.00     0.010 C 
BRANCH   6   8
HETATM    8  C6  UNL     1     -32.004   8.249   1.887  1.00 20.00     0.004 C 
BRANCH   8   9
HETATM    9  C3  UNL     1     -31.889   8.822   0.472  1.00 20.00    -0.004 C 
HETATM   10  C1  UNL     1     -32.591  10.168   0.363  1.00 20.00     0.005 C 
ENDBRANCH   8   9
ENDBRANCH   6   8
ENDBRANCH   1   6
TORSDOF 6
ENDMDL
MODEL 2
REMARK VINA RESULT:      -3.2      2.966      5.583
REMARK  6 active torsions:
REMARK  status: ('A' for Active; 'I' for Inactive)
REMARK    1  A    between atoms: C3_3  and  C6_6 
REMARK    2  A    between atoms: C4_4  and  C5_5 
REMARK    3  A    between atoms: C4_4  and  C7_7 
REMARK    4  A    between atoms: C5_5  and  C8_8 
REMARK    5  A    between atoms: C6_6  and  C9_9 
REMARK    6  A    between atoms: C7_7  and  C9_9 
ROOT
HETATM    1  C7  UNL     1     -33.300   6.367   2.405  1.00 20.00     0.004 C 
ENDROOT
BRANCH   1   2
HETATM    2  C4  UNL     1     -32.324   7.543   2.504  1.00 20.00     0.001 C 
BRANCH   2   3
HETATM    3  C5  UNL     1     -31.943   8.065   1.117  1.00 20.00     0.015 C 
BRANCH   3   4
HETATM    4  C8  UNL     1     -32.295   9.539   0.970  1.00 20.00     0.114 C 
HETATM    5 CL10 UNL     1     -32.790   9.895  -0.701  1.00 20.00    -0.130 Cl
ENDBRANCH   3   4
ENDBRANCH   2   3
ENDBRANCH   1   2
BRANCH   1   6
HETATM    6  C9  UNL     1     -34.423   6.406   3.460  1.00 20.00    -0.019 C 
HETATM    7  C2  UNL     1     -34.200   7.591   4.407  1.00 20.00     0.010 C 
BRANCH   6   8
HETATM    8  C6  UNL     1     -34.611   5.089   4.241  1.00 20.00     0.004 C 
BRANCH   8   9
HETATM    9  C3  UNL     1     -33.777   3.908   3.738  1.00 20.00    -0.004 C 
HETATM   10  C1  UNL     1     -33.227   3.088   4.896  1.00 20.00     0.005 C 
ENDBRANCH   8   9
ENDBRANCH   6   8
ENDBRANCH   1   6
TORSDOF 6
ENDMDL
MODEL 3
REMARK VINA RESULT:      -2.8      2.977      5.660
REMARK  6 active torsions:
REMARK  status: ('A' for Active; 'I' for Inactive)
REMARK    1  A    between atoms: C3_3  and  C6_6 
REMARK    2  A    between atoms: C4_4  and  C5_5 
REMARK    3  A    between atoms: C4_4  and  C7_7 
REMARK    4  A    between atoms: C5_5  and  C8_8 
REMARK    5  A    between atoms: C6_6  and  C9_9 
REMARK    6  A    between atoms: C7_7  and  C9_9 
ROOT
HETATM    1  C7  UNL     1     -33.310   7.338   2.975  1.00 20.00     0.004 C 
ENDROOT
BRANCH   1   2
HETATM    2  C4  UNL     1     -32.335   7.241   1.798  1.00 20.00     0.001 C 
BRANCH   2   3
HETATM    3  C5  UNL     1     -31.653   8.585   1.532  1.00 20.00     0.015 C 
BRANCH   3   4
HETATM    4  C8  UNL     1     -32.100   9.173   0.201  1.00 20.00     0.114 C 
HETATM    5 CL10 UNL     1     -32.858  10.762   0.447  1.00 20.00    -0.130 Cl
ENDBRANCH   3   4
ENDBRANCH   2   3
ENDBRANCH   1   2
BRANCH   1   6
HETATM    6  C9  UNL     1     -34.240   6.116   3.109  1.00 20.00    -0.019 C 
HETATM    7  C2  UNL     1     -35.267   6.368   4.219  1.00 20.00     0.010 C 
BRANCH   6   8
HETATM    8  C6  UNL     1     -33.505   4.775   3.316  1.00 20.00     0.004 C 
BRANCH   8   9
HETATM    9  C3  UNL     1     -34.039   3.909   4.460  1.00 20.00    -0.004 C 
HETATM   10  C1  UNL     1     -33.052   2.811   4.827  1.00 20.00     0.005 C 
ENDBRANCH   8   9
ENDBRANCH   6   8
ENDBRANCH   1   6
TORSDOF 6
ENDMDL
MODEL 4
REMARK VINA RESULT:      -2.5      0.977      1.623
REMARK  6 active torsions:
REMARK  status: ('A' for Active; 'I' for Inactive)
REMARK    1  A    between atoms: C3_3  and  C6_6 
REMARK    2  A    between atoms: C4_4  and  C5_5 
REMARK    3  A    between atoms: C4_4  and  C7_7 
REMARK    4  A    between atoms: C5_5  and  C8_8 
REMARK    5  A    between atoms: C6_6  and  C9_9 
REMARK    6  A    between atoms: C7_7  and  C9_9 
ROOT
HETATM    1  C7  UNL     1     -34.053   6.644   3.030  1.00 20.00     0.004 C 
ENDROOT
BRANCH   1   2
HETATM    2  C4  UNL     1     -35.244   6.226   3.897  1.00 20.00     0.001 C 
BRANCH   2   3
HETATM    3  C5  UNL     1     -35.006   4.860   4.544  1.00 20.00     0.015 C 
BRANCH   3   4
HETATM    4  C8  UNL     1     -33.910   4.093   3.817  1.00 20.00     0.114 C 
HETATM    5 CL10 UNL     1     -33.161   2.901   4.903  1.00 20.00    -0.130 Cl
ENDBRANCH   3   4
ENDBRANCH   2   3
ENDBRANCH   1   2
BRANCH   1   6
HETATM    6  C9  UNL     1     -33.004   7.485   3.785  1.00 20.00    -0.019 C 
HETATM    7  C2  UNL     1     -33.675   8.221   4.951  1.00 20.00     0.010 C 
BRANCH   6   8
HETATM    8  C6  UNL     1     -32.202   8.455   2.894  1.00 20.00     0.004 C 
BRANCH   8   9
HETATM    9  C3  UNL     1     -32.122   8.067   1.415  1.00 20.00    -0.004 C 
HETATM   10  C1  UNL     1     -32.249   9.288   0.517  1.00 20.00     0.005 C 
ENDBRANCH   8   9
ENDBRANCH   6   8
ENDBRANCH   1   6
TORSDOF 6
ENDMDL
MODEL 5
REMARK VINA RESULT:      -2.4      0.858      1.269
REMARK  6 active torsions:
REMARK  status: ('A' for Active; 'I' for Inactive)
REMARK    1  A    between atoms: C3_3  and  C6_6 
REMARK    2  A    between atoms: C4_4  and  C5_5 
REMARK    3  A    between atoms: C4_4  and  C7_7 
REMARK    4  A    between atoms: C5_5  and  C8_8 
REMARK    5  A    between atoms: C6_6  and  C9_9 
REMARK    6  A    between atoms: C7_7  and  C9_9 
ROOT
HETATM    1  C7  UNL     1     -33.569   6.460   2.420  1.00 20.00     0.004 C 
ENDROOT
BRANCH   1   2
HETATM    2  C4  UNL     1     -34.456   6.593   3.662  1.00 20.00     0.001 C 
BRANCH   2   3
HETATM    3  C5  UNL     1     -34.785   5.222   4.257  1.00 20.00     0.015 C 
BRANCH   3   4
HETATM    4  C8  UNL     1     -33.898   4.138   3.659  1.00 20.00     0.114 C 
HETATM    5 CL10 UNL     1     -33.260   3.082   4.939  1.00 20.00    -0.130 Cl
ENDBRANCH   3   4
ENDBRANCH   2   3
ENDBRANCH   1   2
BRANCH   1   6
HETATM    6  C9  UNL     1     -32.322   7.366   2.453  1.00 20.00    -0.019 C 
HETATM    7  C2  UNL     1     -32.461   8.395   3.581  1.00 20.00     0.010 C 
BRANCH   6   8
HETATM    8  C6  UNL     1     -31.992   8.046   1.108  1.00 20.00     0.004 C 
BRANCH   8   9
HETATM    9  C3  UNL     1     -32.333   9.536   1.029  1.00 20.00    -0.004 C 
HETATM   10  C1  UNL     1     -32.655   9.953  -0.398  1.00 20.00     0.005 C 
ENDBRANCH   8   9
ENDBRANCH   6   8
ENDBRANCH   1   6
TORSDOF 6
ENDMDL
MODEL 6
REMARK VINA RESULT:      -2.4      2.874      4.785
REMARK  6 active torsions:
REMARK  status: ('A' for Active; 'I' for Inactive)
REMARK    1  A    between atoms: C3_3  and  C6_6 
REMARK    2  A    between atoms: C4_4  and  C5_5 
REMARK    3  A    between atoms: C4_4  and  C7_7 
REMARK    4  A    between atoms: C5_5  and  C8_8 
REMARK    5  A    between atoms: C6_6  and  C9_9 
REMARK    6  A    between atoms: C7_7  and  C9_9 
ROOT
HETATM    1  C7  UNL     1     -33.311   5.695   1.855  1.00 20.00     0.004 C 
ENDROOT
BRANCH   1   2
HETATM    2  C4  UNL     1     -31.976   6.380   1.552  1.00 20.00     0.001 C 
BRANCH   2   3
HETATM    3  C5  UNL     1     -32.067   7.892   1.769  1.00 20.00     0.015 C 
BRANCH   3   4
HETATM    4  C8  UNL     1     -31.670   8.652   0.510  1.00 20.00     0.114 C 
HETATM    5 CL10 UNL     1     -32.608  10.157   0.372  1.00 20.00    -0.130 Cl
ENDBRANCH   3   4
ENDBRANCH   2   3
ENDBRANCH   1   2
BRANCH   1   6
HETATM    6  C9  UNL     1     -33.636   5.614   3.360  1.00 20.00    -0.019 C 
HETATM    7  C2  UNL     1     -33.802   4.147   3.774  1.00 20.00     0.010 C 
BRANCH   6   8
HETATM    8  C6  UNL     1     -34.849   6.462   3.797  1.00 20.00     0.004 C 
BRANCH   8   9
HETATM    9  C3  UNL     1     -34.530   7.910   4.174  1.00 20.00    -0.004 C 
HETATM   10  C1  UNL     1     -33.290   7.991   5.051  1.00 20.00     0.005 C 
ENDBRANCH   8   9
ENDBRANCH   6   8
ENDBRANCH   1   6
TORSDOF 6
ENDMDL
MODEL 7
REMARK VINA RESULT:      -2.0      2.712      4.754
REMARK  6 active torsions:
REMARK  status: ('A' for Active; 'I' for Inactive)
REMARK    1  A    between atoms: C3_3  and  C6_6 
REMARK    2  A    between atoms: C4_4  and  C5_5 
REMARK    3  A    between atoms: C4_4  and  C7_7 
REMARK    4  A    between atoms: C5_5  and  C8_8 
REMARK    5  A    between atoms: C6_6  and  C9_9 
REMARK    6  A    between atoms: C7_7  and  C9_9 
ROOT
HETATM    1  C7  UNL     1     -33.422   4.700   2.321  1.00 20.00     0.004 C 
ENDROOT
BRANCH   1   2
HETATM    2  C4  UNL     1     -32.173   5.498   1.934  1.00 20.00     0.001 C 
BRANCH   2   3
HETATM    3  C5  UNL     1     -32.539   6.727   1.099  1.00 20.00     0.015 C 
BRANCH   3   4
HETATM    4  C8  UNL     1     -31.900   7.987   1.668  1.00 20.00     0.114 C 
HETATM    5 CL10 UNL     1     -32.320   9.400   0.674  1.00 20.00    -0.130 Cl
ENDBRANCH   3   4
ENDBRANCH   2   3
ENDBRANCH   1   2
BRANCH   1   6
HETATM    6  C9  UNL     1     -33.652   4.612   3.843  1.00 20.00    -0.019 C 
HETATM    7  C2  UNL     1     -33.452   3.166   4.313  1.00 20.00     0.010 C 
BRANCH   6   8
HETATM    8  C6  UNL     1     -35.008   5.175   4.317  1.00 20.00     0.004 C 
BRANCH   8   9
HETATM    9  C3  UNL     1     -35.313   6.606   3.868  1.00 20.00    -0.004 C 
HETATM   10  C1  UNL     1     -34.216   7.566   4.304  1.00 20.00     0.005 C 
ENDBRANCH   8   9
ENDBRANCH   6   8
ENDBRANCH   1   6
TORSDOF 6
ENDMDL
MODEL 8
REMARK VINA RESULT:      -1.8      1.640      2.150
REMARK  6 active torsions:
REMARK  status: ('A' for Active; 'I' for Inactive)
REMARK    1  A    between atoms: C3_3  and  C6_6 
REMARK    2  A    between atoms: C4_4  and  C5_5 
REMARK    3  A    between atoms: C4_4  and  C7_7 
REMARK    4  A    between atoms: C5_5  and  C8_8 
REMARK    5  A    between atoms: C6_6  and  C9_9 
REMARK    6  A    between atoms: C7_7  and  C9_9 
ROOT
HETATM    1  C7  UNL     1     -32.228   6.095   1.525  1.00 20.00     0.004 C 
ENDROOT
BRANCH   1   2
HETATM    2  C4  UNL     1     -33.554   5.863   2.256  1.00 20.00     0.001 C 
BRANCH   2   3
HETATM    3  C5  UNL     1     -33.471   4.646   3.181  1.00 20.00     0.015 C 
BRANCH   3   4
HETATM    4  C8  UNL     1     -34.535   4.711   4.268  1.00 20.00     0.114 C 
HETATM    5 CL10 UNL     1     -35.469   6.218   4.134  1.00 20.00    -0.130 Cl
ENDBRANCH   3   4
ENDBRANCH   2   3
ENDBRANCH   1   2
BRANCH   1   6
HETATM    6  C9  UNL     1     -31.649   7.509   1.729  1.00 20.00    -0.019 C 
HETATM    7  C2  UNL     1     -32.310   8.167   2.946  1.00 20.00     0.010 C 
BRANCH   6   8
HETATM    8  C6  UNL     1     -31.730   8.417   0.485  1.00 20.00     0.004 C 
BRANCH   8   9
HETATM    9  C3  UNL     1     -32.485   9.733   0.687  1.00 20.00    -0.004 C 
HETATM   10  C1  UNL     1     -32.913  10.333  -0.645  1.00 20.00     0.005 C 
ENDBRANCH   8   9
ENDBRANCH   6   8
ENDBRANCH   1   6
TORSDOF 6
ENDMDL
MODEL 9
REMARK VINA RESULT:      -1.8      3.070      5.319
REMARK  6 active torsions:
REMARK  status: ('A' for Active; 'I' for Inactive)
REMARK    1  A    between atoms: C3_3  and  C6_6 
REMARK    2  A    between atoms: C4_4  and  C5_5 
REMARK    3  A    between atoms: C4_4  and  C7_7 
REMARK    4  A    between atoms: C5_5  and  C8_8 
REMARK    5  A    between atoms: C6_6  and  C9_9 
REMARK    6  A    between atoms: C7_7  and  C9_9 
ROOT
HETATM    1  C7  UNL     1     -31.536   7.216   1.809  1.00 20.00     0.004 C 
ENDROOT
BRANCH   1   2
HETATM    2  C4  UNL     1     -31.914   8.656   1.447  1.00 20.00     0.001 C 
BRANCH   2   3
HETATM    3  C5  UNL     1     -31.963   8.850  -0.070  1.00 20.00     0.015 C 
BRANCH   3   4
HETATM    4  C8  UNL     1     -32.697  10.133  -0.435  1.00 20.00     0.114 C 
HETATM    5 CL10 UNL     1     -32.734  11.243   0.954  1.00 20.00    -0.130 Cl
ENDBRANCH   3   4
ENDBRANCH   2   3
ENDBRANCH   1   2
BRANCH   1   6
HETATM    6  C9  UNL     1     -32.746   6.331   2.169  1.00 20.00    -0.019 C 
HETATM    7  C2  UNL     1     -33.050   5.376   1.008  1.00 20.00     0.010 C 
BRANCH   6   8
HETATM    8  C6  UNL     1     -34.005   7.115   2.596  1.00 20.00     0.004 C 
BRANCH   8   9
HETATM    9  C3  UNL     1     -34.401   6.961   4.066  1.00 20.00    -0.004 C 
HETATM   10  C1  UNL     1     -35.330   5.772   4.264  1.00 20.00     0.005 C 
ENDBRANCH   8   9
ENDBRANCH   6   8
ENDBRANCH   1   6
TORSDOF 6
ENDMDL
