MODEL 1
REMARK VINA RESULT:      -2.2      0.000      0.000
REMARK  6 active torsions:
REMARK  status: ('A' for Active; 'I' for Inactive)
REMARK    1  A    between atoms: C3_3  and  C10_10 
REMARK    2  A    between atoms: C6_6  and  C11_11 
REMARK    3  A    between atoms: C7_7  and  C8_8 
REMARK    4  A    between atoms: C7_7  and  C9_9 
REMARK    5  A    between atoms: C8_8  and  C10_10 
REMARK    6  A    between atoms: C9_9  and  C11_11 
ROOT
HETATM    1  C7  UNL     1     -32.094   5.618   1.757  1.00 20.00     0.002 C 
ENDROOT
BRANCH   1   2
HETATM    2  C8  UNL     1     -31.625   6.894   1.045  1.00 20.00     0.020 C 
BRANCH   2   3
HETATM    3  C10 UNL     1     -32.274   8.199   1.529  1.00 20.00     0.086 C 
HETATM    4 CL12 UNL     1     -31.874   8.537   3.238  1.00 20.00    -0.125 Cl
BRANCH   3   5
HETATM    5  C3  UNL     1     -31.915   9.393   0.694  1.00 20.00     0.004 A 
HETATM    6  C1  UNL     1     -32.762   9.774  -0.488  1.00 20.00     0.006 A 
HETATM    7  C2  UNL     1     -32.761  10.634   0.744  1.00 20.00     0.006 A 
ENDBRANCH   3   5
ENDBRANCH   2   3
ENDBRANCH   1   2
BRANCH   1   8
HETATM    8  C9  UNL     1     -33.589   5.692   2.088  1.00 20.00     0.004 C 
BRANCH   8   9
HETATM    9  C11 UNL     1     -33.896   5.561   3.592  1.00 20.00    -0.019 C 
HETATM   10  C5  UNL     1     -34.947   6.602   3.997  1.00 20.00     0.010 C 
BRANCH   9  11
HETATM   11  C6  UNL     1     -34.313   4.145   4.036  1.00 20.00    -0.000 C 
HETATM   12  C4  UNL     1     -33.196   3.291   4.621  1.00 20.00     0.005 C 
ENDBRANCH   9  11
ENDBRANCH   8   9
ENDBRANCH   1   8
TORSDOF 6
ENDMDL
MODEL 2
REMARK VINA RESULT:      -2.1      0.638      1.694
REMARK  6 active torsions:
REMARK  status: ('A' for Active; 'I' for Inactive)
REMARK    1  A    between atoms: C3_3  and  C10_10 
REMARK    2  A    between atoms: C6_6  and  C11_11 
REMARK    3  A    between atoms: C7_7  and  C8_8 
REMARK    4  A    between atoms: C7_7  and  C9_9 
REMARK    5  A    between atoms: C8_8  and  C10_10 
REMARK    6  A    between atoms: C9_9  and  C11_11 
ROOT
HETATM    1  C7  UNL     1     -32.947   5.772   1.488  1.00 20.00     0.002 C 
ENDROOT
BRANCH   1   2
HETATM    2  C8  UNL     1     -31.922   6.866   1.158  1.00 20.00     0.020 C 
BRANCH   2   3
HETATM    3  C10 UNL     1     -32.310   8.288   1.589  1.00 20.00     0.086 C 
HETATM    4 CL12 UNL     1     -31.645   8.691   3.198  1.00 20.00    -0.125 Cl
BRANCH   3   5
HETATM    5  C3  UNL     1     -31.899   9.345   0.607  1.00 20.00     0.004 A 
HETATM    6  C1  UNL     1     -32.796   9.697  -0.548  1.00 20.00     0.006 A 
HETATM    7  C2  UNL     1     -32.607  10.671   0.581  1.00 20.00     0.006 A 
ENDBRANCH   3   5
ENDBRANCH   2   3
ENDBRANCH   1   2
BRANCH   1   8
HETATM    8  C9  UNL     1     -32.871   5.377   2.968  1.00 20.00     0.004 C 
BRANCH   8   9
HETATM    9  C11 UNL     1     -34.170   4.748   3.506  1.00 20.00    -0.019 C 
HETATM   10  C5  UNL     1     -33.830   3.608   4.473  1.00 20.00     0.010 C 
BRANCH   9  11
HETATM   11  C6  UNL     1     -35.145   5.754   4.150  1.00 20.00    -0.000 C 
HETATM   12  C4  UNL     1     -34.650   7.192   4.211  1.00 20.00     0.005 C 
ENDBRANCH   9  11
ENDBRANCH   8   9
ENDBRANCH   1   8
TORSDOF 6
ENDMDL
MODEL 3
REMARK VINA RESULT:      -1.4      1.373      1.753
REMARK  6 active torsions:
REMARK  status: ('A' for Active; 'I' for Inactive)
REMARK    1  A    between atoms: C3_3  and  C10_10 
REMARK    2  A    between atoms: C6_6  and  C11_11 
REMARK    3  A    between atoms: C7_7  and  C8_8 
REMARK    4  A    between atoms: C7_7  and  C9_9 
REMARK    5  A    between atoms: C8_8  and  C10_10 
REMARK    6  A    between atoms: C9_9  and  C11_11 
ROOT
HETATM    1  C7  UNL     1     -33.739   7.608   3.537  1.00 20.00     0.002 C 
ENDROOT
BRANCH   1   2
HETATM    2  C8  UNL     1     -32.320   8.127   3.267  1.00 20.00     0.020 C 
BRANCH   2   3
HETATM    3  C10 UNL     1     -31.902   8.173   1.790  1.00 20.00     0.086 C 
HETATM    4 CL12 UNL     1     -31.770   6.533   1.093  1.00 20.00    -0.125 Cl
BRANCH   3   5
HETATM    5  C3  UNL     1     -32.816   8.999   0.934  1.00 20.00     0.004 A 
HETATM    6  C1  UNL     1     -32.462  10.422   0.600  1.00 20.00     0.006 A 
HETATM    7  C2  UNL     1     -32.415   9.365  -0.468  1.00 20.00     0.006 A 
ENDBRANCH   3   5
ENDBRANCH   2   3
ENDBRANCH   1   2
BRANCH   1   8
HETATM    8  C9  UNL     1     -33.897   6.161   3.053  1.00 20.00     0.004 C 
BRANCH   8   9
HETATM    9  C11 UNL     1     -34.164   5.156   4.189  1.00 20.00    -0.019 C 
HETATM   10  C5  UNL     1     -35.633   5.241   4.619  1.00 20.00     0.010 C 
BRANCH   9  11
HETATM   11  C6  UNL     1     -33.762   3.704   3.861  1.00 20.00    -0.000 C 
HETATM   12  C4  UNL     1     -33.060   2.953   4.984  1.00 20.00     0.005 C 
ENDBRANCH   9  11
ENDBRANCH   8   9
ENDBRANCH   1   8
TORSDOF 6
ENDMDL
MODEL 4
REMARK VINA RESULT:      -1.3      1.877      5.133
REMARK  6 active torsions:
REMARK  status: ('A' for Active; 'I' for Inactive)
REMARK    1  A    between atoms: C3_3  and  C10_10 
REMARK    2  A    between atoms: C6_6  and  C11_11 
REMARK    3  A    between atoms: C7_7  and  C8_8 
REMARK    4  A    between atoms: C7_7  and  C9_9 
REMARK    5  A    between atoms: C8_8  and  C10_10 
REMARK    6  A    between atoms: C9_9  and  C11_11 
ROOT
HETATM    1  C7  UNL     1     -32.970   5.723   1.493  1.00 20.00     0.002 C 
ENDROOT
BRANCH   1   2
HETATM    2  C8  UNL     1     -32.754   5.106   2.882  1.00 20.00     0.020 C 
BRANCH   2   3
HETATM    3  C10 UNL     1     -34.012   4.545   3.560  1.00 20.00     0.086 C 
HETATM    4 CL12 UNL     1     -33.618   3.193   4.660  1.00 20.00    -0.125 Cl
BRANCH   3   5
HETATM    5  C3  UNL     1     -34.800   5.578   4.311  1.00 20.00     0.004 A 
HETATM    6  C1  UNL     1     -34.447   7.034   4.193  1.00 20.00     0.006 A 
HETATM    7  C2  UNL     1     -35.714   6.516   3.574  1.00 20.00     0.006 A 
ENDBRANCH   3   5
ENDBRANCH   2   3
ENDBRANCH   1   2
BRANCH   1   8
HETATM    8  C9  UNL     1     -31.854   6.718   1.155  1.00 20.00     0.004 C 
BRANCH   8   9
HETATM    9  C11 UNL     1     -32.222   8.184   1.455  1.00 20.00    -0.019 C 
HETATM   10  C5  UNL     1     -31.516   8.642   2.736  1.00 20.00     0.010 C 
BRANCH   9  11
HETATM   11  C6  UNL     1     -31.952   9.158   0.290  1.00 20.00    -0.000 C 
HETATM   12  C4  UNL     1     -32.720  10.471   0.348  1.00 20.00     0.005 C 
ENDBRANCH   9  11
ENDBRANCH   8   9
ENDBRANCH   1   8
TORSDOF 6
ENDMDL
MODEL 5
REMARK VINA RESULT:      -1.1      1.356      1.546
REMARK  6 active torsions:
REMARK  status: ('A' for Active; 'I' for Inactive)
REMARK    1  A    between atoms: C3_3  and  C10_10 
REMARK    2  A    between atoms: C6_6  and  C11_11 
REMARK    3  A    between atoms: C7_7  and  C8_8 
REMARK    4  A    between atoms: C7_7  and  C9_9 
REMARK    5  A    between atoms: C8_8  and  C10_10 
REMARK    6  A    between atoms: C9_9  and  C11_11 
ROOT
HETATM    1  C7  UNL     1     -33.086   7.258   2.310  1.00 20.00     0.002 C 
ENDROOT
BRANCH   1   2
HETATM    2  C8  UNL     1     -31.664   7.465   1.770  1.00 20.00     0.020 C 
BRANCH   2   3
HETATM    3  C10 UNL     1     -31.445   8.747   0.954  1.00 20.00     0.086 C 
HETATM    4 CL12 UNL     1     -30.584   8.413  -0.576  1.00 20.00    -0.125 Cl
BRANCH   3   5
HETATM    5  C3  UNL     1     -32.713   9.491   0.654  1.00 20.00     0.004 A 
HETATM    6  C1  UNL     1     -32.722  10.994   0.628  1.00 20.00     0.006 A 
HETATM    7  C2  UNL     1     -32.872  10.219  -0.651  1.00 20.00     0.006 A 
ENDBRANCH   3   5
ENDBRANCH   2   3
ENDBRANCH   1   2
BRANCH   1   8
HETATM    8  C9  UNL     1     -33.409   5.766   2.449  1.00 20.00     0.004 C 
BRANCH   8   9
HETATM    9  C11 UNL     1     -33.971   5.383   3.832  1.00 20.00    -0.019 C 
HETATM   10  C5  UNL     1     -35.279   6.140   4.085  1.00 20.00     0.010 C 
BRANCH   9  11
HETATM   11  C6  UNL     1     -34.152   3.867   4.046  1.00 20.00    -0.000 C 
HETATM   12  C4  UNL     1     -33.034   3.180   4.817  1.00 20.00     0.005 C 
ENDBRANCH   9  11
ENDBRANCH   8   9
ENDBRANCH   1   8
TORSDOF 6
ENDMDL
MODEL 6
REMARK VINA RESULT:      -1.0      1.297      5.449
REMARK  6 active torsions:
REMARK  status: ('A' for Active; 'I' for Inactive)
REMARK    1  A    between atoms: C3_3  and  C10_10 
REMARK    2  A    between atoms: C6_6  and  C11_11 
REMARK    3  A    between atoms: C7_7  and  C8_8 
REMARK    4  A    between atoms: C7_7  and  C9_9 
REMARK    5  A    between atoms: C8_8  and  C10_10 
REMARK    6  A    between atoms: C9_9  and  C11_11 
ROOT
HETATM    1  C7  UNL     1     -32.164   5.504   1.229  1.00 20.00     0.002 C 
ENDROOT
BRANCH   1   2
HETATM    2  C8  UNL     1     -33.589   5.609   1.790  1.00 20.00     0.020 C 
BRANCH   2   3
HETATM    3  C10 UNL     1     -33.714   5.450   3.312  1.00 20.00     0.086 C 
HETATM    4 CL12 UNL     1     -34.956   6.544   3.986  1.00 20.00    -0.125 Cl
BRANCH   3   5
HETATM    5  C3  UNL     1     -34.008   4.045   3.746  1.00 20.00     0.004 A 
HETATM    6  C1  UNL     1     -32.900   3.156   4.239  1.00 20.00     0.006 A 
HETATM    7  C2  UNL     1     -33.935   3.670   5.199  1.00 20.00     0.006 A 
ENDBRANCH   3   5
ENDBRANCH   2   3
ENDBRANCH   1   2
BRANCH   1   8
HETATM    8  C9  UNL     1     -31.365   6.781   1.516  1.00 20.00     0.004 C 
BRANCH   8   9
HETATM    9  C11 UNL     1     -32.224   8.060   1.514  1.00 20.00    -0.019 C 
HETATM   10  C5  UNL     1     -32.114   8.757   2.875  1.00 20.00     0.010 C 
BRANCH   9  11
HETATM   11  C6  UNL     1     -31.912   9.034   0.360  1.00 20.00    -0.000 C 
HETATM   12  C4  UNL     1     -32.683  10.346   0.389  1.00 20.00     0.005 C 
ENDBRANCH   9  11
ENDBRANCH   8   9
ENDBRANCH   1   8
TORSDOF 6
ENDMDL
MODEL 7
REMARK VINA RESULT:      -1.0      1.684      2.302
REMARK  6 active torsions:
REMARK  status: ('A' for Active; 'I' for Inactive)
REMARK    1  A    between atoms: C3_3  and  C10_10 
REMARK    2  A    between atoms: C6_6  and  C11_11 
REMARK    3  A    between atoms: C7_7  and  C8_8 
REMARK    4  A    between atoms: C7_7  and  C9_9 
REMARK    5  A    between atoms: C8_8  and  C10_10 
REMARK    6  A    between atoms: C9_9  and  C11_11 
ROOT
HETATM    1  C7  UNL     1     -32.940   6.563   1.525  1.00 20.00     0.002 C 
ENDROOT
BRANCH   1   2
HETATM    2  C8  UNL     1     -31.628   7.306   1.809  1.00 20.00     0.020 C 
BRANCH   2   3
HETATM    3  C10 UNL     1     -31.427   8.616   1.033  1.00 20.00     0.086 C 
HETATM    4 CL12 UNL     1     -30.575   8.339  -0.513  1.00 20.00    -0.125 Cl
BRANCH   3   5
HETATM    5  C3  UNL     1     -32.704   9.356   0.766  1.00 20.00     0.004 A 
HETATM    6  C1  UNL     1     -32.717  10.860   0.740  1.00 20.00     0.006 A 
HETATM    7  C2  UNL     1     -32.899  10.084  -0.534  1.00 20.00     0.006 A 
ENDBRANCH   3   5
ENDBRANCH   2   3
ENDBRANCH   1   2
BRANCH   1   8
HETATM    8  C9  UNL     1     -33.429   5.816   2.771  1.00 20.00     0.004 C 
BRANCH   8   9
HETATM    9  C11 UNL     1     -34.667   6.456   3.428  1.00 20.00    -0.019 C 
HETATM   10  C5  UNL     1     -35.255   5.494   4.467  1.00 20.00     0.010 C 
BRANCH   9  11
HETATM   11  C6  UNL     1     -34.415   7.850   4.037  1.00 20.00    -0.000 C 
HETATM   12  C4  UNL     1     -33.241   7.936   5.002  1.00 20.00     0.005 C 
ENDBRANCH   9  11
ENDBRANCH   8   9
ENDBRANCH   1   8
TORSDOF 6
ENDMDL
MODEL 8
REMARK VINA RESULT:      -0.8      1.286      5.779
REMARK  6 active torsions:
REMARK  status: ('A' for Active; 'I' for Inactive)
REMARK    1  A    between atoms: C3_3  and  C10_10 
REMARK    2  A    between atoms: C6_6  and  C11_11 
REMARK    3  A    between atoms: C7_7  and  C8_8 
REMARK    4  A    between atoms: C7_7  and  C9_9 
REMARK    5  A    between atoms: C8_8  and  C10_10 
REMARK    6  A    between atoms: C9_9  and  C11_11 
ROOT
HETATM    1  C7  UNL     1     -32.023   6.597   1.454  1.00 20.00     0.002 C 
ENDROOT
BRANCH   1   2
HETATM    2  C8  UNL     1     -33.231   5.703   1.768  1.00 20.00     0.020 C 
BRANCH   2   3
HETATM    3  C10 UNL     1     -33.551   5.523   3.259  1.00 20.00     0.086 C 
HETATM    4 CL12 UNL     1     -34.834   6.645   3.796  1.00 20.00    -0.125 Cl
BRANCH   3   5
HETATM    5  C3  UNL     1     -33.940   4.120   3.623  1.00 20.00     0.004 A 
HETATM    6  C1  UNL     1     -33.014   3.266   4.444  1.00 20.00     0.006 A 
HETATM    7  C2  UNL     1     -34.295   3.777   5.042  1.00 20.00     0.006 A 
ENDBRANCH   3   5
ENDBRANCH   2   3
ENDBRANCH   1   2
BRANCH   1   8
HETATM    8  C9  UNL     1     -32.224   8.009   2.018  1.00 20.00     0.004 C 
BRANCH   8   9
HETATM    9  C11 UNL     1     -31.661   9.121   1.112  1.00 20.00    -0.019 C 
HETATM   10  C5  UNL     1     -31.099   8.505  -0.173  1.00 20.00     0.010 C 
BRANCH   9  11
HETATM   11  C6  UNL     1     -32.662  10.252   0.799  1.00 20.00    -0.000 C 
HETATM   12  C4  UNL     1     -33.055  10.386  -0.666  1.00 20.00     0.005 C 
ENDBRANCH   9  11
ENDBRANCH   8   9
ENDBRANCH   1   8
TORSDOF 6
ENDMDL
MODEL 9
REMARK VINA RESULT:      -0.7      1.195      1.936
REMARK  6 active torsions:
REMARK  status: ('A' for Active; 'I' for Inactive)
REMARK    1  A    between atoms: C3_3  and  C10_10 
REMARK    2  A    between atoms: C6_6  and  C11_11 
REMARK    3  A    between atoms: C7_7  and  C8_8 
REMARK    4  A    between atoms: C7_7  and  C9_9 
REMARK    5  A    between atoms: C8_8  and  C10_10 
REMARK    6  A    between atoms: C9_9  and  C11_11 
ROOT
HETATM    1  C7  UNL     1     -34.173   7.611   3.115  1.00 20.00     0.002 C 
ENDROOT
BRANCH   1   2
HETATM    2  C8  UNL     1     -32.728   8.104   3.270  1.00 20.00     0.020 C 
BRANCH   2   3
HETATM    3  C10 UNL     1     -32.002   8.450   1.961  1.00 20.00     0.086 C 
HETATM    4 CL12 UNL     1     -31.343   6.990   1.170  1.00 20.00    -0.125 Cl
BRANCH   3   5
HETATM    5  C3  UNL     1     -32.857   9.198   0.981  1.00 20.00     0.004 A 
HETATM    6  C1  UNL     1     -32.536  10.623   0.628  1.00 20.00     0.006 A 
HETATM    7  C2  UNL     1     -32.327   9.532  -0.385  1.00 20.00     0.006 A 
ENDBRANCH   3   5
ENDBRANCH   2   3
ENDBRANCH   1   2
BRANCH   1   8
HETATM    8  C9  UNL     1     -34.521   6.583   4.198  1.00 20.00     0.004 C 
BRANCH   8   9
HETATM    9  C11 UNL     1     -34.481   5.125   3.701  1.00 20.00    -0.019 C 
HETATM   10  C5  UNL     1     -33.437   4.988   2.587  1.00 20.00     0.010 C 
BRANCH   9  11
HETATM   11  C6  UNL     1     -34.254   4.081   4.813  1.00 20.00    -0.000 C 
HETATM   12  C4  UNL     1     -33.228   3.003   4.493  1.00 20.00     0.005 C 
ENDBRANCH   9  11
ENDBRANCH   8   9
ENDBRANCH   1   8
TORSDOF 6
ENDMDL
