MODEL 1
REMARK VINA RESULT:      -2.2      0.000      0.000
REMARK  4 active torsions:
REMARK  status: ('A' for Active; 'I' for Inactive)
REMARK    1  A    between atoms: C4_4  and  C8_8 
REMARK    2  A    between atoms: C5_5  and  C9_9 
REMARK    3  A    between atoms: C5_5  and  O11_11 
REMARK    4  A    between atoms: C9_9  and  C10_10 
ROOT
HETATM    1  C1  UNL     1     -33.397   8.286   3.764  1.00 20.00     0.007 C 
HETATM    2  C2  UNL     1     -34.038   7.257   4.703  1.00 20.00     0.038 C 
HETATM    3  C3  UNL     1     -33.587   6.136   2.640  1.00 20.00     0.042 C 
HETATM    4  C4  UNL     1     -33.314   7.622   2.382  1.00 20.00    -0.012 C 
HETATM    5  C5  UNL     1     -34.591   6.162   3.791  1.00 20.00     0.058 C 
ENDROOT
BRANCH   5   6
HETATM    6  C9  UNL     1     -34.739   4.816   4.482  1.00 20.00     0.037 C 
BRANCH   6   7
HETATM    7  C10 UNL     1     -33.775   3.782   3.904  1.00 20.00    -0.002 C 
HETATM    8  C7  UNL     1     -33.122   2.956   5.001  1.00 20.00     0.005 C 
ENDBRANCH   6   7
ENDBRANCH   5   6
BRANCH   5   9
HETATM    9  O11 UNL     1     -35.864   6.561   3.282  1.00 20.00    -0.390 OA
HETATM   10  H31 UNL     1     -35.844   6.390   2.328  1.00 20.00     0.210 HD
ENDBRANCH   5   9
BRANCH   4  11
HETATM   11  C8  UNL     1     -31.988   7.866   1.680  1.00 20.00     0.000 C 
HETATM   12  C6  UNL     1     -32.050   9.046   0.763  1.00 20.00     0.005 C 
ENDBRANCH   4  11
TORSDOF 4
ENDMDL
MODEL 2
REMARK VINA RESULT:      -1.0      1.722      2.624
REMARK  4 active torsions:
REMARK  status: ('A' for Active; 'I' for Inactive)
REMARK    1  A    between atoms: C4_4  and  C8_8 
REMARK    2  A    between atoms: C5_5  and  C9_9 
REMARK    3  A    between atoms: C5_5  and  O11_11 
REMARK    4  A    between atoms: C9_9  and  C10_10 
ROOT
HETATM    1  C1  UNL     1     -31.971   6.868   1.483  1.00 20.00     0.007 C 
HETATM    2  C2  UNL     1     -32.970   6.363   2.530  1.00 20.00     0.038 C 
HETATM    3  C3  UNL     1     -33.259   8.731   2.371  1.00 20.00     0.042 C 
HETATM    4  C4  UNL     1     -32.011   8.402   1.546  1.00 20.00    -0.012 C 
HETATM    5  C5  UNL     1     -33.322   7.585   3.379  1.00 20.00     0.058 C 
ENDROOT
BRANCH   5   6
HETATM    6  C9  UNL     1     -34.672   7.473   4.069  1.00 20.00     0.037 C 
BRANCH   6   7
HETATM    7  C10 UNL     1     -35.411   6.204   3.652  1.00 20.00    -0.002 C 
HETATM    8  C7  UNL     1     -35.156   5.065   4.625  1.00 20.00     0.005 C 
ENDBRANCH   6   7
ENDBRANCH   5   6
BRANCH   5   9
HETATM    9  O11 UNL     1     -32.314   7.787   4.368  1.00 20.00    -0.390 OA
HETATM   10  H31 UNL     1     -32.673   7.440   5.200  1.00 20.00     0.210 HD
ENDBRANCH   5   9
BRANCH   4  11
HETATM   11  C8  UNL     1     -32.018   9.057   0.174  1.00 20.00     0.000 C 
HETATM   12  C6  UNL     1     -32.639  10.418   0.207  1.00 20.00     0.005 C 
ENDBRANCH   4  11
TORSDOF 4
ENDMDL
MODEL 3
REMARK VINA RESULT:      -0.9      1.184      4.490
REMARK  4 active torsions:
REMARK  status: ('A' for Active; 'I' for Inactive)
REMARK    1  A    between atoms: C4_4  and  C8_8 
REMARK    2  A    between atoms: C5_5  and  C9_9 
REMARK    3  A    between atoms: C5_5  and  O11_11 
REMARK    4  A    between atoms: C9_9  and  C10_10 
ROOT
HETATM    1  C1  UNL     1     -35.411   5.504   4.283  1.00 20.00     0.007 C 
HETATM    2  C2  UNL     1     -35.374   6.864   3.577  1.00 20.00     0.038 C 
HETATM    3  C3  UNL     1     -33.204   5.891   3.336  1.00 20.00     0.042 C 
HETATM    4  C4  UNL     1     -33.965   4.989   4.313  1.00 20.00    -0.012 C 
HETATM    5  C5  UNL     1     -33.895   7.243   3.501  1.00 20.00     0.058 C 
ENDROOT
BRANCH   5   6
HETATM    6  C9  UNL     1     -33.577   8.216   2.376  1.00 20.00     0.037 C 
BRANCH   6   7
HETATM    7  C10 UNL     1     -32.171   7.991   1.824  1.00 20.00    -0.002 C 
HETATM    8  C7  UNL     1     -31.866   8.938   0.675  1.00 20.00     0.005 C 
ENDBRANCH   6   7
ENDBRANCH   5   6
BRANCH   5   9
HETATM    9  O11 UNL     1     -33.486   7.822   4.740  1.00 20.00    -0.390 OA
HETATM   10  H31 UNL     1     -34.289   8.166   5.161  1.00 20.00     0.210 HD
ENDBRANCH   5   9
BRANCH   4  11
HETATM   11  C8  UNL     1     -33.848   3.512   3.968  1.00 20.00     0.000 C 
HETATM   12  C6  UNL     1     -33.015   2.770   4.964  1.00 20.00     0.005 C 
ENDBRANCH   4  11
TORSDOF 4
ENDMDL
MODEL 4
REMARK VINA RESULT:      -0.8      1.679      4.941
REMARK  4 active torsions:
REMARK  status: ('A' for Active; 'I' for Inactive)
REMARK    1  A    between atoms: C4_4  and  C8_8 
REMARK    2  A    between atoms: C5_5  and  C9_9 
REMARK    3  A    between atoms: C5_5  and  O11_11 
REMARK    4  A    between atoms: C9_9  and  C10_10 
ROOT
HETATM    1  C1  UNL     1     -34.370   7.202   3.883  1.00 20.00     0.007 C 
HETATM    2  C2  UNL     1     -33.921   8.245   2.853  1.00 20.00     0.038 C 
HETATM    3  C3  UNL     1     -32.881   6.177   2.254  1.00 20.00     0.042 C 
HETATM    4  C4  UNL     1     -33.531   5.942   3.621  1.00 20.00    -0.012 C 
HETATM    5  C5  UNL     1     -32.637   7.685   2.239  1.00 20.00     0.058 C 
ENDROOT
BRANCH   5   6
HETATM    6  C9  UNL     1     -32.345   8.227   0.849  1.00 20.00     0.037 C 
BRANCH   6   7
HETATM    7  C10 UNL     1     -32.359   9.754   0.830  1.00 20.00    -0.002 C 
HETATM    8  C7  UNL     1     -32.806  10.290  -0.521  1.00 20.00     0.005 C 
ENDBRANCH   6   7
ENDBRANCH   5   6
BRANCH   5   9
HETATM    9  O11 UNL     1     -31.532   7.982   3.091  1.00 20.00    -0.390 OA
HETATM   10  H31 UNL     1     -31.425   7.217   3.679  1.00 20.00     0.210 HD
ENDBRANCH   5   9
BRANCH   4  11
HETATM   11  C8  UNL     1     -34.345   4.659   3.677  1.00 20.00     0.000 C 
HETATM   12  C6  UNL     1     -33.623   3.570   4.406  1.00 20.00     0.005 C 
ENDBRANCH   4  11
TORSDOF 4
ENDMDL
MODEL 5
REMARK VINA RESULT:      -0.8      2.019      5.025
REMARK  4 active torsions:
REMARK  status: ('A' for Active; 'I' for Inactive)
REMARK    1  A    between atoms: C4_4  and  C8_8 
REMARK    2  A    between atoms: C5_5  and  C9_9 
REMARK    3  A    between atoms: C5_5  and  O11_11 
REMARK    4  A    between atoms: C9_9  and  C10_10 
ROOT
HETATM    1  C1  UNL     1     -32.983   7.721   4.063  1.00 20.00     0.007 C 
HETATM    2  C2  UNL     1     -32.159   8.480   3.016  1.00 20.00     0.038 C 
HETATM    3  C3  UNL     1     -33.595   6.984   1.827  1.00 20.00     0.042 C 
HETATM    4  C4  UNL     1     -33.737   6.617   3.307  1.00 20.00    -0.012 C 
HETATM    5  C5  UNL     1     -32.206   7.615   1.756  1.00 20.00     0.058 C 
ENDROOT
BRANCH   5   6
HETATM    6  C9  UNL     1     -31.974   8.400   0.474  1.00 20.00     0.037 C 
BRANCH   6   7
HETATM    7  C10 UNL     1     -32.333   9.874   0.648  1.00 20.00    -0.002 C 
HETATM    8  C7  UNL     1     -32.978  10.441  -0.606  1.00 20.00     0.005 C 
ENDBRANCH   6   7
ENDBRANCH   5   6
BRANCH   5   9
HETATM    9  O11 UNL     1     -31.226   6.583   1.848  1.00 20.00    -0.390 OA
HETATM   10  H31 UNL     1     -31.523   5.984   2.551  1.00 20.00     0.210 HD
ENDBRANCH   5   9
BRANCH   4  11
HETATM   11  C8  UNL     1     -35.186   6.474   3.746  1.00 20.00     0.000 C 
HETATM   12  C6  UNL     1     -35.411   5.224   4.535  1.00 20.00     0.005 C 
ENDBRANCH   4  11
TORSDOF 4
ENDMDL
MODEL 6
REMARK VINA RESULT:      -0.3      1.500      4.991
REMARK  4 active torsions:
REMARK  status: ('A' for Active; 'I' for Inactive)
REMARK    1  A    between atoms: C4_4  and  C8_8 
REMARK    2  A    between atoms: C5_5  and  C9_9 
REMARK    3  A    between atoms: C5_5  and  O11_11 
REMARK    4  A    between atoms: C9_9  and  C10_10 
ROOT
HETATM    1  C1  UNL     1     -32.702   4.558   2.293  1.00 20.00     0.007 C 
HETATM    2  C2  UNL     1     -31.882   5.721   1.723  1.00 20.00     0.038 C 
HETATM    3  C3  UNL     1     -33.617   6.678   3.061  1.00 20.00     0.042 C 
HETATM    4  C4  UNL     1     -33.934   5.182   2.965  1.00 20.00    -0.012 C 
HETATM    5  C5  UNL     1     -32.799   6.942   1.797  1.00 20.00     0.058 C 
ENDROOT
BRANCH   5   6
HETATM    6  C9  UNL     1     -32.047   8.263   1.840  1.00 20.00     0.037 C 
BRANCH   6   7
HETATM    7  C10 UNL     1     -31.929   8.884   0.450  1.00 20.00    -0.002 C 
HETATM    8  C7  UNL     1     -32.576  10.258   0.396  1.00 20.00     0.005 C 
ENDBRANCH   6   7
ENDBRANCH   5   6
BRANCH   5   9
HETATM    9  O11 UNL     1     -33.678   6.948   0.673  1.00 20.00    -0.390 OA
HETATM   10  H31 UNL     1     -34.576   6.849   1.026  1.00 20.00     0.210 HD
ENDBRANCH   5   9
BRANCH   4  11
HETATM   11  C8  UNL     1     -34.260   4.559   4.313  1.00 20.00     0.000 C 
HETATM   12  C6  UNL     1     -33.520   3.277   4.531  1.00 20.00     0.005 C 
ENDBRANCH   4  11
TORSDOF 4
ENDMDL
MODEL 7
REMARK VINA RESULT:       0.6      1.407      4.085
REMARK  4 active torsions:
REMARK  status: ('A' for Active; 'I' for Inactive)
REMARK    1  A    between atoms: C4_4  and  C8_8 
REMARK    2  A    between atoms: C5_5  and  C9_9 
REMARK    3  A    between atoms: C5_5  and  O11_11 
REMARK    4  A    between atoms: C9_9  and  C10_10 
ROOT
HETATM    1  C1  UNL     1     -35.557   5.744   4.114  1.00 20.00     0.007 C 
HETATM    2  C2  UNL     1     -35.191   6.944   3.234  1.00 20.00     0.038 C 
HETATM    3  C3  UNL     1     -33.166   5.747   3.664  1.00 20.00     0.042 C 
HETATM    4  C4  UNL     1     -34.232   5.111   4.563  1.00 20.00    -0.012 C 
HETATM    5  C5  UNL     1     -33.693   7.165   3.450  1.00 20.00     0.058 C 
ENDROOT
BRANCH   5   6
HETATM    6  C9  UNL     1     -33.015   7.883   2.294  1.00 20.00     0.037 C 
BRANCH   6   7
HETATM    7  C10 UNL     1     -31.910   7.029   1.676  1.00 20.00    -0.002 C 
HETATM    8  C7  UNL     1     -32.482   5.835   0.929  1.00 20.00     0.005 C 
ENDBRANCH   6   7
ENDBRANCH   5   6
BRANCH   5   9
HETATM    9  O11 UNL     1     -33.488   7.918   4.644  1.00 20.00    -0.390 OA
HETATM   10  H31 UNL     1     -33.386   8.843   4.372  1.00 20.00     0.210 HD
ENDBRANCH   5   9
BRANCH   4  11
HETATM   11  C8  UNL     1     -34.239   3.593   4.489  1.00 20.00     0.000 C 
HETATM   12  C6  UNL     1     -32.860   3.022   4.587  1.00 20.00     0.005 C 
ENDBRANCH   4  11
TORSDOF 4
ENDMDL
MODEL 8
REMARK VINA RESULT:       0.6      2.078      3.104
REMARK  4 active torsions:
REMARK  status: ('A' for Active; 'I' for Inactive)
REMARK    1  A    between atoms: C4_4  and  C8_8 
REMARK    2  A    between atoms: C5_5  and  C9_9 
REMARK    3  A    between atoms: C5_5  and  O11_11 
REMARK    4  A    between atoms: C9_9  and  C10_10 
ROOT
HETATM    1  C1  UNL     1     -32.967   7.638  -0.091  1.00 20.00     0.007 C 
HETATM    2  C2  UNL     1     -33.562   6.457   0.684  1.00 20.00     0.038 C 
HETATM    3  C3  UNL     1     -32.284   7.744   2.242  1.00 20.00     0.042 C 
HETATM    4  C4  UNL     1     -31.979   8.330   0.860  1.00 20.00    -0.012 C 
HETATM    5  C5  UNL     1     -32.687   6.304   1.928  1.00 20.00     0.058 C 
ENDROOT
BRANCH   5   6
HETATM    6  C9  UNL     1     -33.395   5.618   3.086  1.00 20.00     0.037 C 
BRANCH   6   7
HETATM    7  C10 UNL     1     -34.449   6.528   3.714  1.00 20.00    -0.002 C 
HETATM    8  C7  UNL     1     -35.554   5.723   4.379  1.00 20.00     0.005 C 
ENDBRANCH   6   7
ENDBRANCH   5   6
BRANCH   5   9
HETATM    9  O11 UNL     1     -31.514   5.559   1.600  1.00 20.00    -0.390 OA
HETATM   10  H31 UNL     1     -30.809   6.209   1.453  1.00 20.00     0.210 HD
ENDBRANCH   5   9
BRANCH   4  11
HETATM   11  C8  UNL     1     -32.077   9.847   0.825  1.00 20.00     0.000 C 
HETATM   12  C6  UNL     1     -32.796  10.333  -0.393  1.00 20.00     0.005 C 
ENDBRANCH   4  11
TORSDOF 4
ENDMDL
MODEL 9
REMARK VINA RESULT:       0.8      1.795      4.715
REMARK  4 active torsions:
REMARK  status: ('A' for Active; 'I' for Inactive)
REMARK    1  A    between atoms: C4_4  and  C8_8 
REMARK    2  A    between atoms: C5_5  and  C9_9 
REMARK    3  A    between atoms: C5_5  and  O11_11 
REMARK    4  A    between atoms: C9_9  and  C10_10 
ROOT
HETATM    1  C1  UNL     1     -33.265   5.224   2.999  1.00 20.00     0.007 C 
HETATM    2  C2  UNL     1     -32.171   5.647   2.012  1.00 20.00     0.038 C 
HETATM    3  C3  UNL     1     -33.517   7.577   2.433  1.00 20.00     0.042 C 
HETATM    4  C4  UNL     1     -34.247   6.402   3.092  1.00 20.00    -0.012 C 
HETATM    5  C5  UNL     1     -32.704   6.906   1.328  1.00 20.00     0.058 C 
ENDROOT
BRANCH   5   6
HETATM    6  C9  UNL     1     -31.609   7.801   0.768  1.00 20.00     0.037 C 
BRANCH   6   7
HETATM    7  C10 UNL     1     -31.954   9.279   0.938  1.00 20.00    -0.002 C 
HETATM    8  C7  UNL     1     -32.545   9.862  -0.335  1.00 20.00     0.005 C 
ENDBRANCH   6   7
ENDBRANCH   5   6
BRANCH   5   9
HETATM    9  O11 UNL     1     -33.585   6.538   0.267  1.00 20.00    -0.390 OA
HETATM   10  H31 UNL     1     -34.457   6.892   0.499  1.00 20.00     0.210 HD
ENDBRANCH   5   9
BRANCH   4  11
HETATM   11  C8  UNL     1     -34.687   6.702   4.516  1.00 20.00     0.000 C 
HETATM   12  C6  UNL     1     -33.956   7.872   5.093  1.00 20.00     0.005 C 
ENDBRANCH   4  11
TORSDOF 4
ENDMDL
