MODEL 1
REMARK VINA RESULT:      -2.2      0.000      0.000
REMARK  1 active torsions:
REMARK  status: ('A' for Active; 'I' for Inactive)
REMARK    1  A    between atoms: C9_9  and  C10_10 
ROOT
HETATM    1  C1  UNL     1     -32.856  10.442  -0.393  1.00 20.00     0.012 C 
HETATM    2  C2  UNL     1     -32.283   9.661   0.317  1.00 20.00    -0.117 C 
HETATM    3  C10 UNL     1     -31.569   8.719   1.178  1.00 20.00     0.098 C 
ENDROOT
BRANCH   3   4
HETATM    4  C9  UNL     1     -32.547   7.738   1.838  1.00 20.00     0.004 C 
HETATM    5  C5  UNL     1     -32.491   7.910   3.360  1.00 20.00     0.083 C 
HETATM    6  C3  UNL     1     -33.777   7.539   4.066  1.00 20.00     0.127 C 
HETATM    7  C4  UNL     1     -34.521   6.286   3.662  1.00 20.00     0.078 C 
HETATM    8  O11 UNL     1     -34.221   8.258   4.965  1.00 20.00    -0.298 OA
HETATM    9  C6  UNL     1     -33.631   5.142   3.199  1.00 20.00     0.007 C 
HETATM   10  C7  UNL     1     -33.242   5.251   1.727  1.00 20.00     0.001 C 
HETATM   11  C8  UNL     1     -32.183   6.306   1.414  1.00 20.00     0.006 C 
ENDBRANCH   3   4
TORSDOF 1
ENDMDL
MODEL 2
REMARK VINA RESULT:      -1.7      1.292      4.493
REMARK  1 active torsions:
REMARK  status: ('A' for Active; 'I' for Inactive)
REMARK    1  A    between atoms: C9_9  and  C10_10 
ROOT
HETATM    1  C1  UNL     1     -32.908   2.633   5.173  1.00 20.00     0.012 C 
HETATM    2  C2  UNL     1     -33.496   3.362   4.421  1.00 20.00    -0.117 C 
HETATM    3  C10 UNL     1     -34.225   4.238   3.504  1.00 20.00     0.098 C 
ENDROOT
BRANCH   3   4
HETATM    4  C9  UNL     1     -33.437   5.529   3.242  1.00 20.00     0.004 C 
HETATM    5  C5  UNL     1     -34.282   6.736   3.663  1.00 20.00     0.083 C 
HETATM    6  C3  UNL     1     -33.465   7.939   4.081  1.00 20.00     0.127 C 
HETATM    7  C4  UNL     1     -32.258   8.347   3.267  1.00 20.00     0.078 C 
HETATM    8  O11 UNL     1     -33.780   8.584   5.084  1.00 20.00    -0.298 OA
HETATM    9  C6  UNL     1     -32.380   8.076   1.774  1.00 20.00     0.007 C 
HETATM   10  C7  UNL     1     -32.010   6.644   1.399  1.00 20.00     0.001 C 
HETATM   11  C8  UNL     1     -33.057   5.591   1.754  1.00 20.00     0.006 C 
ENDBRANCH   3   4
TORSDOF 1
ENDMDL
MODEL 3
REMARK VINA RESULT:      -1.2      1.786      2.598
REMARK  1 active torsions:
REMARK  status: ('A' for Active; 'I' for Inactive)
REMARK    1  A    between atoms: C9_9  and  C10_10 
ROOT
HETATM    1  C1  UNL     1     -32.791  10.065  -0.374  1.00 20.00     0.012 C 
HETATM    2  C2  UNL     1     -32.166   9.564   0.521  1.00 20.00    -0.117 C 
HETATM    3  C10 UNL     1     -31.391   8.965   1.608  1.00 20.00     0.098 C 
ENDROOT
BRANCH   3   4
HETATM    4  C9  UNL     1     -32.184   7.839   2.284  1.00 20.00     0.004 C 
HETATM    5  C5  UNL     1     -32.770   6.914   1.212  1.00 20.00     0.083 C 
HETATM    6  C3  UNL     1     -32.982   5.491   1.680  1.00 20.00     0.127 C 
HETATM    7  C4  UNL     1     -33.578   5.229   3.044  1.00 20.00     0.078 C 
HETATM    8  O11 UNL     1     -32.665   4.546   0.953  1.00 20.00    -0.298 OA
HETATM    9  C6  UNL     1     -34.594   6.266   3.501  1.00 20.00     0.007 C 
HETATM   10  C7  UNL     1     -33.945   7.490   4.143  1.00 20.00     0.001 C 
HETATM   11  C8  UNL     1     -33.281   8.457   3.165  1.00 20.00     0.006 C 
ENDBRANCH   3   4
TORSDOF 1
ENDMDL
MODEL 4
REMARK VINA RESULT:      -1.1      2.323      5.067
REMARK  1 active torsions:
REMARK  status: ('A' for Active; 'I' for Inactive)
REMARK    1  A    between atoms: C9_9  and  C10_10 
ROOT
HETATM    1  C1  UNL     1     -33.264   2.854   4.797  1.00 20.00     0.012 C 
HETATM    2  C2  UNL     1     -33.977   3.781   4.523  1.00 20.00    -0.117 C 
HETATM    3  C10 UNL     1     -34.857   4.904   4.200  1.00 20.00     0.098 C 
ENDROOT
BRANCH   3   4
HETATM    4  C9  UNL     1     -34.136   5.920   3.304  1.00 20.00     0.004 C 
HETATM    5  C5  UNL     1     -32.832   5.304   2.784  1.00 20.00     0.083 C 
HETATM    6  C3  UNL     1     -32.379   5.864   1.453  1.00 20.00     0.127 C 
HETATM    7  C4  UNL     1     -32.445   7.354   1.202  1.00 20.00     0.078 C 
HETATM    8  O11 UNL     1     -31.962   5.108   0.572  1.00 20.00    -0.298 OA
HETATM    9  C6  UNL     1     -32.202   8.214   2.434  1.00 20.00     0.007 C 
HETATM   10  C7  UNL     1     -33.459   8.413   3.276  1.00 20.00     0.001 C 
HETATM   11  C8  UNL     1     -33.878   7.204   4.108  1.00 20.00     0.006 C 
ENDBRANCH   3   4
TORSDOF 1
ENDMDL
MODEL 5
REMARK VINA RESULT:      -0.4      1.782      2.645
REMARK  1 active torsions:
REMARK  status: ('A' for Active; 'I' for Inactive)
REMARK    1  A    between atoms: C9_9  and  C10_10 
ROOT
HETATM    1  C1  UNL     1     -32.401   9.657   0.488  1.00 20.00     0.012 C 
HETATM    2  C2  UNL     1     -32.052   8.635   1.013  1.00 20.00    -0.117 C 
HETATM    3  C10 UNL     1     -31.610   7.391   1.643  1.00 20.00     0.098 C 
ENDROOT
BRANCH   3   4
HETATM    4  C9  UNL     1     -32.652   6.894   2.654  1.00 20.00     0.004 C 
HETATM    5  C5  UNL     1     -33.214   5.547   2.185  1.00 20.00     0.083 C 
HETATM    6  C3  UNL     1     -33.702   4.663   3.312  1.00 20.00     0.127 C 
HETATM    7  C4  UNL     1     -34.519   5.259   4.436  1.00 20.00     0.078 C 
HETATM    8  O11 UNL     1     -33.432   3.459   3.317  1.00 20.00    -0.298 OA
HETATM    9  C6  UNL     1     -35.420   6.413   4.021  1.00 20.00     0.007 C 
HETATM   10  C7  UNL     1     -34.692   7.754   3.988  1.00 20.00     0.001 C 
HETATM   11  C8  UNL     1     -33.757   7.953   2.797  1.00 20.00     0.006 C 
ENDBRANCH   3   4
TORSDOF 1
ENDMDL
