MODEL 1
REMARK VINA RESULT:      -2.1      0.000      0.000
REMARK  2 active torsions:
REMARK  status: ('A' for Active; 'I' for Inactive)
REMARK    1  A    between atoms: C9_9  and  C11_11 
REMARK    2  A    between atoms: C10_10  and  C11_11 
ROOT
HETATM    1  C1  UNL     1     -32.720  10.266  -0.046  1.00 20.00     0.012 C 
HETATM    2  C2  UNL     1     -32.303   9.358   0.619  1.00 20.00    -0.117 C 
HETATM    3  C10 UNL     1     -31.789   8.250   1.435  1.00 20.00     0.093 C 
ENDROOT
BRANCH   3   4
HETATM    4  C11 UNL     1     -32.743   7.075   1.372  1.00 20.00     0.017 C 
BRANCH   4   5
HETATM    5  C9  UNL     1     -32.697   6.276   2.676  1.00 20.00    -0.007 C 
HETATM    6  C5  UNL     1     -33.499   4.976   2.526  1.00 20.00     0.082 C 
HETATM    7  C3  UNL     1     -34.055   4.455   3.833  1.00 20.00     0.127 C 
HETATM    8  C4  UNL     1     -35.233   5.177   4.466  1.00 20.00     0.078 C 
HETATM    9  O12 UNL     1     -33.579   3.452   4.368  1.00 20.00    -0.298 OA
HETATM   10  C6  UNL     1     -35.597   6.505   3.810  1.00 20.00     0.007 C 
HETATM   11  C7  UNL     1     -34.541   7.600   3.966  1.00 20.00     0.001 C 
HETATM   12  C8  UNL     1     -33.082   7.151   3.883  1.00 20.00     0.005 C 
ENDBRANCH   4   5
ENDBRANCH   3   4
TORSDOF 2
ENDMDL
MODEL 2
REMARK VINA RESULT:      -1.2      1.381      2.338
REMARK  2 active torsions:
REMARK  status: ('A' for Active; 'I' for Inactive)
REMARK    1  A    between atoms: C9_9  and  C11_11 
REMARK    2  A    between atoms: C10_10  and  C11_11 
ROOT
HETATM    1  C1  UNL     1     -32.805  10.514  -0.042  1.00 20.00     0.012 C 
HETATM    2  C2  UNL     1     -32.177   9.575   0.363  1.00 20.00    -0.117 C 
HETATM    3  C10 UNL     1     -31.405   8.426   0.855  1.00 20.00     0.093 C 
ENDROOT
BRANCH   3   4
HETATM    4  C11 UNL     1     -31.841   8.074   2.262  1.00 20.00     0.017 C 
BRANCH   4   5
HETATM    5  C9  UNL     1     -33.237   7.445   2.250  1.00 20.00    -0.007 C 
HETATM    6  C5  UNL     1     -33.741   7.256   3.687  1.00 20.00     0.082 C 
HETATM    7  C3  UNL     1     -34.735   6.124   3.834  1.00 20.00     0.127 C 
HETATM    8  C4  UNL     1     -34.228   4.693   3.762  1.00 20.00     0.078 C 
HETATM    9  O12 UNL     1     -35.930   6.353   4.030  1.00 20.00    -0.298 OA
HETATM   10  C6  UNL     1     -32.775   4.550   3.324  1.00 20.00     0.007 C 
HETATM   11  C7  UNL     1     -32.504   4.967   1.878  1.00 20.00     0.001 C 
HETATM   12  C8  UNL     1     -33.275   6.185   1.368  1.00 20.00     0.005 C 
ENDBRANCH   4   5
ENDBRANCH   3   4
TORSDOF 2
ENDMDL
MODEL 3
REMARK VINA RESULT:       0.2      2.216      4.858
REMARK  2 active torsions:
REMARK  status: ('A' for Active; 'I' for Inactive)
REMARK    1  A    between atoms: C9_9  and  C11_11 
REMARK    2  A    between atoms: C10_10  and  C11_11 
ROOT
HETATM    1  C1  UNL     1     -32.730   2.763   5.791  1.00 20.00     0.012 C 
HETATM    2  C2  UNL     1     -33.236   3.276   4.832  1.00 20.00    -0.117 C 
HETATM    3  C10 UNL     1     -33.855   3.900   3.655  1.00 20.00     0.093 C 
ENDROOT
BRANCH   3   4
HETATM    4  C11 UNL     1     -34.643   5.124   4.072  1.00 20.00     0.017 C 
BRANCH   4   5
HETATM    5  C9  UNL     1     -34.415   6.272   3.085  1.00 20.00    -0.007 C 
HETATM    6  C5  UNL     1     -33.006   6.177   2.483  1.00 20.00     0.082 C 
HETATM    7  C3  UNL     1     -32.448   7.512   2.039  1.00 20.00     0.127 C 
HETATM    8  C4  UNL     1     -31.992   8.502   3.099  1.00 20.00     0.078 C 
HETATM    9  O12 UNL     1     -32.343   7.787   0.843  1.00 20.00    -0.298 OA
HETATM   10  C6  UNL     1     -32.355   8.120   4.530  1.00 20.00     0.007 C 
HETATM   11  C7  UNL     1     -33.855   8.132   4.828  1.00 20.00     0.001 C 
HETATM   12  C8  UNL     1     -34.772   7.630   3.713  1.00 20.00     0.005 C 
ENDBRANCH   4   5
ENDBRANCH   3   4
TORSDOF 2
ENDMDL
MODEL 4
REMARK VINA RESULT:       0.8      2.103      4.927
REMARK  2 active torsions:
REMARK  status: ('A' for Active; 'I' for Inactive)
REMARK    1  A    between atoms: C9_9  and  C11_11 
REMARK    2  A    between atoms: C10_10  and  C11_11 
ROOT
HETATM    1  C1  UNL     1     -32.120   3.145   6.858  1.00 20.00     0.012 C 
HETATM    2  C2  UNL     1     -32.736   3.216   5.831  1.00 20.00    -0.117 C 
HETATM    3  C10 UNL     1     -33.488   3.299   4.572  1.00 20.00     0.093 C 
ENDROOT
BRANCH   3   4
HETATM    4  C11 UNL     1     -34.471   4.450   4.630  1.00 20.00     0.017 C 
BRANCH   4   5
HETATM    5  C9  UNL     1     -34.439   5.250   3.326  1.00 20.00    -0.007 C 
HETATM    6  C5  UNL     1     -33.025   5.226   2.727  1.00 20.00     0.082 C 
HETATM    7  C3  UNL     1     -32.713   6.431   1.867  1.00 20.00     0.127 C 
HETATM    8  C4  UNL     1     -32.465   7.768   2.546  1.00 20.00     0.078 C 
HETATM    9  O12 UNL     1     -32.638   6.331   0.641  1.00 20.00    -0.298 OA
HETATM   10  C6  UNL     1     -32.778   7.796   4.038  1.00 20.00     0.007 C 
HETATM   11  C7  UNL     1     -34.260   7.633   4.378  1.00 20.00     0.001 C 
HETATM   12  C8  UNL     1     -35.050   6.650   3.513  1.00 20.00     0.005 C 
ENDBRANCH   4   5
ENDBRANCH   3   4
TORSDOF 2
ENDMDL
MODEL 5
REMARK VINA RESULT:       0.9      2.060      5.006
REMARK  2 active torsions:
REMARK  status: ('A' for Active; 'I' for Inactive)
REMARK    1  A    between atoms: C9_9  and  C11_11 
REMARK    2  A    between atoms: C10_10  and  C11_11 
ROOT
HETATM    1  C1  UNL     1     -33.373   3.034   4.587  1.00 20.00     0.012 C 
HETATM    2  C2  UNL     1     -34.209   3.895   4.604  1.00 20.00    -0.117 C 
HETATM    3  C10 UNL     1     -35.234   4.947   4.628  1.00 20.00     0.093 C 
ENDROOT
BRANCH   3   4
HETATM    4  C11 UNL     1     -34.968   5.954   3.528  1.00 20.00     0.017 C 
BRANCH   4   5
HETATM    5  C9  UNL     1     -33.495   6.370   3.525  1.00 20.00    -0.007 C 
HETATM    6  C5  UNL     1     -33.381   7.900   3.473  1.00 20.00     0.082 C 
HETATM    7  C3  UNL     1     -32.097   8.388   2.838  1.00 20.00     0.127 C 
HETATM    8  C4  UNL     1     -31.934   8.267   1.332  1.00 20.00     0.078 C 
HETATM    9  O12 UNL     1     -31.206   8.895   3.523  1.00 20.00    -0.298 OA
HETATM   10  C6  UNL     1     -33.018   7.451   0.635  1.00 20.00     0.007 C 
HETATM   11  C7  UNL     1     -33.019   5.964   0.990  1.00 20.00     0.001 C 
HETATM   12  C8  UNL     1     -32.702   5.614   2.444  1.00 20.00     0.005 C 
ENDBRANCH   4   5
ENDBRANCH   3   4
TORSDOF 2
ENDMDL
