MODEL 1
REMARK VINA RESULT:      -1.3      0.000      0.000
REMARK  1 active torsions:
REMARK  status: ('A' for Active; 'I' for Inactive)
REMARK    1  A    between atoms: C6_6  and  C7_7 
ROOT
HETATM    1  C3  UNL     1     -35.051   6.440   3.719  1.00 20.00     0.006 C 
HETATM    2  C4  UNL     1     -35.116   5.136   4.500  1.00 20.00     0.020 C 
HETATM    3  C5  UNL     1     -32.929   5.230   3.500  1.00 20.00     0.025 C 
HETATM    4  C7  UNL     1     -33.554   6.636   3.442  1.00 20.00    -0.009 C 
HETATM    5  C8  UNL     1     -34.095   4.279   3.768  1.00 20.00     0.082 C 
HETATM    6 CL9  UNL     1     -33.612   2.858   4.706  1.00 20.00    -0.125 Cl
ENDROOT
BRANCH   4   7
HETATM    7  C6  UNL     1     -33.297   7.348   2.123  1.00 20.00    -0.010 A 
HETATM    8  C1  UNL     1     -32.176   8.343   2.005  1.00 20.00     0.005 A 
HETATM    9  C2  UNL     1     -32.079   7.015   1.308  1.00 20.00     0.005 A 
ENDBRANCH   4   7
TORSDOF 1
ENDMDL
MODEL 2
REMARK VINA RESULT:      -1.1      2.280      3.980
REMARK  1 active torsions:
REMARK  status: ('A' for Active; 'I' for Inactive)
REMARK    1  A    between atoms: C6_6  and  C7_7 
ROOT
HETATM    1  C3  UNL     1     -35.149   5.857   4.264  1.00 20.00     0.006 C 
HETATM    2  C4  UNL     1     -34.744   7.048   3.409  1.00 20.00     0.020 C 
HETATM    3  C5  UNL     1     -33.084   5.344   3.045  1.00 20.00     0.025 C 
HETATM    4  C7  UNL     1     -34.312   4.696   3.710  1.00 20.00    -0.009 C 
HETATM    5  C8  UNL     1     -33.242   6.846   3.279  1.00 20.00     0.082 C 
HETATM    6 CL9  UNL     1     -32.543   7.814   1.973  1.00 20.00    -0.125 Cl
ENDROOT
BRANCH   4   7
HETATM    7  C6  UNL     1     -33.944   3.682   4.782  1.00 20.00    -0.010 A 
HETATM    8  C1  UNL     1     -33.362   2.350   4.398  1.00 20.00     0.005 A 
HETATM    9  C2  UNL     1     -32.501   3.380   5.075  1.00 20.00     0.005 A 
ENDBRANCH   4   7
TORSDOF 1
ENDMDL
MODEL 3
REMARK VINA RESULT:      -0.9      1.399      1.854
REMARK  1 active torsions:
REMARK  status: ('A' for Active; 'I' for Inactive)
REMARK    1  A    between atoms: C6_6  and  C7_7 
ROOT
HETATM    1  C3  UNL     1     -33.801   8.208   3.285  1.00 20.00     0.006 C 
HETATM    2  C4  UNL     1     -34.169   7.017   4.158  1.00 20.00     0.020 C 
HETATM    3  C5  UNL     1     -32.891   6.149   2.312  1.00 20.00     0.025 C 
HETATM    4  C7  UNL     1     -32.689   7.674   2.373  1.00 20.00    -0.009 C 
HETATM    5  C8  UNL     1     -34.133   5.871   3.158  1.00 20.00     0.082 C 
HETATM    6 CL9  UNL     1     -34.077   4.289   3.949  1.00 20.00    -0.125 Cl
ENDROOT
BRANCH   4   7
HETATM    7  C6  UNL     1     -32.699   8.331   1.001  1.00 20.00    -0.010 A 
HETATM    8  C1  UNL     1     -32.413   9.800   0.862  1.00 20.00     0.005 A 
HETATM    9  C2  UNL     1     -31.413   8.791   0.373  1.00 20.00     0.005 A 
ENDBRANCH   4   7
TORSDOF 1
ENDMDL
MODEL 4
REMARK VINA RESULT:      -0.8      1.607      2.518
REMARK  1 active torsions:
REMARK  status: ('A' for Active; 'I' for Inactive)
REMARK    1  A    between atoms: C6_6  and  C7_7 
ROOT
HETATM    1  C3  UNL     1     -32.441   5.798   1.758  1.00 20.00     0.006 C 
HETATM    2  C4  UNL     1     -33.482   5.059   2.585  1.00 20.00     0.020 C 
HETATM    3  C5  UNL     1     -33.996   7.403   2.767  1.00 20.00     0.025 C 
HETATM    4  C7  UNL     1     -33.029   7.205   1.585  1.00 20.00    -0.009 C 
HETATM    5  C8  UNL     1     -33.895   6.121   3.592  1.00 20.00     0.082 C 
HETATM    6 CL9  UNL     1     -35.412   5.719   4.411  1.00 20.00    -0.125 Cl
ENDROOT
BRANCH   4   7
HETATM    7  C6  UNL     1     -31.954   8.278   1.508  1.00 20.00    -0.010 A 
HETATM    8  C1  UNL     1     -31.450   8.752   0.174  1.00 20.00     0.005 A 
HETATM    9  C2  UNL     1     -32.296   9.659   1.023  1.00 20.00     0.005 A 
ENDBRANCH   4   7
TORSDOF 1
ENDMDL
MODEL 5
REMARK VINA RESULT:      -0.6      2.031      3.734
REMARK  1 active torsions:
REMARK  status: ('A' for Active; 'I' for Inactive)
REMARK    1  A    between atoms: C6_6  and  C7_7 
ROOT
HETATM    1  C3  UNL     1     -32.399   7.727   2.392  1.00 20.00     0.006 C 
HETATM    2  C4  UNL     1     -31.534   7.094   1.312  1.00 20.00     0.020 C 
HETATM    3  C5  UNL     1     -33.268   5.505   1.824  1.00 20.00     0.025 C 
HETATM    4  C7  UNL     1     -33.675   6.875   2.397  1.00 20.00    -0.009 C 
HETATM    5  C8  UNL     1     -31.768   5.610   1.551  1.00 20.00     0.082 C 
HETATM    6 CL9  UNL     1     -31.257   4.618   0.178  1.00 20.00    -0.125 Cl
ENDROOT
BRANCH   4   7
HETATM    7  C6  UNL     1     -34.304   6.781   3.779  1.00 20.00    -0.010 A 
HETATM    8  C1  UNL     1     -35.774   6.504   3.926  1.00 20.00     0.005 A 
HETATM    9  C2  UNL     1     -34.770   5.454   4.309  1.00 20.00     0.005 A 
ENDBRANCH   4   7
TORSDOF 1
ENDMDL
MODEL 6
REMARK VINA RESULT:      -0.4      2.974      4.679
REMARK  1 active torsions:
REMARK  status: ('A' for Active; 'I' for Inactive)
REMARK    1  A    between atoms: C6_6  and  C7_7 
ROOT
HETATM    1  C3  UNL     1     -32.098   6.441   1.803  1.00 20.00     0.006 C 
HETATM    2  C4  UNL     1     -31.518   7.710   1.198  1.00 20.00     0.020 C 
HETATM    3  C5  UNL     1     -33.503   8.362   2.392  1.00 20.00     0.025 C 
HETATM    4  C7  UNL     1     -33.100   6.948   2.848  1.00 20.00    -0.009 C 
HETATM    5  C8  UNL     1     -32.749   8.596   1.083  1.00 20.00     0.082 C 
HETATM    6 CL9  UNL     1     -32.334  10.297   0.832  1.00 20.00    -0.125 Cl
ENDROOT
BRANCH   4   7
HETATM    7  C6  UNL     1     -34.289   6.014   3.014  1.00 20.00    -0.010 A 
HETATM    8  C1  UNL     1     -34.376   5.101   4.204  1.00 20.00     0.005 A 
HETATM    9  C2  UNL     1     -35.311   6.272   4.086  1.00 20.00     0.005 A 
ENDBRANCH   4   7
TORSDOF 1
ENDMDL
MODEL 7
REMARK VINA RESULT:      -0.3      2.206      3.104
REMARK  1 active torsions:
REMARK  status: ('A' for Active; 'I' for Inactive)
REMARK    1  A    between atoms: C6_6  and  C7_7 
ROOT
HETATM    1  C3  UNL     1     -31.949   8.706   3.288  1.00 20.00     0.006 C 
HETATM    2  C4  UNL     1     -32.894   7.895   4.163  1.00 20.00     0.020 C 
HETATM    3  C5  UNL     1     -33.171   7.082   1.915  1.00 20.00     0.025 C 
HETATM    4  C7  UNL     1     -31.873   7.907   1.980  1.00 20.00    -0.009 C 
HETATM    5  C8  UNL     1     -33.960   7.469   3.165  1.00 20.00     0.082 C 
HETATM    6 CL9  UNL     1     -34.962   6.144   3.774  1.00 20.00    -0.125 Cl
ENDROOT
BRANCH   4   7
HETATM    7  C6  UNL     1     -31.672   8.800   0.765  1.00 20.00    -0.010 A 
HETATM    8  C1  UNL     1     -32.757   8.932  -0.266  1.00 20.00     0.005 A 
HETATM    9  C2  UNL     1     -32.436  10.088   0.639  1.00 20.00     0.005 A 
ENDBRANCH   4   7
TORSDOF 1
ENDMDL
MODEL 8
REMARK VINA RESULT:      -0.1      2.173      3.145
REMARK  1 active torsions:
REMARK  status: ('A' for Active; 'I' for Inactive)
REMARK    1  A    between atoms: C6_6  and  C7_7 
ROOT
HETATM    1  C3  UNL     1     -33.445   7.851   2.787  1.00 20.00     0.006 C 
HETATM    2  C4  UNL     1     -33.038   6.386   2.836  1.00 20.00     0.020 C 
HETATM    3  C5  UNL     1     -31.862   7.365   0.979  1.00 20.00     0.025 C 
HETATM    4  C7  UNL     1     -32.401   8.499   1.869  1.00 20.00    -0.009 C 
HETATM    5  C8  UNL     1     -32.646   6.119   1.392  1.00 20.00     0.082 C 
HETATM    6 CL9  UNL     1     -31.702   4.633   1.213  1.00 20.00    -0.125 Cl
ENDROOT
BRANCH   4   7
HETATM    7  C6  UNL     1     -32.972   9.663   1.072  1.00 20.00    -0.010 A 
HETATM    8  C1  UNL     1     -32.072  10.770   0.597  1.00 20.00     0.005 A 
HETATM    9  C2  UNL     1     -32.660   9.802  -0.392  1.00 20.00     0.005 A 
ENDBRANCH   4   7
TORSDOF 1
ENDMDL
MODEL 9
REMARK VINA RESULT:      -0.0      2.527      4.137
REMARK  1 active torsions:
REMARK  status: ('A' for Active; 'I' for Inactive)
REMARK    1  A    between atoms: C6_6  and  C7_7 
ROOT
HETATM    1  C3  UNL     1     -33.623   7.956   3.773  1.00 20.00     0.006 C 
HETATM    2  C4  UNL     1     -32.958   8.744   2.654  1.00 20.00     0.020 C 
HETATM    3  C5  UNL     1     -32.914   6.432   1.987  1.00 20.00     0.025 C 
HETATM    4  C7  UNL     1     -33.919   6.588   3.143  1.00 20.00    -0.009 C 
HETATM    5  C8  UNL     1     -32.055   7.695   2.024  1.00 20.00     0.082 C 
HETATM    6 CL9  UNL     1     -31.484   8.175   0.419  1.00 20.00    -0.125 Cl
ENDROOT
BRANCH   4   7
HETATM    7  C6  UNL     1     -33.844   5.455   4.155  1.00 20.00    -0.010 A 
HETATM    8  C1  UNL     1     -35.085   4.696   4.536  1.00 20.00     0.005 A 
HETATM    9  C2  UNL     1     -34.020   4.030   3.709  1.00 20.00     0.005 A 
ENDBRANCH   4   7
TORSDOF 1
ENDMDL
