MODEL 1
REMARK VINA RESULT:      -2.4      0.000      0.000
REMARK  1 active torsions:
REMARK  status: ('A' for Active; 'I' for Inactive)
REMARK    1  A    between atoms: C4_4  and  C7_7 
ROOT
HETATM    1  C1  UNL     1     -34.303   7.390   4.437  1.00 20.00     0.006 C 
HETATM    2  C2  UNL     1     -33.156   8.103   3.713  1.00 20.00     0.020 C 
HETATM    3  C3  UNL     1     -33.489   6.014   2.609  1.00 20.00     0.024 C 
HETATM    4  C4  UNL     1     -34.664   6.170   3.577  1.00 20.00    -0.013 C 
HETATM    5  C5  UNL     1     -33.106   7.459   2.333  1.00 20.00     0.082 C 
HETATM    6 CL8  UNL     1     -31.513   7.602   1.579  1.00 20.00    -0.125 Cl
ENDROOT
BRANCH   4   7
HETATM    7  C7  UNL     1     -34.931   4.917   4.394  1.00 20.00     0.000 C 
HETATM    8  C6  UNL     1     -33.856   3.894   4.213  1.00 20.00     0.005 C 
ENDBRANCH   4   7
TORSDOF 1
ENDMDL
MODEL 2
REMARK VINA RESULT:      -2.3      1.141      2.058
REMARK  1 active torsions:
REMARK  status: ('A' for Active; 'I' for Inactive)
REMARK    1  A    between atoms: C4_4  and  C7_7 
ROOT
HETATM    1  C1  UNL     1     -33.272   5.652   2.331  1.00 20.00     0.006 C 
HETATM    2  C2  UNL     1     -32.496   6.420   1.256  1.00 20.00     0.020 C 
HETATM    3  C3  UNL     1     -33.355   8.035   2.788  1.00 20.00     0.024 C 
HETATM    4  C4  UNL     1     -33.610   6.670   3.429  1.00 20.00    -0.013 C 
HETATM    5  C5  UNL     1     -32.150   7.755   1.904  1.00 20.00     0.082 C 
HETATM    6 CL8  UNL     1     -31.875   9.033   0.713  1.00 20.00    -0.125 Cl
ENDROOT
BRANCH   4   7
HETATM    7  C7  UNL     1     -35.022   6.523   3.971  1.00 20.00     0.000 C 
HETATM    8  C6  UNL     1     -35.288   5.138   4.465  1.00 20.00     0.005 C 
ENDBRANCH   4   7
TORSDOF 1
ENDMDL
MODEL 3
REMARK VINA RESULT:      -1.8      2.224      3.935
REMARK  1 active torsions:
REMARK  status: ('A' for Active; 'I' for Inactive)
REMARK    1  A    between atoms: C4_4  and  C7_7 
ROOT
HETATM    1  C1  UNL     1     -32.311   8.503   3.209  1.00 20.00     0.006 C 
HETATM    2  C2  UNL     1     -33.505   8.018   4.037  1.00 20.00     0.020 C 
HETATM    3  C3  UNL     1     -33.463   6.713   2.041  1.00 20.00     0.024 C 
HETATM    4  C4  UNL     1     -32.154   7.504   2.054  1.00 20.00    -0.013 C 
HETATM    5  C5  UNL     1     -33.793   6.614   3.522  1.00 20.00     0.082 C 
HETATM    6 CL8  UNL     1     -35.467   6.119   3.808  1.00 20.00    -0.125 Cl
ENDROOT
BRANCH   4   7
HETATM    7  C7  UNL     1     -31.848   8.168   0.722  1.00 20.00     0.000 C 
HETATM    8  C6  UNL     1     -32.429   9.543   0.638  1.00 20.00     0.005 C 
ENDBRANCH   4   7
TORSDOF 1
ENDMDL
MODEL 4
REMARK VINA RESULT:      -1.6      1.651      2.336
REMARK  1 active torsions:
REMARK  status: ('A' for Active; 'I' for Inactive)
REMARK    1  A    between atoms: C4_4  and  C7_7 
ROOT
HETATM    1  C1  UNL     1     -32.526   8.070   2.515  1.00 20.00     0.006 C 
HETATM    2  C2  UNL     1     -31.539   7.265   1.662  1.00 20.00     0.020 C 
HETATM    3  C3  UNL     1     -33.318   5.789   2.253  1.00 20.00     0.024 C 
HETATM    4  C4  UNL     1     -33.770   7.186   2.683  1.00 20.00    -0.013 C 
HETATM    5  C5  UNL     1     -32.354   6.098   1.118  1.00 20.00     0.082 C 
HETATM    6 CL8  UNL     1     -31.344   4.710   0.693  1.00 20.00    -0.125 Cl
ENDROOT
BRANCH   4   7
HETATM    7  C7  UNL     1     -34.344   7.217   4.089  1.00 20.00     0.000 C 
HETATM    8  C6  UNL     1     -35.339   6.124   4.310  1.00 20.00     0.005 C 
ENDBRANCH   4   7
TORSDOF 1
ENDMDL
MODEL 5
REMARK VINA RESULT:      -1.2      2.280      4.135
REMARK  1 active torsions:
REMARK  status: ('A' for Active; 'I' for Inactive)
REMARK    1  A    between atoms: C4_4  and  C7_7 
ROOT
HETATM    1  C1  UNL     1     -32.580   5.804   1.698  1.00 20.00     0.006 C 
HETATM    2  C2  UNL     1     -33.452   5.011   2.676  1.00 20.00     0.020 C 
HETATM    3  C3  UNL     1     -33.798   7.323   3.149  1.00 20.00     0.024 C 
HETATM    4  C4  UNL     1     -32.992   7.275   1.849  1.00 20.00    -0.013 C 
HETATM    5  C5  UNL     1     -34.530   5.991   3.122  1.00 20.00     0.082 C 
HETATM    6 CL8  UNL     1     -35.219   5.568   4.695  1.00 20.00    -0.125 Cl
ENDROOT
BRANCH   4   7
HETATM    7  C7  UNL     1     -31.812   8.233   1.847  1.00 20.00     0.000 C 
HETATM    8  C6  UNL     1     -31.935   9.266   0.774  1.00 20.00     0.005 C 
ENDBRANCH   4   7
TORSDOF 1
ENDMDL
MODEL 6
REMARK VINA RESULT:      -0.8      2.152      4.118
REMARK  1 active torsions:
REMARK  status: ('A' for Active; 'I' for Inactive)
REMARK    1  A    between atoms: C4_4  and  C7_7 
ROOT
HETATM    1  C1  UNL     1     -33.207   7.727   2.887  1.00 20.00     0.006 C 
HETATM    2  C2  UNL     1     -33.372   6.252   2.506  1.00 20.00     0.020 C 
HETATM    3  C3  UNL     1     -31.942   7.240   0.871  1.00 20.00     0.024 C 
HETATM    4  C4  UNL     1     -32.105   8.286   1.976  1.00 20.00    -0.013 C 
HETATM    5  C5  UNL     1     -32.169   5.939   1.625  1.00 20.00     0.082 C 
HETATM    6 CL8  UNL     1     -32.462   4.574   0.540  1.00 20.00    -0.125 Cl
ENDROOT
BRANCH   4   7
HETATM    7  C7  UNL     1     -32.415   9.674   1.439  1.00 20.00     0.000 C 
HETATM    8  C6  UNL     1     -32.437   9.701  -0.055  1.00 20.00     0.005 C 
ENDBRANCH   4   7
TORSDOF 1
ENDMDL
MODEL 7
REMARK VINA RESULT:      -0.7      2.294      3.659
REMARK  1 active torsions:
REMARK  status: ('A' for Active; 'I' for Inactive)
REMARK    1  A    between atoms: C4_4  and  C7_7 
ROOT
HETATM    1  C1  UNL     1     -34.963   6.489   3.783  1.00 20.00     0.006 C 
HETATM    2  C2  UNL     1     -35.126   5.071   4.340  1.00 20.00     0.020 C 
HETATM    3  C3  UNL     1     -33.015   5.147   3.231  1.00 20.00     0.024 C 
HETATM    4  C4  UNL     1     -33.513   6.593   3.288  1.00 20.00    -0.013 C 
HETATM    5  C5  UNL     1     -33.708   4.521   4.431  1.00 20.00     0.082 C 
HETATM    6 CL8  UNL     1     -33.664   2.754   4.388  1.00 20.00    -0.125 Cl
ENDROOT
BRANCH   4   7
HETATM    7  C7  UNL     1     -33.382   7.319   1.959  1.00 20.00     0.000 C 
HETATM    8  C6  UNL     1     -32.027   7.924   1.786  1.00 20.00     0.005 C 
ENDBRANCH   4   7
TORSDOF 1
ENDMDL
MODEL 8
REMARK VINA RESULT:      -0.7      2.261      3.543
REMARK  1 active torsions:
REMARK  status: ('A' for Active; 'I' for Inactive)
REMARK    1  A    between atoms: C4_4  and  C7_7 
ROOT
HETATM    1  C1  UNL     1     -33.413   6.079   2.502  1.00 20.00     0.006 C 
HETATM    2  C2  UNL     1     -32.861   4.687   2.827  1.00 20.00     0.020 C 
HETATM    3  C3  UNL     1     -34.474   5.209   4.505  1.00 20.00     0.024 C 
HETATM    4  C4  UNL     1     -34.609   6.298   3.439  1.00 20.00    -0.013 C 
HETATM    5  C5  UNL     1     -33.926   4.040   3.703  1.00 20.00     0.082 C 
HETATM    6 CL8  UNL     1     -33.268   2.763   4.735  1.00 20.00    -0.125 Cl
ENDROOT
BRANCH   4   7
HETATM    7  C7  UNL     1     -34.666   7.699   4.025  1.00 20.00     0.000 C 
HETATM    8  C6  UNL     1     -33.417   8.041   4.772  1.00 20.00     0.005 C 
ENDBRANCH   4   7
TORSDOF 1
ENDMDL
MODEL 9
REMARK VINA RESULT:      -0.3      2.098      3.192
REMARK  1 active torsions:
REMARK  status: ('A' for Active; 'I' for Inactive)
REMARK    1  A    between atoms: C4_4  and  C7_7 
ROOT
HETATM    1  C1  UNL     1     -33.940   5.488   2.567  1.00 20.00     0.006 C 
HETATM    2  C2  UNL     1     -34.376   6.101   3.902  1.00 20.00     0.020 C 
HETATM    3  C3  UNL     1     -32.780   7.589   2.939  1.00 20.00     0.024 C 
HETATM    4  C4  UNL     1     -33.105   6.561   1.854  1.00 20.00    -0.013 C 
HETATM    5  C5  UNL     1     -34.048   7.584   3.777  1.00 20.00     0.082 C 
HETATM    6 CL8  UNL     1     -33.821   8.360   5.350  1.00 20.00    -0.125 Cl
ENDROOT
BRANCH   4   7
HETATM    7  C7  UNL     1     -31.865   6.004   1.173  1.00 20.00     0.000 C 
HETATM    8  C6  UNL     1     -32.073   4.603   0.696  1.00 20.00     0.005 C 
ENDBRANCH   4   7
TORSDOF 1
ENDMDL
