MODEL 1
REMARK VINA RESULT:      -0.6      0.000      0.000
REMARK  1 active torsions:
REMARK  status: ('A' for Active; 'I' for Inactive)
REMARK    1  A    between atoms: C8_8  and  C10_10 
ROOT
HETATM    1  C1  UNL     1     -33.268   2.611   4.741  1.00 20.00     0.012 C 
HETATM    2  C2  UNL     1     -33.839   3.634   4.481  1.00 20.00    -0.117 C 
HETATM    3  C10 UNL     1     -34.551   4.874   4.170  1.00 20.00     0.097 C 
ENDROOT
BRANCH   3   4
HETATM    4  C8  UNL     1     -33.622   5.874   3.468  1.00 20.00    -0.002 C 
HETATM    5  C5  UNL     1     -34.003   7.298   3.914  1.00 20.00     0.005 C 
HETATM    6  C3  UNL     1     -32.996   8.390   3.563  1.00 20.00     0.000 C 
HETATM    7  C4  UNL     1     -32.643   8.511   2.083  1.00 20.00     0.001 C 
HETATM    8  C6  UNL     1     -31.765   7.364   1.596  1.00 20.00     0.016 C 
HETATM    9  C9  UNL     1     -32.541   6.138   1.122  1.00 20.00     0.058 C 
HETATM   10  C7  UNL     1     -33.753   5.700   1.943  1.00 20.00     0.021 C 
HETATM   11 BR11 UNL     1     -31.272   4.631   0.998  1.00 20.00    -0.091 Br
ENDBRANCH   3   4
TORSDOF 1
ENDMDL
MODEL 2
REMARK VINA RESULT:       0.3      1.706      4.539
REMARK  1 active torsions:
REMARK  status: ('A' for Active; 'I' for Inactive)
REMARK    1  A    between atoms: C8_8  and  C10_10 
ROOT
HETATM    1  C1  UNL     1     -32.914  10.557  -0.395  1.00 20.00     0.012 C 
HETATM    2  C2  UNL     1     -32.329   9.752   0.276  1.00 20.00    -0.117 C 
HETATM    3  C10 UNL     1     -31.600   8.778   1.088  1.00 20.00     0.097 C 
ENDROOT
BRANCH   3   4
HETATM    4  C8  UNL     1     -32.571   7.820   1.791  1.00 20.00    -0.002 C 
HETATM    5  C5  UNL     1     -32.800   8.318   3.230  1.00 20.00     0.005 C 
HETATM    6  C3  UNL     1     -33.967   7.673   3.973  1.00 20.00     0.000 C 
HETATM    7  C4  UNL     1     -33.924   6.150   4.075  1.00 20.00     0.001 C 
HETATM    8  C6  UNL     1     -34.223   5.467   2.745  1.00 20.00     0.016 C 
HETATM    9  C9  UNL     1     -32.999   5.260   1.857  1.00 20.00     0.058 C 
HETATM   10  C7  UNL     1     -31.982   6.397   1.768  1.00 20.00     0.021 C 
HETATM   11 BR11 UNL     1     -33.637   4.825   0.041  1.00 20.00    -0.091 Br
ENDBRANCH   3   4
TORSDOF 1
ENDMDL
MODEL 3
REMARK VINA RESULT:       0.4      2.340      5.084
REMARK  1 active torsions:
REMARK  status: ('A' for Active; 'I' for Inactive)
REMARK    1  A    between atoms: C8_8  and  C10_10 
ROOT
HETATM    1  C1  UNL     1     -32.873  10.105  -0.472  1.00 20.00     0.012 C 
HETATM    2  C2  UNL     1     -32.169   9.554   0.330  1.00 20.00    -0.117 C 
HETATM    3  C10 UNL     1     -31.296   8.895   1.301  1.00 20.00     0.097 C 
ENDROOT
BRANCH   3   4
HETATM    4  C8  UNL     1     -32.029   7.735   1.990  1.00 20.00    -0.002 C 
HETATM    5  C5  UNL     1     -32.137   6.562   0.998  1.00 20.00     0.005 C 
HETATM    6  C3  UNL     1     -32.554   5.224   1.603  1.00 20.00     0.000 C 
HETATM    7  C4  UNL     1     -33.875   5.229   2.368  1.00 20.00     0.001 C 
HETATM    8  C6  UNL     1     -33.771   5.950   3.708  1.00 20.00     0.016 C 
HETATM    9  C9  UNL     1     -34.021   7.453   3.632  1.00 20.00     0.058 C 
HETATM   10  C7  UNL     1     -33.415   8.218   2.454  1.00 20.00     0.021 C 
HETATM   11 BR11 UNL     1     -33.381   8.258   5.316  1.00 20.00    -0.091 Br
ENDBRANCH   3   4
TORSDOF 1
ENDMDL
MODEL 4
REMARK VINA RESULT:       0.8      2.241      3.078
REMARK  1 active torsions:
REMARK  status: ('A' for Active; 'I' for Inactive)
REMARK    1  A    between atoms: C8_8  and  C10_10 
ROOT
HETATM    1  C1  UNL     1     -35.551   5.001   4.737  1.00 20.00     0.012 C 
HETATM    2  C2  UNL     1     -35.132   6.059   4.355  1.00 20.00    -0.117 C 
HETATM    3  C10 UNL     1     -34.633   7.357   3.902  1.00 20.00     0.097 C 
ENDROOT
BRANCH   3   4
HETATM    4  C8  UNL     1     -33.701   7.190   2.693  1.00 20.00    -0.002 C 
HETATM    5  C5  UNL     1     -33.281   5.712   2.595  1.00 20.00     0.005 C 
HETATM    6  C3  UNL     1     -32.613   5.302   1.285  1.00 20.00     0.000 C 
HETATM    7  C4  UNL     1     -31.370   6.101   0.901  1.00 20.00     0.001 C 
HETATM    8  C6  UNL     1     -31.704   7.515   0.439  1.00 20.00     0.016 C 
HETATM    9  C9  UNL     1     -31.789   8.539   1.567  1.00 20.00     0.058 C 
HETATM   10  C7  UNL     1     -32.484   8.117   2.863  1.00 20.00     0.021 C 
HETATM   11 BR11 UNL     1     -32.683  10.149   0.856  1.00 20.00    -0.091 Br
ENDBRANCH   3   4
TORSDOF 1
ENDMDL
MODEL 5
REMARK VINA RESULT:       1.9      2.251      3.535
REMARK  1 active torsions:
REMARK  status: ('A' for Active; 'I' for Inactive)
REMARK    1  A    between atoms: C8_8  and  C10_10 
ROOT
HETATM    1  C1  UNL     1     -33.050   8.523   5.958  1.00 20.00     0.012 C 
HETATM    2  C2  UNL     1     -33.742   8.098   5.074  1.00 20.00    -0.117 C 
HETATM    3  C10 UNL     1     -34.600   7.582   4.008  1.00 20.00     0.097 C 
ENDROOT
BRANCH   3   4
HETATM    4  C8  UNL     1     -33.763   7.154   2.794  1.00 20.00    -0.002 C 
HETATM    5  C5  UNL     1     -33.535   5.633   2.863  1.00 20.00     0.005 C 
HETATM    6  C3  UNL     1     -32.994   4.989   1.590  1.00 20.00     0.000 C 
HETATM    7  C4  UNL     1     -31.684   5.569   1.063  1.00 20.00     0.001 C 
HETATM    8  C6  UNL     1     -31.865   6.951   0.442  1.00 20.00     0.016 C 
HETATM    9  C9  UNL     1     -31.762   8.103   1.437  1.00 20.00     0.058 C 
HETATM   10  C7  UNL     1     -32.433   7.930   2.801  1.00 20.00     0.021 C 
HETATM   11 BR11 UNL     1     -32.487   9.719   0.567  1.00 20.00    -0.091 Br
ENDBRANCH   3   4
TORSDOF 1
ENDMDL
