MODEL 1
REMARK VINA RESULT:      -1.8      0.000      0.000
REMARK  7 active torsions:
REMARK  status: ('A' for Active; 'I' for Inactive)
REMARK    1  A    between atoms: C4_4  and  C8_8 
REMARK    2  A    between atoms: C5_5  and  C6_6 
REMARK    3  A    between atoms: C5_5  and  C7_7 
REMARK    4  A    between atoms: C6_6  and  C9_9 
REMARK    5  A    between atoms: C7_7  and  C10_10 
REMARK    6  A    between atoms: C8_8  and  C11_11 
REMARK    7  A    between atoms: C9_9  and  C11_11 
ROOT
HETATM    1  C6  UNL     1     -32.859   6.809   1.471  1.00 20.00     0.001 C 
ENDROOT
BRANCH   1   2
HETATM    2  C5  UNL     1     -31.731   7.762   1.885  1.00 20.00     0.000 C 
BRANCH   2   3
HETATM    3  C7  UNL     1     -31.428   8.832   0.831  1.00 20.00     0.004 C 
BRANCH   3   4
HETATM    4  C10 UNL     1     -32.649   9.704   0.478  1.00 20.00    -0.023 C 
HETATM    5  C2  UNL     1     -32.733   9.888  -1.039  1.00 20.00     0.009 C 
HETATM    6  C3  UNL     1     -32.605  11.072   1.162  1.00 20.00     0.009 C 
ENDBRANCH   3   4
ENDBRANCH   2   3
ENDBRANCH   1   2
BRANCH   1   7
HETATM    7  C9  UNL     1     -33.088   5.672   2.476  1.00 20.00     0.020 C 
BRANCH   7   8
HETATM    8  C11 UNL     1     -34.349   5.863   3.336  1.00 20.00     0.082 C 
HETATM    9 CL12 UNL     1     -34.260   7.421   4.227  1.00 20.00    -0.125 Cl
BRANCH   8  10
HETATM   10  C8  UNL     1     -34.556   4.739   4.364  1.00 20.00     0.020 C 
BRANCH  10  11
HETATM   11  C4  UNL     1     -33.744   3.477   4.058  1.00 20.00    -0.003 C 
HETATM   12  C1  UNL     1     -32.901   3.057   5.253  1.00 20.00     0.005 C 
ENDBRANCH  10  11
ENDBRANCH   8  10
ENDBRANCH   7   8
ENDBRANCH   1   7
TORSDOF 7
ENDMDL
MODEL 2
REMARK VINA RESULT:      -1.8      1.709      2.546
REMARK  7 active torsions:
REMARK  status: ('A' for Active; 'I' for Inactive)
REMARK    1  A    between atoms: C4_4  and  C8_8 
REMARK    2  A    between atoms: C5_5  and  C6_6 
REMARK    3  A    between atoms: C5_5  and  C7_7 
REMARK    4  A    between atoms: C6_6  and  C9_9 
REMARK    5  A    between atoms: C7_7  and  C10_10 
REMARK    6  A    between atoms: C8_8  and  C11_11 
REMARK    7  A    between atoms: C9_9  and  C11_11 
ROOT
HETATM    1  C6  UNL     1     -31.981   5.993   1.453  1.00 20.00     0.001 C 
ENDROOT
BRANCH   1   2
HETATM    2  C5  UNL     1     -31.631   7.452   1.773  1.00 20.00     0.000 C 
BRANCH   2   3
HETATM    3  C7  UNL     1     -32.714   8.442   1.334  1.00 20.00     0.004 C 
BRANCH   3   4
HETATM    4  C10 UNL     1     -32.167   9.610   0.490  1.00 20.00    -0.023 C 
HETATM    5  C2  UNL     1     -32.748  10.933   0.997  1.00 20.00     0.009 C 
HETATM    6  C3  UNL     1     -32.478   9.448  -0.999  1.00 20.00     0.009 C 
ENDBRANCH   3   4
ENDBRANCH   2   3
ENDBRANCH   1   2
BRANCH   1   7
HETATM    7  C9  UNL     1     -33.409   5.610   1.866  1.00 20.00     0.020 C 
BRANCH   7   8
HETATM    8  C11 UNL     1     -33.613   5.565   3.389  1.00 20.00     0.082 C 
HETATM    9 CL12 UNL     1     -33.820   3.866   3.937  1.00 20.00    -0.125 Cl
BRANCH   8  10
HETATM   10  C8  UNL     1     -34.836   6.369   3.860  1.00 20.00     0.020 C 
BRANCH  10  11
HETATM   11  C4  UNL     1     -34.528   7.844   4.132  1.00 20.00    -0.003 C 
HETATM   12  C1  UNL     1     -33.272   8.000   4.977  1.00 20.00     0.005 C 
ENDBRANCH  10  11
ENDBRANCH   8  10
ENDBRANCH   7   8
ENDBRANCH   1   7
TORSDOF 7
ENDMDL
MODEL 3
REMARK VINA RESULT:      -1.8      1.417      6.381
REMARK  7 active torsions:
REMARK  status: ('A' for Active; 'I' for Inactive)
REMARK    1  A    between atoms: C4_4  and  C8_8 
REMARK    2  A    between atoms: C5_5  and  C6_6 
REMARK    3  A    between atoms: C5_5  and  C7_7 
REMARK    4  A    between atoms: C6_6  and  C9_9 
REMARK    5  A    between atoms: C7_7  and  C10_10 
REMARK    6  A    between atoms: C8_8  and  C11_11 
REMARK    7  A    between atoms: C9_9  and  C11_11 
ROOT
HETATM    1  C6  UNL     1     -34.950   6.509   3.692  1.00 20.00     0.001 C 
ENDROOT
BRANCH   1   2
HETATM    2  C5  UNL     1     -35.007   5.163   4.426  1.00 20.00     0.000 C 
BRANCH   2   3
HETATM    3  C7  UNL     1     -33.933   4.175   3.958  1.00 20.00     0.004 C 
BRANCH   3   4
HETATM    4  C10 UNL     1     -33.581   3.110   5.014  1.00 20.00    -0.023 C 
HETATM    5  C2  UNL     1     -32.394   3.588   5.856  1.00 20.00     0.009 C 
HETATM    6  C3  UNL     1     -33.256   1.753   4.388  1.00 20.00     0.009 C 
ENDBRANCH   3   4
ENDBRANCH   2   3
ENDBRANCH   1   2
BRANCH   1   7
HETATM    7  C9  UNL     1     -33.522   7.048   3.528  1.00 20.00     0.020 C 
BRANCH   7   8
HETATM    8  C11 UNL     1     -33.099   7.218   2.060  1.00 20.00     0.082 C 
HETATM    9 CL12 UNL     1     -32.524   5.651   1.395  1.00 20.00    -0.125 Cl
BRANCH   8  10
HETATM   10  C8  UNL     1     -31.979   8.254   1.870  1.00 20.00     0.020 C 
BRANCH  10  11
HETATM   11  C4  UNL     1     -31.901   8.811   0.446  1.00 20.00    -0.003 C 
HETATM   12  C1  UNL     1     -32.538  10.189   0.353  1.00 20.00     0.005 C 
ENDBRANCH  10  11
ENDBRANCH   8  10
ENDBRANCH   7   8
ENDBRANCH   1   7
TORSDOF 7
ENDMDL
MODEL 4
REMARK VINA RESULT:      -1.8      0.527      1.124
REMARK  7 active torsions:
REMARK  status: ('A' for Active; 'I' for Inactive)
REMARK    1  A    between atoms: C4_4  and  C8_8 
REMARK    2  A    between atoms: C5_5  and  C6_6 
REMARK    3  A    between atoms: C5_5  and  C7_7 
REMARK    4  A    between atoms: C6_6  and  C9_9 
REMARK    5  A    between atoms: C7_7  and  C10_10 
REMARK    6  A    between atoms: C8_8  and  C11_11 
REMARK    7  A    between atoms: C9_9  and  C11_11 
ROOT
HETATM    1  C6  UNL     1     -32.739   6.243   1.296  1.00 20.00     0.001 C 
ENDROOT
BRANCH   1   2
HETATM    2  C5  UNL     1     -31.697   7.366   1.377  1.00 20.00     0.000 C 
BRANCH   2   3
HETATM    3  C7  UNL     1     -32.313   8.743   1.642  1.00 20.00     0.004 C 
BRANCH   3   4
HETATM    4  C10 UNL     1     -32.082   9.746   0.495  1.00 20.00    -0.023 C 
HETATM    5  C2  UNL     1     -32.737  11.087   0.838  1.00 20.00     0.009 C 
HETATM    6  C3  UNL     1     -32.622   9.236  -0.843  1.00 20.00     0.009 C 
ENDBRANCH   3   4
ENDBRANCH   2   3
ENDBRANCH   1   2
BRANCH   1   7
HETATM    7  C9  UNL     1     -32.882   5.457   2.606  1.00 20.00     0.020 C 
BRANCH   7   8
HETATM    8  C11 UNL     1     -34.224   5.695   3.318  1.00 20.00     0.082 C 
HETATM    9 CL12 UNL     1     -34.221   7.300   4.125  1.00 20.00    -0.125 Cl
BRANCH   8  10
HETATM   10  C8  UNL     1     -34.544   4.630   4.379  1.00 20.00     0.020 C 
BRANCH  10  11
HETATM   11  C4  UNL     1     -33.740   3.338   4.206  1.00 20.00    -0.003 C 
HETATM   12  C1  UNL     1     -32.845   3.076   5.409  1.00 20.00     0.005 C 
ENDBRANCH  10  11
ENDBRANCH   8  10
ENDBRANCH   7   8
ENDBRANCH   1   7
TORSDOF 7
ENDMDL
MODEL 5
REMARK VINA RESULT:      -1.7      1.655      2.286
REMARK  7 active torsions:
REMARK  status: ('A' for Active; 'I' for Inactive)
REMARK    1  A    between atoms: C4_4  and  C8_8 
REMARK    2  A    between atoms: C5_5  and  C6_6 
REMARK    3  A    between atoms: C5_5  and  C7_7 
REMARK    4  A    between atoms: C6_6  and  C9_9 
REMARK    5  A    between atoms: C7_7  and  C10_10 
REMARK    6  A    between atoms: C8_8  and  C11_11 
REMARK    7  A    between atoms: C9_9  and  C11_11 
ROOT
HETATM    1  C6  UNL     1     -32.034   6.176   1.443  1.00 20.00     0.001 C 
ENDROOT
BRANCH   1   2
HETATM    2  C5  UNL     1     -31.893   7.632   1.904  1.00 20.00     0.000 C 
BRANCH   2   3
HETATM    3  C7  UNL     1     -31.563   8.598   0.761  1.00 20.00     0.004 C 
BRANCH   3   4
HETATM    4  C10 UNL     1     -32.696   9.598   0.460  1.00 20.00    -0.023 C 
HETATM    5  C2  UNL     1     -32.712   9.929  -1.035  1.00 20.00     0.009 C 
HETATM    6  C3  UNL     1     -32.566  10.887   1.273  1.00 20.00     0.009 C 
ENDBRANCH   3   4
ENDBRANCH   2   3
ENDBRANCH   1   2
BRANCH   1   7
HETATM    7  C9  UNL     1     -33.369   5.539   1.852  1.00 20.00     0.020 C 
BRANCH   7   8
HETATM    8  C11 UNL     1     -33.608   5.545   3.371  1.00 20.00     0.082 C 
HETATM    9 CL12 UNL     1     -33.820   3.865   3.971  1.00 20.00    -0.125 Cl
BRANCH   8  10
HETATM   10  C8  UNL     1     -34.846   6.358   3.785  1.00 20.00     0.020 C 
BRANCH  10  11
HETATM   11  C4  UNL     1     -34.544   7.836   4.048  1.00 20.00    -0.003 C 
HETATM   12  C1  UNL     1     -33.369   8.001   5.001  1.00 20.00     0.005 C 
ENDBRANCH  10  11
ENDBRANCH   8  10
ENDBRANCH   7   8
ENDBRANCH   1   7
TORSDOF 7
ENDMDL
MODEL 6
REMARK VINA RESULT:      -1.4      1.044      1.265
REMARK  7 active torsions:
REMARK  status: ('A' for Active; 'I' for Inactive)
REMARK    1  A    between atoms: C4_4  and  C8_8 
REMARK    2  A    between atoms: C5_5  and  C6_6 
REMARK    3  A    between atoms: C5_5  and  C7_7 
REMARK    4  A    between atoms: C6_6  and  C9_9 
REMARK    5  A    between atoms: C7_7  and  C10_10 
REMARK    6  A    between atoms: C8_8  and  C11_11 
REMARK    7  A    between atoms: C9_9  and  C11_11 
ROOT
HETATM    1  C6  UNL     1     -32.238   8.077   3.243  1.00 20.00     0.001 C 
ENDROOT
BRANCH   1   2
HETATM    2  C5  UNL     1     -32.170   7.662   1.768  1.00 20.00     0.000 C 
BRANCH   2   3
HETATM    3  C7  UNL     1     -31.640   8.772   0.854  1.00 20.00     0.004 C 
BRANCH   3   4
HETATM    4  C10 UNL     1     -32.719   9.793   0.446  1.00 20.00    -0.023 C 
HETATM    5  C2  UNL     1     -32.708   9.979  -1.074  1.00 20.00     0.009 C 
HETATM    6  C3  UNL     1     -32.529  11.147   1.132  1.00 20.00     0.009 C 
ENDBRANCH   3   4
ENDBRANCH   2   3
ENDBRANCH   1   2
BRANCH   1   7
HETATM    7  C9  UNL     1     -33.535   7.635   3.935  1.00 20.00     0.020 C 
BRANCH   7   8
HETATM    8  C11 UNL     1     -34.174   6.390   3.298  1.00 20.00     0.082 C 
HETATM    9 CL12 UNL     1     -35.783   6.074   4.032  1.00 20.00    -0.125 Cl
BRANCH   8  10
HETATM   10  C8  UNL     1     -33.320   5.122   3.462  1.00 20.00     0.020 C 
BRANCH  10  11
HETATM   11  C4  UNL     1     -34.050   3.984   4.180  1.00 20.00    -0.003 C 
HETATM   12  C1  UNL     1     -33.069   2.998   4.797  1.00 20.00     0.005 C 
ENDBRANCH  10  11
ENDBRANCH   8  10
ENDBRANCH   7   8
ENDBRANCH   1   7
TORSDOF 7
ENDMDL
MODEL 7
REMARK VINA RESULT:      -1.3      1.524      6.107
REMARK  7 active torsions:
REMARK  status: ('A' for Active; 'I' for Inactive)
REMARK    1  A    between atoms: C4_4  and  C8_8 
REMARK    2  A    between atoms: C5_5  and  C6_6 
REMARK    3  A    between atoms: C5_5  and  C7_7 
REMARK    4  A    between atoms: C6_6  and  C9_9 
REMARK    5  A    between atoms: C7_7  and  C10_10 
REMARK    6  A    between atoms: C8_8  and  C11_11 
REMARK    7  A    between atoms: C9_9  and  C11_11 
ROOT
HETATM    1  C6  UNL     1     -34.278   7.425   4.027  1.00 20.00     0.001 C 
ENDROOT
BRANCH   1   2
HETATM    2  C5  UNL     1     -34.950   6.110   3.613  1.00 20.00     0.000 C 
BRANCH   2   3
HETATM    3  C7  UNL     1     -34.800   5.001   4.660  1.00 20.00     0.004 C 
BRANCH   3   4
HETATM    4  C10 UNL     1     -34.077   3.750   4.125  1.00 20.00    -0.023 C 
HETATM    5  C2  UNL     1     -33.126   3.204   5.194  1.00 20.00     0.009 C 
HETATM    6  C3  UNL     1     -33.298   4.033   2.839  1.00 20.00     0.009 C 
ENDBRANCH   3   4
ENDBRANCH   2   3
ENDBRANCH   1   2
BRANCH   1   7
HETATM    7  C9  UNL     1     -32.835   7.551   3.519  1.00 20.00     0.020 C 
BRANCH   7   8
HETATM    8  C11 UNL     1     -32.730   7.606   1.986  1.00 20.00     0.082 C 
HETATM    9 CL12 UNL     1     -32.063   6.061   1.355  1.00 20.00    -0.125 Cl
BRANCH   8  10
HETATM   10  C8  UNL     1     -31.836   8.751   1.481  1.00 20.00     0.020 C 
BRANCH  10  11
HETATM   11  C4  UNL     1     -32.235   9.270   0.098  1.00 20.00    -0.003 C 
HETATM   12  C1  UNL     1     -32.768  10.694   0.172  1.00 20.00     0.005 C 
ENDBRANCH  10  11
ENDBRANCH   8  10
ENDBRANCH   7   8
ENDBRANCH   1   7
TORSDOF 7
ENDMDL
MODEL 8
REMARK VINA RESULT:      -1.1      1.573      6.086
REMARK  7 active torsions:
REMARK  status: ('A' for Active; 'I' for Inactive)
REMARK    1  A    between atoms: C4_4  and  C8_8 
REMARK    2  A    between atoms: C5_5  and  C6_6 
REMARK    3  A    between atoms: C5_5  and  C7_7 
REMARK    4  A    between atoms: C6_6  and  C9_9 
REMARK    5  A    between atoms: C7_7  and  C10_10 
REMARK    6  A    between atoms: C8_8  and  C11_11 
REMARK    7  A    between atoms: C9_9  and  C11_11 
ROOT
HETATM    1  C6  UNL     1     -33.700   8.050   3.740  1.00 20.00     0.001 C 
ENDROOT
BRANCH   1   2
HETATM    2  C5  UNL     1     -34.529   6.760   3.726  1.00 20.00     0.000 C 
BRANCH   2   3
HETATM    3  C7  UNL     1     -33.684   5.504   3.486  1.00 20.00     0.004 C 
BRANCH   3   4
HETATM    4  C10 UNL     1     -34.331   4.219   4.040  1.00 20.00    -0.023 C 
HETATM    5  C2  UNL     1     -35.435   4.582   5.037  1.00 20.00     0.009 C 
HETATM    6  C3  UNL     1     -33.312   3.297   4.712  1.00 20.00     0.009 C 
ENDBRANCH   3   4
ENDBRANCH   2   3
ENDBRANCH   1   2
BRANCH   1   7
HETATM    7  C9  UNL     1     -32.326   7.893   3.075  1.00 20.00     0.020 C 
BRANCH   7   8
HETATM    8  C11 UNL     1     -32.405   7.675   1.554  1.00 20.00     0.082 C 
HETATM    9 CL12 UNL     1     -31.870   6.011   1.138  1.00 20.00    -0.125 Cl
BRANCH   8  10
HETATM   10  C8  UNL     1     -31.541   8.666   0.756  1.00 20.00     0.020 C 
BRANCH  10  11
HETATM   11  C4  UNL     1     -32.356   9.590  -0.152  1.00 20.00    -0.003 C 
HETATM   12  C1  UNL     1     -32.821  10.832   0.596  1.00 20.00     0.005 C 
ENDBRANCH  10  11
ENDBRANCH   8  10
ENDBRANCH   7   8
ENDBRANCH   1   7
TORSDOF 7
ENDMDL
MODEL 9
REMARK VINA RESULT:      -0.8      1.492      1.930
REMARK  7 active torsions:
REMARK  status: ('A' for Active; 'I' for Inactive)
REMARK    1  A    between atoms: C4_4  and  C8_8 
REMARK    2  A    between atoms: C5_5  and  C6_6 
REMARK    3  A    between atoms: C5_5  and  C7_7 
REMARK    4  A    between atoms: C6_6  and  C9_9 
REMARK    5  A    between atoms: C7_7  and  C10_10 
REMARK    6  A    between atoms: C8_8  and  C11_11 
REMARK    7  A    between atoms: C9_9  and  C11_11 
ROOT
HETATM    1  C6  UNL     1     -33.718   7.923   3.952  1.00 20.00     0.001 C 
ENDROOT
BRANCH   1   2
HETATM    2  C5  UNL     1     -32.483   8.183   3.080  1.00 20.00     0.000 C 
BRANCH   2   3
HETATM    3  C7  UNL     1     -32.815   8.326   1.591  1.00 20.00     0.004 C 
BRANCH   3   4
HETATM    4  C10 UNL     1     -31.918   9.345   0.862  1.00 20.00    -0.023 C 
HETATM    5  C2  UNL     1     -32.786  10.431   0.219  1.00 20.00     0.009 C 
HETATM    6  C3  UNL     1     -31.038   8.690  -0.204  1.00 20.00     0.009 C 
ENDBRANCH   3   4
ENDBRANCH   2   3
ENDBRANCH   1   2
BRANCH   1   7
HETATM    7  C9  UNL     1     -34.478   6.649   3.558  1.00 20.00     0.020 C 
BRANCH   7   8
HETATM    8  C11 UNL     1     -33.592   5.392   3.535  1.00 20.00     0.082 C 
HETATM    9 CL12 UNL     1     -33.100   5.012   1.849  1.00 20.00    -0.125 Cl
BRANCH   8  10
HETATM   10  C8  UNL     1     -34.287   4.151   4.119  1.00 20.00     0.020 C 
BRANCH  10  11
HETATM   11  C4  UNL     1     -33.334   2.978   4.363  1.00 20.00    -0.003 C 
HETATM   12  C1  UNL     1     -32.679   3.072   5.734  1.00 20.00     0.005 C 
ENDBRANCH  10  11
ENDBRANCH   8  10
ENDBRANCH   7   8
ENDBRANCH   1   7
TORSDOF 7
ENDMDL
