MODEL 1
REMARK VINA RESULT:      -2.8      0.000      0.000
REMARK  3 active torsions:
REMARK  status: ('A' for Active; 'I' for Inactive)
REMARK    1  A    between atoms: C6_6  and  C9_9 
REMARK    2  A    between atoms: C7_7  and  O10_10 
REMARK    3  A    between atoms: C8_8  and  C9_9 
ROOT
HETATM    1  C1  UNL     1     -32.671  10.295   0.059  1.00 20.00     0.012 C 
HETATM    2  C2  UNL     1     -32.223   9.328   0.610  1.00 20.00    -0.117 C 
HETATM    3  C8  UNL     1     -31.670   8.143   1.282  1.00 20.00     0.093 C 
ENDROOT
BRANCH   3   4
HETATM    4  C9  UNL     1     -32.182   8.056   2.711  1.00 20.00     0.017 C 
BRANCH   4   5
HETATM    5  C6  UNL     1     -33.533   7.363   2.765  1.00 20.00    -0.011 C 
HETATM    6  C3  UNL     1     -34.160   7.388   4.157  1.00 20.00     0.007 C 
HETATM    7  C4  UNL     1     -35.184   6.264   4.084  1.00 20.00     0.032 C 
HETATM    8  C7  UNL     1     -34.445   5.160   3.334  1.00 20.00     0.118 C 
HETATM    9  C5  UNL     1     -33.466   5.873   2.395  1.00 20.00     0.036 C 
BRANCH   8  10
HETATM   10  O10 UNL     1     -33.700   4.369   4.255  1.00 20.00    -0.396 OA
HETATM   11  H24 UNL     1     -32.766   4.468   4.012  1.00 20.00     0.210 HD
ENDBRANCH   8  10
ENDBRANCH   4   5
ENDBRANCH   3   4
TORSDOF 3
ENDMDL
MODEL 2
REMARK VINA RESULT:      -2.4      1.297      1.784
REMARK  3 active torsions:
REMARK  status: ('A' for Active; 'I' for Inactive)
REMARK    1  A    between atoms: C6_6  and  C9_9 
REMARK    2  A    between atoms: C7_7  and  O10_10 
REMARK    3  A    between atoms: C8_8  and  C9_9 
ROOT
HETATM    1  C1  UNL     1     -32.611   9.999  -0.170  1.00 20.00     0.012 C 
HETATM    2  C2  UNL     1     -32.283   9.239   0.699  1.00 20.00    -0.117 C 
HETATM    3  C8  UNL     1     -31.879   8.312   1.766  1.00 20.00     0.093 C 
ENDROOT
BRANCH   3   4
HETATM    4  C9  UNL     1     -32.574   6.971   1.594  1.00 20.00     0.017 C 
BRANCH   4   5
HETATM    5  C6  UNL     1     -33.053   6.429   2.931  1.00 20.00    -0.011 C 
HETATM    6  C3  UNL     1     -33.651   5.028   2.827  1.00 20.00     0.007 C 
HETATM    7  C4  UNL     1     -34.474   4.919   4.103  1.00 20.00     0.032 C 
HETATM    8  C7  UNL     1     -35.136   6.289   4.215  1.00 20.00     0.118 C 
HETATM    9  C5  UNL     1     -34.164   7.280   3.567  1.00 20.00     0.036 C 
BRANCH   8  10
HETATM   10  O10 UNL     1     -36.354   6.296   3.475  1.00 20.00    -0.396 OA
HETATM   11  H24 UNL     1     -36.154   6.700   2.617  1.00 20.00     0.210 HD
ENDBRANCH   8  10
ENDBRANCH   4   5
ENDBRANCH   3   4
TORSDOF 3
ENDMDL
MODEL 3
REMARK VINA RESULT:      -2.3      2.282      4.713
REMARK  3 active torsions:
REMARK  status: ('A' for Active; 'I' for Inactive)
REMARK    1  A    between atoms: C6_6  and  C9_9 
REMARK    2  A    between atoms: C7_7  and  O10_10 
REMARK    3  A    between atoms: C8_8  and  C9_9 
ROOT
HETATM    1  C1  UNL     1     -33.522   3.348   4.362  1.00 20.00     0.012 C 
HETATM    2  C2  UNL     1     -34.326   4.237   4.423  1.00 20.00    -0.117 C 
HETATM    3  C8  UNL     1     -35.314   5.323   4.501  1.00 20.00     0.093 C 
ENDROOT
BRANCH   3   4
HETATM    4  C9  UNL     1     -35.039   6.367   3.432  1.00 20.00     0.017 C 
BRANCH   4   5
HETATM    5  C6  UNL     1     -33.559   6.706   3.367  1.00 20.00    -0.011 C 
HETATM    6  C3  UNL     1     -33.248   8.116   3.861  1.00 20.00     0.007 C 
HETATM    7  C4  UNL     1     -31.878   8.389   3.255  1.00 20.00     0.032 C 
HETATM    8  C7  UNL     1     -31.995   7.821   1.845  1.00 20.00     0.118 C 
HETATM    9  C5  UNL     1     -32.987   6.657   1.941  1.00 20.00     0.036 C 
BRANCH   8  10
HETATM   10  O10 UNL     1     -32.535   8.809   0.972  1.00 20.00    -0.396 OA
HETATM   11  H24 UNL     1     -33.441   8.979   1.273  1.00 20.00     0.210 HD
ENDBRANCH   8  10
ENDBRANCH   4   5
ENDBRANCH   3   4
TORSDOF 3
ENDMDL
MODEL 4
REMARK VINA RESULT:      -1.3      2.143      4.941
REMARK  3 active torsions:
REMARK  status: ('A' for Active; 'I' for Inactive)
REMARK    1  A    between atoms: C6_6  and  C9_9 
REMARK    2  A    between atoms: C7_7  and  O10_10 
REMARK    3  A    between atoms: C8_8  and  C9_9 
ROOT
HETATM    1  C1  UNL     1     -32.800   2.782   5.308  1.00 20.00     0.012 C 
HETATM    2  C2  UNL     1     -33.481   3.427   4.558  1.00 20.00    -0.117 C 
HETATM    3  C8  UNL     1     -34.315   4.212   3.637  1.00 20.00     0.093 C 
ENDROOT
BRANCH   3   4
HETATM    4  C9  UNL     1     -34.470   5.637   4.146  1.00 20.00     0.017 C 
BRANCH   4   5
HETATM    5  C6  UNL     1     -34.087   6.643   3.074  1.00 20.00    -0.011 C 
HETATM    6  C3  UNL     1     -32.915   6.180   2.213  1.00 20.00     0.007 C 
HETATM    7  C4  UNL     1     -32.416   7.481   1.598  1.00 20.00     0.032 C 
HETATM    8  C7  UNL     1     -32.482   8.468   2.759  1.00 20.00     0.118 C 
HETATM    9  C5  UNL     1     -33.639   7.998   3.646  1.00 20.00     0.036 C 
BRANCH   8  10
HETATM   10  O10 UNL     1     -31.274   8.406   3.513  1.00 20.00    -0.396 OA
HETATM   11  H24 UNL     1     -31.217   9.235   4.011  1.00 20.00     0.210 HD
ENDBRANCH   8  10
ENDBRANCH   4   5
ENDBRANCH   3   4
TORSDOF 3
ENDMDL
MODEL 5
REMARK VINA RESULT:      -1.0      2.051      4.923
REMARK  3 active torsions:
REMARK  status: ('A' for Active; 'I' for Inactive)
REMARK    1  A    between atoms: C6_6  and  C9_9 
REMARK    2  A    between atoms: C7_7  and  O10_10 
REMARK    3  A    between atoms: C8_8  and  C9_9 
ROOT
HETATM    1  C1  UNL     1     -33.139   2.648   4.993  1.00 20.00     0.012 C 
HETATM    2  C2  UNL     1     -33.558   3.584   4.371  1.00 20.00    -0.117 C 
HETATM    3  C8  UNL     1     -34.075   4.734   3.614  1.00 20.00     0.093 C 
ENDROOT
BRANCH   3   4
HETATM    4  C9  UNL     1     -33.235   4.968   2.369  1.00 20.00     0.017 C 
BRANCH   4   5
HETATM    5  C6  UNL     1     -33.251   6.434   1.968  1.00 20.00    -0.011 C 
HETATM    6  C3  UNL     1     -31.928   6.902   1.368  1.00 20.00     0.007 C 
HETATM    7  C4  UNL     1     -32.008   8.415   1.518  1.00 20.00     0.032 C 
HETATM    8  C7  UNL     1     -32.603   8.602   2.910  1.00 20.00     0.118 C 
HETATM    9  C5  UNL     1     -33.500   7.383   3.151  1.00 20.00     0.036 C 
BRANCH   8  10
HETATM   10  O10 UNL     1     -31.560   8.600   3.882  1.00 20.00    -0.396 OA
HETATM   11  H24 UNL     1     -30.994   9.360   3.681  1.00 20.00     0.210 HD
ENDBRANCH   8  10
ENDBRANCH   4   5
ENDBRANCH   3   4
TORSDOF 3
ENDMDL
MODEL 6
REMARK VINA RESULT:      -0.8      2.585      4.950
REMARK  3 active torsions:
REMARK  status: ('A' for Active; 'I' for Inactive)
REMARK    1  A    between atoms: C6_6  and  C9_9 
REMARK    2  A    between atoms: C7_7  and  O10_10 
REMARK    3  A    between atoms: C8_8  and  C9_9 
ROOT
HETATM    1  C1  UNL     1     -35.362   5.708   4.091  1.00 20.00     0.012 C 
HETATM    2  C2  UNL     1     -34.589   6.603   3.883  1.00 20.00    -0.117 C 
HETATM    3  C8  UNL     1     -33.644   7.701   3.634  1.00 20.00     0.093 C 
ENDROOT
BRANCH   3   4
HETATM    4  C9  UNL     1     -32.750   7.371   2.450  1.00 20.00     0.017 C 
BRANCH   4   5
HETATM    5  C6  UNL     1     -32.133   8.631   1.865  1.00 20.00    -0.011 C 
HETATM    6  C3  UNL     1     -33.096   9.816   1.854  1.00 20.00     0.007 C 
HETATM    7  C4  UNL     1     -32.473  10.745   0.821  1.00 20.00     0.032 C 
HETATM    8  C7  UNL     1     -32.034   9.797  -0.289  1.00 20.00     0.118 C 
HETATM    9  C5  UNL     1     -31.699   8.469   0.399  1.00 20.00     0.036 C 
BRANCH   8  10
HETATM   10  O10 UNL     1     -33.115   9.581  -1.192  1.00 20.00    -0.396 OA
HETATM   11  H24 UNL     1     -33.580   8.789  -0.882  1.00 20.00     0.210 HD
ENDBRANCH   8  10
ENDBRANCH   4   5
ENDBRANCH   3   4
TORSDOF 3
ENDMDL
MODEL 7
REMARK VINA RESULT:      -0.2      2.585      4.705
REMARK  3 active torsions:
REMARK  status: ('A' for Active; 'I' for Inactive)
REMARK    1  A    between atoms: C6_6  and  C9_9 
REMARK    2  A    between atoms: C7_7  and  O10_10 
REMARK    3  A    between atoms: C8_8  and  C9_9 
ROOT
HETATM    1  C1  UNL     1     -35.273   6.476   3.938  1.00 20.00     0.012 C 
HETATM    2  C2  UNL     1     -34.214   6.168   3.463  1.00 20.00    -0.117 C 
HETATM    3  C8  UNL     1     -32.916   5.788   2.886  1.00 20.00     0.093 C 
ENDROOT
BRANCH   3   4
HETATM    4  C9  UNL     1     -32.761   6.383   1.495  1.00 20.00     0.017 C 
BRANCH   4   5
HETATM    5  C6  UNL     1     -32.184   7.787   1.564  1.00 20.00    -0.011 C 
HETATM    6  C3  UNL     1     -33.213   8.834   1.982  1.00 20.00     0.007 C 
HETATM    7  C4  UNL     1     -32.580  10.135   1.507  1.00 20.00     0.032 C 
HETATM    8  C7  UNL     1     -32.013   9.773   0.138  1.00 20.00     0.118 C 
HETATM    9  C5  UNL     1     -31.645   8.288   0.215  1.00 20.00     0.036 C 
BRANCH   8  10
HETATM   10  O10 UNL     1     -33.018   9.943  -0.859  1.00 20.00    -0.396 OA
HETATM   11  H24 UNL     1     -33.793   9.445  -0.557  1.00 20.00     0.210 HD
ENDBRANCH   8  10
ENDBRANCH   4   5
ENDBRANCH   3   4
TORSDOF 3
ENDMDL
MODEL 8
REMARK VINA RESULT:      -0.1      2.044      4.590
REMARK  3 active torsions:
REMARK  status: ('A' for Active; 'I' for Inactive)
REMARK    1  A    between atoms: C6_6  and  C9_9 
REMARK    2  A    between atoms: C7_7  and  O10_10 
REMARK    3  A    between atoms: C8_8  and  C9_9 
ROOT
HETATM    1  C1  UNL     1     -33.499   3.399   4.790  1.00 20.00     0.012 C 
HETATM    2  C2  UNL     1     -34.298   4.245   4.498  1.00 20.00    -0.117 C 
HETATM    3  C8  UNL     1     -35.282   5.278   4.141  1.00 20.00     0.093 C 
ENDROOT
BRANCH   3   4
HETATM    4  C9  UNL     1     -34.636   6.654   4.161  1.00 20.00     0.017 C 
BRANCH   4   5
HETATM    5  C6  UNL     1     -33.319   6.649   3.402  1.00 20.00    -0.011 C 
HETATM    6  C3  UNL     1     -33.006   7.990   2.743  1.00 20.00     0.007 C 
HETATM    7  C4  UNL     1     -31.976   7.613   1.687  1.00 20.00     0.032 C 
HETATM    8  C7  UNL     1     -32.522   6.312   1.109  1.00 20.00     0.118 C 
HETATM    9  C5  UNL     1     -33.286   5.632   2.250  1.00 20.00     0.036 C 
BRANCH   8  10
HETATM   10  O10 UNL     1     -33.438   6.601   0.056  1.00 20.00    -0.396 OA
HETATM   11  H24 UNL     1     -33.628   5.758  -0.383  1.00 20.00     0.210 HD
ENDBRANCH   8  10
ENDBRANCH   4   5
ENDBRANCH   3   4
TORSDOF 3
ENDMDL
