MODEL 1
REMARK VINA RESULT:      -3.4      0.000      0.000
REMARK  6 active torsions:
REMARK  status: ('A' for Active; 'I' for Inactive)
REMARK    1  A    between atoms: C4_4  and  C6_6 
REMARK    2  A    between atoms: C5_5  and  C9_9 
REMARK    3  A    between atoms: C6_6  and  C7_7 
REMARK    4  A    between atoms: C7_7  and  C8_8 
REMARK    5  A    between atoms: C8_8  and  C9_9 
REMARK    6  A    between atoms: C9_9  and  O10_10 
ROOT
HETATM    1  C1  UNL     1     -32.387   9.847  -0.006  1.00 20.00     0.012 C 
HETATM    2  C2  UNL     1     -32.318   9.071   0.907  1.00 20.00    -0.117 C 
HETATM    3  C4  UNL     1     -32.233   8.123   2.027  1.00 20.00     0.093 C 
ENDROOT
BRANCH   3   4
HETATM    4  C6  UNL     1     -32.111   6.685   1.520  1.00 20.00     0.012 C 
BRANCH   4   5
HETATM    5  C7  UNL     1     -33.209   5.758   2.048  1.00 20.00     0.003 C 
BRANCH   5   6
HETATM    6  C8  UNL     1     -33.943   6.320   3.270  1.00 20.00     0.032 C 
BRANCH   6   7
HETATM    7  C9  UNL     1     -34.332   5.219   4.266  1.00 20.00     0.117 C 
BRANCH   7   8
HETATM    8  C5  UNL     1     -33.836   3.847   3.794  1.00 20.00     0.027 C 
HETATM    9  C3  UNL     1     -33.144   3.069   4.906  1.00 20.00     0.007 C 
ENDBRANCH   7   8
BRANCH   7  10
HETATM   10  O10 UNL     1     -35.749   5.189   4.416  1.00 20.00    -0.396 OA
HETATM   11  H26 UNL     1     -36.102   4.761   3.621  1.00 20.00     0.210 HD
ENDBRANCH   7  10
ENDBRANCH   6   7
ENDBRANCH   5   6
ENDBRANCH   4   5
ENDBRANCH   3   4
TORSDOF 6
ENDMDL
MODEL 2
REMARK VINA RESULT:      -2.9      1.871      5.480
REMARK  6 active torsions:
REMARK  status: ('A' for Active; 'I' for Inactive)
REMARK    1  A    between atoms: C4_4  and  C6_6 
REMARK    2  A    between atoms: C5_5  and  C9_9 
REMARK    3  A    between atoms: C6_6  and  C7_7 
REMARK    4  A    between atoms: C7_7  and  C8_8 
REMARK    5  A    between atoms: C8_8  and  C9_9 
REMARK    6  A    between atoms: C9_9  and  O10_10 
ROOT
HETATM    1  C1  UNL     1     -33.470   3.155   4.474  1.00 20.00     0.012 C 
HETATM    2  C2  UNL     1     -34.085   4.172   4.301  1.00 20.00    -0.117 C 
HETATM    3  C4  UNL     1     -34.839   5.416   4.090  1.00 20.00     0.093 C 
ENDROOT
BRANCH   3   4
HETATM    4  C6  UNL     1     -34.007   6.436   3.312  1.00 20.00     0.012 C 
BRANCH   4   5
HETATM    5  C7  UNL     1     -33.386   5.869   2.033  1.00 20.00     0.003 C 
BRANCH   5   6
HETATM    6  C8  UNL     1     -32.107   6.596   1.604  1.00 20.00     0.032 C 
BRANCH   6   7
HETATM    7  C9  UNL     1     -32.232   8.118   1.757  1.00 20.00     0.117 C 
BRANCH   7   8
HETATM    8  C5  UNL     1     -31.865   8.837   0.454  1.00 20.00     0.027 C 
HETATM    9  C3  UNL     1     -32.560  10.185   0.322  1.00 20.00     0.007 C 
ENDBRANCH   7   8
BRANCH   7  10
HETATM   10  O10 UNL     1     -31.377   8.564   2.807  1.00 20.00    -0.396 OA
HETATM   11  H26 UNL     1     -31.358   9.533   2.756  1.00 20.00     0.210 HD
ENDBRANCH   7  10
ENDBRANCH   6   7
ENDBRANCH   5   6
ENDBRANCH   4   5
ENDBRANCH   3   4
TORSDOF 6
ENDMDL
MODEL 3
REMARK VINA RESULT:      -2.7      1.264      1.878
REMARK  6 active torsions:
REMARK  status: ('A' for Active; 'I' for Inactive)
REMARK    1  A    between atoms: C4_4  and  C6_6 
REMARK    2  A    between atoms: C5_5  and  C9_9 
REMARK    3  A    between atoms: C6_6  and  C7_7 
REMARK    4  A    between atoms: C7_7  and  C8_8 
REMARK    5  A    between atoms: C8_8  and  C9_9 
REMARK    6  A    between atoms: C9_9  and  O10_10 
ROOT
HETATM    1  C1  UNL     1     -32.514   9.993   0.030  1.00 20.00     0.012 C 
HETATM    2  C2  UNL     1     -32.285   9.136   0.839  1.00 20.00    -0.117 C 
HETATM    3  C4  UNL     1     -32.004   8.088   1.831  1.00 20.00     0.093 C 
ENDROOT
BRANCH   3   4
HETATM    4  C6  UNL     1     -31.832   6.726   1.157  1.00 20.00     0.012 C 
BRANCH   4   5
HETATM    5  C7  UNL     1     -32.916   5.715   1.540  1.00 20.00     0.003 C 
BRANCH   5   6
HETATM    6  C8  UNL     1     -33.038   5.499   3.053  1.00 20.00     0.032 C 
BRANCH   6   7
HETATM    7  C9  UNL     1     -34.462   5.102   3.464  1.00 20.00     0.117 C 
BRANCH   7   8
HETATM    8  C5  UNL     1     -35.236   6.306   4.012  1.00 20.00     0.027 C 
HETATM    9  C3  UNL     1     -34.326   7.489   4.318  1.00 20.00     0.007 C 
ENDBRANCH   7   8
BRANCH   7  10
HETATM   10  O10 UNL     1     -34.405   4.079   4.455  1.00 20.00    -0.396 OA
HETATM   11  H26 UNL     1     -33.638   4.277   5.013  1.00 20.00     0.210 HD
ENDBRANCH   7  10
ENDBRANCH   6   7
ENDBRANCH   5   6
ENDBRANCH   4   5
ENDBRANCH   3   4
TORSDOF 6
ENDMDL
MODEL 4
REMARK VINA RESULT:      -2.7      2.289      4.780
REMARK  6 active torsions:
REMARK  status: ('A' for Active; 'I' for Inactive)
REMARK    1  A    between atoms: C4_4  and  C6_6 
REMARK    2  A    between atoms: C5_5  and  C9_9 
REMARK    3  A    between atoms: C6_6  and  C7_7 
REMARK    4  A    between atoms: C7_7  and  C8_8 
REMARK    5  A    between atoms: C8_8  and  C9_9 
REMARK    6  A    between atoms: C9_9  and  O10_10 
ROOT
HETATM    1  C1  UNL     1     -33.558   3.450   4.277  1.00 20.00     0.012 C 
HETATM    2  C2  UNL     1     -34.337   4.360   4.345  1.00 20.00    -0.117 C 
HETATM    3  C4  UNL     1     -35.293   5.474   4.429  1.00 20.00     0.093 C 
ENDROOT
BRANCH   3   4
HETATM    4  C6  UNL     1     -34.879   6.623   3.510  1.00 20.00     0.012 C 
BRANCH   4   5
HETATM    5  C7  UNL     1     -34.027   7.687   4.210  1.00 20.00     0.003 C 
BRANCH   5   6
HETATM    6  C8  UNL     1     -32.679   7.933   3.524  1.00 20.00     0.032 C 
BRANCH   6   7
HETATM    7  C9  UNL     1     -32.729   7.608   2.025  1.00 20.00     0.117 C 
BRANCH   7   8
HETATM    8  C5  UNL     1     -31.833   6.411   1.688  1.00 20.00     0.027 C 
HETATM    9  C3  UNL     1     -32.613   5.264   1.058  1.00 20.00     0.007 C 
ENDBRANCH   7   8
BRANCH   7  10
HETATM   10  O10 UNL     1     -32.308   8.746   1.275  1.00 20.00    -0.396 OA
HETATM   11  H26 UNL     1     -33.053   8.992   0.705  1.00 20.00     0.210 HD
ENDBRANCH   7  10
ENDBRANCH   6   7
ENDBRANCH   5   6
ENDBRANCH   4   5
ENDBRANCH   3   4
TORSDOF 6
ENDMDL
MODEL 5
REMARK VINA RESULT:      -2.6      1.735      5.252
REMARK  6 active torsions:
REMARK  status: ('A' for Active; 'I' for Inactive)
REMARK    1  A    between atoms: C4_4  and  C6_6 
REMARK    2  A    between atoms: C5_5  and  C9_9 
REMARK    3  A    between atoms: C6_6  and  C7_7 
REMARK    4  A    between atoms: C7_7  and  C8_8 
REMARK    5  A    between atoms: C8_8  and  C9_9 
REMARK    6  A    between atoms: C9_9  and  O10_10 
ROOT
HETATM    1  C1  UNL     1     -33.504   3.501   4.208  1.00 20.00     0.012 C 
HETATM    2  C2  UNL     1     -34.336   4.357   4.338  1.00 20.00    -0.117 C 
HETATM    3  C4  UNL     1     -35.357   5.403   4.499  1.00 20.00     0.093 C 
ENDROOT
BRANCH   3   4
HETATM    4  C6  UNL     1     -35.053   6.607   3.607  1.00 20.00     0.012 C 
BRANCH   4   5
HETATM    5  C7  UNL     1     -33.686   7.241   3.884  1.00 20.00     0.003 C 
BRANCH   5   6
HETATM    6  C8  UNL     1     -33.201   8.156   2.754  1.00 20.00     0.032 C 
BRANCH   6   7
HETATM    7  C9  UNL     1     -32.065   7.518   1.944  1.00 20.00     0.117 C 
BRANCH   7   8
HETATM    8  C5  UNL     1     -31.725   8.359   0.709  1.00 20.00     0.027 C 
HETATM    9  C3  UNL     1     -32.521   9.657   0.656  1.00 20.00     0.007 C 
ENDBRANCH   7   8
BRANCH   7  10
HETATM   10  O10 UNL     1     -32.446   6.205   1.539  1.00 20.00    -0.396 OA
HETATM   11  H26 UNL     1     -31.767   5.603   1.880  1.00 20.00     0.210 HD
ENDBRANCH   7  10
ENDBRANCH   6   7
ENDBRANCH   5   6
ENDBRANCH   4   5
ENDBRANCH   3   4
TORSDOF 6
ENDMDL
MODEL 6
REMARK VINA RESULT:      -2.6      1.189      2.075
REMARK  6 active torsions:
REMARK  status: ('A' for Active; 'I' for Inactive)
REMARK    1  A    between atoms: C4_4  and  C6_6 
REMARK    2  A    between atoms: C5_5  and  C9_9 
REMARK    3  A    between atoms: C6_6  and  C7_7 
REMARK    4  A    between atoms: C7_7  and  C8_8 
REMARK    5  A    between atoms: C8_8  and  C9_9 
REMARK    6  A    between atoms: C9_9  and  O10_10 
ROOT
HETATM    1  C1  UNL     1     -32.026   5.403   1.065  1.00 20.00     0.012 C 
HETATM    2  C2  UNL     1     -32.229   6.503   1.500  1.00 20.00    -0.117 C 
HETATM    3  C4  UNL     1     -32.478   7.852   2.029  1.00 20.00     0.093 C 
ENDROOT
BRANCH   3   4
HETATM    4  C6  UNL     1     -32.665   7.819   3.547  1.00 20.00     0.012 C 
BRANCH   4   5
HETATM    5  C7  UNL     1     -34.120   7.612   3.977  1.00 20.00     0.003 C 
BRANCH   5   6
HETATM    6  C8  UNL     1     -34.729   6.308   3.451  1.00 20.00     0.032 C 
BRANCH   6   7
HETATM    7  C9  UNL     1     -34.543   5.147   4.437  1.00 20.00     0.117 C 
BRANCH   7   8
HETATM    8  C5  UNL     1     -33.811   3.973   3.778  1.00 20.00     0.027 C 
HETATM    9  C3  UNL     1     -33.218   3.013   4.802  1.00 20.00     0.007 C 
ENDBRANCH   7   8
BRANCH   7  10
HETATM   10  O10 UNL     1     -35.817   4.713   4.909  1.00 20.00    -0.396 OA
HETATM   11  H26 UNL     1     -35.949   5.132   5.773  1.00 20.00     0.210 HD
ENDBRANCH   7  10
ENDBRANCH   6   7
ENDBRANCH   5   6
ENDBRANCH   4   5
ENDBRANCH   3   4
TORSDOF 6
ENDMDL
MODEL 7
REMARK VINA RESULT:      -2.4      0.967      1.152
REMARK  6 active torsions:
REMARK  status: ('A' for Active; 'I' for Inactive)
REMARK    1  A    between atoms: C4_4  and  C6_6 
REMARK    2  A    between atoms: C5_5  and  C9_9 
REMARK    3  A    between atoms: C6_6  and  C7_7 
REMARK    4  A    between atoms: C7_7  and  C8_8 
REMARK    5  A    between atoms: C8_8  and  C9_9 
REMARK    6  A    between atoms: C9_9  and  O10_10 
ROOT
HETATM    1  C1  UNL     1     -32.455  10.104  -0.185  1.00 20.00     0.012 C 
HETATM    2  C2  UNL     1     -32.355   9.309   0.708  1.00 20.00    -0.117 C 
HETATM    3  C4  UNL     1     -32.232   8.336   1.804  1.00 20.00     0.093 C 
ENDROOT
BRANCH   3   4
HETATM    4  C6  UNL     1     -31.669   7.008   1.299  1.00 20.00     0.012 C 
BRANCH   4   5
HETATM    5  C7  UNL     1     -32.599   5.817   1.549  1.00 20.00     0.003 C 
BRANCH   5   6
HETATM    6  C8  UNL     1     -33.954   6.219   2.142  1.00 20.00     0.032 C 
BRANCH   6   7
HETATM    7  C9  UNL     1     -33.953   6.154   3.675  1.00 20.00     0.117 C 
BRANCH   7   8
HETATM    8  C5  UNL     1     -34.724   4.928   4.178  1.00 20.00     0.027 C 
HETATM    9  C3  UNL     1     -33.814   3.730   4.414  1.00 20.00     0.007 C 
ENDBRANCH   7   8
BRANCH   7  10
HETATM   10  O10 UNL     1     -34.543   7.340   4.204  1.00 20.00    -0.396 OA
HETATM   11  H26 UNL     1     -34.216   8.075   3.663  1.00 20.00     0.210 HD
ENDBRANCH   7  10
ENDBRANCH   6   7
ENDBRANCH   5   6
ENDBRANCH   4   5
ENDBRANCH   3   4
TORSDOF 6
ENDMDL
MODEL 8
REMARK VINA RESULT:      -2.1      2.220      4.894
REMARK  6 active torsions:
REMARK  status: ('A' for Active; 'I' for Inactive)
REMARK    1  A    between atoms: C4_4  and  C6_6 
REMARK    2  A    between atoms: C5_5  and  C9_9 
REMARK    3  A    between atoms: C6_6  and  C7_7 
REMARK    4  A    between atoms: C7_7  and  C8_8 
REMARK    5  A    between atoms: C8_8  and  C9_9 
REMARK    6  A    between atoms: C9_9  and  O10_10 
ROOT
HETATM    1  C1  UNL     1     -33.832   8.273   4.875  1.00 20.00     0.012 C 
HETATM    2  C2  UNL     1     -34.231   7.299   4.299  1.00 20.00    -0.117 C 
HETATM    3  C4  UNL     1     -34.722   6.106   3.593  1.00 20.00     0.093 C 
ENDROOT
BRANCH   3   4
HETATM    4  C6  UNL     1     -33.567   5.326   2.965  1.00 20.00     0.012 C 
BRANCH   4   5
HETATM    5  C7  UNL     1     -33.227   5.780   1.543  1.00 20.00     0.003 C 
BRANCH   5   6
HETATM    6  C8  UNL     1     -31.913   6.566   1.455  1.00 20.00     0.032 C 
BRANCH   6   7
HETATM    7  C9  UNL     1     -32.129   8.072   1.657  1.00 20.00     0.117 C 
BRANCH   7   8
HETATM    8  C5  UNL     1     -31.810   8.853   0.378  1.00 20.00     0.027 C 
HETATM    9  C3  UNL     1     -32.606  10.147   0.277  1.00 20.00     0.007 C 
ENDBRANCH   7   8
BRANCH   7  10
HETATM   10  O10 UNL     1     -31.299   8.534   2.720  1.00 20.00    -0.396 OA
HETATM   11  H26 UNL     1     -31.345   7.862   3.419  1.00 20.00     0.210 HD
ENDBRANCH   7  10
ENDBRANCH   6   7
ENDBRANCH   5   6
ENDBRANCH   4   5
ENDBRANCH   3   4
TORSDOF 6
ENDMDL
MODEL 9
REMARK VINA RESULT:      -1.4      2.607      5.503
REMARK  6 active torsions:
REMARK  status: ('A' for Active; 'I' for Inactive)
REMARK    1  A    between atoms: C4_4  and  C6_6 
REMARK    2  A    between atoms: C5_5  and  C9_9 
REMARK    3  A    between atoms: C6_6  and  C7_7 
REMARK    4  A    between atoms: C7_7  and  C8_8 
REMARK    5  A    between atoms: C8_8  and  C9_9 
REMARK    6  A    between atoms: C9_9  and  O10_10 
ROOT
HETATM    1  C1  UNL     1     -35.338   6.534   4.047  1.00 20.00     0.012 C 
HETATM    2  C2  UNL     1     -34.427   5.926   3.557  1.00 20.00    -0.117 C 
HETATM    3  C4  UNL     1     -33.310   5.179   2.958  1.00 20.00     0.093 C 
ENDROOT
BRANCH   3   4
HETATM    4  C6  UNL     1     -33.027   5.663   1.536  1.00 20.00     0.012 C 
BRANCH   4   5
HETATM    5  C7  UNL     1     -31.865   6.656   1.450  1.00 20.00     0.003 C 
BRANCH   5   6
HETATM    6  C8  UNL     1     -32.221   8.054   1.969  1.00 20.00     0.032 C 
BRANCH   6   7
HETATM    7  C9  UNL     1     -31.615   9.163   1.098  1.00 20.00     0.117 C 
BRANCH   7   8
HETATM    8  C5  UNL     1     -32.665  10.220   0.739  1.00 20.00     0.027 C 
HETATM    9  C3  UNL     1     -32.942  10.276  -0.758  1.00 20.00     0.007 C 
ENDBRANCH   7   8
BRANCH   7  10
HETATM   10  O10 UNL     1     -31.081   8.594  -0.096  1.00 20.00    -0.396 OA
HETATM   11  H26 UNL     1     -30.673   7.752   0.159  1.00 20.00     0.210 HD
ENDBRANCH   7  10
ENDBRANCH   6   7
ENDBRANCH   5   6
ENDBRANCH   4   5
ENDBRANCH   3   4
TORSDOF 6
ENDMDL
