MODEL 1
REMARK VINA RESULT:      -0.2      0.000      0.000
REMARK  6 active torsions:
REMARK  status: ('A' for Active; 'I' for Inactive)
REMARK    1  A    between atoms: C1_1  and  C4_4 
REMARK    2  A    between atoms: C1_1  and  C8_8 
REMARK    3  A    between atoms: C8_8  and  C9_9 
REMARK    4  A    between atoms: C9_9  and  C10_10 
REMARK    5  A    between atoms: C10_10  and  C11_11 
REMARK    6  A    between atoms: C11_11  and  C12_12 
ROOT
HETATM    1  C9  UNL     1     -34.577   7.180   4.380  1.00 20.00     0.007 C 
ENDROOT
BRANCH   1   2
HETATM    2  C8  UNL     1     -34.681   5.918   3.524  1.00 20.00     0.079 C 
BRANCH   2   3
HETATM    3  C1  UNL     1     -34.600   4.637   4.328  1.00 20.00     0.131 C 
HETATM    4  O13 UNL     1     -35.417   4.291   5.171  1.00 20.00    -0.298 OA
BRANCH   3   5
HETATM    5  C4  UNL     1     -33.403   3.788   4.060  1.00 20.00     0.055 A 
HETATM    6  C2  UNL     1     -32.599   3.301   5.220  1.00 20.00     0.013 A 
HETATM    7  C3  UNL     1     -33.452   2.346   4.442  1.00 20.00     0.013 A 
ENDBRANCH   3   5
ENDBRANCH   2   3
ENDBRANCH   1   2
BRANCH   1   8
HETATM    8  C10 UNL     1     -33.406   8.078   3.958  1.00 20.00     0.001 C 
BRANCH   8   9
HETATM    9  C11 UNL     1     -33.430   8.337   2.447  1.00 20.00     0.008 C 
BRANCH   9  10
HETATM   10  C12 UNL     1     -32.093   8.084   1.699  1.00 20.00    -0.051 C 
HETATM   11  C5  UNL     1     -30.935   8.422   2.658  1.00 20.00     0.014 C 
HETATM   12  C6  UNL     1     -31.972   8.981   0.456  1.00 20.00     0.014 C 
HETATM   13  C7  UNL     1     -31.961   6.611   1.277  1.00 20.00     0.014 C 
ENDBRANCH   9  10
ENDBRANCH   8   9
ENDBRANCH   1   8
TORSDOF 6
ENDMDL
MODEL 2
REMARK VINA RESULT:      -0.2      0.036      1.203
REMARK  6 active torsions:
REMARK  status: ('A' for Active; 'I' for Inactive)
REMARK    1  A    between atoms: C1_1  and  C4_4 
REMARK    2  A    between atoms: C1_1  and  C8_8 
REMARK    3  A    between atoms: C8_8  and  C9_9 
REMARK    4  A    between atoms: C9_9  and  C10_10 
REMARK    5  A    between atoms: C10_10  and  C11_11 
REMARK    6  A    between atoms: C11_11  and  C12_12 
ROOT
HETATM    1  C9  UNL     1     -34.587   7.175   4.370  1.00 20.00     0.007 C 
ENDROOT
BRANCH   1   2
HETATM    2  C8  UNL     1     -34.646   5.909   3.516  1.00 20.00     0.079 C 
BRANCH   2   3
HETATM    3  C1  UNL     1     -34.578   4.631   4.327  1.00 20.00     0.131 C 
HETATM    4  O13 UNL     1     -35.409   4.291   5.160  1.00 20.00    -0.298 OA
BRANCH   3   5
HETATM    5  C4  UNL     1     -33.379   3.779   4.080  1.00 20.00     0.055 A 
HETATM    6  C2  UNL     1     -32.620   3.258   5.256  1.00 20.00     0.013 A 
HETATM    7  C3  UNL     1     -33.453   2.329   4.424  1.00 20.00     0.013 A 
ENDBRANCH   3   5
ENDBRANCH   2   3
ENDBRANCH   1   2
BRANCH   1   8
HETATM    8  C10 UNL     1     -33.431   8.100   3.966  1.00 20.00     0.001 C 
BRANCH   8   9
HETATM    9  C11 UNL     1     -33.423   8.340   2.452  1.00 20.00     0.008 C 
BRANCH   9  10
HETATM   10  C12 UNL     1     -32.076   8.067   1.732  1.00 20.00    -0.051 C 
HETATM   11  C5  UNL     1     -32.010   8.964   0.479  1.00 20.00     0.014 C 
HETATM   12  C6  UNL     1     -31.971   6.599   1.284  1.00 20.00     0.014 C 
HETATM   13  C7  UNL     1     -30.881   8.408   2.637  1.00 20.00     0.014 C 
ENDBRANCH   9  10
ENDBRANCH   8   9
ENDBRANCH   1   8
TORSDOF 6
ENDMDL
MODEL 3
REMARK VINA RESULT:      -0.1      2.388      5.598
REMARK  6 active torsions:
REMARK  status: ('A' for Active; 'I' for Inactive)
REMARK    1  A    between atoms: C1_1  and  C4_4 
REMARK    2  A    between atoms: C1_1  and  C8_8 
REMARK    3  A    between atoms: C8_8  and  C9_9 
REMARK    4  A    between atoms: C9_9  and  C10_10 
REMARK    5  A    between atoms: C10_10  and  C11_11 
REMARK    6  A    between atoms: C11_11  and  C12_12 
ROOT
HETATM    1  C9  UNL     1     -31.839   5.850   1.300  1.00 20.00     0.007 C 
ENDROOT
BRANCH   1   2
HETATM    2  C8  UNL     1     -31.440   7.225   0.766  1.00 20.00     0.079 C 
BRANCH   2   3
HETATM    3  C1  UNL     1     -31.913   8.371   1.636  1.00 20.00     0.131 C 
HETATM    4  O13 UNL     1     -31.603   8.527   2.810  1.00 20.00    -0.298 OA
BRANCH   3   5
HETATM    5  C4  UNL     1     -32.847   9.331   0.979  1.00 20.00     0.055 A 
HETATM    6  C2  UNL     1     -32.329  10.674   0.584  1.00 20.00     0.013 A 
HETATM    7  C3  UNL     1     -32.641   9.650  -0.464  1.00 20.00     0.013 A 
ENDBRANCH   3   5
ENDBRANCH   2   3
ENDBRANCH   1   2
BRANCH   1   8
HETATM    8  C10 UNL     1     -33.331   5.770   1.651  1.00 20.00     0.001 C 
BRANCH   8   9
HETATM    9  C11 UNL     1     -33.529   5.530   3.153  1.00 20.00     0.008 C 
BRANCH   9  10
HETATM   10  C12 UNL     1     -34.685   6.325   3.816  1.00 20.00    -0.051 C 
HETATM   11  C5  UNL     1     -35.456   5.365   4.744  1.00 20.00     0.014 C 
HETATM   12  C6  UNL     1     -35.662   6.872   2.762  1.00 20.00     0.014 C 
HETATM   13  C7  UNL     1     -34.146   7.491   4.662  1.00 20.00     0.014 C 
ENDBRANCH   9  10
ENDBRANCH   8   9
ENDBRANCH   1   8
TORSDOF 6
ENDMDL
MODEL 4
REMARK VINA RESULT:       0.0      2.693      5.960
REMARK  6 active torsions:
REMARK  status: ('A' for Active; 'I' for Inactive)
REMARK    1  A    between atoms: C1_1  and  C4_4 
REMARK    2  A    between atoms: C1_1  and  C8_8 
REMARK    3  A    between atoms: C8_8  and  C9_9 
REMARK    4  A    between atoms: C9_9  and  C10_10 
REMARK    5  A    between atoms: C10_10  and  C11_11 
REMARK    6  A    between atoms: C11_11  and  C12_12 
ROOT
HETATM    1  C9  UNL     1     -31.609   6.230   1.382  1.00 20.00     0.007 C 
ENDROOT
BRANCH   1   2
HETATM    2  C8  UNL     1     -31.618   7.693   1.825  1.00 20.00     0.079 C 
BRANCH   2   3
HETATM    3  C1  UNL     1     -31.582   8.673   0.670  1.00 20.00     0.131 C 
HETATM    4  O13 UNL     1     -30.684   8.741  -0.159  1.00 20.00    -0.298 OA
BRANCH   3   5
HETATM    5  C4  UNL     1     -32.729   9.625   0.603  1.00 20.00     0.055 A 
HETATM    6  C2  UNL     1     -32.439  11.083   0.470  1.00 20.00     0.013 A 
HETATM    7  C3  UNL     1     -33.004  10.319  -0.689  1.00 20.00     0.013 A 
ENDBRANCH   3   5
ENDBRANCH   2   3
ENDBRANCH   1   2
BRANCH   1   8
HETATM    8  C10 UNL     1     -32.913   5.504   1.737  1.00 20.00     0.001 C 
BRANCH   8   9
HETATM    9  C11 UNL     1     -33.988   6.498   2.192  1.00 20.00     0.008 C 
BRANCH   9  10
HETATM   10  C12 UNL     1     -34.502   6.318   3.646  1.00 20.00    -0.051 C 
HETATM   11  C5  UNL     1     -36.040   6.424   3.628  1.00 20.00     0.014 C 
HETATM   12  C6  UNL     1     -33.950   7.414   4.572  1.00 20.00     0.014 C 
HETATM   13  C7  UNL     1     -34.117   4.938   4.206  1.00 20.00     0.014 C 
ENDBRANCH   9  10
ENDBRANCH   8   9
ENDBRANCH   1   8
TORSDOF 6
ENDMDL
MODEL 5
REMARK VINA RESULT:       0.2      1.662      3.092
REMARK  6 active torsions:
REMARK  status: ('A' for Active; 'I' for Inactive)
REMARK    1  A    between atoms: C1_1  and  C4_4 
REMARK    2  A    between atoms: C1_1  and  C8_8 
REMARK    3  A    between atoms: C8_8  and  C9_9 
REMARK    4  A    between atoms: C9_9  and  C10_10 
REMARK    5  A    between atoms: C10_10  and  C11_11 
REMARK    6  A    between atoms: C11_11  and  C12_12 
ROOT
HETATM    1  C9  UNL     1     -31.952   6.043   1.722  1.00 20.00     0.007 C 
ENDROOT
BRANCH   1   2
HETATM    2  C8  UNL     1     -33.428   5.686   1.897  1.00 20.00     0.079 C 
BRANCH   2   3
HETATM    3  C1  UNL     1     -33.756   5.128   3.267  1.00 20.00     0.131 C 
HETATM    4  O13 UNL     1     -33.338   4.063   3.703  1.00 20.00    -0.298 OA
BRANCH   3   5
HETATM    5  C4  UNL     1     -34.683   5.957   4.090  1.00 20.00     0.055 A 
HETATM    6  C2  UNL     1     -34.374   7.407   4.272  1.00 20.00     0.013 A 
HETATM    7  C3  UNL     1     -35.520   6.985   3.403  1.00 20.00     0.013 A 
ENDBRANCH   3   5
ENDBRANCH   2   3
ENDBRANCH   1   2
BRANCH   1   8
HETATM    8  C10 UNL     1     -31.692   7.547   1.880  1.00 20.00     0.001 C 
BRANCH   8   9
HETATM    9  C11 UNL     1     -32.790   8.368   1.194  1.00 20.00     0.008 C 
BRANCH   9  10
HETATM   10  C12 UNL     1     -32.304   9.596   0.378  1.00 20.00    -0.051 C 
HETATM   11  C5  UNL     1     -30.828   9.364  -0.004  1.00 20.00     0.014 C 
HETATM   12  C6  UNL     1     -32.394  10.888   1.208  1.00 20.00     0.014 C 
HETATM   13  C7  UNL     1     -33.120   9.764  -0.914  1.00 20.00     0.014 C 
ENDBRANCH   9  10
ENDBRANCH   8   9
ENDBRANCH   1   8
TORSDOF 6
ENDMDL
MODEL 6
REMARK VINA RESULT:       0.3      1.114      1.885
REMARK  6 active torsions:
REMARK  status: ('A' for Active; 'I' for Inactive)
REMARK    1  A    between atoms: C1_1  and  C4_4 
REMARK    2  A    between atoms: C1_1  and  C8_8 
REMARK    3  A    between atoms: C8_8  and  C9_9 
REMARK    4  A    between atoms: C9_9  and  C10_10 
REMARK    5  A    between atoms: C10_10  and  C11_11 
REMARK    6  A    between atoms: C11_11  and  C12_12 
ROOT
HETATM    1  C9  UNL     1     -33.061   5.879   1.958  1.00 20.00     0.007 C 
ENDROOT
BRANCH   1   2
HETATM    2  C8  UNL     1     -33.883   6.120   3.223  1.00 20.00     0.079 C 
BRANCH   2   3
HETATM    3  C1  UNL     1     -34.222   4.848   3.973  1.00 20.00     0.131 C 
HETATM    4  O13 UNL     1     -35.284   4.640   4.547  1.00 20.00    -0.298 OA
BRANCH   3   5
HETATM    5  C4  UNL     1     -33.141   3.822   4.016  1.00 20.00     0.055 A 
HETATM    6  C2  UNL     1     -32.712   3.291   5.344  1.00 20.00     0.013 A 
HETATM    7  C3  UNL     1     -33.498   2.426   4.406  1.00 20.00     0.013 A 
ENDBRANCH   3   5
ENDBRANCH   2   3
ENDBRANCH   1   2
BRANCH   1   8
HETATM    8  C10 UNL     1     -32.117   7.047   1.643  1.00 20.00     0.001 C 
BRANCH   8   9
HETATM    9  C11 UNL     1     -32.895   8.364   1.525  1.00 20.00     0.008 C 
BRANCH   9  10
HETATM   10  C12 UNL     1     -32.293   9.419   0.558  1.00 20.00    -0.051 C 
HETATM   11  C5  UNL     1     -30.777   9.159   0.448  1.00 20.00     0.014 C 
HETATM   12  C6  UNL     1     -32.504  10.846   1.090  1.00 20.00     0.014 C 
HETATM   13  C7  UNL     1     -32.909   9.303  -0.846  1.00 20.00     0.014 C 
ENDBRANCH   9  10
ENDBRANCH   8   9
ENDBRANCH   1   8
TORSDOF 6
ENDMDL
MODEL 7
REMARK VINA RESULT:       0.3      1.077      1.872
REMARK  6 active torsions:
REMARK  status: ('A' for Active; 'I' for Inactive)
REMARK    1  A    between atoms: C1_1  and  C4_4 
REMARK    2  A    between atoms: C1_1  and  C8_8 
REMARK    3  A    between atoms: C8_8  and  C9_9 
REMARK    4  A    between atoms: C9_9  and  C10_10 
REMARK    5  A    between atoms: C10_10  and  C11_11 
REMARK    6  A    between atoms: C11_11  and  C12_12 
ROOT
HETATM    1  C9  UNL     1     -33.062   5.942   1.990  1.00 20.00     0.007 C 
ENDROOT
BRANCH   1   2
HETATM    2  C8  UNL     1     -33.928   6.166   3.228  1.00 20.00     0.079 C 
BRANCH   2   3
HETATM    3  C1  UNL     1     -34.250   4.891   3.979  1.00 20.00     0.131 C 
HETATM    4  O13 UNL     1     -35.299   4.679   4.574  1.00 20.00    -0.298 OA
BRANCH   3   5
HETATM    5  C4  UNL     1     -33.167   3.865   3.992  1.00 20.00     0.055 A 
HETATM    6  C2  UNL     1     -32.702   3.336   5.308  1.00 20.00     0.013 A 
HETATM    7  C3  UNL     1     -33.513   2.469   4.393  1.00 20.00     0.013 A 
ENDBRANCH   3   5
ENDBRANCH   2   3
ENDBRANCH   1   2
BRANCH   1   8
HETATM    8  C10 UNL     1     -32.050   7.075   1.770  1.00 20.00     0.001 C 
BRANCH   8   9
HETATM    9  C11 UNL     1     -32.760   8.429   1.657  1.00 20.00     0.008 C 
BRANCH   9  10
HETATM   10  C12 UNL     1     -32.234   9.376   0.545  1.00 20.00    -0.051 C 
HETATM   11  C5  UNL     1     -32.485  10.829   0.995  1.00 20.00     0.014 C 
HETATM   12  C6  UNL     1     -32.975   9.143  -0.782  1.00 20.00     0.014 C 
HETATM   13  C7  UNL     1     -30.724   9.189   0.323  1.00 20.00     0.014 C 
ENDBRANCH   9  10
ENDBRANCH   8   9
ENDBRANCH   1   8
TORSDOF 6
ENDMDL
MODEL 8
REMARK VINA RESULT:       0.8      1.584      5.040
REMARK  6 active torsions:
REMARK  status: ('A' for Active; 'I' for Inactive)
REMARK    1  A    between atoms: C1_1  and  C4_4 
REMARK    2  A    between atoms: C1_1  and  C8_8 
REMARK    3  A    between atoms: C8_8  and  C9_9 
REMARK    4  A    between atoms: C9_9  and  C10_10 
REMARK    5  A    between atoms: C10_10  and  C11_11 
REMARK    6  A    between atoms: C11_11  and  C12_12 
ROOT
HETATM    1  C9  UNL     1     -34.975   6.343   4.029  1.00 20.00     0.007 C 
ENDROOT
BRANCH   1   2
HETATM    2  C8  UNL     1     -34.408   7.552   3.286  1.00 20.00     0.079 C 
BRANCH   2   3
HETATM    3  C1  UNL     1     -33.016   7.942   3.741  1.00 20.00     0.131 C 
HETATM    4  O13 UNL     1     -32.723   8.264   4.885  1.00 20.00    -0.298 OA
BRANCH   3   5
HETATM    5  C4  UNL     1     -31.973   7.950   2.675  1.00 20.00     0.055 A 
HETATM    6  C2  UNL     1     -32.155   7.057   1.492  1.00 20.00     0.013 A 
HETATM    7  C3  UNL     1     -32.315   8.541   1.348  1.00 20.00     0.013 A 
ENDBRANCH   3   5
ENDBRANCH   2   3
ENDBRANCH   1   2
BRANCH   1   8
HETATM    8  C10 UNL     1     -34.341   5.024   3.569  1.00 20.00     0.001 C 
BRANCH   8   9
HETATM    9  C11 UNL     1     -34.347   3.989   4.700  1.00 20.00     0.008 C 
BRANCH   9  10
HETATM   10  C12 UNL     1     -33.067   3.120   4.827  1.00 20.00    -0.051 C 
HETATM   11  C5  UNL     1     -32.523   3.273   6.262  1.00 20.00     0.014 C 
HETATM   12  C6  UNL     1     -31.979   3.583   3.843  1.00 20.00     0.014 C 
HETATM   13  C7  UNL     1     -33.376   1.634   4.580  1.00 20.00     0.014 C 
ENDBRANCH   9  10
ENDBRANCH   8   9
ENDBRANCH   1   8
TORSDOF 6
ENDMDL
MODEL 9
REMARK VINA RESULT:       0.9      1.658      5.513
REMARK  6 active torsions:
REMARK  status: ('A' for Active; 'I' for Inactive)
REMARK    1  A    between atoms: C1_1  and  C4_4 
REMARK    2  A    between atoms: C1_1  and  C8_8 
REMARK    3  A    between atoms: C8_8  and  C9_9 
REMARK    4  A    between atoms: C9_9  and  C10_10 
REMARK    5  A    between atoms: C10_10  and  C11_11 
REMARK    6  A    between atoms: C11_11  and  C12_12 
ROOT
HETATM    1  C9  UNL     1     -34.501   6.510   3.747  1.00 20.00     0.007 C 
ENDROOT
BRANCH   1   2
HETATM    2  C8  UNL     1     -33.254   7.377   3.575  1.00 20.00     0.079 C 
BRANCH   2   3
HETATM    3  C1  UNL     1     -32.671   7.324   2.178  1.00 20.00     0.131 C 
HETATM    4  O13 UNL     1     -32.722   6.350   1.438  1.00 20.00    -0.298 OA
BRANCH   3   5
HETATM    5  C4  UNL     1     -31.966   8.561   1.731  1.00 20.00     0.055 A 
HETATM    6  C2  UNL     1     -31.432   8.614   0.338  1.00 20.00     0.013 A 
HETATM    7  C3  UNL     1     -32.630   9.432   0.717  1.00 20.00     0.013 A 
ENDBRANCH   3   5
ENDBRANCH   2   3
ENDBRANCH   1   2
BRANCH   1   8
HETATM    8  C10 UNL     1     -34.243   5.039   3.396  1.00 20.00     0.001 C 
BRANCH   8   9
HETATM    9  C11 UNL     1     -34.283   4.160   4.653  1.00 20.00     0.008 C 
BRANCH   9  10
HETATM   10  C12 UNL     1     -33.068   3.215   4.854  1.00 20.00    -0.051 C 
HETATM   11  C5  UNL     1     -31.954   3.652   3.881  1.00 20.00     0.014 C 
HETATM   12  C6  UNL     1     -33.440   1.756   4.543  1.00 20.00     0.014 C 
HETATM   13  C7  UNL     1     -32.523   3.306   6.289  1.00 20.00     0.014 C 
ENDBRANCH   9  10
ENDBRANCH   8   9
ENDBRANCH   1   8
TORSDOF 6
ENDMDL
