MODEL 1
REMARK VINA RESULT:      -2.1      0.000      0.000
REMARK  2 active torsions:
REMARK  status: ('A' for Active; 'I' for Inactive)
REMARK    1  A    between atoms: C7_7  and  C9_9 
REMARK    2  A    between atoms: C8_8  and  O10_10 
ROOT
HETATM    1  C1  UNL     1     -33.222   2.954   4.783  1.00 20.00     0.012 C 
HETATM    2  C2  UNL     1     -34.013   3.844   4.625  1.00 20.00    -0.117 C 
HETATM    3  C9  UNL     1     -34.984   4.926   4.440  1.00 20.00     0.097 C 
ENDROOT
BRANCH   3   4
HETATM    4  C7  UNL     1     -34.472   5.956   3.435  1.00 20.00    -0.001 C 
HETATM    5  C4  UNL     1     -34.027   7.239   4.152  1.00 20.00     0.005 C 
HETATM    6  C3  UNL     1     -33.460   8.267   3.175  1.00 20.00     0.003 C 
HETATM    7  C5  UNL     1     -32.327   7.682   2.339  1.00 20.00     0.032 C 
HETATM    8  C8  UNL     1     -32.760   6.405   1.623  1.00 20.00     0.118 C 
HETATM    9  C6  UNL     1     -33.325   5.374   2.599  1.00 20.00     0.037 C 
BRANCH   8  10
HETATM   10  O10 UNL     1     -31.649   5.848   0.929  1.00 20.00    -0.396 OA
HETATM   11  H24 UNL     1     -31.124   6.595   0.600  1.00 20.00     0.210 HD
ENDBRANCH   8  10
ENDBRANCH   3   4
TORSDOF 2
ENDMDL
MODEL 2
REMARK VINA RESULT:      -2.0      2.255      4.912
REMARK  2 active torsions:
REMARK  status: ('A' for Active; 'I' for Inactive)
REMARK    1  A    between atoms: C7_7  and  C9_9 
REMARK    2  A    between atoms: C8_8  and  O10_10 
ROOT
HETATM    1  C1  UNL     1     -32.645  10.330  -0.127  1.00 20.00     0.012 C 
HETATM    2  C2  UNL     1     -32.220   9.474   0.600  1.00 20.00    -0.117 C 
HETATM    3  C9  UNL     1     -31.691   8.435   1.488  1.00 20.00     0.097 C 
ENDROOT
BRANCH   3   4
HETATM    4  C7  UNL     1     -32.737   7.353   1.749  1.00 20.00    -0.001 C 
HETATM    5  C4  UNL     1     -32.099   5.957   1.693  1.00 20.00     0.005 C 
HETATM    6  C3  UNL     1     -33.112   4.858   2.004  1.00 20.00     0.003 C 
HETATM    7  C5  UNL     1     -33.806   5.094   3.341  1.00 20.00     0.032 C 
HETATM    8  C8  UNL     1     -34.443   6.480   3.405  1.00 20.00     0.118 C 
HETATM    9  C6  UNL     1     -33.430   7.582   3.098  1.00 20.00     0.037 C 
BRANCH   8  10
HETATM   10  O10 UNL     1     -35.000   6.690   4.698  1.00 20.00    -0.396 OA
HETATM   11  H24 UNL     1     -34.470   6.163   5.317  1.00 20.00     0.210 HD
ENDBRANCH   8  10
ENDBRANCH   3   4
TORSDOF 2
ENDMDL
MODEL 3
REMARK VINA RESULT:      -1.7      1.870      4.261
REMARK  2 active torsions:
REMARK  status: ('A' for Active; 'I' for Inactive)
REMARK    1  A    between atoms: C7_7  and  C9_9 
REMARK    2  A    between atoms: C8_8  and  O10_10 
ROOT
HETATM    1  C1  UNL     1     -32.408   9.883   0.642  1.00 20.00     0.012 C 
HETATM    2  C2  UNL     1     -32.205   8.734   0.925  1.00 20.00    -0.117 C 
HETATM    3  C9  UNL     1     -31.951   7.330   1.259  1.00 20.00     0.097 C 
ENDROOT
BRANCH   3   4
HETATM    4  C7  UNL     1     -32.625   6.950   2.576  1.00 20.00    -0.001 C 
HETATM    5  C4  UNL     1     -33.797   7.897   2.878  1.00 20.00     0.005 C 
HETATM    6  C3  UNL     1     -34.523   7.507   4.164  1.00 20.00     0.003 C 
HETATM    7  C5  UNL     1     -34.983   6.054   4.131  1.00 20.00     0.032 C 
HETATM    8  C8  UNL     1     -33.824   5.106   3.831  1.00 20.00     0.118 C 
HETATM    9  C6  UNL     1     -33.098   5.492   2.543  1.00 20.00     0.037 C 
BRANCH   8  10
HETATM   10  O10 UNL     1     -34.314   3.774   3.723  1.00 20.00    -0.396 OA
HETATM   11  H24 UNL     1     -35.275   3.819   3.855  1.00 20.00     0.210 HD
ENDBRANCH   8  10
ENDBRANCH   3   4
TORSDOF 2
ENDMDL
MODEL 4
REMARK VINA RESULT:      -0.9      1.193      1.943
REMARK  2 active torsions:
REMARK  status: ('A' for Active; 'I' for Inactive)
REMARK    1  A    between atoms: C7_7  and  C9_9 
REMARK    2  A    between atoms: C8_8  and  O10_10 
ROOT
HETATM    1  C1  UNL     1     -32.543   3.151   6.257  1.00 20.00     0.012 C 
HETATM    2  C2  UNL     1     -32.968   3.125   5.134  1.00 20.00    -0.117 C 
HETATM    3  C9  UNL     1     -33.483   3.080   3.763  1.00 20.00     0.097 C 
ENDROOT
BRANCH   3   4
HETATM    4  C7  UNL     1     -34.029   4.442   3.339  1.00 20.00    -0.001 C 
HETATM    5  C4  UNL     1     -34.813   5.093   4.488  1.00 20.00     0.005 C 
HETATM    6  C3  UNL     1     -35.326   6.482   4.109  1.00 20.00     0.003 C 
HETATM    7  C5  UNL     1     -34.196   7.386   3.631  1.00 20.00     0.032 C 
HETATM    8  C8  UNL     1     -33.410   6.746   2.488  1.00 20.00     0.118 C 
HETATM    9  C6  UNL     1     -32.894   5.358   2.866  1.00 20.00     0.037 C 
BRANCH   8  10
HETATM   10  O10 UNL     1     -32.315   7.584   2.135  1.00 20.00    -0.396 OA
HETATM   11  H24 UNL     1     -31.546   7.002   2.021  1.00 20.00     0.210 HD
ENDBRANCH   8  10
ENDBRANCH   3   4
TORSDOF 2
ENDMDL
MODEL 5
REMARK VINA RESULT:      -0.9      1.731      4.392
REMARK  2 active torsions:
REMARK  status: ('A' for Active; 'I' for Inactive)
REMARK    1  A    between atoms: C7_7  and  C9_9 
REMARK    2  A    between atoms: C8_8  and  O10_10 
ROOT
HETATM    1  C1  UNL     1     -32.725   9.831  -0.435  1.00 20.00     0.012 C 
HETATM    2  C2  UNL     1     -32.330   9.607   0.677  1.00 20.00    -0.117 C 
HETATM    3  C9  UNL     1     -31.845   9.345   2.034  1.00 20.00     0.097 C 
ENDROOT
BRANCH   3   4
HETATM    4  C7  UNL     1     -32.176   7.918   2.469  1.00 20.00    -0.001 C 
HETATM    5  C4  UNL     1     -33.535   7.870   3.181  1.00 20.00     0.005 C 
HETATM    6  C3  UNL     1     -33.916   6.446   3.579  1.00 20.00     0.003 C 
HETATM    7  C5  UNL     1     -33.888   5.501   2.382  1.00 20.00     0.032 C 
HETATM    8  C8  UNL     1     -32.539   5.543   1.667  1.00 20.00     0.118 C 
HETATM    9  C6  UNL     1     -32.157   6.968   1.265  1.00 20.00     0.037 C 
BRANCH   8  10
HETATM   10  O10 UNL     1     -32.587   4.717   0.509  1.00 20.00    -0.396 OA
HETATM   11  H24 UNL     1     -31.770   4.885   0.013  1.00 20.00     0.210 HD
ENDBRANCH   8  10
ENDBRANCH   3   4
TORSDOF 2
ENDMDL
MODEL 6
REMARK VINA RESULT:      -0.7      1.803      2.740
REMARK  2 active torsions:
REMARK  status: ('A' for Active; 'I' for Inactive)
REMARK    1  A    between atoms: C7_7  and  C9_9 
REMARK    2  A    between atoms: C8_8  and  O10_10 
ROOT
HETATM    1  C1  UNL     1     -35.525   5.078   4.539  1.00 20.00     0.012 C 
HETATM    2  C2  UNL     1     -35.026   6.149   4.327  1.00 20.00    -0.117 C 
HETATM    3  C9  UNL     1     -34.425   7.461   4.075  1.00 20.00     0.097 C 
ENDROOT
BRANCH   3   4
HETATM    4  C7  UNL     1     -33.181   7.334   3.197  1.00 20.00    -0.001 C 
HETATM    5  C4  UNL     1     -33.205   6.016   2.410  1.00 20.00     0.005 C 
HETATM    6  C3  UNL     1     -31.998   5.887   1.483  1.00 20.00     0.003 C 
HETATM    7  C5  UNL     1     -31.878   7.085   0.548  1.00 20.00     0.032 C 
HETATM    8  C8  UNL     1     -31.854   8.401   1.323  1.00 20.00     0.118 C 
HETATM    9  C6  UNL     1     -33.063   8.533   2.248  1.00 20.00     0.037 C 
BRANCH   8  10
HETATM   10  O10 UNL     1     -31.830   9.492   0.408  1.00 20.00    -0.396 OA
HETATM   11  H24 UNL     1     -31.346  10.210   0.845  1.00 20.00     0.210 HD
ENDBRANCH   8  10
ENDBRANCH   3   4
TORSDOF 2
ENDMDL
MODEL 7
REMARK VINA RESULT:      -0.6      1.376      2.024
REMARK  2 active torsions:
REMARK  status: ('A' for Active; 'I' for Inactive)
REMARK    1  A    between atoms: C7_7  and  C9_9 
REMARK    2  A    between atoms: C8_8  and  O10_10 
ROOT
HETATM    1  C1  UNL     1     -35.529   4.995   4.604  1.00 20.00     0.012 C 
HETATM    2  C2  UNL     1     -35.039   6.072   4.396  1.00 20.00    -0.117 C 
HETATM    3  C9  UNL     1     -34.445   7.390   4.154  1.00 20.00     0.097 C 
ENDROOT
BRANCH   3   4
HETATM    4  C7  UNL     1     -33.730   7.428   2.804  1.00 20.00    -0.001 C 
HETATM    5  C4  UNL     1     -32.602   8.469   2.818  1.00 20.00     0.005 C 
HETATM    6  C3  UNL     1     -31.835   8.491   1.498  1.00 20.00     0.003 C 
HETATM    7  C5  UNL     1     -31.305   7.109   1.133  1.00 20.00     0.032 C 
HETATM    8  C8  UNL     1     -32.421   6.067   1.117  1.00 20.00     0.118 C 
HETATM    9  C6  UNL     1     -33.187   6.041   2.439  1.00 20.00     0.037 C 
BRANCH   8  10
HETATM   10  O10 UNL     1     -31.868   4.780   0.860  1.00 20.00    -0.396 OA
HETATM   11  H24 UNL     1     -31.735   4.722  -0.099  1.00 20.00     0.210 HD
ENDBRANCH   8  10
ENDBRANCH   3   4
TORSDOF 2
ENDMDL
MODEL 8
REMARK VINA RESULT:      -0.4      1.508      2.313
REMARK  2 active torsions:
REMARK  status: ('A' for Active; 'I' for Inactive)
REMARK    1  A    between atoms: C7_7  and  C9_9 
REMARK    2  A    between atoms: C8_8  and  O10_10 
ROOT
HETATM    1  C1  UNL     1     -33.478   2.847   4.794  1.00 20.00     0.012 C 
HETATM    2  C2  UNL     1     -33.824   3.894   4.319  1.00 20.00    -0.117 C 
HETATM    3  C9  UNL     1     -34.257   5.170   3.743  1.00 20.00     0.097 C 
ENDROOT
BRANCH   3   4
HETATM    4  C7  UNL     1     -33.100   5.871   3.033  1.00 20.00    -0.001 C 
HETATM    5  C4  UNL     1     -32.817   5.210   1.676  1.00 20.00     0.005 C 
HETATM    6  C3  UNL     1     -31.699   5.925   0.919  1.00 20.00     0.003 C 
HETATM    7  C5  UNL     1     -31.992   7.412   0.758  1.00 20.00     0.032 C 
HETATM    8  C8  UNL     1     -32.275   8.077   2.104  1.00 20.00     0.118 C 
HETATM    9  C6  UNL     1     -33.395   7.366   2.861  1.00 20.00     0.037 C 
BRANCH   8  10
HETATM   10  O10 UNL     1     -32.629   9.440   1.896  1.00 20.00    -0.396 OA
HETATM   11  H24 UNL     1     -32.357   9.663   0.991  1.00 20.00     0.210 HD
ENDBRANCH   8  10
ENDBRANCH   3   4
TORSDOF 2
ENDMDL
MODEL 9
REMARK VINA RESULT:       0.0      2.225      3.601
REMARK  2 active torsions:
REMARK  status: ('A' for Active; 'I' for Inactive)
REMARK    1  A    between atoms: C7_7  and  C9_9 
REMARK    2  A    between atoms: C8_8  and  O10_10 
ROOT
HETATM    1  C1  UNL     1     -34.141   4.448  -0.420  1.00 20.00     0.012 C 
HETATM    2  C2  UNL     1     -33.257   4.893   0.260  1.00 20.00    -0.117 C 
HETATM    3  C9  UNL     1     -32.171   5.435   1.081  1.00 20.00     0.097 C 
ENDROOT
BRANCH   3   4
HETATM    4  C7  UNL     1     -32.695   5.914   2.434  1.00 20.00    -0.001 C 
HETATM    5  C4  UNL     1     -33.067   7.403   2.375  1.00 20.00     0.005 C 
HETATM    6  C3  UNL     1     -33.645   7.896   3.700  1.00 20.00     0.003 C 
HETATM    7  C5  UNL     1     -34.831   7.048   4.146  1.00 20.00     0.032 C 
HETATM    8  C8  UNL     1     -34.469   5.566   4.208  1.00 20.00     0.118 C 
HETATM    9  C6  UNL     1     -33.894   5.070   2.881  1.00 20.00     0.037 C 
BRANCH   8  10
HETATM   10  O10 UNL     1     -35.625   4.806   4.541  1.00 20.00    -0.396 OA
HETATM   11  H24 UNL     1     -35.420   3.881   4.332  1.00 20.00     0.210 HD
ENDBRANCH   8  10
ENDBRANCH   3   4
TORSDOF 2
ENDMDL
