MODEL 1
REMARK VINA RESULT:      -1.6      0.000      0.000
REMARK  2 active torsions:
REMARK  status: ('A' for Active; 'I' for Inactive)
REMARK    1  A    between atoms: C5_5  and  C8_8 
REMARK    2  A    between atoms: C8_8  and  C9_9 
ROOT
HETATM    1  C1  UNL     1     -33.854   7.689   4.271  1.00 20.00     0.002 C 
HETATM    2  C2  UNL     1     -34.711   6.630   3.577  1.00 20.00     0.005 C 
HETATM    3  C3  UNL     1     -32.686   8.191   3.419  1.00 20.00     0.020 C 
HETATM    4  C4  UNL     1     -33.009   6.372   1.694  1.00 20.00     0.024 C 
HETATM    5  C5  UNL     1     -33.894   5.648   2.730  1.00 20.00    -0.013 C 
HETATM    6  C6  UNL     1     -32.886   7.880   1.939  1.00 20.00     0.082 C 
HETATM    7 CL10 UNL     1     -31.534   8.546   0.978  1.00 20.00    -0.125 Cl
ENDROOT
BRANCH   5   8
HETATM    8  C8  UNL     1     -33.056   4.719   3.615  1.00 20.00     0.004 C 
BRANCH   8   9
HETATM    9  C9  UNL     1     -33.942   3.762   4.405  1.00 20.00    -0.004 C 
HETATM   10  C7  UNL     1     -33.153   2.558   4.894  1.00 20.00     0.005 C 
ENDBRANCH   8   9
ENDBRANCH   5   8
TORSDOF 2
ENDMDL
MODEL 2
REMARK VINA RESULT:      -0.5      2.321      4.694
REMARK  2 active torsions:
REMARK  status: ('A' for Active; 'I' for Inactive)
REMARK    1  A    between atoms: C5_5  and  C8_8 
REMARK    2  A    between atoms: C8_8  and  C9_9 
ROOT
HETATM    1  C1  UNL     1     -33.934   7.207   3.617  1.00 20.00     0.002 C 
HETATM    2  C2  UNL     1     -32.644   8.027   3.660  1.00 20.00     0.005 C 
HETATM    3  C3  UNL     1     -33.986   6.200   2.466  1.00 20.00     0.020 C 
HETATM    4  C4  UNL     1     -31.940   7.186   1.356  1.00 20.00     0.024 C 
HETATM    5  C5  UNL     1     -32.126   8.415   2.270  1.00 20.00    -0.013 C 
HETATM    6  C6  UNL     1     -32.600   5.913   1.898  1.00 20.00     0.082 C 
HETATM    7 CL10 UNL     1     -32.704   4.683   0.605  1.00 20.00    -0.125 Cl
ENDROOT
BRANCH   5   8
HETATM    8  C8  UNL     1     -33.038   9.457   1.612  1.00 20.00     0.004 C 
BRANCH   8   9
HETATM    9  C9  UNL     1     -32.281  10.270   0.567  1.00 20.00    -0.004 C 
HETATM   10  C7  UNL     1     -32.738   9.919  -0.840  1.00 20.00     0.005 C 
ENDBRANCH   8   9
ENDBRANCH   5   8
TORSDOF 2
ENDMDL
MODEL 3
REMARK VINA RESULT:      -0.5      2.330      4.674
REMARK  2 active torsions:
REMARK  status: ('A' for Active; 'I' for Inactive)
REMARK    1  A    between atoms: C5_5  and  C8_8 
REMARK    2  A    between atoms: C8_8  and  C9_9 
ROOT
HETATM    1  C1  UNL     1     -33.539   8.292   3.855  1.00 20.00     0.002 C 
HETATM    2  C2  UNL     1     -32.154   8.280   3.207  1.00 20.00     0.005 C 
HETATM    3  C3  UNL     1     -34.281   6.957   3.748  1.00 20.00     0.020 C 
HETATM    4  C4  UNL     1     -32.603   6.023   2.105  1.00 20.00     0.024 C 
HETATM    5  C5  UNL     1     -32.101   7.468   1.907  1.00 20.00    -0.013 C 
HETATM    6  C6  UNL     1     -33.335   5.803   3.434  1.00 20.00     0.082 C 
HETATM    7 CL10 UNL     1     -34.235   4.260   3.387  1.00 20.00    -0.125 Cl
ENDROOT
BRANCH   5   8
HETATM    8  C8  UNL     1     -32.873   8.170   0.785  1.00 20.00     0.004 C 
BRANCH   8   9
HETATM    9  C9  UNL     1     -32.048   9.294   0.167  1.00 20.00    -0.004 C 
HETATM   10  C7  UNL     1     -32.736  10.639   0.339  1.00 20.00     0.005 C 
ENDBRANCH   8   9
ENDBRANCH   5   8
TORSDOF 2
ENDMDL
MODEL 4
REMARK VINA RESULT:       0.3      1.215      2.378
REMARK  2 active torsions:
REMARK  status: ('A' for Active; 'I' for Inactive)
REMARK    1  A    between atoms: C5_5  and  C8_8 
REMARK    2  A    between atoms: C8_8  and  C9_9 
ROOT
HETATM    1  C1  UNL     1     -32.860   5.675   1.154  1.00 20.00     0.002 C 
HETATM    2  C2  UNL     1     -32.657   5.628   2.669  1.00 20.00     0.005 C 
HETATM    3  C3  UNL     1     -32.856   7.093   0.576  1.00 20.00     0.020 C 
HETATM    4  C4  UNL     1     -32.959   8.153   2.868  1.00 20.00     0.024 C 
HETATM    5  C5  UNL     1     -33.364   6.767   3.411  1.00 20.00    -0.013 C 
HETATM    6  C6  UNL     1     -32.213   8.094   1.530  1.00 20.00     0.082 C 
HETATM    7 CL10 UNL     1     -32.169   9.718   0.784  1.00 20.00    -0.125 Cl
ENDROOT
BRANCH   5   8
HETATM    8  C8  UNL     1     -34.886   6.587   3.379  1.00 20.00     0.004 C 
BRANCH   8   9
HETATM    9  C9  UNL     1     -35.346   5.592   4.438  1.00 20.00    -0.004 C 
HETATM   10  C7  UNL     1     -34.467   4.352   4.448  1.00 20.00     0.005 C 
ENDBRANCH   8   9
ENDBRANCH   5   8
TORSDOF 2
ENDMDL
MODEL 5
REMARK VINA RESULT:       0.4      2.442      4.713
REMARK  2 active torsions:
REMARK  status: ('A' for Active; 'I' for Inactive)
REMARK    1  A    between atoms: C5_5  and  C8_8 
REMARK    2  A    between atoms: C8_8  and  C9_9 
ROOT
HETATM    1  C1  UNL     1     -32.305   5.101   1.219  1.00 20.00     0.002 C 
HETATM    2  C2  UNL     1     -33.237   6.274   0.914  1.00 20.00     0.005 C 
HETATM    3  C3  UNL     1     -32.507   4.499   2.611  1.00 20.00     0.020 C 
HETATM    4  C4  UNL     1     -33.999   6.402   3.345  1.00 20.00     0.024 C 
HETATM    5  C5  UNL     1     -33.479   7.186   2.122  1.00 20.00    -0.013 C 
HETATM    6  C6  UNL     1     -33.858   4.882   3.206  1.00 20.00     0.082 C 
HETATM    7 CL10 UNL     1     -34.077   4.101   4.799  1.00 20.00    -0.125 Cl
ENDROOT
BRANCH   5   8
HETATM    8  C8  UNL     1     -32.218   7.982   2.475  1.00 20.00     0.004 C 
BRANCH   8   9
HETATM    9  C9  UNL     1     -31.588   8.598   1.230  1.00 20.00    -0.004 C 
HETATM   10  C7  UNL     1     -32.469   9.694   0.652  1.00 20.00     0.005 C 
ENDBRANCH   8   9
ENDBRANCH   5   8
TORSDOF 2
ENDMDL
MODEL 6
REMARK VINA RESULT:       1.3      2.603      3.928
REMARK  2 active torsions:
REMARK  status: ('A' for Active; 'I' for Inactive)
REMARK    1  A    between atoms: C5_5  and  C8_8 
REMARK    2  A    between atoms: C8_8  and  C9_9 
ROOT
HETATM    1  C1  UNL     1     -35.304   6.491   3.970  1.00 20.00     0.002 C 
HETATM    2  C2  UNL     1     -33.997   7.236   3.693  1.00 20.00     0.005 C 
HETATM    3  C3  UNL     1     -35.133   4.975   4.099  1.00 20.00     0.020 C 
HETATM    4  C4  UNL     1     -32.756   5.052   3.245  1.00 20.00     0.024 C 
HETATM    5  C5  UNL     1     -33.059   6.481   2.745  1.00 20.00    -0.013 C 
HETATM    6  C6  UNL     1     -33.684   4.587   4.372  1.00 20.00     0.082 C 
HETATM    7 CL10 UNL     1     -33.547   2.817   4.583  1.00 20.00    -0.125 Cl
ENDROOT
BRANCH   5   8
HETATM    8  C8  UNL     1     -33.616   6.457   1.317  1.00 20.00     0.004 C 
BRANCH   8   9
HETATM    9  C9  UNL     1     -33.104   5.246   0.545  1.00 20.00    -0.004 C 
HETATM   10  C7  UNL     1     -34.165   4.707  -0.401  1.00 20.00     0.005 C 
ENDBRANCH   8   9
ENDBRANCH   5   8
TORSDOF 2
ENDMDL
