MODEL 1
REMARK VINA RESULT:       0.7      0.000      0.000
REMARK  2 active torsions:
REMARK  status: ('A' for Active; 'I' for Inactive)
REMARK    1  A    between atoms: C4_4  and  C10_10 
REMARK    2  A    between atoms: C8_8  and  C10_10 
ROOT
HETATM    1  C5  UNL     1     -35.104   6.502   4.112  1.00 20.00     0.006 C 
HETATM    2  C6  UNL     1     -35.260   5.004   4.329  1.00 20.00     0.020 C 
HETATM    3  C7  UNL     1     -33.101   5.332   3.318  1.00 20.00     0.025 C 
HETATM    4  C8  UNL     1     -33.930   6.616   3.131  1.00 20.00    -0.009 C 
HETATM    5  C9  UNL     1     -33.813   4.545   4.417  1.00 20.00     0.082 C 
HETATM    6 CL12 UNL     1     -33.648   2.795   4.217  1.00 20.00    -0.125 Cl
ENDROOT
BRANCH   4   7
HETATM    7  C10 UNL     1     -33.119   7.885   3.342  1.00 20.00     0.043 C 
BRANCH   7   8
HETATM    8  C4  UNL     1     -32.630   8.461   2.039  1.00 20.00    -0.051 A 
HETATM    9  C1  UNL     1     -31.645   7.842   1.217  1.00 20.00     0.014 A 
HETATM   10  C2  UNL     1     -31.379   8.579   0.083  1.00 20.00     0.050 A 
HETATM   11  S11 UNL     1     -32.317  10.011   0.014  1.00 20.00    -0.113 SA
HETATM   12  C3  UNL     1     -33.081   9.647   1.503  1.00 20.00     0.056 A 
ENDBRANCH   7   8
ENDBRANCH   4   7
TORSDOF 2
ENDMDL
MODEL 2
REMARK VINA RESULT:       0.9      0.640      1.173
REMARK  2 active torsions:
REMARK  status: ('A' for Active; 'I' for Inactive)
REMARK    1  A    between atoms: C4_4  and  C10_10 
REMARK    2  A    between atoms: C8_8  and  C10_10 
ROOT
HETATM    1  C5  UNL     1     -35.126   6.519   4.081  1.00 20.00     0.006 C 
HETATM    2  C6  UNL     1     -35.270   5.021   4.306  1.00 20.00     0.020 C 
HETATM    3  C7  UNL     1     -33.109   5.363   3.304  1.00 20.00     0.025 C 
HETATM    4  C8  UNL     1     -33.948   6.638   3.105  1.00 20.00    -0.009 C 
HETATM    5  C9  UNL     1     -33.819   4.576   4.403  1.00 20.00     0.082 C 
HETATM    6 CL12 UNL     1     -33.638   2.826   4.214  1.00 20.00    -0.125 Cl
ENDROOT
BRANCH   4   7
HETATM    7  C10 UNL     1     -33.149   7.916   3.312  1.00 20.00     0.043 C 
BRANCH   7   8
HETATM    8  C4  UNL     1     -32.618   8.462   2.014  1.00 20.00    -0.051 A 
HETATM    9  C1  UNL     1     -33.042   9.693   1.438  1.00 20.00     0.014 A 
HETATM   10  C2  UNL     1     -32.399   9.958   0.248  1.00 20.00     0.050 A 
HETATM   11  S11 UNL     1     -31.288   8.723  -0.169  1.00 20.00    -0.113 SA
HETATM   12  C3  UNL     1     -31.666   7.831   1.243  1.00 20.00     0.056 A 
ENDBRANCH   7   8
ENDBRANCH   4   7
TORSDOF 2
ENDMDL
MODEL 3
REMARK VINA RESULT:       1.9      3.522      5.332
REMARK  2 active torsions:
REMARK  status: ('A' for Active; 'I' for Inactive)
REMARK    1  A    between atoms: C4_4  and  C10_10 
REMARK    2  A    between atoms: C8_8  and  C10_10 
ROOT
HETATM    1  C5  UNL     1     -32.115   7.985   2.724  1.00 20.00     0.006 C 
HETATM    2  C6  UNL     1     -31.995   9.416   2.221  1.00 20.00     0.020 C 
HETATM    3  C7  UNL     1     -32.103   8.008   0.273  1.00 20.00     0.025 C 
HETATM    4  C8  UNL     1     -31.782   7.129   1.496  1.00 20.00    -0.009 C 
HETATM    5  C9  UNL     1     -32.633   9.321   0.844  1.00 20.00     0.082 C 
HETATM    6 CL12 UNL     1     -32.245  10.714  -0.176  1.00 20.00    -0.125 Cl
ENDROOT
BRANCH   4   7
HETATM    7  C10 UNL     1     -32.531   5.805   1.491  1.00 20.00     0.043 C 
BRANCH   7   8
HETATM    8  C4  UNL     1     -33.522   5.717   2.621  1.00 20.00    -0.051 A 
HETATM    9  C1  UNL     1     -34.409   6.771   2.983  1.00 20.00     0.014 A 
HETATM   10  C2  UNL     1     -35.209   6.430   4.052  1.00 20.00     0.050 A 
HETATM   11  S11 UNL     1     -34.889   4.844   4.614  1.00 20.00    -0.113 SA
HETATM   12  C3  UNL     1     -33.677   4.610   3.427  1.00 20.00     0.056 A 
ENDBRANCH   7   8
ENDBRANCH   4   7
TORSDOF 2
ENDMDL
MODEL 4
REMARK VINA RESULT:       2.1      3.372      5.232
REMARK  2 active torsions:
REMARK  status: ('A' for Active; 'I' for Inactive)
REMARK    1  A    between atoms: C4_4  and  C10_10 
REMARK    2  A    between atoms: C8_8  and  C10_10 
ROOT
HETATM    1  C5  UNL     1     -32.067   7.884   2.718  1.00 20.00     0.006 C 
HETATM    2  C6  UNL     1     -31.959   9.326   2.245  1.00 20.00     0.020 C 
HETATM    3  C7  UNL     1     -32.081   7.960   0.267  1.00 20.00     0.025 C 
HETATM    4  C8  UNL     1     -31.743   7.056   1.468  1.00 20.00    -0.009 C 
HETATM    5  C9  UNL     1     -32.612   9.258   0.873  1.00 20.00     0.082 C 
HETATM    6 CL12 UNL     1     -32.240  10.675  -0.120  1.00 20.00    -0.125 Cl
ENDROOT
BRANCH   4   7
HETATM    7  C10 UNL     1     -32.485   5.729   1.441  1.00 20.00     0.043 C 
BRANCH   7   8
HETATM    8  C4  UNL     1     -33.457   5.607   2.586  1.00 20.00    -0.051 A 
HETATM    9  C1  UNL     1     -33.557   4.459   3.423  1.00 20.00     0.014 A 
HETATM   10  C2  UNL     1     -34.526   4.607   4.391  1.00 20.00     0.050 A 
HETATM   11  S11 UNL     1     -35.309   6.127   4.288  1.00 20.00    -0.113 SA
HETATM   12  C3  UNL     1     -34.352   6.590   2.945  1.00 20.00     0.056 A 
ENDBRANCH   7   8
ENDBRANCH   4   7
TORSDOF 2
ENDMDL
MODEL 5
REMARK VINA RESULT:       2.3      3.538      5.696
REMARK  2 active torsions:
REMARK  status: ('A' for Active; 'I' for Inactive)
REMARK    1  A    between atoms: C4_4  and  C10_10 
REMARK    2  A    between atoms: C8_8  and  C10_10 
ROOT
HETATM    1  C5  UNL     1     -31.228   7.980   1.512  1.00 20.00     0.006 C 
HETATM    2  C6  UNL     1     -31.127   8.795   0.231  1.00 20.00     0.020 C 
HETATM    3  C7  UNL     1     -33.356   9.118   1.078  1.00 20.00     0.025 C 
HETATM    4  C8  UNL     1     -32.736   7.897   1.783  1.00 20.00    -0.009 C 
HETATM    5  C9  UNL     1     -32.180   9.869   0.456  1.00 20.00     0.082 C 
HETATM    6 CL12 UNL     1     -32.620  10.703  -1.041  1.00 20.00    -0.125 Cl
ENDROOT
BRANCH   4   7
HETATM    7  C10 UNL     1     -33.057   7.841   3.269  1.00 20.00     0.043 C 
BRANCH   7   8
HETATM    8  C4  UNL     1     -33.748   6.557   3.645  1.00 20.00    -0.051 A 
HETATM    9  C1  UNL     1     -35.069   6.491   4.171  1.00 20.00     0.014 A 
HETATM   10  C2  UNL     1     -35.459   5.195   4.431  1.00 20.00     0.050 A 
HETATM   11  S11 UNL     1     -34.232   4.065   4.041  1.00 20.00    -0.113 SA
HETATM   12  C3  UNL     1     -33.176   5.309   3.522  1.00 20.00     0.056 A 
ENDBRANCH   7   8
ENDBRANCH   4   7
TORSDOF 2
ENDMDL
MODEL 6
REMARK VINA RESULT:       3.0      1.579      2.370
REMARK  2 active torsions:
REMARK  status: ('A' for Active; 'I' for Inactive)
REMARK    1  A    between atoms: C4_4  and  C10_10 
REMARK    2  A    between atoms: C8_8  and  C10_10 
ROOT
HETATM    1  C5  UNL     1     -32.733   6.725   1.911  1.00 20.00     0.006 C 
HETATM    2  C6  UNL     1     -33.760   5.718   2.405  1.00 20.00     0.020 C 
HETATM    3  C7  UNL     1     -33.547   7.383   4.128  1.00 20.00     0.025 C 
HETATM    4  C8  UNL     1     -32.348   7.512   3.170  1.00 20.00    -0.009 C 
HETATM    5  C9  UNL     1     -34.583   6.553   3.373  1.00 20.00     0.082 C 
HETATM    6 CL12 UNL     1     -35.573   5.557   4.448  1.00 20.00    -0.125 Cl
ENDROOT
BRANCH   4   7
HETATM    7  C10 UNL     1     -31.983   8.957   2.863  1.00 20.00     0.043 C 
BRANCH   7   8
HETATM    8  C4  UNL     1     -32.110   9.267   1.395  1.00 20.00    -0.051 A 
HETATM    9  C1  UNL     1     -32.949  10.290   0.869  1.00 20.00     0.014 A 
HETATM   10  C2  UNL     1     -32.879  10.363  -0.505  1.00 20.00     0.050 A 
HETATM   11  S11 UNL     1     -31.803   9.199  -1.155  1.00 20.00    -0.113 SA
HETATM   12  C3  UNL     1     -31.429   8.596   0.404  1.00 20.00     0.056 A 
ENDBRANCH   7   8
ENDBRANCH   4   7
TORSDOF 2
ENDMDL
MODEL 7
REMARK VINA RESULT:       3.5      1.718      2.615
REMARK  2 active torsions:
REMARK  status: ('A' for Active; 'I' for Inactive)
REMARK    1  A    between atoms: C4_4  and  C10_10 
REMARK    2  A    between atoms: C8_8  and  C10_10 
ROOT
HETATM    1  C5  UNL     1     -32.308   5.253   1.843  1.00 20.00     0.006 C 
HETATM    2  C6  UNL     1     -33.409   5.025   2.868  1.00 20.00     0.020 C 
HETATM    3  C7  UNL     1     -33.144   7.408   2.661  1.00 20.00     0.025 C 
HETATM    4  C8  UNL     1     -31.912   6.722   2.041  1.00 20.00    -0.009 C 
HETATM    5  C9  UNL     1     -34.207   6.316   2.768  1.00 20.00     0.082 C 
HETATM    6 CL12 UNL     1     -35.287   6.549   4.150  1.00 20.00    -0.125 Cl
ENDROOT
BRANCH   4   7
HETATM    7  C10 UNL     1     -31.452   7.379   0.749  1.00 20.00     0.043 C 
BRANCH   7   8
HETATM    8  C4  UNL     1     -32.032   8.759   0.584  1.00 20.00    -0.051 A 
HETATM    9  C1  UNL     1     -32.534   9.267  -0.648  1.00 20.00     0.014 A 
HETATM   10  C2  UNL     1     -33.005  10.557  -0.523  1.00 20.00     0.050 A 
HETATM   11  S11 UNL     1     -32.840  11.148   1.076  1.00 20.00    -0.113 SA
HETATM   12  C3  UNL     1     -32.137   9.678   1.605  1.00 20.00     0.056 A 
ENDBRANCH   7   8
ENDBRANCH   4   7
TORSDOF 2
ENDMDL
MODEL 8
REMARK VINA RESULT:       3.7      3.690      5.728
REMARK  2 active torsions:
REMARK  status: ('A' for Active; 'I' for Inactive)
REMARK    1  A    between atoms: C4_4  and  C10_10 
REMARK    2  A    between atoms: C8_8  and  C10_10 
ROOT
HETATM    1  C5  UNL     1     -32.751   8.349  -0.269  1.00 20.00     0.006 C 
HETATM    2  C6  UNL     1     -32.717   9.862  -0.423  1.00 20.00     0.020 C 
HETATM    3  C7  UNL     1     -32.564   9.408   1.935  1.00 20.00     0.025 C 
HETATM    4  C8  UNL     1     -33.051   8.133   1.220  1.00 20.00    -0.009 C 
HETATM    5  C9  UNL     1     -31.979  10.292   0.835  1.00 20.00     0.082 C 
HETATM    6 CL12 UNL     1     -32.174  12.018   1.173  1.00 20.00    -0.125 Cl
ENDROOT
BRANCH   4   7
HETATM    7  C10 UNL     1     -32.411   6.865   1.764  1.00 20.00     0.043 C 
BRANCH   7   8
HETATM    8  C4  UNL     1     -33.310   6.159   2.744  1.00 20.00    -0.051 A 
HETATM    9  C1  UNL     1     -34.393   6.787   3.423  1.00 20.00     0.014 A 
HETATM   10  C2  UNL     1     -35.053   5.916   4.264  1.00 20.00     0.050 A 
HETATM   11  S11 UNL     1     -34.364   4.348   4.231  1.00 20.00    -0.113 SA
HETATM   12  C3  UNL     1     -33.181   4.832   3.091  1.00 20.00     0.056 A 
ENDBRANCH   7   8
ENDBRANCH   4   7
TORSDOF 2
ENDMDL
