MODEL 1
REMARK VINA RESULT:      -1.0      0.000      0.000
REMARK  1 active torsions:
REMARK  status: ('A' for Active; 'I' for Inactive)
REMARK    1  A    between atoms: C8_8  and  C10_10 
ROOT
HETATM    1  C1  UNL     1     -32.290  10.011  -0.050  1.00 20.00     0.012 C 
HETATM    2  C2  UNL     1     -32.103   8.955   0.490  1.00 20.00    -0.117 C 
HETATM    3  C10 UNL     1     -31.860   7.666   1.137  1.00 20.00     0.097 C 
ENDROOT
BRANCH   3   4
HETATM    4  C8  UNL     1     -32.966   7.350   2.154  1.00 20.00    -0.002 C 
HETATM    5  C5  UNL     1     -32.830   8.317   3.345  1.00 20.00     0.005 C 
HETATM    6  C3  UNL     1     -34.011   8.351   4.311  1.00 20.00     0.000 C 
HETATM    7  C4  UNL     1     -34.417   7.007   4.909  1.00 20.00     0.001 C 
HETATM    8  C6  UNL     1     -35.098   6.098   3.889  1.00 20.00     0.020 C 
HETATM    9  C9  UNL     1     -34.150   5.234   3.056  1.00 20.00     0.082 C 
HETATM   10  C7  UNL     1     -32.840   5.884   2.602  1.00 20.00     0.025 C 
HETATM   11 CL11 UNL     1     -33.751   3.727   3.956  1.00 20.00    -0.125 Cl
ENDBRANCH   3   4
TORSDOF 1
ENDMDL
MODEL 2
REMARK VINA RESULT:      -0.5      1.474      2.556
REMARK  1 active torsions:
REMARK  status: ('A' for Active; 'I' for Inactive)
REMARK    1  A    between atoms: C8_8  and  C10_10 
ROOT
HETATM    1  C1  UNL     1     -32.753   9.916  -0.398  1.00 20.00     0.012 C 
HETATM    2  C2  UNL     1     -32.291   9.553   0.649  1.00 20.00    -0.117 C 
HETATM    3  C10 UNL     1     -31.719   9.129   1.926  1.00 20.00     0.097 C 
ENDROOT
BRANCH   3   4
HETATM    4  C8  UNL     1     -32.150   7.695   2.267  1.00 20.00    -0.002 C 
HETATM    5  C5  UNL     1     -31.974   6.818   1.013  1.00 20.00     0.005 C 
HETATM    6  C3  UNL     1     -32.070   5.312   1.238  1.00 20.00     0.000 C 
HETATM    7  C4  UNL     1     -33.350   4.824   1.913  1.00 20.00     0.001 C 
HETATM    8  C6  UNL     1     -33.402   5.188   3.394  1.00 20.00     0.020 C 
HETATM    9  C9  UNL     1     -33.985   6.569   3.701  1.00 20.00     0.082 C 
HETATM   10  C7  UNL     1     -33.612   7.706   2.746  1.00 20.00     0.025 C 
HETATM   11 CL11 UNL     1     -35.780   6.465   3.784  1.00 20.00    -0.125 Cl
ENDBRANCH   3   4
TORSDOF 1
ENDMDL
MODEL 3
REMARK VINA RESULT:      -0.2      2.330      4.543
REMARK  1 active torsions:
REMARK  status: ('A' for Active; 'I' for Inactive)
REMARK    1  A    between atoms: C8_8  and  C10_10 
ROOT
HETATM    1  C1  UNL     1     -33.082   2.637   5.079  1.00 20.00     0.012 C 
HETATM    2  C2  UNL     1     -33.378   3.314   4.132  1.00 20.00    -0.117 C 
HETATM    3  C10 UNL     1     -33.744   4.123   2.970  1.00 20.00     0.097 C 
ENDROOT
BRANCH   3   4
HETATM    4  C8  UNL     1     -33.390   5.599   3.200  1.00 20.00    -0.002 C 
HETATM    5  C5  UNL     1     -34.616   6.310   3.803  1.00 20.00     0.005 C 
HETATM    6  C3  UNL     1     -34.362   7.704   4.371  1.00 20.00     0.000 C 
HETATM    7  C4  UNL     1     -33.729   8.706   3.409  1.00 20.00     0.001 C 
HETATM    8  C6  UNL     1     -32.260   8.399   3.133  1.00 20.00     0.020 C 
HETATM    9  C9  UNL     1     -32.006   7.417   1.988  1.00 20.00     0.082 C 
HETATM   10  C7  UNL     1     -32.971   6.234   1.864  1.00 20.00     0.025 C 
HETATM   11 CL11 UNL     1     -31.993   8.303   0.421  1.00 20.00    -0.125 Cl
ENDBRANCH   3   4
TORSDOF 1
ENDMDL
MODEL 4
REMARK VINA RESULT:      -0.1      1.482      2.029
REMARK  1 active torsions:
REMARK  status: ('A' for Active; 'I' for Inactive)
REMARK    1  A    between atoms: C8_8  and  C10_10 
ROOT
HETATM    1  C1  UNL     1     -32.803  10.375  -0.735  1.00 20.00     0.012 C 
HETATM    2  C2  UNL     1     -32.540   9.955   0.359  1.00 20.00    -0.117 C 
HETATM    3  C10 UNL     1     -32.209   9.459   1.694  1.00 20.00     0.097 C 
ENDROOT
BRANCH   3   4
HETATM    4  C8  UNL     1     -32.848   8.085   1.938  1.00 20.00    -0.002 C 
HETATM    5  C5  UNL     1     -33.319   8.014   3.403  1.00 20.00     0.005 C 
HETATM    6  C3  UNL     1     -34.237   6.845   3.749  1.00 20.00     0.000 C 
HETATM    7  C4  UNL     1     -33.696   5.457   3.417  1.00 20.00     0.001 C 
HETATM    8  C6  UNL     1     -33.683   5.182   1.916  1.00 20.00     0.020 C 
HETATM    9  C9  UNL     1     -32.423   5.647   1.183  1.00 20.00     0.082 C 
HETATM   10  C7  UNL     1     -31.821   6.984   1.622  1.00 20.00     0.025 C 
HETATM   11 CL11 UNL     1     -31.147   4.384   1.306  1.00 20.00    -0.125 Cl
ENDBRANCH   3   4
TORSDOF 1
ENDMDL
MODEL 5
REMARK VINA RESULT:       0.1      2.256      4.880
REMARK  1 active torsions:
REMARK  status: ('A' for Active; 'I' for Inactive)
REMARK    1  A    between atoms: C8_8  and  C10_10 
ROOT
HETATM    1  C1  UNL     1     -33.233   2.935   4.829  1.00 20.00     0.012 C 
HETATM    2  C2  UNL     1     -33.923   3.864   4.505  1.00 20.00    -0.117 C 
HETATM    3  C10 UNL     1     -34.778   4.987   4.121  1.00 20.00     0.097 C 
ENDROOT
BRANCH   3   4
HETATM    4  C8  UNL     1     -34.035   5.936   3.170  1.00 20.00    -0.002 C 
HETATM    5  C5  UNL     1     -33.136   5.098   2.241  1.00 20.00     0.005 C 
HETATM    6  C3  UNL     1     -32.550   5.836   1.041  1.00 20.00     0.000 C 
HETATM    7  C4  UNL     1     -31.754   7.098   1.365  1.00 20.00     0.001 C 
HETATM    8  C6  UNL     1     -32.648   8.251   1.813  1.00 20.00     0.020 C 
HETATM    9  C9  UNL     1     -32.960   8.285   3.310  1.00 20.00     0.082 C 
HETATM   10  C7  UNL     1     -33.211   6.939   3.996  1.00 20.00     0.025 C 
HETATM   11 CL11 UNL     1     -31.634   9.128   4.188  1.00 20.00    -0.125 Cl
ENDBRANCH   3   4
TORSDOF 1
ENDMDL
MODEL 6
REMARK VINA RESULT:       1.2      2.742      3.935
REMARK  1 active torsions:
REMARK  status: ('A' for Active; 'I' for Inactive)
REMARK    1  A    between atoms: C8_8  and  C10_10 
ROOT
HETATM    1  C1  UNL     1     -34.265   4.155  -0.729  1.00 20.00     0.012 C 
HETATM    2  C2  UNL     1     -33.315   4.344  -0.019  1.00 20.00    -0.117 C 
HETATM    3  C10 UNL     1     -32.149   4.560   0.836  1.00 20.00     0.097 C 
ENDROOT
BRANCH   3   4
HETATM    4  C8  UNL     1     -32.394   5.724   1.807  1.00 20.00    -0.002 C 
HETATM    5  C5  UNL     1     -33.744   5.498   2.514  1.00 20.00     0.005 C 
HETATM    6  C3  UNL     1     -34.018   6.390   3.722  1.00 20.00     0.000 C 
HETATM    7  C4  UNL     1     -33.924   7.893   3.470  1.00 20.00     0.001 C 
HETATM    8  C6  UNL     1     -32.485   8.361   3.276  1.00 20.00     0.020 C 
HETATM    9  C9  UNL     1     -31.963   8.274   1.841  1.00 20.00     0.082 C 
HETATM   10  C7  UNL     1     -32.382   7.048   1.025  1.00 20.00     0.025 C 
HETATM   11 CL11 UNL     1     -32.442   9.751   0.930  1.00 20.00    -0.125 Cl
ENDBRANCH   3   4
TORSDOF 1
ENDMDL
MODEL 7
REMARK VINA RESULT:       1.2      1.523      2.266
REMARK  1 active torsions:
REMARK  status: ('A' for Active; 'I' for Inactive)
REMARK    1  A    between atoms: C8_8  and  C10_10 
ROOT
HETATM    1  C1  UNL     1     -31.244   4.109   0.267  1.00 20.00     0.012 C 
HETATM    2  C2  UNL     1     -31.621   5.195   0.616  1.00 20.00    -0.117 C 
HETATM    3  C10 UNL     1     -32.066   6.525   1.028  1.00 20.00     0.097 C 
ENDROOT
BRANCH   3   4
HETATM    4  C8  UNL     1     -33.154   6.425   2.107  1.00 20.00    -0.002 C 
HETATM    5  C5  UNL     1     -33.099   7.691   2.981  1.00 20.00     0.005 C 
HETATM    6  C3  UNL     1     -34.287   7.906   3.914  1.00 20.00     0.000 C 
HETATM    7  C4  UNL     1     -34.598   6.755   4.867  1.00 20.00     0.001 C 
HETATM    8  C6  UNL     1     -35.202   5.552   4.148  1.00 20.00     0.020 C 
HETATM    9  C9  UNL     1     -34.187   4.562   3.575  1.00 20.00     0.082 C 
HETATM   10  C7  UNL     1     -32.924   5.153   2.942  1.00 20.00     0.025 C 
HETATM   11 CL11 UNL     1     -33.686   3.397   4.853  1.00 20.00    -0.125 Cl
ENDBRANCH   3   4
TORSDOF 1
ENDMDL
MODEL 8
REMARK VINA RESULT:       1.6      1.877      2.825
REMARK  1 active torsions:
REMARK  status: ('A' for Active; 'I' for Inactive)
REMARK    1  A    between atoms: C8_8  and  C10_10 
ROOT
HETATM    1  C1  UNL     1     -34.085   3.810  -0.690  1.00 20.00     0.012 C 
HETATM    2  C2  UNL     1     -33.303   4.496  -0.089  1.00 20.00    -0.117 C 
HETATM    3  C10 UNL     1     -32.337   5.323   0.632  1.00 20.00     0.097 C 
ENDROOT
BRANCH   3   4
HETATM    4  C8  UNL     1     -33.042   6.185   1.690  1.00 20.00    -0.002 C 
HETATM    5  C5  UNL     1     -32.021   7.178   2.275  1.00 20.00     0.005 C 
HETATM    6  C3  UNL     1     -32.602   8.307   3.122  1.00 20.00     0.000 C 
HETATM    7  C4  UNL     1     -33.479   7.871   4.293  1.00 20.00     0.001 C 
HETATM    8  C6  UNL     1     -34.831   7.329   3.838  1.00 20.00     0.020 C 
HETATM    9  C9  UNL     1     -34.852   5.836   3.505  1.00 20.00     0.082 C 
HETATM   10  C7  UNL     1     -33.627   5.271   2.781  1.00 20.00     0.025 C 
HETATM   11 CL11 UNL     1     -35.109   4.882   5.010  1.00 20.00    -0.125 Cl
ENDBRANCH   3   4
TORSDOF 1
ENDMDL
MODEL 9
REMARK VINA RESULT:       1.7      1.583      4.178
REMARK  1 active torsions:
REMARK  status: ('A' for Active; 'I' for Inactive)
REMARK    1  A    between atoms: C8_8  and  C10_10 
ROOT
HETATM    1  C1  UNL     1     -35.386   4.987   4.507  1.00 20.00     0.012 C 
HETATM    2  C2  UNL     1     -34.986   6.110   4.363  1.00 20.00    -0.117 C 
HETATM    3  C10 UNL     1     -34.512   7.484   4.199  1.00 20.00     0.097 C 
ENDROOT
BRANCH   3   4
HETATM    4  C8  UNL     1     -33.361   7.545   3.186  1.00 20.00    -0.002 C 
HETATM    5  C5  UNL     1     -33.488   8.848   2.375  1.00 20.00     0.005 C 
HETATM    6  C3  UNL     1     -32.275   9.225   1.528  1.00 20.00     0.000 C 
HETATM    7  C4  UNL     1     -31.803   8.162   0.539  1.00 20.00     0.001 C 
HETATM    8  C6  UNL     1     -31.127   6.982   1.232  1.00 20.00     0.020 C 
HETATM    9  C9  UNL     1     -32.073   5.872   1.691  1.00 20.00     0.082 C 
HETATM   10  C7  UNL     1     -33.420   6.307   2.275  1.00 20.00     0.025 C 
HETATM   11 CL11 UNL     1     -32.387   4.739   0.328  1.00 20.00    -0.125 Cl
ENDBRANCH   3   4
TORSDOF 1
ENDMDL
