MODEL 1
REMARK VINA RESULT:      -1.8      0.000      0.000
REMARK  2 active torsions:
REMARK  status: ('A' for Active; 'I' for Inactive)
REMARK    1  A    between atoms: C7_7  and  C10_10 
REMARK    2  A    between atoms: C9_9  and  C10_10 
ROOT
HETATM    1  C1  UNL     1     -32.681  10.011  -0.169  1.00 20.00     0.012 C 
HETATM    2  C2  UNL     1     -32.342   9.281   0.722  1.00 20.00    -0.117 C 
HETATM    3  C9  UNL     1     -31.926   8.392   1.815  1.00 20.00     0.093 C 
ENDROOT
BRANCH   3   4
HETATM    4  C10 UNL     1     -32.448   6.987   1.572  1.00 20.00     0.017 C 
BRANCH   4   5
HETATM    5  C7  UNL     1     -33.199   6.471   2.797  1.00 20.00    -0.012 C 
HETATM    6  C4  UNL     1     -34.703   6.730   2.677  1.00 20.00     0.005 C 
HETATM    7  C3  UNL     1     -35.451   6.323   3.951  1.00 20.00     0.002 C 
HETATM    8  C5  UNL     1     -34.814   5.141   4.688  1.00 20.00     0.020 C 
HETATM    9  C8  UNL     1     -34.051   4.234   3.729  1.00 20.00     0.082 C 
HETATM   10  C6  UNL     1     -32.902   4.977   3.033  1.00 20.00     0.024 C 
HETATM   11 CL11 UNL     1     -33.425   2.801   4.591  1.00 20.00    -0.125 Cl
ENDBRANCH   4   5
ENDBRANCH   3   4
TORSDOF 2
ENDMDL
MODEL 2
REMARK VINA RESULT:      -1.0      1.938      4.690
REMARK  2 active torsions:
REMARK  status: ('A' for Active; 'I' for Inactive)
REMARK    1  A    between atoms: C7_7  and  C10_10 
REMARK    2  A    between atoms: C9_9  and  C10_10 
ROOT
HETATM    1  C1  UNL     1     -33.454   3.365   4.786  1.00 20.00     0.012 C 
HETATM    2  C2  UNL     1     -34.282   4.186   4.501  1.00 20.00    -0.117 C 
HETATM    3  C9  UNL     1     -35.300   5.186   4.152  1.00 20.00     0.093 C 
ENDROOT
BRANCH   3   4
HETATM    4  C10 UNL     1     -34.724   6.583   4.279  1.00 20.00     0.017 C 
BRANCH   4   5
HETATM    5  C7  UNL     1     -33.898   6.942   3.046  1.00 20.00    -0.012 C 
HETATM    6  C4  UNL     1     -32.768   7.913   3.398  1.00 20.00     0.005 C 
HETATM    7  C3  UNL     1     -32.006   8.372   2.150  1.00 20.00     0.002 C 
HETATM    8  C5  UNL     1     -31.953   7.319   1.040  1.00 20.00     0.020 C 
HETATM    9  C8  UNL     1     -32.039   5.907   1.608  1.00 20.00     0.082 C 
HETATM   10  C6  UNL     1     -33.357   5.673   2.360  1.00 20.00     0.024 C 
HETATM   11 CL11 UNL     1     -31.849   4.697   0.308  1.00 20.00    -0.125 Cl
ENDBRANCH   4   5
ENDBRANCH   3   4
TORSDOF 2
ENDMDL
MODEL 3
REMARK VINA RESULT:      -1.0      2.815      5.263
REMARK  2 active torsions:
REMARK  status: ('A' for Active; 'I' for Inactive)
REMARK    1  A    between atoms: C7_7  and  C10_10 
REMARK    2  A    between atoms: C9_9  and  C10_10 
ROOT
HETATM    1  C1  UNL     1     -33.907   3.754   4.494  1.00 20.00     0.012 C 
HETATM    2  C2  UNL     1     -34.463   4.776   4.200  1.00 20.00    -0.117 C 
HETATM    3  C9  UNL     1     -35.148   6.025   3.838  1.00 20.00     0.093 C 
ENDROOT
BRANCH   3   4
HETATM    4  C10 UNL     1     -34.281   7.218   4.193  1.00 20.00     0.017 C 
BRANCH   4   5
HETATM    5  C7  UNL     1     -33.159   7.394   3.172  1.00 20.00    -0.012 C 
HETATM    6  C4  UNL     1     -33.110   6.219   2.193  1.00 20.00     0.005 C 
HETATM    7  C3  UNL     1     -31.916   6.326   1.238  1.00 20.00     0.002 C 
HETATM    8  C5  UNL     1     -31.520   7.768   0.908  1.00 20.00     0.020 C 
HETATM    9  C8  UNL     1     -32.714   8.711   1.012  1.00 20.00     0.082 C 
HETATM   10  C6  UNL     1     -33.298   8.739   2.431  1.00 20.00     0.024 C 
HETATM   11 CL11 UNL     1     -32.255  10.359   0.502  1.00 20.00    -0.125 Cl
ENDBRANCH   4   5
ENDBRANCH   3   4
TORSDOF 2
ENDMDL
MODEL 4
REMARK VINA RESULT:      -0.3      2.075      2.697
REMARK  2 active torsions:
REMARK  status: ('A' for Active; 'I' for Inactive)
REMARK    1  A    between atoms: C7_7  and  C10_10 
REMARK    2  A    between atoms: C9_9  and  C10_10 
ROOT
HETATM    1  C1  UNL     1     -32.982  10.954   0.357  1.00 20.00     0.012 C 
HETATM    2  C2  UNL     1     -32.391   9.947   0.077  1.00 20.00    -0.117 C 
HETATM    3  C9  UNL     1     -31.668   8.717  -0.272  1.00 20.00     0.093 C 
ENDROOT
BRANCH   3   4
HETATM    4  C10 UNL     1     -31.287   7.961   0.988  1.00 20.00     0.017 C 
BRANCH   4   5
HETATM    5  C7  UNL     1     -32.533   7.544   1.766  1.00 20.00    -0.012 C 
HETATM    6  C4  UNL     1     -32.633   6.021   1.881  1.00 20.00     0.005 C 
HETATM    7  C3  UNL     1     -33.938   5.588   2.556  1.00 20.00     0.002 C 
HETATM    8  C5  UNL     1     -34.456   6.588   3.593  1.00 20.00     0.020 C 
HETATM    9  C8  UNL     1     -33.316   7.393   4.207  1.00 20.00     0.082 C 
HETATM   10  C6  UNL     1     -32.566   8.217   3.151  1.00 20.00     0.024 C 
HETATM   11 CL11 UNL     1     -33.931   8.461   5.499  1.00 20.00    -0.125 Cl
ENDBRANCH   4   5
ENDBRANCH   3   4
TORSDOF 2
ENDMDL
MODEL 5
REMARK VINA RESULT:      -0.3      1.669      2.487
REMARK  2 active torsions:
REMARK  status: ('A' for Active; 'I' for Inactive)
REMARK    1  A    between atoms: C7_7  and  C10_10 
REMARK    2  A    between atoms: C9_9  and  C10_10 
ROOT
HETATM    1  C1  UNL     1     -33.263  10.613  -0.443  1.00 20.00     0.012 C 
HETATM    2  C2  UNL     1     -32.346   9.962  -0.024  1.00 20.00    -0.117 C 
HETATM    3  C9  UNL     1     -31.219   9.168   0.485  1.00 20.00     0.093 C 
ENDROOT
BRANCH   3   4
HETATM    4  C10 UNL     1     -31.532   8.651   1.877  1.00 20.00     0.017 C 
BRANCH   4   5
HETATM    5  C7  UNL     1     -32.494   7.467   1.811  1.00 20.00    -0.012 C 
HETATM    6  C4  UNL     1     -31.740   6.147   1.638  1.00 20.00     0.005 C 
HETATM    7  C3  UNL     1     -32.699   4.967   1.452  1.00 20.00     0.002 C 
HETATM    8  C5  UNL     1     -34.031   5.133   2.189  1.00 20.00     0.020 C 
HETATM    9  C8  UNL     1     -33.877   6.020   3.420  1.00 20.00     0.082 C 
HETATM   10  C6  UNL     1     -33.410   7.435   3.050  1.00 20.00     0.024 C 
HETATM   11 CL11 UNL     1     -35.412   6.097   4.329  1.00 20.00    -0.125 Cl
ENDBRANCH   4   5
ENDBRANCH   3   4
TORSDOF 2
ENDMDL
MODEL 6
REMARK VINA RESULT:       0.0      1.671      2.132
REMARK  2 active torsions:
REMARK  status: ('A' for Active; 'I' for Inactive)
REMARK    1  A    between atoms: C7_7  and  C10_10 
REMARK    2  A    between atoms: C9_9  and  C10_10 
ROOT
HETATM    1  C1  UNL     1     -33.110  10.608  -0.440  1.00 20.00     0.012 C 
HETATM    2  C2  UNL     1     -32.363   9.915   0.194  1.00 20.00    -0.117 C 
HETATM    3  C9  UNL     1     -31.444   9.068   0.966  1.00 20.00     0.093 C 
ENDROOT
BRANCH   3   4
HETATM    4  C10 UNL     1     -31.917   8.960   2.404  1.00 20.00     0.017 C 
BRANCH   4   5
HETATM    5  C7  UNL     1     -32.415   7.548   2.705  1.00 20.00    -0.012 C 
HETATM    6  C4  UNL     1     -33.835   7.570   3.276  1.00 20.00     0.005 C 
HETATM    7  C3  UNL     1     -34.300   6.171   3.691  1.00 20.00     0.002 C 
HETATM    8  C5  UNL     1     -33.709   5.046   2.836  1.00 20.00     0.020 C 
HETATM    9  C8  UNL     1     -33.373   5.534   1.431  1.00 20.00     0.082 C 
HETATM   10  C6  UNL     1     -32.325   6.656   1.452  1.00 20.00     0.024 C 
HETATM   11 CL11 UNL     1     -32.803   4.178   0.419  1.00 20.00    -0.125 Cl
ENDBRANCH   4   5
ENDBRANCH   3   4
TORSDOF 2
ENDMDL
MODEL 7
REMARK VINA RESULT:       0.5      2.637      5.144
REMARK  2 active torsions:
REMARK  status: ('A' for Active; 'I' for Inactive)
REMARK    1  A    between atoms: C7_7  and  C10_10 
REMARK    2  A    between atoms: C9_9  and  C10_10 
ROOT
HETATM    1  C1  UNL     1     -32.743   2.705   5.487  1.00 20.00     0.012 C 
HETATM    2  C2  UNL     1     -33.436   3.391   4.786  1.00 20.00    -0.117 C 
HETATM    3  C9  UNL     1     -34.286   4.231   3.933  1.00 20.00     0.093 C 
ENDROOT
BRANCH   3   4
HETATM    4  C10 UNL     1     -33.543   4.610   2.666  1.00 20.00     0.017 C 
BRANCH   4   5
HETATM    5  C7  UNL     1     -33.593   6.119   2.440  1.00 20.00    -0.012 C 
HETATM    6  C4  UNL     1     -33.613   6.880   3.768  1.00 20.00     0.005 C 
HETATM    7  C3  UNL     1     -33.783   8.387   3.555  1.00 20.00     0.002 C 
HETATM    8  C5  UNL     1     -33.161   8.899   2.253  1.00 20.00     0.020 C 
HETATM    9  C8  UNL     1     -31.990   8.026   1.816  1.00 20.00     0.082 C 
HETATM   10  C6  UNL     1     -32.427   6.580   1.545  1.00 20.00     0.024 C 
HETATM   11 CL11 UNL     1     -31.205   8.714   0.367  1.00 20.00    -0.125 Cl
ENDBRANCH   4   5
ENDBRANCH   3   4
TORSDOF 2
ENDMDL
MODEL 8
REMARK VINA RESULT:       0.8      2.105      2.438
REMARK  2 active torsions:
REMARK  status: ('A' for Active; 'I' for Inactive)
REMARK    1  A    between atoms: C7_7  and  C10_10 
REMARK    2  A    between atoms: C9_9  and  C10_10 
ROOT
HETATM    1  C1  UNL     1     -32.097   9.932   0.317  1.00 20.00     0.012 C 
HETATM    2  C2  UNL     1     -31.694   8.943   0.866  1.00 20.00    -0.117 C 
HETATM    3  C9  UNL     1     -31.198   7.736   1.540  1.00 20.00     0.093 C 
ENDROOT
BRANCH   3   4
HETATM    4  C10 UNL     1     -32.146   6.576   1.298  1.00 20.00     0.017 C 
BRANCH   4   5
HETATM    5  C7  UNL     1     -33.348   6.655   2.236  1.00 20.00    -0.012 C 
HETATM    6  C4  UNL     1     -33.712   5.275   2.789  1.00 20.00     0.005 C 
HETATM    7  C3  UNL     1     -34.987   5.323   3.638  1.00 20.00     0.002 C 
HETATM    8  C5  UNL     1     -35.187   6.651   4.374  1.00 20.00     0.020 C 
HETATM    9  C8  UNL     1     -33.854   7.333   4.661  1.00 20.00     0.082 C 
HETATM   10  C6  UNL     1     -33.093   7.667   3.371  1.00 20.00     0.024 C 
HETATM   11 CL11 UNL     1     -34.106   8.813   5.628  1.00 20.00    -0.125 Cl
ENDBRANCH   4   5
ENDBRANCH   3   4
TORSDOF 2
ENDMDL
