MODEL 1
REMARK VINA RESULT:      -3.2      0.000      0.000
REMARK  4 active torsions:
REMARK  status: ('A' for Active; 'I' for Inactive)
REMARK    1  A    between atoms: C4_4  and  C6_6 
REMARK    2  A    between atoms: C5_5  and  C8_8 
REMARK    3  A    between atoms: C6_6  and  C7_7 
REMARK    4  A    between atoms: C7_7  and  C8_8 
ROOT
HETATM    1  C1  UNL     1     -32.441   9.865  -0.020  1.00 20.00     0.012 C 
HETATM    2  C2  UNL     1     -32.248   9.083   0.871  1.00 20.00    -0.117 C 
HETATM    3  C4  UNL     1     -32.011   8.131   1.964  1.00 20.00     0.093 C 
ENDROOT
BRANCH   3   4
HETATM    4  C6  UNL     1     -32.071   6.676   1.489  1.00 20.00     0.014 C 
BRANCH   4   5
HETATM    5  C7  UNL     1     -33.390   5.984   1.867  1.00 20.00     0.021 C 
BRANCH   5   6
HETATM    6  C8  UNL     1     -33.583   5.846   3.385  1.00 20.00     0.082 C 
HETATM    7 CL9  UNL     1     -34.447   7.274   4.039  1.00 20.00    -0.125 Cl
BRANCH   6   8
HETATM    8  C5  UNL     1     -34.310   4.551   3.783  1.00 20.00     0.016 C 
HETATM    9  C3  UNL     1     -33.458   3.516   4.507  1.00 20.00     0.006 C 
ENDBRANCH   6   8
ENDBRANCH   5   6
ENDBRANCH   4   5
ENDBRANCH   3   4
TORSDOF 4
ENDMDL
MODEL 2
REMARK VINA RESULT:      -3.1      1.667      4.943
REMARK  4 active torsions:
REMARK  status: ('A' for Active; 'I' for Inactive)
REMARK    1  A    between atoms: C4_4  and  C6_6 
REMARK    2  A    between atoms: C5_5  and  C8_8 
REMARK    3  A    between atoms: C6_6  and  C7_7 
REMARK    4  A    between atoms: C7_7  and  C8_8 
ROOT
HETATM    1  C1  UNL     1     -33.846   3.707   4.297  1.00 20.00     0.012 C 
HETATM    2  C2  UNL     1     -34.439   4.747   4.205  1.00 20.00    -0.117 C 
HETATM    3  C4  UNL     1     -35.168   6.018   4.090  1.00 20.00     0.093 C 
ENDROOT
BRANCH   3   4
HETATM    4  C6  UNL     1     -34.232   7.229   4.124  1.00 20.00     0.014 C 
BRANCH   4   5
HETATM    5  C7  UNL     1     -33.828   7.704   2.719  1.00 20.00     0.021 C 
BRANCH   5   6
HETATM    6  C8  UNL     1     -32.446   7.193   2.286  1.00 20.00     0.082 C 
HETATM    7 CL9  UNL     1     -32.610   5.700   1.307  1.00 20.00    -0.125 Cl
BRANCH   6   8
HETATM    8  C5  UNL     1     -31.626   8.247   1.523  1.00 20.00     0.016 C 
HETATM    9  C3  UNL     1     -32.440   9.243   0.706  1.00 20.00     0.006 C 
ENDBRANCH   6   8
ENDBRANCH   5   6
ENDBRANCH   4   5
ENDBRANCH   3   4
TORSDOF 4
ENDMDL
MODEL 3
REMARK VINA RESULT:      -2.9      1.511      1.971
REMARK  4 active torsions:
REMARK  status: ('A' for Active; 'I' for Inactive)
REMARK    1  A    between atoms: C4_4  and  C6_6 
REMARK    2  A    between atoms: C5_5  and  C8_8 
REMARK    3  A    between atoms: C6_6  and  C7_7 
REMARK    4  A    between atoms: C7_7  and  C8_8 
ROOT
HETATM    1  C1  UNL     1     -32.585  10.059  -0.028  1.00 20.00     0.012 C 
HETATM    2  C2  UNL     1     -32.270   9.158   0.700  1.00 20.00    -0.117 C 
HETATM    3  C4  UNL     1     -31.880   8.058   1.593  1.00 20.00     0.093 C 
ENDROOT
BRANCH   3   4
HETATM    4  C6  UNL     1     -32.751   6.814   1.395  1.00 20.00     0.014 C 
BRANCH   4   5
HETATM    5  C7  UNL     1     -32.722   5.872   2.608  1.00 20.00     0.021 C 
BRANCH   5   6
HETATM    6  C8  UNL     1     -34.125   5.469   3.089  1.00 20.00     0.082 C 
HETATM    7 CL9  UNL     1     -34.030   4.041   4.169  1.00 20.00    -0.125 Cl
BRANCH   6   8
HETATM    8  C5  UNL     1     -34.875   6.617   3.784  1.00 20.00     0.016 C 
HETATM    9  C3  UNL     1     -33.995   7.660   4.462  1.00 20.00     0.006 C 
ENDBRANCH   6   8
ENDBRANCH   5   6
ENDBRANCH   4   5
ENDBRANCH   3   4
TORSDOF 4
ENDMDL
MODEL 4
REMARK VINA RESULT:      -2.7      2.043      4.547
REMARK  4 active torsions:
REMARK  status: ('A' for Active; 'I' for Inactive)
REMARK    1  A    between atoms: C4_4  and  C6_6 
REMARK    2  A    between atoms: C5_5  and  C8_8 
REMARK    3  A    between atoms: C6_6  and  C7_7 
REMARK    4  A    between atoms: C7_7  and  C8_8 
ROOT
HETATM    1  C1  UNL     1     -33.484   3.428   4.263  1.00 20.00     0.012 C 
HETATM    2  C2  UNL     1     -34.316   4.279   4.422  1.00 20.00    -0.117 C 
HETATM    3  C4  UNL     1     -35.337   5.317   4.621  1.00 20.00     0.093 C 
ENDROOT
BRANCH   3   4
HETATM    4  C6  UNL     1     -35.169   6.489   3.649  1.00 20.00     0.014 C 
BRANCH   4   5
HETATM    5  C7  UNL     1     -33.720   6.998   3.580  1.00 20.00     0.021 C 
BRANCH   5   6
HETATM    6  C8  UNL     1     -33.203   7.142   2.140  1.00 20.00     0.082 C 
HETATM    7 CL9  UNL     1     -31.639   8.017   2.122  1.00 20.00    -0.125 Cl
BRANCH   6   8
HETATM    8  C5  UNL     1     -33.072   5.795   1.410  1.00 20.00     0.016 C 
HETATM    9  C3  UNL     1     -31.653   5.253   1.285  1.00 20.00     0.006 C 
ENDBRANCH   6   8
ENDBRANCH   5   6
ENDBRANCH   4   5
ENDBRANCH   3   4
TORSDOF 4
ENDMDL
MODEL 5
REMARK VINA RESULT:      -2.6      2.023      4.361
REMARK  4 active torsions:
REMARK  status: ('A' for Active; 'I' for Inactive)
REMARK    1  A    between atoms: C4_4  and  C6_6 
REMARK    2  A    between atoms: C5_5  and  C8_8 
REMARK    3  A    between atoms: C6_6  and  C7_7 
REMARK    4  A    between atoms: C7_7  and  C8_8 
ROOT
HETATM    1  C1  UNL     1     -33.931   3.985   4.361  1.00 20.00     0.012 C 
HETATM    2  C2  UNL     1     -34.492   5.008   4.077  1.00 20.00    -0.117 C 
HETATM    3  C4  UNL     1     -35.182   6.257   3.727  1.00 20.00     0.093 C 
ENDROOT
BRANCH   3   4
HETATM    4  C6  UNL     1     -34.352   7.496   4.076  1.00 20.00     0.014 C 
BRANCH   4   5
HETATM    5  C7  UNL     1     -32.918   7.422   3.526  1.00 20.00     0.021 C 
BRANCH   5   6
HETATM    6  C8  UNL     1     -32.867   7.325   1.994  1.00 20.00     0.082 C 
HETATM    7 CL9  UNL     1     -32.204   8.836   1.293  1.00 20.00    -0.125 Cl
BRANCH   6   8
HETATM    8  C5  UNL     1     -32.070   6.109   1.495  1.00 20.00     0.016 C 
HETATM    9  C3  UNL     1     -32.884   5.044   0.770  1.00 20.00     0.006 C 
ENDBRANCH   6   8
ENDBRANCH   5   6
ENDBRANCH   4   5
ENDBRANCH   3   4
TORSDOF 4
ENDMDL
MODEL 6
REMARK VINA RESULT:      -2.4      1.751      2.153
REMARK  4 active torsions:
REMARK  status: ('A' for Active; 'I' for Inactive)
REMARK    1  A    between atoms: C4_4  and  C6_6 
REMARK    2  A    between atoms: C5_5  and  C8_8 
REMARK    3  A    between atoms: C6_6  and  C7_7 
REMARK    4  A    between atoms: C7_7  and  C8_8 
ROOT
HETATM    1  C1  UNL     1     -32.931  10.834   0.263  1.00 20.00     0.012 C 
HETATM    2  C2  UNL     1     -32.357   9.780   0.302  1.00 20.00    -0.117 C 
HETATM    3  C4  UNL     1     -31.656   8.490   0.344  1.00 20.00     0.093 C 
ENDROOT
BRANCH   3   4
HETATM    4  C6  UNL     1     -31.466   7.980   1.775  1.00 20.00     0.014 C 
BRANCH   4   5
HETATM    5  C7  UNL     1     -32.800   7.721   2.494  1.00 20.00     0.021 C 
BRANCH   5   6
HETATM    6  C8  UNL     1     -33.407   6.351   2.158  1.00 20.00     0.082 C 
HETATM    7 CL9  UNL     1     -32.177   5.289   1.402  1.00 20.00    -0.125 Cl
BRANCH   6   8
HETATM    8  C5  UNL     1     -34.036   5.657   3.378  1.00 20.00     0.016 C 
HETATM    9  C3  UNL     1     -35.231   6.373   3.995  1.00 20.00     0.006 C 
ENDBRANCH   6   8
ENDBRANCH   5   6
ENDBRANCH   4   5
ENDBRANCH   3   4
TORSDOF 4
ENDMDL
MODEL 7
REMARK VINA RESULT:      -2.4      1.211      4.990
REMARK  4 active torsions:
REMARK  status: ('A' for Active; 'I' for Inactive)
REMARK    1  A    between atoms: C4_4  and  C6_6 
REMARK    2  A    between atoms: C5_5  and  C8_8 
REMARK    3  A    between atoms: C6_6  and  C7_7 
REMARK    4  A    between atoms: C7_7  and  C8_8 
ROOT
HETATM    1  C1  UNL     1     -33.319   3.313   4.464  1.00 20.00     0.012 C 
HETATM    2  C2  UNL     1     -34.238   4.086   4.449  1.00 20.00    -0.117 C 
HETATM    3  C4  UNL     1     -35.366   5.028   4.432  1.00 20.00     0.093 C 
ENDROOT
BRANCH   3   4
HETATM    4  C6  UNL     1     -34.926   6.453   4.086  1.00 20.00     0.014 C 
BRANCH   4   5
HETATM    5  C7  UNL     1     -33.847   6.491   2.993  1.00 20.00     0.021 C 
BRANCH   5   6
HETATM    6  C8  UNL     1     -33.140   7.851   2.895  1.00 20.00     0.082 C 
HETATM    7 CL9  UNL     1     -32.539   8.363   4.505  1.00 20.00    -0.125 Cl
BRANCH   6   8
HETATM    8  C5  UNL     1     -31.995   7.861   1.868  1.00 20.00     0.016 C 
HETATM    9  C3  UNL     1     -32.040   8.990   0.846  1.00 20.00     0.006 C 
ENDBRANCH   6   8
ENDBRANCH   5   6
ENDBRANCH   4   5
ENDBRANCH   3   4
TORSDOF 4
ENDMDL
MODEL 8
REMARK VINA RESULT:      -2.3      1.427      4.654
REMARK  4 active torsions:
REMARK  status: ('A' for Active; 'I' for Inactive)
REMARK    1  A    between atoms: C4_4  and  C6_6 
REMARK    2  A    between atoms: C5_5  and  C8_8 
REMARK    3  A    between atoms: C6_6  and  C7_7 
REMARK    4  A    between atoms: C7_7  and  C8_8 
ROOT
HETATM    1  C1  UNL     1     -35.356   6.514   4.063  1.00 20.00     0.012 C 
HETATM    2  C2  UNL     1     -34.431   5.933   3.564  1.00 20.00    -0.117 C 
HETATM    3  C4  UNL     1     -33.298   5.220   2.958  1.00 20.00     0.093 C 
ENDROOT
BRANCH   3   4
HETATM    4  C6  UNL     1     -33.032   5.671   1.519  1.00 20.00     0.014 C 
BRANCH   4   5
HETATM    5  C7  UNL     1     -31.860   6.660   1.415  1.00 20.00     0.021 C 
BRANCH   5   6
HETATM    6  C8  UNL     1     -32.279   8.116   1.668  1.00 20.00     0.082 C 
HETATM    7 CL9  UNL     1     -31.815   8.623   3.323  1.00 20.00    -0.125 Cl
BRANCH   6   8
HETATM    8  C5  UNL     1     -31.708   9.095   0.628  1.00 20.00     0.016 C 
HETATM    9  C3  UNL     1     -32.642  10.222   0.205  1.00 20.00     0.006 C 
ENDBRANCH   6   8
ENDBRANCH   5   6
ENDBRANCH   4   5
ENDBRANCH   3   4
TORSDOF 4
ENDMDL
MODEL 9
REMARK VINA RESULT:      -1.9      1.607      1.977
REMARK  4 active torsions:
REMARK  status: ('A' for Active; 'I' for Inactive)
REMARK    1  A    between atoms: C4_4  and  C6_6 
REMARK    2  A    between atoms: C5_5  and  C8_8 
REMARK    3  A    between atoms: C6_6  and  C7_7 
REMARK    4  A    between atoms: C7_7  and  C8_8 
ROOT
HETATM    1  C1  UNL     1     -33.030  10.747   0.040  1.00 20.00     0.012 C 
HETATM    2  C2  UNL     1     -32.361   9.779   0.281  1.00 20.00    -0.117 C 
HETATM    3  C4  UNL     1     -31.543   8.593   0.570  1.00 20.00     0.093 C 
ENDROOT
BRANCH   3   4
HETATM    4  C6  UNL     1     -31.585   8.207   2.051  1.00 20.00     0.014 C 
BRANCH   4   5
HETATM    5  C7  UNL     1     -33.017   8.006   2.571  1.00 20.00     0.021 C 
BRANCH   5   6
HETATM    6  C8  UNL     1     -33.336   6.540   2.901  1.00 20.00     0.082 C 
HETATM    7 CL9  UNL     1     -34.873   6.423   3.815  1.00 20.00    -0.125 Cl
BRANCH   6   8
HETATM    8  C5  UNL     1     -33.384   5.640   1.655  1.00 20.00     0.016 C 
HETATM    9  C3  UNL     1     -32.054   5.021   1.241  1.00 20.00     0.006 C 
ENDBRANCH   6   8
ENDBRANCH   5   6
ENDBRANCH   4   5
ENDBRANCH   3   4
TORSDOF 4
ENDMDL
