MODEL 1
REMARK VINA RESULT:      -2.0      0.000      0.000
REMARK  2 active torsions:
REMARK  status: ('A' for Active; 'I' for Inactive)
REMARK    1  A    between atoms: C2_2  and  C9_9 
REMARK    2  A    between atoms: C7_7  and  C9_9 
ROOT
HETATM    1  C3  UNL     1     -34.231   7.418   4.445  1.00 20.00     0.002 C 
HETATM    2  C4  UNL     1     -33.394   8.097   3.364  1.00 20.00     0.005 C 
HETATM    3  C5  UNL     1     -35.121   6.322   3.863  1.00 20.00     0.020 C 
HETATM    4  C6  UNL     1     -33.470   5.987   1.974  1.00 20.00     0.025 C 
HETATM    5  C7  UNL     1     -32.568   7.085   2.559  1.00 20.00    -0.010 C 
HETATM    6  C8  UNL     1     -34.344   5.301   3.027  1.00 20.00     0.082 C 
HETATM    7 CL10 UNL     1     -33.344   4.258   4.089  1.00 20.00    -0.125 Cl
ENDROOT
BRANCH   5   8
HETATM    8  C9  UNL     1     -31.790   7.789   1.448  1.00 20.00     0.031 C 
BRANCH   8   9
HETATM    9  C2  UNL     1     -32.356   9.145   1.166  1.00 20.00    -0.037 C 
HETATM   10  C1  UNL     1     -32.363   9.715  -0.044  1.00 20.00     0.007 C 
ENDBRANCH   8   9
ENDBRANCH   5   8
TORSDOF 2
ENDMDL
MODEL 2
REMARK VINA RESULT:      -1.6      1.413      2.154
REMARK  2 active torsions:
REMARK  status: ('A' for Active; 'I' for Inactive)
REMARK    1  A    between atoms: C2_2  and  C9_9 
REMARK    2  A    between atoms: C7_7  and  C9_9 
ROOT
HETATM    1  C3  UNL     1     -33.476   4.960   2.068  1.00 20.00     0.002 C 
HETATM    2  C4  UNL     1     -32.457   6.045   1.726  1.00 20.00     0.005 C 
HETATM    3  C5  UNL     1     -33.892   5.020   3.537  1.00 20.00     0.020 C 
HETATM    4  C6  UNL     1     -33.378   7.499   3.579  1.00 20.00     0.025 C 
HETATM    5  C7  UNL     1     -32.964   7.444   2.099  1.00 20.00    -0.010 C 
HETATM    6  C8  UNL     1     -34.380   6.407   3.964  1.00 20.00     0.082 C 
HETATM    7 CL10 UNL     1     -35.987   6.750   3.246  1.00 20.00    -0.125 Cl
ENDROOT
BRANCH   5   8
HETATM    8  C9  UNL     1     -31.898   8.499   1.802  1.00 20.00     0.031 C 
BRANCH   8   9
HETATM    9  C2  UNL     1     -32.081   9.082   0.436  1.00 20.00    -0.037 C 
HETATM   10  C1  UNL     1     -32.618  10.284   0.204  1.00 20.00     0.007 C 
ENDBRANCH   8   9
ENDBRANCH   5   8
TORSDOF 2
ENDMDL
MODEL 3
REMARK VINA RESULT:      -0.9      2.082      4.544
REMARK  2 active torsions:
REMARK  status: ('A' for Active; 'I' for Inactive)
REMARK    1  A    between atoms: C2_2  and  C9_9 
REMARK    2  A    between atoms: C7_7  and  C9_9 
ROOT
HETATM    1  C3  UNL     1     -32.106   7.105   1.848  1.00 20.00     0.002 C 
HETATM    2  C4  UNL     1     -32.754   5.727   1.966  1.00 20.00     0.005 C 
HETATM    3  C5  UNL     1     -33.097   8.223   2.164  1.00 20.00     0.020 C 
HETATM    4  C6  UNL     1     -34.402   6.643   3.650  1.00 20.00     0.025 C 
HETATM    5  C7  UNL     1     -33.404   5.516   3.339  1.00 20.00    -0.010 C 
HETATM    6  C8  UNL     1     -33.793   8.042   3.515  1.00 20.00     0.082 C 
HETATM    7 CL10 UNL     1     -32.644   8.356   4.855  1.00 20.00    -0.125 Cl
ENDROOT
BRANCH   5   8
HETATM    8  C9  UNL     1     -34.095   4.155   3.403  1.00 20.00     0.031 C 
BRANCH   8   9
HETATM    9  C2  UNL     1     -33.827   3.473   4.707  1.00 20.00    -0.037 C 
HETATM   10  C1  UNL     1     -32.722   2.764   4.965  1.00 20.00     0.007 C 
ENDBRANCH   8   9
ENDBRANCH   5   8
TORSDOF 2
ENDMDL
MODEL 4
REMARK VINA RESULT:      -0.9      2.092      4.408
REMARK  2 active torsions:
REMARK  status: ('A' for Active; 'I' for Inactive)
REMARK    1  A    between atoms: C2_2  and  C9_9 
REMARK    2  A    between atoms: C7_7  and  C9_9 
ROOT
HETATM    1  C3  UNL     1     -33.402   8.120   2.826  1.00 20.00     0.002 C 
HETATM    2  C4  UNL     1     -33.842   7.124   3.896  1.00 20.00     0.005 C 
HETATM    3  C5  UNL     1     -32.228   7.587   2.007  1.00 20.00     0.020 C 
HETATM    4  C6  UNL     1     -32.981   5.216   2.477  1.00 20.00     0.025 C 
HETATM    5  C7  UNL     1     -34.167   5.749   3.298  1.00 20.00    -0.010 C 
HETATM    6  C8  UNL     1     -32.495   6.202   1.410  1.00 20.00     0.082 C 
HETATM    7 CL10 UNL     1     -33.687   6.318   0.075  1.00 20.00    -0.125 Cl
ENDROOT
BRANCH   5   8
HETATM    8  C9  UNL     1     -34.544   4.759   4.399  1.00 20.00     0.031 C 
BRANCH   8   9
HETATM    9  C2  UNL     1     -33.810   3.465   4.239  1.00 20.00    -0.037 C 
HETATM   10  C1  UNL     1     -32.978   2.960   5.156  1.00 20.00     0.007 C 
ENDBRANCH   8   9
ENDBRANCH   5   8
TORSDOF 2
ENDMDL
MODEL 5
REMARK VINA RESULT:      -0.6      2.203      4.272
REMARK  2 active torsions:
REMARK  status: ('A' for Active; 'I' for Inactive)
REMARK    1  A    between atoms: C2_2  and  C9_9 
REMARK    2  A    between atoms: C7_7  and  C9_9 
ROOT
HETATM    1  C3  UNL     1     -32.030   8.889   3.994  1.00 20.00     0.002 C 
HETATM    2  C4  UNL     1     -33.030   7.828   4.448  1.00 20.00     0.005 C 
HETATM    3  C5  UNL     1     -31.133   8.374   2.869  1.00 20.00     0.020 C 
HETATM    4  C6  UNL     1     -32.958   6.773   2.151  1.00 20.00     0.025 C 
HETATM    5  C7  UNL     1     -33.865   7.292   3.278  1.00 20.00    -0.010 C 
HETATM    6  C8  UNL     1     -31.923   7.803   1.688  1.00 20.00     0.082 C 
HETATM    7 CL10 UNL     1     -32.719   9.124   0.774  1.00 20.00    -0.125 Cl
ENDROOT
BRANCH   5   8
HETATM    8  C9  UNL     1     -34.812   6.191   3.754  1.00 20.00     0.031 C 
BRANCH   8   9
HETATM    9  C2  UNL     1     -34.231   4.834   3.507  1.00 20.00    -0.037 C 
HETATM   10  C1  UNL     1     -33.946   3.957   4.476  1.00 20.00     0.007 C 
ENDBRANCH   8   9
ENDBRANCH   5   8
TORSDOF 2
ENDMDL
MODEL 6
REMARK VINA RESULT:      -0.2      1.955      4.468
REMARK  2 active torsions:
REMARK  status: ('A' for Active; 'I' for Inactive)
REMARK    1  A    between atoms: C2_2  and  C9_9 
REMARK    2  A    between atoms: C7_7  and  C9_9 
ROOT
HETATM    1  C3  UNL     1     -32.042   6.157   1.451  1.00 20.00     0.002 C 
HETATM    2  C4  UNL     1     -33.354   5.698   2.084  1.00 20.00     0.005 C 
HETATM    3  C5  UNL     1     -32.066   7.649   1.125  1.00 20.00     0.020 C 
HETATM    4  C6  UNL     1     -33.738   8.028   2.987  1.00 20.00     0.025 C 
HETATM    5  C7  UNL     1     -33.713   6.528   3.323  1.00 20.00    -0.010 C 
HETATM    6  C8  UNL     1     -32.447   8.519   2.326  1.00 20.00     0.082 C 
HETATM    7 CL10 UNL     1     -31.107   8.556   3.518  1.00 20.00    -0.125 Cl
ENDROOT
BRANCH   5   8
HETATM    8  C9  UNL     1     -35.059   6.084   3.896  1.00 20.00     0.031 C 
BRANCH   8   9
HETATM    9  C2  UNL     1     -34.981   4.695   4.447  1.00 20.00    -0.037 C 
HETATM   10  C1  UNL     1     -33.877   3.940   4.413  1.00 20.00     0.007 C 
ENDBRANCH   8   9
ENDBRANCH   5   8
TORSDOF 2
ENDMDL
MODEL 7
REMARK VINA RESULT:       0.2      1.927      4.201
REMARK  2 active torsions:
REMARK  status: ('A' for Active; 'I' for Inactive)
REMARK    1  A    between atoms: C2_2  and  C9_9 
REMARK    2  A    between atoms: C7_7  and  C9_9 
ROOT
HETATM    1  C3  UNL     1     -32.475   8.190   2.200  1.00 20.00     0.002 C 
HETATM    2  C4  UNL     1     -33.252   7.755   3.440  1.00 20.00     0.005 C 
HETATM    3  C5  UNL     1     -31.731   7.019   1.561  1.00 20.00     0.020 C 
HETATM    4  C6  UNL     1     -33.452   5.417   2.499  1.00 20.00     0.025 C 
HETATM    5  C7  UNL     1     -34.207   6.593   3.138  1.00 20.00    -0.010 C 
HETATM    6  C8  UNL     1     -32.639   5.822   1.266  1.00 20.00     0.082 C 
HETATM    7 CL10 UNL     1     -33.728   6.191  -0.109  1.00 20.00    -0.125 Cl
ENDROOT
BRANCH   5   8
HETATM    8  C9  UNL     1     -34.924   6.142   4.411  1.00 20.00     0.031 C 
BRANCH   8   9
HETATM    9  C2  UNL     1     -34.996   4.650   4.491  1.00 20.00    -0.037 C 
HETATM   10  C1  UNL     1     -33.934   3.861   4.687  1.00 20.00     0.007 C 
ENDBRANCH   8   9
ENDBRANCH   5   8
TORSDOF 2
ENDMDL
MODEL 8
REMARK VINA RESULT:       0.3      1.769      4.056
REMARK  2 active torsions:
REMARK  status: ('A' for Active; 'I' for Inactive)
REMARK    1  A    between atoms: C2_2  and  C9_9 
REMARK    2  A    between atoms: C7_7  and  C9_9 
ROOT
HETATM    1  C3  UNL     1     -31.921   8.032   1.404  1.00 20.00     0.002 C 
HETATM    2  C4  UNL     1     -32.635   8.127   2.750  1.00 20.00     0.005 C 
HETATM    3  C5  UNL     1     -31.438   6.611   1.122  1.00 20.00     0.020 C 
HETATM    4  C6  UNL     1     -33.295   5.693   2.576  1.00 20.00     0.025 C 
HETATM    5  C7  UNL     1     -33.788   7.121   2.859  1.00 20.00    -0.010 C 
HETATM    6  C8  UNL     1     -32.549   5.565   1.245  1.00 20.00     0.082 C 
HETATM    7 CL10 UNL     1     -33.692   5.707  -0.129  1.00 20.00    -0.125 Cl
ENDROOT
BRANCH   5   8
HETATM    8  C9  UNL     1     -34.442   7.199   4.238  1.00 20.00     0.031 C 
BRANCH   8   9
HETATM    9  C2  UNL     1     -35.517   6.170   4.386  1.00 20.00    -0.037 C 
HETATM   10  C1  UNL     1     -35.289   4.895   4.722  1.00 20.00     0.007 C 
ENDBRANCH   8   9
ENDBRANCH   5   8
TORSDOF 2
ENDMDL
MODEL 9
REMARK VINA RESULT:       0.7      2.638      3.836
REMARK  2 active torsions:
REMARK  status: ('A' for Active; 'I' for Inactive)
REMARK    1  A    between atoms: C2_2  and  C9_9 
REMARK    2  A    between atoms: C7_7  and  C9_9 
ROOT
HETATM    1  C3  UNL     1     -33.905   7.477   3.434  1.00 20.00     0.002 C 
HETATM    2  C4  UNL     1     -33.705   6.088   2.834  1.00 20.00     0.005 C 
HETATM    3  C5  UNL     1     -32.592   8.256   3.503  1.00 20.00     0.020 C 
HETATM    4  C6  UNL     1     -31.707   6.933   1.535  1.00 20.00     0.025 C 
HETATM    5  C7  UNL     1     -33.028   6.151   1.458  1.00 20.00    -0.010 C 
HETATM    6  C8  UNL     1     -31.865   8.323   2.157  1.00 20.00     0.082 C 
HETATM    7 CL10 UNL     1     -32.734   9.417   1.033  1.00 20.00    -0.125 Cl
ENDROOT
BRANCH   5   8
HETATM    8  C9  UNL     1     -32.787   4.743   0.913  1.00 20.00     0.031 C 
BRANCH   8   9
HETATM    9  C2  UNL     1     -31.351   4.545   0.542  1.00 20.00    -0.037 C 
HETATM   10  C1  UNL     1     -30.924   3.615  -0.320  1.00 20.00     0.007 C 
ENDBRANCH   8   9
ENDBRANCH   5   8
TORSDOF 2
ENDMDL
