MODEL 1
REMARK VINA RESULT:      -2.5      0.000      0.000
REMARK  3 active torsions:
REMARK  status: ('A' for Active; 'I' for Inactive)
REMARK    1  A    between atoms: C4_4  and  C7_7 
REMARK    2  A    between atoms: C7_7  and  C9_9 
REMARK    3  A    between atoms: C8_8  and  C9_9 
ROOT
HETATM    1  C1  UNL     1     -35.027   6.527   3.847  1.00 20.00     0.006 C 
HETATM    2  C2  UNL     1     -35.036   5.176   4.571  1.00 20.00     0.020 C 
HETATM    3  C3  UNL     1     -33.055   5.243   3.244  1.00 20.00     0.024 C 
HETATM    4  C4  UNL     1     -33.886   6.455   2.820  1.00 20.00    -0.013 C 
HETATM    5  C5  UNL     1     -34.122   4.281   3.744  1.00 20.00     0.082 C 
HETATM    6 CL10 UNL     1     -33.441   2.952   4.691  1.00 20.00    -0.125 Cl
ENDROOT
BRANCH   4   7
HETATM    7  C7  UNL     1     -33.071   7.735   2.740  1.00 20.00     0.005 C 
BRANCH   7   8
HETATM    8  C9  UNL     1     -32.140   7.728   1.528  1.00 20.00     0.000 C 
BRANCH   8   9
HETATM    9  C8  UNL     1     -31.735   9.147   1.133  1.00 20.00    -0.005 C 
HETATM   10  C6  UNL     1     -32.578   9.668  -0.019  1.00 20.00     0.005 C 
ENDBRANCH   8   9
ENDBRANCH   7   8
ENDBRANCH   4   7
TORSDOF 3
ENDMDL
MODEL 2
REMARK VINA RESULT:      -2.2      1.714      2.556
REMARK  3 active torsions:
REMARK  status: ('A' for Active; 'I' for Inactive)
REMARK    1  A    between atoms: C4_4  and  C7_7 
REMARK    2  A    between atoms: C7_7  and  C9_9 
REMARK    3  A    between atoms: C8_8  and  C9_9 
ROOT
HETATM    1  C1  UNL     1     -32.334   6.332   1.492  1.00 20.00     0.006 C 
HETATM    2  C2  UNL     1     -33.587   5.658   2.060  1.00 20.00     0.020 C 
HETATM    3  C3  UNL     1     -33.341   7.742   3.195  1.00 20.00     0.024 C 
HETATM    4  C4  UNL     1     -32.053   7.545   2.394  1.00 20.00    -0.013 C 
HETATM    5  C5  UNL     1     -33.802   6.310   3.420  1.00 20.00     0.082 C 
HETATM    6 CL10 UNL     1     -35.485   6.220   3.954  1.00 20.00    -0.125 Cl
ENDROOT
BRANCH   4   7
HETATM    7  C7  UNL     1     -31.640   8.785   1.619  1.00 20.00     0.005 C 
BRANCH   7   8
HETATM    8  C9  UNL     1     -31.912   8.625   0.124  1.00 20.00     0.000 C 
BRANCH   8   9
HETATM    9  C8  UNL     1     -32.664   9.832  -0.435  1.00 20.00    -0.005 C 
HETATM   10  C6  UNL     1     -32.825  10.922   0.612  1.00 20.00     0.005 C 
ENDBRANCH   8   9
ENDBRANCH   7   8
ENDBRANCH   4   7
TORSDOF 3
ENDMDL
MODEL 3
REMARK VINA RESULT:      -2.0      2.614      4.977
REMARK  3 active torsions:
REMARK  status: ('A' for Active; 'I' for Inactive)
REMARK    1  A    between atoms: C4_4  and  C7_7 
REMARK    2  A    between atoms: C7_7  and  C9_9 
REMARK    3  A    between atoms: C8_8  and  C9_9 
ROOT
HETATM    1  C1  UNL     1     -33.076   7.845   4.153  1.00 20.00     0.006 C 
HETATM    2  C2  UNL     1     -32.329   8.703   3.126  1.00 20.00     0.020 C 
HETATM    3  C3  UNL     1     -33.343   6.907   1.929  1.00 20.00     0.024 C 
HETATM    4  C4  UNL     1     -33.513   6.572   3.411  1.00 20.00    -0.013 C 
HETATM    5  C5  UNL     1     -32.098   7.780   1.936  1.00 20.00     0.082 C 
HETATM    6 CL10 UNL     1     -31.889   8.669   0.422  1.00 20.00    -0.125 Cl
ENDROOT
BRANCH   4   7
HETATM    7  C7  UNL     1     -34.923   6.128   3.763  1.00 20.00     0.005 C 
BRANCH   7   8
HETATM    8  C9  UNL     1     -34.919   4.783   4.487  1.00 20.00     0.000 C 
BRANCH   8   9
HETATM    9  C8  UNL     1     -33.873   3.838   3.899  1.00 20.00    -0.005 C 
HETATM   10  C6  UNL     1     -33.192   3.016   4.981  1.00 20.00     0.005 C 
ENDBRANCH   8   9
ENDBRANCH   7   8
ENDBRANCH   4   7
TORSDOF 3
ENDMDL
MODEL 4
REMARK VINA RESULT:      -1.0      2.463      4.972
REMARK  3 active torsions:
REMARK  status: ('A' for Active; 'I' for Inactive)
REMARK    1  A    between atoms: C4_4  and  C7_7 
REMARK    2  A    between atoms: C7_7  and  C9_9 
REMARK    3  A    between atoms: C8_8  and  C9_9 
ROOT
HETATM    1  C1  UNL     1     -33.561   5.677   2.055  1.00 20.00     0.006 C 
HETATM    2  C2  UNL     1     -32.303   6.439   1.628  1.00 20.00     0.020 C 
HETATM    3  C3  UNL     1     -33.237   7.616   3.481  1.00 20.00     0.024 C 
HETATM    4  C4  UNL     1     -34.278   6.571   3.078  1.00 20.00    -0.013 C 
HETATM    5  C5  UNL     1     -32.493   7.848   2.175  1.00 20.00     0.082 C 
HETATM    6 CL10 UNL     1     -30.958   8.693   2.414  1.00 20.00    -0.125 Cl
ENDROOT
BRANCH   4   7
HETATM    7  C7  UNL     1     -34.835   5.800   4.263  1.00 20.00     0.005 C 
BRANCH   7   8
HETATM    8  C9  UNL     1     -34.635   4.295   4.092  1.00 20.00     0.000 C 
BRANCH   8   9
HETATM    9  C8  UNL     1     -33.522   3.776   5.001  1.00 20.00    -0.005 C 
HETATM   10  C6  UNL     1     -33.067   2.385   4.589  1.00 20.00     0.005 C 
ENDBRANCH   8   9
ENDBRANCH   7   8
ENDBRANCH   4   7
TORSDOF 3
ENDMDL
MODEL 5
REMARK VINA RESULT:      -0.8      3.092      5.386
REMARK  3 active torsions:
REMARK  status: ('A' for Active; 'I' for Inactive)
REMARK    1  A    between atoms: C4_4  and  C7_7 
REMARK    2  A    between atoms: C7_7  and  C9_9 
REMARK    3  A    between atoms: C8_8  and  C9_9 
ROOT
HETATM    1  C1  UNL     1     -31.559   7.334   1.511  1.00 20.00     0.006 C 
HETATM    2  C2  UNL     1     -31.221   8.534   0.620  1.00 20.00     0.020 C 
HETATM    3  C3  UNL     1     -33.183   9.109   1.849  1.00 20.00     0.024 C 
HETATM    4  C4  UNL     1     -32.947   7.620   2.107  1.00 20.00    -0.013 C 
HETATM    5  C5  UNL     1     -32.526   9.308   0.492  1.00 20.00     0.082 C 
HETATM    6 CL10 UNL     1     -32.264  11.016   0.113  1.00 20.00    -0.125 Cl
ENDROOT
BRANCH   4   7
HETATM    7  C7  UNL     1     -33.057   7.247   3.575  1.00 20.00     0.005 C 
BRANCH   7   8
HETATM    8  C9  UNL     1     -34.476   7.461   4.100  1.00 20.00     0.000 C 
BRANCH   8   9
HETATM    9  C8  UNL     1     -35.301   6.178   4.009  1.00 20.00    -0.005 C 
HETATM   10  C6  UNL     1     -34.417   4.942   4.046  1.00 20.00     0.005 C 
ENDBRANCH   8   9
ENDBRANCH   7   8
ENDBRANCH   4   7
TORSDOF 3
ENDMDL
MODEL 6
REMARK VINA RESULT:      -0.8      2.915      5.238
REMARK  3 active torsions:
REMARK  status: ('A' for Active; 'I' for Inactive)
REMARK    1  A    between atoms: C4_4  and  C7_7 
REMARK    2  A    between atoms: C7_7  and  C9_9 
REMARK    3  A    between atoms: C8_8  and  C9_9 
ROOT
HETATM    1  C1  UNL     1     -32.167   8.017   2.856  1.00 20.00     0.006 C 
HETATM    2  C2  UNL     1     -32.184   9.305   2.027  1.00 20.00     0.020 C 
HETATM    3  C3  UNL     1     -32.827   7.530   0.570  1.00 20.00     0.024 C 
HETATM    4  C4  UNL     1     -32.342   6.862   1.857  1.00 20.00    -0.013 C 
HETATM    5  C5  UNL     1     -32.061   8.843   0.581  1.00 20.00     0.082 C 
HETATM    6 CL10 UNL     1     -32.722  10.019  -0.563  1.00 20.00    -0.125 Cl
ENDROOT
BRANCH   4   7
HETATM    7  C7  UNL     1     -33.283   5.777   2.354  1.00 20.00     0.005 C 
BRANCH   7   8
HETATM    8  C9  UNL     1     -34.228   6.309   3.431  1.00 20.00     0.000 C 
BRANCH   8   9
HETATM    9  C8  UNL     1     -34.866   5.167   4.222  1.00 20.00    -0.005 C 
HETATM   10  C6  UNL     1     -33.955   3.952   4.280  1.00 20.00     0.005 C 
ENDBRANCH   8   9
ENDBRANCH   7   8
ENDBRANCH   4   7
TORSDOF 3
ENDMDL
MODEL 7
REMARK VINA RESULT:      -0.3      2.012      4.409
REMARK  3 active torsions:
REMARK  status: ('A' for Active; 'I' for Inactive)
REMARK    1  A    between atoms: C4_4  and  C7_7 
REMARK    2  A    between atoms: C7_7  and  C9_9 
REMARK    3  A    between atoms: C8_8  and  C9_9 
ROOT
HETATM    1  C1  UNL     1     -32.444   8.146   2.269  1.00 20.00     0.006 C 
HETATM    2  C2  UNL     1     -31.860   7.376   1.079  1.00 20.00     0.020 C 
HETATM    3  C3  UNL     1     -33.029   5.794   2.429  1.00 20.00     0.024 C 
HETATM    4  C4  UNL     1     -32.978   7.086   3.245  1.00 20.00    -0.013 C 
HETATM    5  C5  UNL     1     -31.801   5.926   1.542  1.00 20.00     0.082 C 
HETATM    6 CL10 UNL     1     -31.821   4.785   0.190  1.00 20.00    -0.125 Cl
ENDROOT
BRANCH   4   7
HETATM    7  C7  UNL     1     -34.319   7.457   3.857  1.00 20.00     0.005 C 
BRANCH   7   8
HETATM    8  C9  UNL     1     -35.364   6.370   3.609  1.00 20.00     0.000 C 
BRANCH   8   9
HETATM    9  C8  UNL     1     -35.392   5.357   4.753  1.00 20.00    -0.005 C 
HETATM   10  C6  UNL     1     -34.413   4.219   4.515  1.00 20.00     0.005 C 
ENDBRANCH   8   9
ENDBRANCH   7   8
ENDBRANCH   4   7
TORSDOF 3
ENDMDL
MODEL 8
REMARK VINA RESULT:       0.4      1.245      1.927
REMARK  3 active torsions:
REMARK  status: ('A' for Active; 'I' for Inactive)
REMARK    1  A    between atoms: C4_4  and  C7_7 
REMARK    2  A    between atoms: C7_7  and  C9_9 
REMARK    3  A    between atoms: C8_8  and  C9_9 
ROOT
HETATM    1  C1  UNL     1     -34.472   6.205   3.200  1.00 20.00     0.006 C 
HETATM    2  C2  UNL     1     -34.569   5.147   4.305  1.00 20.00     0.020 C 
HETATM    3  C3  UNL     1     -32.716   4.549   2.927  1.00 20.00     0.024 C 
HETATM    4  C4  UNL     1     -33.440   5.677   2.191  1.00 20.00    -0.013 C 
HETATM    5  C5  UNL     1     -33.836   3.933   3.751  1.00 20.00     0.082 C 
HETATM    6 CL10 UNL     1     -33.227   2.871   5.028  1.00 20.00    -0.125 Cl
ENDROOT
BRANCH   4   7
HETATM    7  C7  UNL     1     -32.498   6.754   1.679  1.00 20.00     0.005 C 
BRANCH   7   8
HETATM    8  C9  UNL     1     -32.844   8.122   2.265  1.00 20.00     0.000 C 
BRANCH   8   9
HETATM    9  C8  UNL     1     -31.929   8.471   3.438  1.00 20.00    -0.005 C 
HETATM   10  C6  UNL     1     -32.679   8.442   4.759  1.00 20.00     0.005 C 
ENDBRANCH   8   9
ENDBRANCH   7   8
ENDBRANCH   4   7
TORSDOF 3
ENDMDL
