MODEL 1
REMARK VINA RESULT:      -2.6      0.000      0.000
REMARK  4 active torsions:
REMARK  status: ('A' for Active; 'I' for Inactive)
REMARK    1  A    between atoms: C1_1  and  C6_6 
REMARK    2  A    between atoms: C1_1  and  C8_8 
REMARK    3  A    between atoms: C7_7  and  C9_9 
REMARK    4  A    between atoms: C8_8  and  C9_9 
ROOT
HETATM    1  C1  UNL     1     -33.006   6.686   2.228  1.00 20.00     0.131 C 
HETATM    2  O10 UNL     1     -32.838   5.670   1.554  1.00 20.00    -0.298 OA
ENDROOT
BRANCH   1   3
HETATM    3  C6  UNL     1     -34.319   6.950   2.920  1.00 20.00     0.055 A 
HETATM    4  C2  UNL     1     -34.715   6.047   4.031  1.00 20.00     0.013 A 
HETATM    5  C3  UNL     1     -34.280   7.453   4.318  1.00 20.00     0.013 A 
ENDBRANCH   1   3
BRANCH   1   6
HETATM    6  C8  UNL     1     -31.929   7.740   2.414  1.00 20.00     0.079 C 
BRANCH   6   7
HETATM    7  C9  UNL     1     -31.580   8.457   1.114  1.00 20.00     0.012 C 
BRANCH   7   8
HETATM    8  C7  UNL     1     -32.714   9.356   0.650  1.00 20.00    -0.014 A 
HETATM    9  C4  UNL     1     -32.483  10.830   0.459  1.00 20.00     0.005 A 
HETATM   10  C5  UNL     1     -32.697   9.942  -0.735  1.00 20.00     0.005 A 
ENDBRANCH   7   8
ENDBRANCH   6   7
ENDBRANCH   1   6
TORSDOF 4
ENDMDL
MODEL 2
REMARK VINA RESULT:      -2.5      1.328      4.365
REMARK  4 active torsions:
REMARK  status: ('A' for Active; 'I' for Inactive)
REMARK    1  A    between atoms: C1_1  and  C6_6 
REMARK    2  A    between atoms: C1_1  and  C8_8 
REMARK    3  A    between atoms: C7_7  and  C9_9 
REMARK    4  A    between atoms: C8_8  and  C9_9 
ROOT
HETATM    1  C1  UNL     1     -31.951   8.081   1.723  1.00 20.00     0.131 C 
HETATM    2  O10 UNL     1     -31.209   8.613   2.549  1.00 20.00    -0.298 OA
ENDROOT
BRANCH   1   3
HETATM    3  C6  UNL     1     -32.768   8.911   0.767  1.00 20.00     0.055 A 
HETATM    4  C2  UNL     1     -32.671  10.389   0.865  1.00 20.00     0.013 A 
HETATM    5  C3  UNL     1     -32.049   9.666  -0.291  1.00 20.00     0.013 A 
ENDBRANCH   1   3
BRANCH   1   6
HETATM    6  C8  UNL     1     -32.102   6.576   1.600  1.00 20.00     0.079 C 
BRANCH   6   7
HETATM    7  C9  UNL     1     -33.517   6.102   1.919  1.00 20.00     0.012 C 
BRANCH   7   8
HETATM    8  C7  UNL     1     -33.802   6.162   3.410  1.00 20.00    -0.014 A 
HETATM    9  C4  UNL     1     -34.278   7.442   4.039  1.00 20.00     0.005 A 
HETATM   10  C5  UNL     1     -35.218   6.277   3.905  1.00 20.00     0.005 A 
ENDBRANCH   7   8
ENDBRANCH   6   7
ENDBRANCH   1   6
TORSDOF 4
ENDMDL
MODEL 3
REMARK VINA RESULT:      -2.4      1.558      1.781
REMARK  4 active torsions:
REMARK  status: ('A' for Active; 'I' for Inactive)
REMARK    1  A    between atoms: C1_1  and  C6_6 
REMARK    2  A    between atoms: C1_1  and  C8_8 
REMARK    3  A    between atoms: C7_7  and  C9_9 
REMARK    4  A    between atoms: C8_8  and  C9_9 
ROOT
HETATM    1  C1  UNL     1     -33.312   7.663   3.761  1.00 20.00     0.131 C 
HETATM    2  O10 UNL     1     -33.513   8.156   4.871  1.00 20.00    -0.298 OA
ENDROOT
BRANCH   1   3
HETATM    3  C6  UNL     1     -34.251   6.633   3.188  1.00 20.00     0.055 A 
HETATM    4  C2  UNL     1     -34.206   5.258   3.749  1.00 20.00     0.013 A 
HETATM    5  C3  UNL     1     -35.369   6.157   4.043  1.00 20.00     0.013 A 
ENDBRANCH   1   3
BRANCH   1   6
HETATM    6  C8  UNL     1     -32.125   8.041   2.893  1.00 20.00     0.079 C 
BRANCH   6   7
HETATM    7  C9  UNL     1     -32.462   8.036   1.406  1.00 20.00     0.012 C 
BRANCH   7   8
HETATM    8  C7  UNL     1     -31.968   9.298   0.718  1.00 20.00    -0.014 A 
HETATM    9  C4  UNL     1     -32.622   9.776  -0.549  1.00 20.00     0.005 A 
HETATM   10  C5  UNL     1     -32.810  10.544   0.729  1.00 20.00     0.005 A 
ENDBRANCH   7   8
ENDBRANCH   6   7
ENDBRANCH   1   6
TORSDOF 4
ENDMDL
MODEL 4
REMARK VINA RESULT:      -2.0      1.076      4.677
REMARK  4 active torsions:
REMARK  status: ('A' for Active; 'I' for Inactive)
REMARK    1  A    between atoms: C1_1  and  C6_6 
REMARK    2  A    between atoms: C1_1  and  C8_8 
REMARK    3  A    between atoms: C7_7  and  C9_9 
REMARK    4  A    between atoms: C8_8  and  C9_9 
ROOT
HETATM    1  C1  UNL     1     -32.203   8.111   1.643  1.00 20.00     0.131 C 
HETATM    2  O10 UNL     1     -31.664   7.011   1.523  1.00 20.00    -0.298 OA
ENDROOT
BRANCH   1   3
HETATM    3  C6  UNL     1     -31.815   9.267   0.759  1.00 20.00     0.055 A 
HETATM    4  C2  UNL     1     -32.639   9.530  -0.448  1.00 20.00     0.013 A 
HETATM    5  C3  UNL     1     -32.708  10.454   0.730  1.00 20.00     0.013 A 
ENDBRANCH   1   3
BRANCH   1   6
HETATM    6  C8  UNL     1     -33.284   8.390   2.673  1.00 20.00     0.079 C 
BRANCH   6   7
HETATM    7  C9  UNL     1     -33.379   7.299   3.734  1.00 20.00     0.012 C 
BRANCH   7   8
HETATM    8  C7  UNL     1     -34.409   6.246   3.360  1.00 20.00    -0.014 A 
HETATM    9  C4  UNL     1     -34.368   4.885   3.998  1.00 20.00     0.005 A 
HETATM   10  C5  UNL     1     -35.471   5.844   4.347  1.00 20.00     0.005 A 
ENDBRANCH   7   8
ENDBRANCH   6   7
ENDBRANCH   1   6
TORSDOF 4
ENDMDL
MODEL 5
REMARK VINA RESULT:      -1.8      2.137      5.338
REMARK  4 active torsions:
REMARK  status: ('A' for Active; 'I' for Inactive)
REMARK    1  A    between atoms: C1_1  and  C6_6 
REMARK    2  A    between atoms: C1_1  and  C8_8 
REMARK    3  A    between atoms: C7_7  and  C9_9 
REMARK    4  A    between atoms: C8_8  and  C9_9 
ROOT
HETATM    1  C1  UNL     1     -33.880   6.989   3.463  1.00 20.00     0.131 C 
HETATM    2  O10 UNL     1     -33.354   7.639   4.366  1.00 20.00    -0.298 OA
ENDROOT
BRANCH   1   3
HETATM    3  C6  UNL     1     -33.349   7.047   2.054  1.00 20.00     0.055 A 
HETATM    4  C2  UNL     1     -32.053   7.735   1.824  1.00 20.00     0.013 A 
HETATM    5  C3  UNL     1     -32.143   6.242   1.731  1.00 20.00     0.013 A 
ENDBRANCH   1   3
BRANCH   1   6
HETATM    6  C8  UNL     1     -35.085   6.093   3.687  1.00 20.00     0.079 C 
BRANCH   6   7
HETATM    7  C9  UNL     1     -34.783   4.930   4.626  1.00 20.00     0.012 C 
BRANCH   7   8
HETATM    8  C7  UNL     1     -33.875   3.904   3.969  1.00 20.00    -0.014 A 
HETATM    9  C4  UNL     1     -32.462   3.722   4.454  1.00 20.00     0.005 A 
HETATM   10  C5  UNL     1     -33.488   2.653   4.709  1.00 20.00     0.005 A 
ENDBRANCH   7   8
ENDBRANCH   6   7
ENDBRANCH   1   6
TORSDOF 4
ENDMDL
MODEL 6
REMARK VINA RESULT:      -1.6      2.268      3.583
REMARK  4 active torsions:
REMARK  status: ('A' for Active; 'I' for Inactive)
REMARK    1  A    between atoms: C1_1  and  C6_6 
REMARK    2  A    between atoms: C1_1  and  C8_8 
REMARK    3  A    between atoms: C7_7  and  C9_9 
REMARK    4  A    between atoms: C8_8  and  C9_9 
ROOT
HETATM    1  C1  UNL     1     -34.830   5.139   4.319  1.00 20.00     0.131 C 
HETATM    2  O10 UNL     1     -35.777   4.608   4.900  1.00 20.00    -0.298 OA
ENDROOT
BRANCH   1   3
HETATM    3  C6  UNL     1     -33.524   4.410   4.139  1.00 20.00     0.055 A 
HETATM    4  C2  UNL     1     -33.087   3.484   5.214  1.00 20.00     0.013 A 
HETATM    5  C3  UNL     1     -33.571   2.944   3.903  1.00 20.00     0.013 A 
ENDBRANCH   1   3
BRANCH   1   6
HETATM    6  C8  UNL     1     -34.897   6.543   3.747  1.00 20.00     0.079 C 
BRANCH   6   7
HETATM    7  C9  UNL     1     -33.522   7.193   3.628  1.00 20.00     0.012 C 
BRANCH   7   8
HETATM    8  C7  UNL     1     -33.148   7.444   2.177  1.00 20.00    -0.014 A 
HETATM    9  C4  UNL     1     -31.782   7.968   1.826  1.00 20.00     0.005 A 
HETATM   10  C5  UNL     1     -32.152   6.552   1.487  1.00 20.00     0.005 A 
ENDBRANCH   7   8
ENDBRANCH   6   7
ENDBRANCH   1   6
TORSDOF 4
ENDMDL
MODEL 7
REMARK VINA RESULT:      -1.4      1.442      1.940
REMARK  4 active torsions:
REMARK  status: ('A' for Active; 'I' for Inactive)
REMARK    1  A    between atoms: C1_1  and  C6_6 
REMARK    2  A    between atoms: C1_1  and  C8_8 
REMARK    3  A    between atoms: C7_7  and  C9_9 
REMARK    4  A    between atoms: C8_8  and  C9_9 
ROOT
HETATM    1  C1  UNL     1     -33.498   5.216   3.070  1.00 20.00     0.131 C 
HETATM    2  O10 UNL     1     -33.618   4.226   3.791  1.00 20.00    -0.298 OA
ENDROOT
BRANCH   1   3
HETATM    3  C6  UNL     1     -34.471   6.363   3.158  1.00 20.00     0.055 A 
HETATM    4  C2  UNL     1     -35.431   6.379   4.292  1.00 20.00     0.013 A 
HETATM    5  C3  UNL     1     -34.289   7.350   4.254  1.00 20.00     0.013 A 
ENDBRANCH   1   3
BRANCH   1   6
HETATM    6  C8  UNL     1     -32.381   5.364   2.052  1.00 20.00     0.079 C 
BRANCH   6   7
HETATM    7  C9  UNL     1     -32.628   6.508   1.074  1.00 20.00     0.012 C 
BRANCH   7   8
HETATM    8  C7  UNL     1     -31.835   7.747   1.453  1.00 20.00    -0.014 A 
HETATM    9  C4  UNL     1     -31.459   8.757   0.404  1.00 20.00     0.005 A 
HETATM   10  C5  UNL     1     -32.493   9.100   1.439  1.00 20.00     0.005 A 
ENDBRANCH   7   8
ENDBRANCH   6   7
ENDBRANCH   1   6
TORSDOF 4
ENDMDL
MODEL 8
REMARK VINA RESULT:      -1.3      1.926      5.299
REMARK  4 active torsions:
REMARK  status: ('A' for Active; 'I' for Inactive)
REMARK    1  A    between atoms: C1_1  and  C6_6 
REMARK    2  A    between atoms: C1_1  and  C8_8 
REMARK    3  A    between atoms: C7_7  and  C9_9 
REMARK    4  A    between atoms: C8_8  and  C9_9 
ROOT
HETATM    1  C1  UNL     1     -33.356   6.423   2.528  1.00 20.00     0.131 C 
HETATM    2  O10 UNL     1     -33.253   5.593   1.625  1.00 20.00    -0.298 OA
ENDROOT
BRANCH   1   3
HETATM    3  C6  UNL     1     -32.488   7.654   2.554  1.00 20.00     0.055 A 
HETATM    4  C2  UNL     1     -31.319   7.703   1.639  1.00 20.00     0.013 A 
HETATM    5  C3  UNL     1     -32.522   8.556   1.374  1.00 20.00     0.013 A 
ENDBRANCH   1   3
BRANCH   1   6
HETATM    6  C8  UNL     1     -34.347   6.280   3.669  1.00 20.00     0.079 C 
BRANCH   6   7
HETATM    7  C9  UNL     1     -34.615   4.824   4.034  1.00 20.00     0.012 C 
BRANCH   7   8
HETATM    8  C7  UNL     1     -33.321   4.041   4.187  1.00 20.00    -0.014 A 
HETATM    9  C4  UNL     1     -33.018   3.323   5.474  1.00 20.00     0.005 A 
HETATM   10  C5  UNL     1     -33.348   2.538   4.235  1.00 20.00     0.005 A 
ENDBRANCH   7   8
ENDBRANCH   6   7
ENDBRANCH   1   6
TORSDOF 4
ENDMDL
MODEL 9
REMARK VINA RESULT:      -1.1      2.159      3.181
REMARK  4 active torsions:
REMARK  status: ('A' for Active; 'I' for Inactive)
REMARK    1  A    between atoms: C1_1  and  C6_6 
REMARK    2  A    between atoms: C1_1  and  C8_8 
REMARK    3  A    between atoms: C7_7  and  C9_9 
REMARK    4  A    between atoms: C8_8  and  C9_9 
ROOT
HETATM    1  C1  UNL     1     -33.907   5.057   3.600  1.00 20.00     0.131 C 
HETATM    2  O10 UNL     1     -34.577   6.068   3.809  1.00 20.00    -0.298 OA
ENDROOT
BRANCH   1   3
HETATM    3  C6  UNL     1     -34.044   3.840   4.478  1.00 20.00     0.055 A 
HETATM    4  C2  UNL     1     -33.256   2.632   4.126  1.00 20.00     0.013 A 
HETATM    5  C3  UNL     1     -32.884   3.455   5.322  1.00 20.00     0.013 A 
ENDBRANCH   1   3
BRANCH   1   6
HETATM    6  C8  UNL     1     -32.904   4.952   2.465  1.00 20.00     0.079 C 
BRANCH   6   7
HETATM    7  C9  UNL     1     -33.009   6.114   1.482  1.00 20.00     0.012 C 
BRANCH   7   8
HETATM    8  C7  UNL     1     -31.927   7.152   1.727  1.00 20.00    -0.014 A 
HETATM    9  C4  UNL     1     -32.018   8.508   1.083  1.00 20.00     0.005 A 
HETATM   10  C5  UNL     1     -32.220   8.366   2.566  1.00 20.00     0.005 A 
ENDBRANCH   7   8
ENDBRANCH   6   7
ENDBRANCH   1   6
TORSDOF 4
ENDMDL
