MODEL 1
REMARK VINA RESULT:       0.2      0.000      0.000
REMARK  1 active torsions:
REMARK  status: ('A' for Active; 'I' for Inactive)
REMARK    1  A    between atoms: C8_8  and  C10_10 
ROOT
HETATM    1  C1  UNL     1     -32.361  10.290  -0.285  1.00 20.00     0.012 C 
HETATM    2  C2  UNL     1     -32.370   9.813   0.817  1.00 20.00    -0.117 C 
HETATM    3  C10 UNL     1     -32.369   9.248   2.166  1.00 20.00     0.097 C 
ENDROOT
BRANCH   3   4
HETATM    4  C8  UNL     1     -33.186   7.950   2.211  1.00 20.00    -0.002 C 
HETATM    5  C5  UNL     1     -33.656   7.689   3.651  1.00 20.00     0.005 C 
HETATM    6  C3  UNL     1     -34.753   6.632   3.735  1.00 20.00     0.000 C 
HETATM    7  C4  UNL     1     -34.259   5.195   3.856  1.00 20.00     0.001 C 
HETATM    8  C6  UNL     1     -33.058   4.795   3.002  1.00 20.00     0.016 C 
HETATM    9  C9  UNL     1     -33.023   5.434   1.616  1.00 20.00     0.058 C 
HETATM   10  C7  UNL     1     -32.356   6.811   1.599  1.00 20.00     0.021 C 
HETATM   11 BR11 UNL     1     -31.946   4.256   0.445  1.00 20.00    -0.091 Br
ENDBRANCH   3   4
TORSDOF 1
ENDMDL
MODEL 2
REMARK VINA RESULT:       0.4      2.205      2.889
REMARK  1 active torsions:
REMARK  status: ('A' for Active; 'I' for Inactive)
REMARK    1  A    between atoms: C8_8  and  C10_10 
ROOT
HETATM    1  C1  UNL     1     -33.083  10.594   0.300  1.00 20.00     0.012 C 
HETATM    2  C2  UNL     1     -32.266   9.722   0.418  1.00 20.00    -0.117 C 
HETATM    3  C10 UNL     1     -31.259   8.669   0.549  1.00 20.00     0.097 C 
ENDROOT
BRANCH   3   4
HETATM    4  C8  UNL     1     -31.702   7.618   1.575  1.00 20.00    -0.002 C 
HETATM    5  C5  UNL     1     -32.532   6.533   0.872  1.00 20.00     0.005 C 
HETATM    6  C3  UNL     1     -32.715   5.280   1.725  1.00 20.00     0.000 C 
HETATM    7  C4  UNL     1     -33.919   5.304   2.660  1.00 20.00     0.001 C 
HETATM    8  C6  UNL     1     -34.213   6.614   3.387  1.00 20.00     0.016 C 
HETATM    9  C9  UNL     1     -32.973   7.392   3.821  1.00 20.00     0.058 C 
HETATM   10  C7  UNL     1     -32.427   8.321   2.734  1.00 20.00     0.021 C 
HETATM   11 BR11 UNL     1     -33.494   8.538   5.350  1.00 20.00    -0.091 Br
ENDBRANCH   3   4
TORSDOF 1
ENDMDL
MODEL 3
REMARK VINA RESULT:       0.5      1.594      2.109
REMARK  1 active torsions:
REMARK  status: ('A' for Active; 'I' for Inactive)
REMARK    1  A    between atoms: C8_8  and  C10_10 
ROOT
HETATM    1  C1  UNL     1     -32.411   9.411   0.497  1.00 20.00     0.012 C 
HETATM    2  C2  UNL     1     -32.160   8.425   1.136  1.00 20.00    -0.117 C 
HETATM    3  C10 UNL     1     -31.836   7.229   1.912  1.00 20.00     0.097 C 
ENDROOT
BRANCH   3   4
HETATM    4  C8  UNL     1     -33.112   6.477   2.311  1.00 20.00    -0.002 C 
HETATM    5  C5  UNL     1     -34.046   7.424   3.081  1.00 20.00     0.005 C 
HETATM    6  C3  UNL     1     -35.467   6.882   3.210  1.00 20.00     0.000 C 
HETATM    7  C4  UNL     1     -35.712   5.990   4.421  1.00 20.00     0.001 C 
HETATM    8  C6  UNL     1     -34.617   4.990   4.784  1.00 20.00     0.016 C 
HETATM    9  C9  UNL     1     -33.903   4.366   3.588  1.00 20.00     0.058 C 
HETATM   10  C7  UNL     1     -32.727   5.203   3.079  1.00 20.00     0.021 C 
HETATM   11 BR11 UNL     1     -33.161   2.627   4.177  1.00 20.00    -0.091 Br
ENDBRANCH   3   4
TORSDOF 1
ENDMDL
MODEL 4
REMARK VINA RESULT:       2.2      2.268      4.273
REMARK  1 active torsions:
REMARK  status: ('A' for Active; 'I' for Inactive)
REMARK    1  A    between atoms: C8_8  and  C10_10 
ROOT
HETATM    1  C1  UNL     1     -34.206   3.518  -0.798  1.00 20.00     0.012 C 
HETATM    2  C2  UNL     1     -33.328   4.094  -0.215  1.00 20.00    -0.117 C 
HETATM    3  C10 UNL     1     -32.246   4.781   0.488  1.00 20.00     0.097 C 
ENDROOT
BRANCH   3   4
HETATM    4  C8  UNL     1     -32.767   6.044   1.185  1.00 20.00    -0.002 C 
HETATM    5  C5  UNL     1     -31.591   6.983   1.494  1.00 20.00     0.005 C 
HETATM    6  C3  UNL     1     -32.038   8.396   1.859  1.00 20.00     0.000 C 
HETATM    7  C4  UNL     1     -32.334   8.619   3.338  1.00 20.00     0.001 C 
HETATM    8  C6  UNL     1     -33.078   7.509   4.076  1.00 20.00     0.016 C 
HETATM    9  C9  UNL     1     -34.145   6.797   3.247  1.00 20.00     0.058 C 
HETATM   10  C7  UNL     1     -33.593   5.636   2.416  1.00 20.00     0.021 C 
HETATM   11 BR11 UNL     1     -35.464   6.029   4.507  1.00 20.00    -0.091 Br
ENDBRANCH   3   4
TORSDOF 1
ENDMDL
MODEL 5
REMARK VINA RESULT:       2.2      1.349      4.505
REMARK  1 active torsions:
REMARK  status: ('A' for Active; 'I' for Inactive)
REMARK    1  A    between atoms: C8_8  and  C10_10 
ROOT
HETATM    1  C1  UNL     1     -33.475   2.392   4.869  1.00 20.00     0.012 C 
HETATM    2  C2  UNL     1     -33.898   3.488   4.619  1.00 20.00    -0.117 C 
HETATM    3  C10 UNL     1     -34.431   4.817   4.323  1.00 20.00     0.097 C 
ENDROOT
BRANCH   3   4
HETATM    4  C8  UNL     1     -33.372   5.686   3.633  1.00 20.00    -0.002 C 
HETATM    5  C5  UNL     1     -33.919   7.110   3.445  1.00 20.00     0.005 C 
HETATM    6  C3  UNL     1     -32.831   8.123   3.096  1.00 20.00     0.000 C 
HETATM    7  C4  UNL     1     -32.531   8.264   1.608  1.00 20.00     0.001 C 
HETATM    8  C6  UNL     1     -32.492   6.982   0.780  1.00 20.00     0.016 C 
HETATM    9  C9  UNL     1     -31.900   5.775   1.503  1.00 20.00     0.058 C 
HETATM   10  C7  UNL     1     -32.927   5.000   2.332  1.00 20.00     0.021 C 
HETATM   11 BR11 UNL     1     -31.215   4.531   0.123  1.00 20.00    -0.091 Br
ENDBRANCH   3   4
TORSDOF 1
ENDMDL
MODEL 6
REMARK VINA RESULT:       2.2      1.868      4.639
REMARK  1 active torsions:
REMARK  status: ('A' for Active; 'I' for Inactive)
REMARK    1  A    between atoms: C8_8  and  C10_10 
ROOT
HETATM    1  C1  UNL     1     -33.093   2.544   5.093  1.00 20.00     0.012 C 
HETATM    2  C2  UNL     1     -33.421   3.276   4.198  1.00 20.00    -0.117 C 
HETATM    3  C10 UNL     1     -33.828   4.150   3.099  1.00 20.00     0.097 C 
ENDROOT
BRANCH   3   4
HETATM    4  C8  UNL     1     -33.405   5.599   3.373  1.00 20.00    -0.002 C 
HETATM    5  C5  UNL     1     -34.584   6.370   3.988  1.00 20.00     0.005 C 
HETATM    6  C3  UNL     1     -34.164   7.698   4.612  1.00 20.00     0.000 C 
HETATM    7  C4  UNL     1     -34.153   8.887   3.659  1.00 20.00     0.001 C 
HETATM    8  C6  UNL     1     -33.609   8.648   2.252  1.00 20.00     0.016 C 
HETATM    9  C9  UNL     1     -32.429   7.683   2.181  1.00 20.00     0.058 C 
HETATM   10  C7  UNL     1     -32.851   6.215   2.078  1.00 20.00     0.021 C 
HETATM   11 BR11 UNL     1     -31.410   8.107   0.538  1.00 20.00    -0.091 Br
ENDBRANCH   3   4
TORSDOF 1
ENDMDL
MODEL 7
REMARK VINA RESULT:       2.3      2.215      4.510
REMARK  1 active torsions:
REMARK  status: ('A' for Active; 'I' for Inactive)
REMARK    1  A    between atoms: C8_8  and  C10_10 
ROOT
HETATM    1  C1  UNL     1     -35.484   4.695   4.881  1.00 20.00     0.012 C 
HETATM    2  C2  UNL     1     -35.170   5.784   4.483  1.00 20.00    -0.117 C 
HETATM    3  C10 UNL     1     -34.796   7.118   4.014  1.00 20.00     0.097 C 
ENDROOT
BRANCH   3   4
HETATM    4  C8  UNL     1     -34.070   7.036   2.665  1.00 20.00    -0.002 C 
HETATM    5  C5  UNL     1     -33.056   5.881   2.697  1.00 20.00     0.005 C 
HETATM    6  C3  UNL     1     -32.547   5.500   1.310  1.00 20.00     0.000 C 
HETATM    7  C4  UNL     1     -31.329   6.282   0.830  1.00 20.00     0.001 C 
HETATM    8  C6  UNL     1     -31.300   7.779   1.127  1.00 20.00     0.016 C 
HETATM    9  C9  UNL     1     -32.657   8.473   1.037  1.00 20.00     0.058 C 
HETATM   10  C7  UNL     1     -33.459   8.408   2.339  1.00 20.00     0.021 C 
HETATM   11 BR11 UNL     1     -32.325  10.387   0.658  1.00 20.00    -0.091 Br
ENDBRANCH   3   4
TORSDOF 1
ENDMDL
MODEL 8
REMARK VINA RESULT:       2.6      1.415      3.662
REMARK  1 active torsions:
REMARK  status: ('A' for Active; 'I' for Inactive)
REMARK    1  A    between atoms: C8_8  and  C10_10 
ROOT
HETATM    1  C1  UNL     1     -37.129   6.932   2.593  1.00 20.00     0.012 C 
HETATM    2  C2  UNL     1     -36.286   6.492   3.327  1.00 20.00    -0.117 C 
HETATM    3  C10 UNL     1     -35.274   5.949   4.231  1.00 20.00     0.097 C 
ENDROOT
BRANCH   3   4
HETATM    4  C8  UNL     1     -33.864   6.320   3.756  1.00 20.00    -0.002 C 
HETATM    5  C5  UNL     1     -33.745   7.849   3.647  1.00 20.00     0.005 C 
HETATM    6  C3  UNL     1     -32.300   8.325   3.525  1.00 20.00     0.000 C 
HETATM    7  C4  UNL     1     -31.757   8.388   2.102  1.00 20.00     0.001 C 
HETATM    8  C6  UNL     1     -32.128   7.245   1.162  1.00 20.00     0.016 C 
HETATM    9  C9  UNL     1     -32.195   5.871   1.826  1.00 20.00     0.058 C 
HETATM   10  C7  UNL     1     -33.557   5.566   2.453  1.00 20.00     0.021 C 
HETATM   11 BR11 UNL     1     -31.890   4.514   0.417  1.00 20.00    -0.091 Br
ENDBRANCH   3   4
TORSDOF 1
ENDMDL
MODEL 9
REMARK VINA RESULT:       2.7      2.588      5.151
REMARK  1 active torsions:
REMARK  status: ('A' for Active; 'I' for Inactive)
REMARK    1  A    between atoms: C8_8  and  C10_10 
ROOT
HETATM    1  C1  UNL     1     -32.495   3.174   5.258  1.00 20.00     0.012 C 
HETATM    2  C2  UNL     1     -33.304   3.498   4.431  1.00 20.00    -0.117 C 
HETATM    3  C10 UNL     1     -34.298   3.874   3.427  1.00 20.00     0.097 C 
ENDROOT
BRANCH   3   4
HETATM    4  C8  UNL     1     -34.043   5.298   2.916  1.00 20.00    -0.002 C 
HETATM    5  C5  UNL     1     -32.851   5.290   1.947  1.00 20.00     0.005 C 
HETATM    6  C3  UNL     1     -32.744   6.572   1.127  1.00 20.00     0.000 C 
HETATM    7  C4  UNL     1     -31.941   7.692   1.779  1.00 20.00     0.001 C 
HETATM    8  C6  UNL     1     -32.139   7.913   3.276  1.00 20.00     0.016 C 
HETATM    9  C9  UNL     1     -33.569   7.699   3.767  1.00 20.00     0.058 C 
HETATM   10  C7  UNL     1     -33.878   6.241   4.118  1.00 20.00     0.021 C 
HETATM   11 BR11 UNL     1     -33.793   8.753   5.428  1.00 20.00    -0.091 Br
ENDBRANCH   3   4
TORSDOF 1
ENDMDL
