MODEL 1
REMARK VINA RESULT:      -0.8      0.000      0.000
REMARK  5 active torsions:
REMARK  status: ('A' for Active; 'I' for Inactive)
REMARK    1  A    between atoms: C2_2  and  C8_8 
REMARK    2  A    between atoms: C3_3  and  C9_9 
REMARK    3  A    between atoms: C3_3  and  C11_11 
REMARK    4  A    between atoms: C8_8  and  C10_10 
REMARK    5  A    between atoms: C9_9  and  C10_10 
ROOT
HETATM    1  C1  UNL     1     -32.434   9.589   0.371  1.00 20.00    -0.111 C 
HETATM    2  C2  UNL     1     -32.052   8.733   1.121  1.00 20.00    -0.107 C 
HETATM    3  C4  UNL     1     -32.904  10.632  -0.540  1.00 20.00     0.112 C 
ENDROOT
BRANCH   2   4
HETATM    4  C8  UNL     1     -31.592   7.680   2.037  1.00 20.00     0.094 C 
BRANCH   4   5
HETATM    5  C10 UNL     1     -31.924   6.274   1.525  1.00 20.00     0.020 C 
BRANCH   5   6
HETATM    6  C9  UNL     1     -33.407   5.904   1.631  1.00 20.00     0.080 C 
BRANCH   6   7
HETATM    7  C3  UNL     1     -33.812   5.419   3.018  1.00 20.00     0.134 C 
HETATM    8  O12 UNL     1     -33.336   4.380   3.485  1.00 20.00    -0.297 OA
BRANCH   7   9
HETATM    9  C11 UNL     1     -34.816   6.272   3.820  1.00 20.00     0.009 C 
HETATM   10  C5  UNL     1     -35.881   6.865   2.889  1.00 20.00     0.022 C 
HETATM   11  C6  UNL     1     -34.071   7.429   4.509  1.00 20.00     0.022 C 
HETATM   12  C7  UNL     1     -35.471   5.396   4.896  1.00 20.00     0.022 C 
ENDBRANCH   7   9
ENDBRANCH   6   7
ENDBRANCH   5   6
ENDBRANCH   4   5
ENDBRANCH   2   4
TORSDOF 5
ENDMDL
MODEL 2
REMARK VINA RESULT:      -0.8      0.022      1.254
REMARK  5 active torsions:
REMARK  status: ('A' for Active; 'I' for Inactive)
REMARK    1  A    between atoms: C2_2  and  C8_8 
REMARK    2  A    between atoms: C3_3  and  C9_9 
REMARK    3  A    between atoms: C3_3  and  C11_11 
REMARK    4  A    between atoms: C8_8  and  C10_10 
REMARK    5  A    between atoms: C9_9  and  C10_10 
ROOT
HETATM    1  C1  UNL     1     -32.448   9.597   0.368  1.00 20.00    -0.111 C 
HETATM    2  C2  UNL     1     -32.059   8.737   1.111  1.00 20.00    -0.107 C 
HETATM    3  C4  UNL     1     -32.924  10.640  -0.539  1.00 20.00     0.112 C 
ENDROOT
BRANCH   2   4
HETATM    4  C8  UNL     1     -31.583   7.680   2.013  1.00 20.00     0.094 C 
BRANCH   4   5
HETATM    5  C10 UNL     1     -31.933   6.277   1.504  1.00 20.00     0.020 C 
BRANCH   5   6
HETATM    6  C9  UNL     1     -33.418   5.920   1.625  1.00 20.00     0.080 C 
BRANCH   6   7
HETATM    7  C3  UNL     1     -33.810   5.423   3.013  1.00 20.00     0.134 C 
HETATM    8  O12 UNL     1     -33.323   4.385   3.470  1.00 20.00    -0.297 OA
BRANCH   7   9
HETATM    9  C11 UNL     1     -34.814   6.264   3.826  1.00 20.00     0.009 C 
HETATM   10  C5  UNL     1     -35.507   5.399   4.886  1.00 20.00     0.022 C 
HETATM   11  C6  UNL     1     -35.890   6.833   2.883  1.00 20.00     0.022 C 
HETATM   12  C7  UNL     1     -34.071   7.432   4.488  1.00 20.00     0.022 C 
ENDBRANCH   7   9
ENDBRANCH   6   7
ENDBRANCH   5   6
ENDBRANCH   4   5
ENDBRANCH   2   4
TORSDOF 5
ENDMDL
MODEL 3
REMARK VINA RESULT:      -0.8      0.029      1.246
REMARK  5 active torsions:
REMARK  status: ('A' for Active; 'I' for Inactive)
REMARK    1  A    between atoms: C2_2  and  C8_8 
REMARK    2  A    between atoms: C3_3  and  C9_9 
REMARK    3  A    between atoms: C3_3  and  C11_11 
REMARK    4  A    between atoms: C8_8  and  C10_10 
REMARK    5  A    between atoms: C9_9  and  C10_10 
ROOT
HETATM    1  C1  UNL     1     -32.419   9.582   0.367  1.00 20.00    -0.111 C 
HETATM    2  C2  UNL     1     -32.049   8.730   1.129  1.00 20.00    -0.107 C 
HETATM    3  C4  UNL     1     -32.875  10.616  -0.560  1.00 20.00     0.112 C 
ENDROOT
BRANCH   2   4
HETATM    4  C8  UNL     1     -31.600   7.683   2.056  1.00 20.00     0.094 C 
BRANCH   4   5
HETATM    5  C10 UNL     1     -31.916   6.274   1.543  1.00 20.00     0.020 C 
BRANCH   5   6
HETATM    6  C9  UNL     1     -33.396   5.891   1.635  1.00 20.00     0.080 C 
BRANCH   6   7
HETATM    7  C3  UNL     1     -33.810   5.404   3.020  1.00 20.00     0.134 C 
HETATM    8  O12 UNL     1     -33.345   4.359   3.484  1.00 20.00    -0.297 OA
BRANCH   7   9
HETATM    9  C11 UNL     1     -34.808   6.264   3.822  1.00 20.00     0.009 C 
HETATM   10  C5  UNL     1     -34.085   7.430   4.508  1.00 20.00     0.022 C 
HETATM   11  C6  UNL     1     -35.475   5.399   4.907  1.00 20.00     0.022 C 
HETATM   12  C7  UNL     1     -35.893   6.789   2.873  1.00 20.00     0.022 C 
ENDBRANCH   7   9
ENDBRANCH   6   7
ENDBRANCH   5   6
ENDBRANCH   4   5
ENDBRANCH   2   4
TORSDOF 5
ENDMDL
MODEL 4
REMARK VINA RESULT:      -0.6      1.652      5.193
REMARK  5 active torsions:
REMARK  status: ('A' for Active; 'I' for Inactive)
REMARK    1  A    between atoms: C2_2  and  C8_8 
REMARK    2  A    between atoms: C3_3  and  C9_9 
REMARK    3  A    between atoms: C3_3  and  C11_11 
REMARK    4  A    between atoms: C8_8  and  C10_10 
REMARK    5  A    between atoms: C9_9  and  C10_10 
ROOT
HETATM    1  C1  UNL     1     -33.848   3.696   4.478  1.00 20.00    -0.111 C 
HETATM    2  C2  UNL     1     -34.643   4.595   4.460  1.00 20.00    -0.107 C 
HETATM    3  C4  UNL     1     -32.882   2.599   4.504  1.00 20.00     0.112 C 
ENDROOT
BRANCH   2   4
HETATM    4  C8  UNL     1     -35.618   5.695   4.447  1.00 20.00     0.094 C 
BRANCH   4   5
HETATM    5  C10 UNL     1     -35.216   6.819   3.486  1.00 20.00     0.020 C 
BRANCH   5   6
HETATM    6  C9  UNL     1     -33.746   7.236   3.590  1.00 20.00     0.080 C 
BRANCH   6   7
HETATM    7  C3  UNL     1     -32.966   7.031   2.296  1.00 20.00     0.134 C 
HETATM    8  O12 UNL     1     -33.098   5.995   1.639  1.00 20.00    -0.297 OA
BRANCH   7   9
HETATM    9  C11 UNL     1     -32.025   8.161   1.830  1.00 20.00     0.009 C 
HETATM   10  C5  UNL     1     -32.811   9.235   1.067  1.00 20.00     0.022 C 
HETATM   11  C6  UNL     1     -30.953   7.582   0.890  1.00 20.00     0.022 C 
HETATM   12  C7  UNL     1     -31.331   8.772   3.055  1.00 20.00     0.022 C 
ENDBRANCH   7   9
ENDBRANCH   6   7
ENDBRANCH   5   6
ENDBRANCH   4   5
ENDBRANCH   2   4
TORSDOF 5
ENDMDL
MODEL 5
REMARK VINA RESULT:      -0.4      1.961      5.312
REMARK  5 active torsions:
REMARK  status: ('A' for Active; 'I' for Inactive)
REMARK    1  A    between atoms: C2_2  and  C8_8 
REMARK    2  A    between atoms: C3_3  and  C9_9 
REMARK    3  A    between atoms: C3_3  and  C11_11 
REMARK    4  A    between atoms: C8_8  and  C10_10 
REMARK    5  A    between atoms: C9_9  and  C10_10 
ROOT
HETATM    1  C1  UNL     1     -33.841   3.675   4.420  1.00 20.00    -0.111 C 
HETATM    2  C2  UNL     1     -34.532   4.644   4.263  1.00 20.00    -0.107 C 
HETATM    3  C4  UNL     1     -33.003   2.493   4.615  1.00 20.00     0.112 C 
ENDROOT
BRANCH   2   4
HETATM    4  C8  UNL     1     -35.380   5.830   4.080  1.00 20.00     0.094 C 
BRANCH   4   5
HETATM    5  C10 UNL     1     -34.669   7.125   4.487  1.00 20.00     0.020 C 
BRANCH   5   6
HETATM    6  C9  UNL     1     -34.270   8.017   3.308  1.00 20.00     0.080 C 
BRANCH   6   7
HETATM    7  C3  UNL     1     -32.761   8.184   3.159  1.00 20.00     0.134 C 
HETATM    8  O12 UNL     1     -32.071   8.547   4.116  1.00 20.00    -0.297 OA
BRANCH   7   9
HETATM    9  C11 UNL     1     -32.129   7.871   1.787  1.00 20.00     0.009 C 
HETATM   10  C5  UNL     1     -30.599   7.904   1.880  1.00 20.00     0.022 C 
HETATM   11  C6  UNL     1     -32.579   8.927   0.761  1.00 20.00     0.022 C 
HETATM   12  C7  UNL     1     -32.609   6.491   1.318  1.00 20.00     0.022 C 
ENDBRANCH   7   9
ENDBRANCH   6   7
ENDBRANCH   5   6
ENDBRANCH   4   5
ENDBRANCH   2   4
TORSDOF 5
ENDMDL
MODEL 6
REMARK VINA RESULT:      -0.4      1.956      5.314
REMARK  5 active torsions:
REMARK  status: ('A' for Active; 'I' for Inactive)
REMARK    1  A    between atoms: C2_2  and  C8_8 
REMARK    2  A    between atoms: C3_3  and  C9_9 
REMARK    3  A    between atoms: C3_3  and  C11_11 
REMARK    4  A    between atoms: C8_8  and  C10_10 
REMARK    5  A    between atoms: C9_9  and  C10_10 
ROOT
HETATM    1  C1  UNL     1     -33.859   3.773   4.445  1.00 20.00    -0.111 C 
HETATM    2  C2  UNL     1     -34.519   4.763   4.285  1.00 20.00    -0.107 C 
HETATM    3  C4  UNL     1     -33.050   2.570   4.641  1.00 20.00     0.112 C 
ENDROOT
BRANCH   2   4
HETATM    4  C8  UNL     1     -35.321   5.978   4.084  1.00 20.00     0.094 C 
BRANCH   4   5
HETATM    5  C10 UNL     1     -34.564   7.249   4.483  1.00 20.00     0.020 C 
BRANCH   5   6
HETATM    6  C9  UNL     1     -34.180   8.145   3.302  1.00 20.00     0.080 C 
BRANCH   6   7
HETATM    7  C3  UNL     1     -32.674   8.263   3.096  1.00 20.00     0.134 C 
HETATM    8  O12 UNL     1     -31.940   8.628   4.018  1.00 20.00    -0.297 OA
BRANCH   7   9
HETATM    9  C11 UNL     1     -32.101   7.897   1.711  1.00 20.00     0.009 C 
HETATM   10  C5  UNL     1     -32.564   6.497   1.290  1.00 20.00     0.022 C 
HETATM   11  C6  UNL     1     -30.563   7.904   1.773  1.00 20.00     0.022 C 
HETATM   12  C7  UNL     1     -32.558   8.944   0.687  1.00 20.00     0.022 C 
ENDBRANCH   7   9
ENDBRANCH   6   7
ENDBRANCH   5   6
ENDBRANCH   4   5
ENDBRANCH   2   4
TORSDOF 5
ENDMDL
MODEL 7
REMARK VINA RESULT:      -0.4      1.946      5.311
REMARK  5 active torsions:
REMARK  status: ('A' for Active; 'I' for Inactive)
REMARK    1  A    between atoms: C2_2  and  C8_8 
REMARK    2  A    between atoms: C3_3  and  C9_9 
REMARK    3  A    between atoms: C3_3  and  C11_11 
REMARK    4  A    between atoms: C8_8  and  C10_10 
REMARK    5  A    between atoms: C9_9  and  C10_10 
ROOT
HETATM    1  C1  UNL     1     -33.872   3.726   4.390  1.00 20.00    -0.111 C 
HETATM    2  C2  UNL     1     -34.554   4.703   4.243  1.00 20.00    -0.107 C 
HETATM    3  C4  UNL     1     -33.042   2.536   4.575  1.00 20.00     0.112 C 
ENDROOT
BRANCH   2   4
HETATM    4  C8  UNL     1     -35.387   5.901   4.070  1.00 20.00     0.094 C 
BRANCH   4   5
HETATM    5  C10 UNL     1     -34.655   7.184   4.477  1.00 20.00     0.020 C 
BRANCH   5   6
HETATM    6  C9  UNL     1     -34.244   8.070   3.297  1.00 20.00     0.080 C 
BRANCH   6   7
HETATM    7  C3  UNL     1     -32.733   8.211   3.144  1.00 20.00     0.134 C 
HETATM    8  O12 UNL     1     -32.034   8.558   4.100  1.00 20.00    -0.297 OA
BRANCH   7   9
HETATM    9  C11 UNL     1     -32.112   7.891   1.769  1.00 20.00     0.009 C 
HETATM   10  C5  UNL     1     -32.553   8.924   0.725  1.00 20.00     0.022 C 
HETATM   11  C6  UNL     1     -32.581   6.499   1.305  1.00 20.00     0.022 C 
HETATM   12  C7  UNL     1     -30.583   7.878   1.900  1.00 20.00     0.022 C 
ENDBRANCH   7   9
ENDBRANCH   6   7
ENDBRANCH   5   6
ENDBRANCH   4   5
ENDBRANCH   2   4
TORSDOF 5
ENDMDL
MODEL 8
REMARK VINA RESULT:       0.7      1.979      5.529
REMARK  5 active torsions:
REMARK  status: ('A' for Active; 'I' for Inactive)
REMARK    1  A    between atoms: C2_2  and  C8_8 
REMARK    2  A    between atoms: C3_3  and  C9_9 
REMARK    3  A    between atoms: C3_3  and  C11_11 
REMARK    4  A    between atoms: C8_8  and  C10_10 
REMARK    5  A    between atoms: C9_9  and  C10_10 
ROOT
HETATM    1  C1  UNL     1     -33.825   3.857   4.352  1.00 20.00    -0.111 C 
HETATM    2  C2  UNL     1     -34.253   4.950   4.102  1.00 20.00    -0.107 C 
HETATM    3  C4  UNL     1     -33.307   2.525   4.662  1.00 20.00     0.112 C 
ENDROOT
BRANCH   2   4
HETATM    4  C8  UNL     1     -34.777   6.290   3.803  1.00 20.00     0.094 C 
BRANCH   4   5
HETATM    5  C10 UNL     1     -33.666   7.338   3.679  1.00 20.00     0.020 C 
BRANCH   5   6
HETATM    6  C9  UNL     1     -33.699   8.133   2.371  1.00 20.00     0.080 C 
BRANCH   6   7
HETATM    7  C3  UNL     1     -32.324   8.312   1.736  1.00 20.00     0.134 C 
HETATM    8  O12 UNL     1     -31.341   7.717   2.186  1.00 20.00    -0.297 OA
BRANCH   7   9
HETATM    9  C11 UNL     1     -32.207   9.243   0.512  1.00 20.00     0.009 C 
HETATM   10  C5  UNL     1     -33.120   8.758  -0.622  1.00 20.00     0.022 C 
HETATM   11  C6  UNL     1     -30.754   9.241   0.002  1.00 20.00     0.022 C 
HETATM   12  C7  UNL     1     -32.582  10.671   0.929  1.00 20.00     0.022 C 
ENDBRANCH   7   9
ENDBRANCH   6   7
ENDBRANCH   5   6
ENDBRANCH   4   5
ENDBRANCH   2   4
TORSDOF 5
ENDMDL
MODEL 9
REMARK VINA RESULT:       1.0      2.267      5.207
REMARK  5 active torsions:
REMARK  status: ('A' for Active; 'I' for Inactive)
REMARK    1  A    between atoms: C2_2  and  C8_8 
REMARK    2  A    between atoms: C3_3  and  C9_9 
REMARK    3  A    between atoms: C3_3  and  C11_11 
REMARK    4  A    between atoms: C8_8  and  C10_10 
REMARK    5  A    between atoms: C9_9  and  C10_10 
ROOT
HETATM    1  C1  UNL     1     -34.032   3.870   4.651  1.00 20.00    -0.111 C 
HETATM    2  C2  UNL     1     -34.755   4.804   4.438  1.00 20.00    -0.107 C 
HETATM    3  C4  UNL     1     -33.155   2.728   4.907  1.00 20.00     0.112 C 
ENDROOT
BRANCH   2   4
HETATM    4  C8  UNL     1     -35.647   5.942   4.176  1.00 20.00     0.094 C 
BRANCH   4   5
HETATM    5  C10 UNL     1     -34.875   7.238   3.904  1.00 20.00     0.020 C 
BRANCH   5   6
HETATM    6  C9  UNL     1     -33.353   7.068   3.889  1.00 20.00     0.080 C 
BRANCH   6   7
HETATM    7  C3  UNL     1     -32.705   7.531   2.589  1.00 20.00     0.134 C 
HETATM    8  O12 UNL     1     -32.417   8.719   2.418  1.00 20.00    -0.297 OA
BRANCH   7   9
HETATM    9  C11 UNL     1     -32.408   6.470   1.509  1.00 20.00     0.009 C 
HETATM   10  C5  UNL     1     -31.293   6.953   0.573  1.00 20.00     0.022 C 
HETATM   11  C6  UNL     1     -33.675   6.222   0.671  1.00 20.00     0.022 C 
HETATM   12  C7  UNL     1     -32.003   5.158   2.194  1.00 20.00     0.022 C 
ENDBRANCH   7   9
ENDBRANCH   6   7
ENDBRANCH   5   6
ENDBRANCH   4   5
ENDBRANCH   2   4
TORSDOF 5
ENDMDL
