MODEL 1
REMARK VINA RESULT:      -1.4      0.000      0.000
REMARK  2 active torsions:
REMARK  status: ('A' for Active; 'I' for Inactive)
REMARK    1  A    between atoms: C6_6  and  C7_7 
REMARK    2  A    between atoms: C8_8  and  O9_9 
ROOT
HETATM    1  C3  UNL     1     -32.909   7.872   3.185  1.00 20.00     0.007 C 
HETATM    2  C4  UNL     1     -33.655   6.605   2.781  1.00 20.00     0.032 C 
HETATM    3  C5  UNL     1     -31.578   6.841   1.494  1.00 20.00     0.036 C 
HETATM    4  C7  UNL     1     -32.050   8.217   1.972  1.00 20.00    -0.008 C 
HETATM    5  C8  UNL     1     -32.734   5.882   1.796  1.00 20.00     0.118 C 
ENDROOT
BRANCH   4   6
HETATM    6  C6  UNL     1     -32.834   8.967   0.896  1.00 20.00    -0.010 A 
HETATM    7  C1  UNL     1     -32.611  10.439   0.684  1.00 20.00     0.005 A 
HETATM    8  C2  UNL     1     -32.141   9.451  -0.347  1.00 20.00     0.005 A 
ENDBRANCH   4   6
BRANCH   5   9
HETATM    9  O9  UNL     1     -33.434   5.587   0.596  1.00 20.00    -0.396 OA
HETATM   10  H23 UNL     1     -34.059   6.316   0.454  1.00 20.00     0.210 HD
ENDBRANCH   5   9
TORSDOF 2
ENDMDL
MODEL 2
REMARK VINA RESULT:      -0.4      1.832      3.594
REMARK  2 active torsions:
REMARK  status: ('A' for Active; 'I' for Inactive)
REMARK    1  A    between atoms: C6_6  and  C7_7 
REMARK    2  A    between atoms: C8_8  and  O9_9 
ROOT
HETATM    1  C3  UNL     1     -32.698   6.107   1.414  1.00 20.00     0.007 C 
HETATM    2  C4  UNL     1     -32.676   7.203   0.355  1.00 20.00     0.032 C 
HETATM    3  C5  UNL     1     -31.671   7.997   2.448  1.00 20.00     0.036 C 
HETATM    4  C7  UNL     1     -32.648   6.856   2.744  1.00 20.00    -0.008 C 
HETATM    5  C8  UNL     1     -31.899   8.363   0.979  1.00 20.00     0.118 C 
ENDROOT
BRANCH   4   6
HETATM    6  C6  UNL     1     -34.022   7.366   3.177  1.00 20.00    -0.010 A 
HETATM    7  C1  UNL     1     -34.948   6.475   3.958  1.00 20.00     0.005 A 
HETATM    8  C2  UNL     1     -34.299   7.655   4.626  1.00 20.00     0.005 A 
ENDBRANCH   4   6
BRANCH   5   9
HETATM    9  O9  UNL     1     -32.659   9.562   0.899  1.00 20.00    -0.396 OA
HETATM   10  H23 UNL     1     -32.031  10.274   0.698  1.00 20.00     0.210 HD
ENDBRANCH   5   9
TORSDOF 2
ENDMDL
MODEL 3
REMARK VINA RESULT:       0.1      1.751      3.621
REMARK  2 active torsions:
REMARK  status: ('A' for Active; 'I' for Inactive)
REMARK    1  A    between atoms: C6_6  and  C7_7 
REMARK    2  A    between atoms: C8_8  and  O9_9 
ROOT
HETATM    1  C3  UNL     1     -32.717   8.078   2.056  1.00 20.00     0.007 C 
HETATM    2  C4  UNL     1     -31.437   7.274   1.863  1.00 20.00     0.032 C 
HETATM    3  C5  UNL     1     -33.396   5.974   1.158  1.00 20.00     0.036 C 
HETATM    4  C7  UNL     1     -33.817   7.027   2.187  1.00 20.00    -0.008 C 
HETATM    5  C8  UNL     1     -31.865   5.981   1.165  1.00 20.00     0.118 C 
ENDROOT
BRANCH   4   6
HETATM    6  C6  UNL     1     -33.910   6.454   3.600  1.00 20.00    -0.010 A 
HETATM    7  C1  UNL     1     -35.252   6.176   4.218  1.00 20.00     0.005 A 
HETATM    8  C2  UNL     1     -34.360   5.036   3.813  1.00 20.00     0.005 A 
ENDBRANCH   4   6
BRANCH   5   9
HETATM    9  O9  UNL     1     -31.386   4.853   1.885  1.00 20.00    -0.396 OA
HETATM   10  H23 UNL     1     -30.752   4.404   1.304  1.00 20.00     0.210 HD
ENDBRANCH   5   9
TORSDOF 2
ENDMDL
MODEL 4
REMARK VINA RESULT:       0.3      2.291      3.296
REMARK  2 active torsions:
REMARK  status: ('A' for Active; 'I' for Inactive)
REMARK    1  A    between atoms: C6_6  and  C7_7 
REMARK    2  A    between atoms: C8_8  and  O9_9 
ROOT
HETATM    1  C3  UNL     1     -33.187   7.322   4.132  1.00 20.00     0.007 C 
HETATM    2  C4  UNL     1     -34.662   7.702   4.173  1.00 20.00     0.032 C 
HETATM    3  C5  UNL     1     -34.397   5.279   3.893  1.00 20.00     0.036 C 
HETATM    4  C7  UNL     1     -33.152   5.999   3.370  1.00 20.00    -0.008 C 
HETATM    5  C8  UNL     1     -35.430   6.379   4.153  1.00 20.00     0.118 C 
ENDROOT
BRANCH   4   6
HETATM    6  C6  UNL     1     -33.189   6.198   1.855  1.00 20.00    -0.010 A 
HETATM    7  C1  UNL     1     -32.074   6.928   1.159  1.00 20.00     0.005 A 
HETATM    8  C2  UNL     1     -32.235   5.446   0.970  1.00 20.00     0.005 A 
ENDBRANCH   4   6
BRANCH   5   9
HETATM    9  O9  UNL     1     -36.393   6.386   3.109  1.00 20.00    -0.396 OA
HETATM   10  H23 UNL     1     -36.156   5.661   2.509  1.00 20.00     0.210 HD
ENDBRANCH   5   9
TORSDOF 2
ENDMDL
MODEL 5
REMARK VINA RESULT:       0.5      2.750      4.873
REMARK  2 active torsions:
REMARK  status: ('A' for Active; 'I' for Inactive)
REMARK    1  A    between atoms: C6_6  and  C7_7 
REMARK    2  A    between atoms: C8_8  and  O9_9 
ROOT
HETATM    1  C3  UNL     1     -35.362   6.060   3.965  1.00 20.00     0.007 C 
HETATM    2  C4  UNL     1     -34.616   7.371   4.185  1.00 20.00     0.032 C 
HETATM    3  C5  UNL     1     -33.562   6.060   2.399  1.00 20.00     0.036 C 
HETATM    4  C7  UNL     1     -34.326   5.127   3.342  1.00 20.00    -0.008 C 
HETATM    5  C8  UNL     1     -33.548   7.425   3.092  1.00 20.00     0.118 C 
ENDROOT
BRANCH   4   6
HETATM    6  C6  UNL     1     -33.415   4.486   4.389  1.00 20.00    -0.010 A 
HETATM    7  C1  UNL     1     -33.551   3.026   4.718  1.00 20.00     0.005 A 
HETATM    8  C2  UNL     1     -32.345   3.518   3.968  1.00 20.00     0.005 A 
ENDBRANCH   4   6
BRANCH   5   9
HETATM    9  O9  UNL     1     -32.269   7.654   3.667  1.00 20.00    -0.396 OA
HETATM   10  H23 UNL     1     -31.627   7.186   3.110  1.00 20.00     0.210 HD
ENDBRANCH   5   9
TORSDOF 2
ENDMDL
MODEL 6
REMARK VINA RESULT:       0.7      2.140      3.202
REMARK  2 active torsions:
REMARK  status: ('A' for Active; 'I' for Inactive)
REMARK    1  A    between atoms: C6_6  and  C7_7 
REMARK    2  A    between atoms: C8_8  and  O9_9 
ROOT
HETATM    1  C3  UNL     1     -35.035   6.972   3.889  1.00 20.00     0.007 C 
HETATM    2  C4  UNL     1     -35.584   5.553   3.981  1.00 20.00     0.032 C 
HETATM    3  C5  UNL     1     -33.163   5.576   4.381  1.00 20.00     0.036 C 
HETATM    4  C7  UNL     1     -33.560   6.791   3.540  1.00 20.00    -0.008 C 
HETATM    5  C8  UNL     1     -34.407   4.684   4.427  1.00 20.00     0.118 C 
ENDROOT
BRANCH   4   6
HETATM    6  C6  UNL     1     -33.339   6.560   2.045  1.00 20.00    -0.010 A 
HETATM    7  C1  UNL     1     -32.155   7.174   1.350  1.00 20.00     0.005 A 
HETATM    8  C2  UNL     1     -32.208   5.689   1.574  1.00 20.00     0.005 A 
ENDBRANCH   4   6
BRANCH   5   9
HETATM    9  O9  UNL     1     -34.241   3.589   3.538  1.00 20.00    -0.396 OA
HETATM   10  H23 UNL     1     -34.027   3.967   2.670  1.00 20.00     0.210 HD
ENDBRANCH   5   9
TORSDOF 2
ENDMDL
MODEL 7
REMARK VINA RESULT:       0.7      1.640      3.664
REMARK  2 active torsions:
REMARK  status: ('A' for Active; 'I' for Inactive)
REMARK    1  A    between atoms: C6_6  and  C7_7 
REMARK    2  A    between atoms: C8_8  and  O9_9 
ROOT
HETATM    1  C3  UNL     1     -30.913   8.123   1.505  1.00 20.00     0.007 C 
HETATM    2  C4  UNL     1     -31.081   8.770   0.136  1.00 20.00     0.032 C 
HETATM    3  C5  UNL     1     -32.842   9.518   1.674  1.00 20.00     0.036 C 
HETATM    4  C7  UNL     1     -32.310   8.154   2.120  1.00 20.00    -0.008 C 
HETATM    5  C8  UNL     1     -32.236   9.762   0.289  1.00 20.00     0.118 C 
ENDROOT
BRANCH   4   6
HETATM    6  C6  UNL     1     -33.186   7.000   1.633  1.00 20.00    -0.010 A 
HETATM    7  C1  UNL     1     -32.632   5.604   1.565  1.00 20.00     0.005 A 
HETATM    8  C2  UNL     1     -33.665   5.953   2.600  1.00 20.00     0.005 A 
ENDBRANCH   4   6
BRANCH   5   9
HETATM    9  O9  UNL     1     -33.220   9.527  -0.710  1.00 20.00    -0.396 OA
HETATM   10  H23 UNL     1     -33.347   8.566  -0.752  1.00 20.00     0.210 HD
ENDBRANCH   5   9
TORSDOF 2
ENDMDL
MODEL 8
REMARK VINA RESULT:       0.8      2.105      2.994
REMARK  2 active torsions:
REMARK  status: ('A' for Active; 'I' for Inactive)
REMARK    1  A    between atoms: C6_6  and  C7_7 
REMARK    2  A    between atoms: C8_8  and  O9_9 
ROOT
HETATM    1  C3  UNL     1     -33.494   4.940   2.610  1.00 20.00     0.007 C 
HETATM    2  C4  UNL     1     -33.861   5.308   4.043  1.00 20.00     0.032 C 
HETATM    3  C5  UNL     1     -34.637   7.031   2.477  1.00 20.00     0.036 C 
HETATM    4  C7  UNL     1     -33.454   6.274   1.869  1.00 20.00    -0.008 C 
HETATM    5  C8  UNL     1     -34.707   6.578   3.938  1.00 20.00     0.118 C 
ENDROOT
BRANCH   4   6
HETATM    6  C6  UNL     1     -32.130   7.011   2.067  1.00 20.00    -0.010 A 
HETATM    7  C1  UNL     1     -31.571   7.873   0.969  1.00 20.00     0.005 A 
HETATM    8  C2  UNL     1     -32.112   8.506   2.220  1.00 20.00     0.005 A 
ENDBRANCH   4   6
BRANCH   5   9
HETATM    9  O9  UNL     1     -34.175   7.593   4.778  1.00 20.00    -0.396 OA
HETATM   10  H23 UNL     1     -34.757   8.363   4.684  1.00 20.00     0.210 HD
ENDBRANCH   5   9
TORSDOF 2
ENDMDL
MODEL 9
REMARK VINA RESULT:       0.9      2.633      3.642
REMARK  2 active torsions:
REMARK  status: ('A' for Active; 'I' for Inactive)
REMARK    1  A    between atoms: C6_6  and  C7_7 
REMARK    2  A    between atoms: C8_8  and  O9_9 
ROOT
HETATM    1  C3  UNL     1     -35.089   6.251   3.684  1.00 20.00     0.007 C 
HETATM    2  C4  UNL     1     -34.476   6.826   4.955  1.00 20.00     0.032 C 
HETATM    3  C5  UNL     1     -33.932   8.228   3.016  1.00 20.00     0.036 C 
HETATM    4  C7  UNL     1     -34.218   6.797   2.555  1.00 20.00    -0.008 C 
HETATM    5  C8  UNL     1     -33.850   8.160   4.543  1.00 20.00     0.118 C 
ENDROOT
BRANCH   4   6
HETATM    6  C6  UNL     1     -32.940   5.983   2.360  1.00 20.00    -0.010 A 
HETATM    7  C1  UNL     1     -32.609   5.402   1.013  1.00 20.00     0.005 A 
HETATM    8  C2  UNL     1     -31.800   6.545   1.558  1.00 20.00     0.005 A 
ENDBRANCH   4   6
BRANCH   5   9
HETATM    9  O9  UNL     1     -32.489   8.210   4.950  1.00 20.00    -0.396 OA
HETATM   10  H23 UNL     1     -32.123   7.323   4.802  1.00 20.00     0.210 HD
ENDBRANCH   5   9
TORSDOF 2
ENDMDL
