MODEL 1
REMARK VINA RESULT:      -1.9      0.000      0.000
REMARK  2 active torsions:
REMARK  status: ('A' for Active; 'I' for Inactive)
REMARK    1  A    between atoms: C6_6  and  C7_7 
REMARK    2  A    between atoms: C8_8  and  O9_9 
ROOT
HETATM    1  C3  UNL     1     -31.689   6.764   1.448  1.00 20.00     0.007 C 
HETATM    2  C4  UNL     1     -32.938   5.897   1.609  1.00 20.00     0.032 C 
HETATM    3  C5  UNL     1     -33.026   7.839   3.093  1.00 20.00     0.036 C 
HETATM    4  C7  UNL     1     -32.103   8.157   1.920  1.00 20.00    -0.008 C 
HETATM    5  C8  UNL     1     -33.809   6.604   2.651  1.00 20.00     0.118 C 
ENDROOT
BRANCH   4   6
HETATM    6  C6  UNL     1     -32.806   8.955   0.824  1.00 20.00    -0.010 A 
HETATM    7  C1  UNL     1     -32.572  10.434   0.696  1.00 20.00     0.005 A 
HETATM    8  C2  UNL     1     -32.023   9.495  -0.340  1.00 20.00     0.005 A 
ENDBRANCH   4   6
BRANCH   5   9
HETATM    9  O9  UNL     1     -34.063   5.766   3.766  1.00 20.00    -0.396 OA
HETATM   10  H23 UNL     1     -33.452   6.045   4.466  1.00 20.00     0.210 HD
ENDBRANCH   5   9
TORSDOF 2
ENDMDL
MODEL 2
REMARK VINA RESULT:      -0.5      2.273      4.283
REMARK  2 active torsions:
REMARK  status: ('A' for Active; 'I' for Inactive)
REMARK    1  A    between atoms: C6_6  and  C7_7 
REMARK    2  A    between atoms: C8_8  and  O9_9 
ROOT
HETATM    1  C3  UNL     1     -33.179   5.527   1.420  1.00 20.00     0.007 C 
HETATM    2  C4  UNL     1     -31.852   6.276   1.549  1.00 20.00     0.032 C 
HETATM    3  C5  UNL     1     -33.690   7.595   2.476  1.00 20.00     0.036 C 
HETATM    4  C7  UNL     1     -34.080   6.120   2.503  1.00 20.00    -0.008 C 
HETATM    5  C8  UNL     1     -32.179   7.596   2.251  1.00 20.00     0.118 C 
ENDROOT
BRANCH   4   6
HETATM    6  C6  UNL     1     -33.844   5.478   3.869  1.00 20.00    -0.010 A 
HETATM    7  C1  UNL     1     -34.973   4.796   4.590  1.00 20.00     0.005 A 
HETATM    8  C2  UNL     1     -33.850   3.982   4.013  1.00 20.00     0.005 A 
ENDBRANCH   4   6
BRANCH   5   9
HETATM    9  O9  UNL     1     -31.809   8.710   1.456  1.00 20.00    -0.396 OA
HETATM   10  H23 UNL     1     -30.997   8.459   0.989  1.00 20.00     0.210 HD
ENDBRANCH   5   9
TORSDOF 2
ENDMDL
MODEL 3
REMARK VINA RESULT:       0.0      1.430      2.567
REMARK  2 active torsions:
REMARK  status: ('A' for Active; 'I' for Inactive)
REMARK    1  A    between atoms: C6_6  and  C7_7 
REMARK    2  A    between atoms: C8_8  and  O9_9 
ROOT
HETATM    1  C3  UNL     1     -34.513   6.936   2.768  1.00 20.00     0.007 C 
HETATM    2  C4  UNL     1     -34.266   6.201   4.086  1.00 20.00     0.032 C 
HETATM    3  C5  UNL     1     -33.326   4.956   2.204  1.00 20.00     0.036 C 
HETATM    4  C7  UNL     1     -33.431   6.428   1.816  1.00 20.00    -0.008 C 
HETATM    5  C8  UNL     1     -33.480   4.939   3.723  1.00 20.00     0.118 C 
ENDROOT
BRANCH   4   6
HETATM    6  C6  UNL     1     -32.110   7.174   1.991  1.00 20.00    -0.010 A 
HETATM    7  C1  UNL     1     -31.775   8.340   1.103  1.00 20.00     0.005 A 
HETATM    8  C2  UNL     1     -32.096   8.568   2.553  1.00 20.00     0.005 A 
ENDBRANCH   4   6
BRANCH   5   9
HETATM    9  O9  UNL     1     -34.169   3.768   4.127  1.00 20.00    -0.396 OA
HETATM   10  H23 UNL     1     -33.521   3.047   4.114  1.00 20.00     0.210 HD
ENDBRANCH   5   9
TORSDOF 2
ENDMDL
MODEL 4
REMARK VINA RESULT:       0.2      2.395      4.051
REMARK  2 active torsions:
REMARK  status: ('A' for Active; 'I' for Inactive)
REMARK    1  A    between atoms: C6_6  and  C7_7 
REMARK    2  A    between atoms: C8_8  and  O9_9 
ROOT
HETATM    1  C3  UNL     1     -32.154   8.582   2.565  1.00 20.00     0.007 C 
HETATM    2  C4  UNL     1     -33.031   9.586   1.817  1.00 20.00     0.032 C 
HETATM    3  C5  UNL     1     -31.399   8.562   0.312  1.00 20.00     0.036 C 
HETATM    4  C7  UNL     1     -31.635   7.625   1.493  1.00 20.00    -0.008 C 
HETATM    5  C8  UNL     1     -32.560   9.554   0.361  1.00 20.00     0.118 C 
ENDROOT
BRANCH   4   6
HETATM    6  C6  UNL     1     -32.637   6.518   1.170  1.00 20.00    -0.010 A 
HETATM    7  C1  UNL     1     -32.246   5.075   1.321  1.00 20.00     0.005 A 
HETATM    8  C2  UNL     1     -33.232   5.690   2.273  1.00 20.00     0.005 A 
ENDBRANCH   4   6
BRANCH   5   9
HETATM    9  O9  UNL     1     -32.122  10.832  -0.069  1.00 20.00    -0.396 OA
HETATM   10  H23 UNL     1     -32.920  11.365  -0.209  1.00 20.00     0.210 HD
ENDBRANCH   5   9
TORSDOF 2
ENDMDL
MODEL 5
REMARK VINA RESULT:       0.3      2.697      4.910
REMARK  2 active torsions:
REMARK  status: ('A' for Active; 'I' for Inactive)
REMARK    1  A    between atoms: C6_6  and  C7_7 
REMARK    2  A    between atoms: C8_8  and  O9_9 
ROOT
HETATM    1  C3  UNL     1     -33.476   5.509   2.432  1.00 20.00     0.007 C 
HETATM    2  C4  UNL     1     -33.047   6.857   3.010  1.00 20.00     0.032 C 
HETATM    3  C5  UNL     1     -35.144   6.105   4.018  1.00 20.00     0.036 C 
HETATM    4  C7  UNL     1     -34.385   4.889   3.492  1.00 20.00    -0.008 C 
HETATM    5  C8  UNL     1     -34.108   7.228   4.048  1.00 20.00     0.118 C 
ENDROOT
BRANCH   4   6
HETATM    6  C6  UNL     1     -33.595   4.175   4.587  1.00 20.00    -0.010 A 
HETATM    7  C1  UNL     1     -33.522   2.674   4.612  1.00 20.00     0.005 A 
HETATM    8  C2  UNL     1     -32.304   3.480   4.258  1.00 20.00     0.005 A 
ENDBRANCH   4   6
BRANCH   5   9
HETATM    9  O9  UNL     1     -34.727   8.465   3.737  1.00 20.00    -0.396 OA
HETATM   10  H23 UNL     1     -35.204   8.744   4.533  1.00 20.00     0.210 HD
ENDBRANCH   5   9
TORSDOF 2
ENDMDL
MODEL 6
REMARK VINA RESULT:       0.4      2.215      4.015
REMARK  2 active torsions:
REMARK  status: ('A' for Active; 'I' for Inactive)
REMARK    1  A    between atoms: C6_6  and  C7_7 
REMARK    2  A    between atoms: C8_8  and  O9_9 
ROOT
HETATM    1  C3  UNL     1     -32.024   8.482   3.178  1.00 20.00     0.007 C 
HETATM    2  C4  UNL     1     -32.300   9.448   2.026  1.00 20.00     0.032 C 
HETATM    3  C5  UNL     1     -32.063   7.158   1.204  1.00 20.00     0.036 C 
HETATM    4  C7  UNL     1     -32.479   7.114   2.672  1.00 20.00    -0.008 C 
HETATM    5  C8  UNL     1     -32.349   8.590   0.759  1.00 20.00     0.118 C 
ENDROOT
BRANCH   4   6
HETATM    6  C6  UNL     1     -33.982   6.902   2.847  1.00 20.00    -0.010 A 
HETATM    7  C1  UNL     1     -34.493   5.810   3.744  1.00 20.00     0.005 A 
HETATM    8  C2  UNL     1     -34.648   7.249   4.148  1.00 20.00     0.005 A 
ENDBRANCH   4   6
BRANCH   5   9
HETATM    9  O9  UNL     1     -31.378   9.007  -0.186  1.00 20.00    -0.396 OA
HETATM   10  H23 UNL     1     -30.965   8.201  -0.533  1.00 20.00     0.210 HD
ENDBRANCH   5   9
TORSDOF 2
ENDMDL
MODEL 7
REMARK VINA RESULT:       0.9      1.830      3.248
REMARK  2 active torsions:
REMARK  status: ('A' for Active; 'I' for Inactive)
REMARK    1  A    between atoms: C6_6  and  C7_7 
REMARK    2  A    between atoms: C8_8  and  O9_9 
ROOT
HETATM    1  C3  UNL     1     -32.519   8.042   1.888  1.00 20.00     0.007 C 
HETATM    2  C4  UNL     1     -32.047   8.208   3.333  1.00 20.00     0.032 C 
HETATM    3  C5  UNL     1     -34.186   7.028   3.245  1.00 20.00     0.036 C 
HETATM    4  C7  UNL     1     -33.467   6.844   1.911  1.00 20.00    -0.008 C 
HETATM    5  C8  UNL     1     -33.110   7.533   4.203  1.00 20.00     0.118 C 
ENDROOT
BRANCH   4   6
HETATM    6  C6  UNL     1     -32.722   5.514   1.827  1.00 20.00    -0.010 A 
HETATM    7  C1  UNL     1     -32.776   4.693   0.569  1.00 20.00     0.005 A 
HETATM    8  C2  UNL     1     -31.501   5.383   0.962  1.00 20.00     0.005 A 
ENDBRANCH   4   6
BRANCH   5   9
HETATM    9  O9  UNL     1     -33.676   8.446   5.129  1.00 20.00    -0.396 OA
HETATM   10  H23 UNL     1     -33.610   9.325   4.726  1.00 20.00     0.210 HD
ENDBRANCH   5   9
TORSDOF 2
ENDMDL
MODEL 8
REMARK VINA RESULT:       1.1      2.152      3.560
REMARK  2 active torsions:
REMARK  status: ('A' for Active; 'I' for Inactive)
REMARK    1  A    between atoms: C6_6  and  C7_7 
REMARK    2  A    between atoms: C8_8  and  O9_9 
ROOT
HETATM    1  C3  UNL     1     -31.952   7.724   1.977  1.00 20.00     0.007 C 
HETATM    2  C4  UNL     1     -32.338   7.094   0.639  1.00 20.00     0.032 C 
HETATM    3  C5  UNL     1     -32.549   5.474   2.458  1.00 20.00     0.036 C 
HETATM    4  C7  UNL     1     -32.661   6.881   3.036  1.00 20.00    -0.008 C 
HETATM    5  C8  UNL     1     -32.746   5.653   0.954  1.00 20.00     0.118 C 
ENDROOT
BRANCH   4   6
HETATM    6  C6  UNL     1     -34.111   7.313   3.245  1.00 20.00    -0.010 A 
HETATM    7  C1  UNL     1     -35.068   6.422   3.986  1.00 20.00     0.005 A 
HETATM    8  C2  UNL     1     -34.596   7.703   4.613  1.00 20.00     0.005 A 
ENDBRANCH   4   6
BRANCH   5   9
HETATM    9  O9  UNL     1     -31.943   4.722   0.246  1.00 20.00    -0.396 OA
HETATM   10  H23 UNL     1     -32.551   4.088  -0.165  1.00 20.00     0.210 HD
ENDBRANCH   5   9
TORSDOF 2
ENDMDL
