MODEL 1
REMARK VINA RESULT:      -2.1      0.000      0.000
REMARK  3 active torsions:
REMARK  status: ('A' for Active; 'I' for Inactive)
REMARK    1  A    between atoms: C3_3  and  C5_5 
REMARK    2  A    between atoms: C5_5  and  C6_6 
REMARK    3  A    between atoms: C6_6  and  C7_7 
ROOT
HETATM    1  C5  UNL     1     -31.644   8.559   1.193  1.00 20.00     0.006 C 
ENDROOT
BRANCH   1   2
HETATM    2  C3  UNL     1     -32.732   9.453   0.679  1.00 20.00    -0.014 A 
HETATM    3  C1  UNL     1     -32.442  10.894   0.363  1.00 20.00     0.005 A 
HETATM    4  C2  UNL     1     -32.714   9.920  -0.750  1.00 20.00     0.005 A 
ENDBRANCH   1   2
BRANCH   1   5
HETATM    5  C6  UNL     1     -32.114   7.728   2.393  1.00 20.00     0.015 C 
BRANCH   5   6
HETATM    6  C7  UNL     1     -33.269   6.784   2.056  1.00 20.00     0.053 C 
HETATM    7  C4  UNL     1     -32.768   5.419   1.605  1.00 20.00     0.022 C 
HETATM    8 BR8  UNL     1     -34.404   6.516   3.633  1.00 20.00    -0.092 Br
ENDBRANCH   5   6
ENDBRANCH   1   5
TORSDOF 3
ENDMDL
MODEL 2
REMARK VINA RESULT:      -2.0      1.331      1.725
REMARK  3 active torsions:
REMARK  status: ('A' for Active; 'I' for Inactive)
REMARK    1  A    between atoms: C3_3  and  C5_5 
REMARK    2  A    between atoms: C5_5  and  C6_6 
REMARK    3  A    between atoms: C6_6  and  C7_7 
ROOT
HETATM    1  C5  UNL     1     -31.946   8.138   1.136  1.00 20.00     0.006 C 
ENDROOT
BRANCH   1   2
HETATM    2  C3  UNL     1     -31.798   9.485   0.495  1.00 20.00    -0.014 A 
HETATM    3  C1  UNL     1     -32.725   9.903  -0.612  1.00 20.00     0.005 A 
HETATM    4  C2  UNL     1     -32.825  10.555   0.739  1.00 20.00     0.005 A 
ENDBRANCH   1   2
BRANCH   1   5
HETATM    5  C6  UNL     1     -32.375   8.253   2.603  1.00 20.00     0.015 C 
BRANCH   5   6
HETATM    6  C7  UNL     1     -32.983   6.963   3.157  1.00 20.00     0.053 C 
HETATM    7  C4  UNL     1     -34.375   7.196   3.726  1.00 20.00     0.022 C 
HETATM    8 BR8  UNL     1     -33.132   5.622   1.733  1.00 20.00    -0.092 Br
ENDBRANCH   5   6
ENDBRANCH   1   5
TORSDOF 3
ENDMDL
MODEL 3
REMARK VINA RESULT:      -1.7      1.107      1.161
REMARK  3 active torsions:
REMARK  status: ('A' for Active; 'I' for Inactive)
REMARK    1  A    between atoms: C3_3  and  C5_5 
REMARK    2  A    between atoms: C5_5  and  C6_6 
REMARK    3  A    between atoms: C6_6  and  C7_7 
ROOT
HETATM    1  C5  UNL     1     -31.992   8.135   1.817  1.00 20.00     0.006 C 
ENDROOT
BRANCH   1   2
HETATM    2  C3  UNL     1     -32.746   8.919   0.785  1.00 20.00    -0.014 A 
HETATM    3  C1  UNL     1     -32.686  10.421   0.780  1.00 20.00     0.005 A 
HETATM    4  C2  UNL     1     -32.006   9.638  -0.308  1.00 20.00     0.005 A 
ENDBRANCH   1   2
BRANCH   1   5
HETATM    5  C6  UNL     1     -32.455   6.674   1.868  1.00 20.00     0.015 C 
BRANCH   5   6
HETATM    6  C7  UNL     1     -33.726   6.473   2.695  1.00 20.00     0.053 C 
HETATM    7  C4  UNL     1     -33.771   5.091   3.330  1.00 20.00     0.022 C 
HETATM    8 BR8  UNL     1     -33.809   7.799   4.138  1.00 20.00    -0.092 Br
ENDBRANCH   5   6
ENDBRANCH   1   5
TORSDOF 3
ENDMDL
MODEL 4
REMARK VINA RESULT:      -1.7      2.591      4.318
REMARK  3 active torsions:
REMARK  status: ('A' for Active; 'I' for Inactive)
REMARK    1  A    between atoms: C3_3  and  C5_5 
REMARK    2  A    between atoms: C5_5  and  C6_6 
REMARK    3  A    between atoms: C6_6  and  C7_7 
ROOT
HETATM    1  C5  UNL     1     -33.936   7.911   3.129  1.00 20.00     0.006 C 
ENDROOT
BRANCH   1   2
HETATM    2  C3  UNL     1     -34.301   6.881   4.156  1.00 20.00    -0.014 A 
HETATM    3  C1  UNL     1     -35.589   6.116   4.036  1.00 20.00     0.005 A 
HETATM    4  C2  UNL     1     -34.278   5.420   3.802  1.00 20.00     0.005 A 
ENDBRANCH   1   2
BRANCH   1   5
HETATM    5  C6  UNL     1     -32.431   8.204   3.131  1.00 20.00     0.015 C 
BRANCH   5   6
HETATM    6  C7  UNL     1     -31.773   7.984   1.768  1.00 20.00     0.053 C 
HETATM    7  C4  UNL     1     -32.155   6.638   1.169  1.00 20.00     0.022 C 
HETATM    8 BR8  UNL     1     -32.337   9.381   0.513  1.00 20.00    -0.092 Br
ENDBRANCH   5   6
ENDBRANCH   1   5
TORSDOF 3
ENDMDL
MODEL 5
REMARK VINA RESULT:      -1.7      3.535      5.922
REMARK  3 active torsions:
REMARK  status: ('A' for Active; 'I' for Inactive)
REMARK    1  A    between atoms: C3_3  and  C5_5 
REMARK    2  A    between atoms: C5_5  and  C6_6 
REMARK    3  A    between atoms: C6_6  and  C7_7 
ROOT
HETATM    1  C5  UNL     1     -33.867   4.824   3.541  1.00 20.00     0.006 C 
ENDROOT
BRANCH   1   2
HETATM    2  C3  UNL     1     -33.942   3.733   4.567  1.00 20.00    -0.014 A 
HETATM    3  C1  UNL     1     -33.279   2.408   4.313  1.00 20.00     0.005 A 
HETATM    4  C2  UNL     1     -32.716   3.344   5.346  1.00 20.00     0.005 A 
ENDBRANCH   1   2
BRANCH   1   5
HETATM    5  C6  UNL     1     -34.743   6.022   3.924  1.00 20.00     0.015 C 
BRANCH   5   6
HETATM    6  C7  UNL     1     -34.107   7.369   3.579  1.00 20.00     0.053 C 
HETATM    7  C4  UNL     1     -33.457   8.013   4.795  1.00 20.00     0.022 C 
HETATM    8 BR8  UNL     1     -32.720   7.130   2.213  1.00 20.00    -0.092 Br
ENDBRANCH   5   6
ENDBRANCH   1   5
TORSDOF 3
ENDMDL
MODEL 6
REMARK VINA RESULT:      -1.6      2.478      4.307
REMARK  3 active torsions:
REMARK  status: ('A' for Active; 'I' for Inactive)
REMARK    1  A    between atoms: C3_3  and  C5_5 
REMARK    2  A    between atoms: C5_5  and  C6_6 
REMARK    3  A    between atoms: C6_6  and  C7_7 
ROOT
HETATM    1  C5  UNL     1     -33.218   5.962   2.368  1.00 20.00     0.006 C 
ENDROOT
BRANCH   1   2
HETATM    2  C3  UNL     1     -34.336   6.768   2.958  1.00 20.00    -0.014 A 
HETATM    3  C1  UNL     1     -35.197   6.187   4.045  1.00 20.00     0.005 A 
HETATM    4  C2  UNL     1     -34.230   7.293   4.363  1.00 20.00     0.005 A 
ENDBRANCH   1   2
BRANCH   1   5
HETATM    5  C6  UNL     1     -32.369   6.796   1.401  1.00 20.00     0.015 C 
BRANCH   5   6
HETATM    6  C7  UNL     1     -32.328   8.282   1.763  1.00 20.00     0.053 C 
HETATM    7  C4  UNL     1     -31.108   8.622   2.606  1.00 20.00     0.022 C 
HETATM    8 BR8  UNL     1     -32.255   9.371   0.133  1.00 20.00    -0.092 Br
ENDBRANCH   5   6
ENDBRANCH   1   5
TORSDOF 3
ENDMDL
MODEL 7
REMARK VINA RESULT:      -1.5      2.294      4.496
REMARK  3 active torsions:
REMARK  status: ('A' for Active; 'I' for Inactive)
REMARK    1  A    between atoms: C3_3  and  C5_5 
REMARK    2  A    between atoms: C5_5  and  C6_6 
REMARK    3  A    between atoms: C6_6  and  C7_7 
ROOT
HETATM    1  C5  UNL     1     -33.811   7.656   4.081  1.00 20.00     0.006 C 
ENDROOT
BRANCH   1   2
HETATM    2  C3  UNL     1     -34.574   6.498   3.513  1.00 20.00    -0.014 A 
HETATM    3  C1  UNL     1     -34.339   5.107   4.034  1.00 20.00     0.005 A 
HETATM    4  C2  UNL     1     -35.632   5.814   4.334  1.00 20.00     0.005 A 
ENDBRANCH   1   2
BRANCH   1   5
HETATM    5  C6  UNL     1     -32.538   7.945   3.277  1.00 20.00     0.015 C 
BRANCH   5   6
HETATM    6  C7  UNL     1     -32.708   7.709   1.775  1.00 20.00     0.053 C 
HETATM    7  C4  UNL     1     -31.956   8.746   0.954  1.00 20.00     0.022 C 
HETATM    8 BR8  UNL     1     -32.016   5.940   1.287  1.00 20.00    -0.092 Br
ENDBRANCH   5   6
ENDBRANCH   1   5
TORSDOF 3
ENDMDL
MODEL 8
REMARK VINA RESULT:      -1.4      1.585      2.665
REMARK  3 active torsions:
REMARK  status: ('A' for Active; 'I' for Inactive)
REMARK    1  A    between atoms: C3_3  and  C5_5 
REMARK    2  A    between atoms: C5_5  and  C6_6 
REMARK    3  A    between atoms: C6_6  and  C7_7 
ROOT
HETATM    1  C5  UNL     1     -32.953   6.238   1.439  1.00 20.00     0.006 C 
ENDROOT
BRANCH   1   2
HETATM    2  C3  UNL     1     -31.897   7.300   1.499  1.00 20.00    -0.014 A 
HETATM    3  C1  UNL     1     -32.218   8.712   1.093  1.00 20.00     0.005 A 
HETATM    4  C2  UNL     1     -31.972   8.383   2.539  1.00 20.00     0.005 A 
ENDBRANCH   1   2
BRANCH   1   5
HETATM    5  C6  UNL     1     -32.766   5.191   2.543  1.00 20.00     0.015 C 
BRANCH   5   6
HETATM    6  C7  UNL     1     -34.070   4.831   3.259  1.00 20.00     0.053 C 
HETATM    7  C4  UNL     1     -33.834   3.842   4.392  1.00 20.00     0.022 C 
HETATM    8 BR8  UNL     1     -34.886   6.440   4.026  1.00 20.00    -0.092 Br
ENDBRANCH   5   6
ENDBRANCH   1   5
TORSDOF 3
ENDMDL
MODEL 9
REMARK VINA RESULT:      -1.4      1.559      2.448
REMARK  3 active torsions:
REMARK  status: ('A' for Active; 'I' for Inactive)
REMARK    1  A    between atoms: C3_3  and  C5_5 
REMARK    2  A    between atoms: C5_5  and  C6_6 
REMARK    3  A    between atoms: C6_6  and  C7_7 
ROOT
HETATM    1  C5  UNL     1     -32.115   6.308   1.454  1.00 20.00     0.006 C 
ENDROOT
BRANCH   1   2
HETATM    2  C3  UNL     1     -31.921   7.749   1.820  1.00 20.00    -0.014 A 
HETATM    3  C1  UNL     1     -31.242   8.689   0.864  1.00 20.00     0.005 A 
HETATM    4  C2  UNL     1     -32.717   8.819   1.125  1.00 20.00     0.005 A 
ENDBRANCH   1   2
BRANCH   1   5
HETATM    5  C6  UNL     1     -33.485   5.789   1.905  1.00 20.00     0.015 C 
BRANCH   5   6
HETATM    6  C7  UNL     1     -33.682   5.846   3.421  1.00 20.00     0.053 C 
HETATM    7  C4  UNL     1     -34.928   6.636   3.797  1.00 20.00     0.022 C 
HETATM    8 BR8  UNL     1     -33.878   4.035   4.146  1.00 20.00    -0.092 Br
ENDBRANCH   5   6
ENDBRANCH   1   5
TORSDOF 3
ENDMDL
