MODEL 1
REMARK VINA RESULT:       0.9      0.000      0.000
REMARK  1 active torsions:
REMARK  status: ('A' for Active; 'I' for Inactive)
REMARK    1  A    between atoms: C4_4  and  C8_8 
ROOT
HETATM    1  C1  UNL     1     -31.822   9.953  -0.277  1.00 20.00     0.135 A 
HETATM    2  C2  UNL     1     -32.774  10.367   0.627  1.00 20.00     0.136 A 
HETATM    3  C3  UNL     1     -31.611   7.975   0.850  1.00 20.00     0.143 A 
HETATM    4  C4  UNL     1     -32.563   8.389   1.755  1.00 20.00     0.056 A 
HETATM    5  N10 UNL     1     -31.223   8.750  -0.182  1.00 20.00    -0.270 NA
HETATM    6  N11 UNL     1     -33.163   9.593   1.660  1.00 20.00    -0.262 NA
ENDROOT
BRANCH   4   7
HETATM    7  C8  UNL     1     -32.974   7.492   2.902  1.00 20.00     0.041 C 
HETATM    8  C5  UNL     1     -34.303   7.811   3.606  1.00 20.00     0.012 C 
HETATM    9  C6  UNL     1     -34.597   6.533   4.377  1.00 20.00     0.021 C 
HETATM   10  C9  UNL     1     -34.280   5.452   3.355  1.00 20.00     0.083 C 
HETATM   11  C7  UNL     1     -33.114   5.998   2.524  1.00 20.00     0.031 C 
HETATM   12 CL12 UNL     1     -33.903   3.902   4.125  1.00 20.00    -0.125 Cl
ENDBRANCH   4   7
TORSDOF 1
ENDMDL
MODEL 2
REMARK VINA RESULT:       0.9      0.781      1.377
REMARK  1 active torsions:
REMARK  status: ('A' for Active; 'I' for Inactive)
REMARK    1  A    between atoms: C4_4  and  C8_8 
ROOT
HETATM    1  C1  UNL     1     -31.859   9.977  -0.205  1.00 20.00     0.135 A 
HETATM    2  C2  UNL     1     -31.284   8.735  -0.059  1.00 20.00     0.136 A 
HETATM    3  C3  UNL     1     -33.144   9.601   1.648  1.00 20.00     0.143 A 
HETATM    4  C4  UNL     1     -32.570   8.357   1.794  1.00 20.00     0.056 A 
HETATM    5  N10 UNL     1     -32.800  10.433   0.646  1.00 20.00    -0.270 NA
HETATM    6  N11 UNL     1     -31.628   7.902   0.944  1.00 20.00    -0.262 NA
ENDROOT
BRANCH   4   7
HETATM    7  C8  UNL     1     -32.982   7.449   2.932  1.00 20.00     0.041 C 
HETATM    8  C5  UNL     1     -34.319   7.752   3.626  1.00 20.00     0.012 C 
HETATM    9  C6  UNL     1     -34.609   6.468   4.388  1.00 20.00     0.021 C 
HETATM   10  C9  UNL     1     -34.273   5.395   3.363  1.00 20.00     0.083 C 
HETATM   11  C7  UNL     1     -33.104   5.957   2.544  1.00 20.00     0.031 C 
HETATM   12 CL12 UNL     1     -33.887   3.844   4.128  1.00 20.00    -0.125 Cl
ENDBRANCH   4   7
TORSDOF 1
ENDMDL
MODEL 3
REMARK VINA RESULT:       0.9      3.161      5.278
REMARK  1 active torsions:
REMARK  status: ('A' for Active; 'I' for Inactive)
REMARK    1  A    between atoms: C4_4  and  C8_8 
ROOT
HETATM    1  C1  UNL     1     -35.067   4.923   4.328  1.00 20.00     0.135 A 
HETATM    2  C2  UNL     1     -33.955   4.502   3.635  1.00 20.00     0.136 A 
HETATM    3  C3  UNL     1     -34.575   7.093   3.803  1.00 20.00     0.143 A 
HETATM    4  C4  UNL     1     -33.461   6.672   3.110  1.00 20.00     0.056 A 
HETATM    5  N10 UNL     1     -35.397   6.226   4.425  1.00 20.00    -0.270 NA
HETATM    6  N11 UNL     1     -33.131   5.369   3.012  1.00 20.00    -0.262 NA
ENDROOT
BRANCH   4   7
HETATM    7  C8  UNL     1     -32.559   7.675   2.423  1.00 20.00     0.041 C 
HETATM    8  C5  UNL     1     -31.713   7.170   1.243  1.00 20.00     0.012 C 
HETATM    9  C6  UNL     1     -31.280   8.457   0.558  1.00 20.00     0.021 C 
HETATM   10  C9  UNL     1     -32.564   9.273   0.547  1.00 20.00     0.083 C 
HETATM   11  C7  UNL     1     -33.300   8.902   1.840  1.00 20.00     0.031 C 
HETATM   12 CL12 UNL     1     -32.244  11.011   0.418  1.00 20.00    -0.125 Cl
ENDBRANCH   4   7
TORSDOF 1
ENDMDL
MODEL 4
REMARK VINA RESULT:       0.9      3.145      5.096
REMARK  1 active torsions:
REMARK  status: ('A' for Active; 'I' for Inactive)
REMARK    1  A    between atoms: C4_4  and  C8_8 
ROOT
HETATM    1  C1  UNL     1     -35.028   4.895   4.322  1.00 20.00     0.135 A 
HETATM    2  C2  UNL     1     -35.329   6.238   4.357  1.00 20.00     0.136 A 
HETATM    3  C3  UNL     1     -33.157   5.345   3.089  1.00 20.00     0.143 A 
HETATM    4  C4  UNL     1     -33.457   6.689   3.122  1.00 20.00     0.056 A 
HETATM    5  N10 UNL     1     -33.937   4.424   3.687  1.00 20.00    -0.270 NA
HETATM    6  N11 UNL     1     -34.548   7.160   3.758  1.00 20.00    -0.262 NA
ENDROOT
BRANCH   4   7
HETATM    7  C8  UNL     1     -32.557   7.695   2.438  1.00 20.00     0.041 C 
HETATM    8  C5  UNL     1     -31.697   7.190   1.268  1.00 20.00     0.012 C 
HETATM    9  C6  UNL     1     -31.267   8.476   0.580  1.00 20.00     0.021 C 
HETATM   10  C9  UNL     1     -32.556   9.283   0.554  1.00 20.00     0.083 C 
HETATM   11  C7  UNL     1     -33.301   8.913   1.842  1.00 20.00     0.031 C 
HETATM   12 CL12 UNL     1     -32.248  11.022   0.419  1.00 20.00    -0.125 Cl
ENDBRANCH   4   7
TORSDOF 1
ENDMDL
MODEL 5
REMARK VINA RESULT:       2.6      3.217      5.254
REMARK  1 active torsions:
REMARK  status: ('A' for Active; 'I' for Inactive)
REMARK    1  A    between atoms: C4_4  and  C8_8 
ROOT
HETATM    1  C1  UNL     1     -34.637   3.947   4.476  1.00 20.00     0.135 A 
HETATM    2  C2  UNL     1     -33.482   4.028   3.730  1.00 20.00     0.136 A 
HETATM    3  C3  UNL     1     -35.034   6.167   4.105  1.00 20.00     0.143 A 
HETATM    4  C4  UNL     1     -33.879   6.249   3.359  1.00 20.00     0.056 A 
HETATM    5  N10 UNL     1     -35.433   5.015   4.678  1.00 20.00    -0.270 NA
HETATM    6  N11 UNL     1     -33.083   5.180   3.157  1.00 20.00    -0.262 NA
ENDROOT
BRANCH   4   7
HETATM    7  C8  UNL     1     -33.462   7.561   2.731  1.00 20.00     0.041 C 
HETATM    8  C5  UNL     1     -32.236   8.271   3.328  1.00 20.00     0.012 C 
HETATM    9  C6  UNL     1     -31.863   9.276   2.249  1.00 20.00     0.021 C 
HETATM   10  C9  UNL     1     -31.977   8.450   0.977  1.00 20.00     0.083 C 
HETATM   11  C7  UNL     1     -33.128   7.467   1.223  1.00 20.00     0.031 C 
HETATM   12 CL12 UNL     1     -32.239   9.465  -0.451  1.00 20.00    -0.125 Cl
ENDBRANCH   4   7
TORSDOF 1
ENDMDL
MODEL 6
REMARK VINA RESULT:       2.8      3.265      5.061
REMARK  1 active torsions:
REMARK  status: ('A' for Active; 'I' for Inactive)
REMARK    1  A    between atoms: C4_4  and  C8_8 
ROOT
HETATM    1  C1  UNL     1     -34.700   4.112   4.485  1.00 20.00     0.135 A 
HETATM    2  C2  UNL     1     -35.430   5.273   4.610  1.00 20.00     0.136 A 
HETATM    3  C3  UNL     1     -33.141   5.225   3.238  1.00 20.00     0.143 A 
HETATM    4  C4  UNL     1     -33.871   6.387   3.362  1.00 20.00     0.056 A 
HETATM    5  N10 UNL     1     -33.543   4.067   3.797  1.00 20.00    -0.270 NA
HETATM    6  N11 UNL     1     -35.028   6.432   4.052  1.00 20.00    -0.262 NA
ENDROOT
BRANCH   4   7
HETATM    7  C8  UNL     1     -33.389   7.670   2.721  1.00 20.00     0.041 C 
HETATM    8  C5  UNL     1     -32.062   8.257   3.229  1.00 20.00     0.012 C 
HETATM    9  C6  UNL     1     -31.685   9.247   2.138  1.00 20.00     0.021 C 
HETATM   10  C9  UNL     1     -31.970   8.460   0.867  1.00 20.00     0.083 C 
HETATM   11  C7  UNL     1     -33.182   7.578   1.190  1.00 20.00     0.031 C 
HETATM   12 CL12 UNL     1     -32.250   9.523  -0.522  1.00 20.00    -0.125 Cl
ENDBRANCH   4   7
TORSDOF 1
ENDMDL
