MODEL 1
REMARK VINA RESULT:      -1.4      0.000      0.000
REMARK  1 active torsions:
REMARK  status: ('A' for Active; 'I' for Inactive)
REMARK    1  A    between atoms: C8_8  and  C9_9 
ROOT
HETATM    1  C1  UNL     1     -31.934  10.008  -0.457  1.00 20.00     0.012 C 
HETATM    2  C2  UNL     1     -32.511   9.582   0.505  1.00 20.00    -0.117 C 
HETATM    3  C9  UNL     1     -33.226   9.068   1.678  1.00 20.00     0.098 C 
ENDROOT
BRANCH   3   4
HETATM    4  C8  UNL     1     -32.322   8.161   2.518  1.00 20.00     0.004 C 
HETATM    5  C5  UNL     1     -33.042   7.680   3.781  1.00 20.00     0.083 C 
HETATM    6  C3  UNL     1     -34.055   6.602   3.467  1.00 20.00     0.127 C 
HETATM    7  C4  UNL     1     -33.569   5.443   2.627  1.00 20.00     0.078 C 
HETATM    8  O10 UNL     1     -35.186   6.619   3.951  1.00 20.00    -0.298 OA
HETATM    9  C6  UNL     1     -32.866   5.944   1.375  1.00 20.00     0.008 C 
HETATM   10  C7  UNL     1     -31.785   6.974   1.703  1.00 20.00     0.006 C 
ENDBRANCH   3   4
TORSDOF 1
ENDMDL
MODEL 2
REMARK VINA RESULT:      -0.2      2.006      4.672
REMARK  1 active torsions:
REMARK  status: ('A' for Active; 'I' for Inactive)
REMARK    1  A    between atoms: C8_8  and  C9_9 
ROOT
HETATM    1  C1  UNL     1     -33.353   1.846   4.552  1.00 20.00     0.012 C 
HETATM    2  C2  UNL     1     -33.274   3.042   4.480  1.00 20.00    -0.117 C 
HETATM    3  C9  UNL     1     -33.170   4.502   4.401  1.00 20.00     0.098 C 
ENDROOT
BRANCH   3   4
HETATM    4  C8  UNL     1     -34.137   5.066   3.356  1.00 20.00     0.004 C 
HETATM    5  C5  UNL     1     -34.838   6.325   3.874  1.00 20.00     0.083 C 
HETATM    6  C3  UNL     1     -33.913   7.522   3.859  1.00 20.00     0.127 C 
HETATM    7  C4  UNL     1     -33.174   7.787   2.567  1.00 20.00     0.078 C 
HETATM    8  O10 UNL     1     -33.842   8.294   4.813  1.00 20.00    -0.298 OA
HETATM    9  C6  UNL     1     -32.478   6.526   2.077  1.00 20.00     0.008 C 
HETATM   10  C7  UNL     1     -33.436   5.336   2.015  1.00 20.00     0.006 C 
ENDBRANCH   3   4
TORSDOF 1
ENDMDL
MODEL 3
REMARK VINA RESULT:       0.3      1.725      2.886
REMARK  1 active torsions:
REMARK  status: ('A' for Active; 'I' for Inactive)
REMARK    1  A    between atoms: C8_8  and  C9_9 
ROOT
HETATM    1  C1  UNL     1     -31.884   8.922   1.077  1.00 20.00     0.012 C 
HETATM    2  C2  UNL     1     -32.146   7.982   1.776  1.00 20.00    -0.117 C 
HETATM    3  C9  UNL     1     -32.456   6.836   2.636  1.00 20.00     0.098 C 
ENDROOT
BRANCH   3   4
HETATM    4  C8  UNL     1     -33.735   6.133   2.175  1.00 20.00     0.004 C 
HETATM    5  C5  UNL     1     -33.668   4.627   2.448  1.00 20.00     0.083 C 
HETATM    6  C3  UNL     1     -33.869   4.319   3.915  1.00 20.00     0.127 C 
HETATM    7  C4  UNL     1     -35.071   4.953   4.579  1.00 20.00     0.078 C 
HETATM    8  O10 UNL     1     -33.150   3.518   4.510  1.00 20.00    -0.298 OA
HETATM    9  C6  UNL     1     -35.112   6.448   4.302  1.00 20.00     0.008 C 
HETATM   10  C7  UNL     1     -34.990   6.753   2.809  1.00 20.00     0.006 C 
ENDBRANCH   3   4
TORSDOF 1
ENDMDL
MODEL 4
REMARK VINA RESULT:       0.5      2.003      4.388
REMARK  1 active torsions:
REMARK  status: ('A' for Active; 'I' for Inactive)
REMARK    1  A    between atoms: C8_8  and  C9_9 
ROOT
HETATM    1  C1  UNL     1     -33.491   2.610   4.229  1.00 20.00     0.012 C 
HETATM    2  C2  UNL     1     -33.490   3.807   4.317  1.00 20.00    -0.117 C 
HETATM    3  C9  UNL     1     -33.483   5.269   4.436  1.00 20.00     0.098 C 
ENDROOT
BRANCH   3   4
HETATM    4  C8  UNL     1     -34.129   5.922   3.211  1.00 20.00     0.004 C 
HETATM    5  C5  UNL     1     -33.975   7.445   3.252  1.00 20.00     0.083 C 
HETATM    6  C3  UNL     1     -32.567   7.871   2.902  1.00 20.00     0.127 C 
HETATM    7  C4  UNL     1     -31.978   7.285   1.639  1.00 20.00     0.078 C 
HETATM    8  O10 UNL     1     -31.969   8.724   3.557  1.00 20.00    -0.298 OA
HETATM    9  C6  UNL     1     -32.133   5.772   1.625  1.00 20.00     0.008 C 
HETATM   10  C7  UNL     1     -33.576   5.346   1.897  1.00 20.00     0.006 C 
ENDBRANCH   3   4
TORSDOF 1
ENDMDL
MODEL 5
REMARK VINA RESULT:       0.7      1.719      3.838
REMARK  1 active torsions:
REMARK  status: ('A' for Active; 'I' for Inactive)
REMARK    1  A    between atoms: C8_8  and  C9_9 
ROOT
HETATM    1  C1  UNL     1     -35.673   5.361   4.428  1.00 20.00     0.012 C 
HETATM    2  C2  UNL     1     -35.084   6.330   4.032  1.00 20.00    -0.117 C 
HETATM    3  C9  UNL     1     -34.377   7.518   3.545  1.00 20.00     0.098 C 
ENDROOT
BRANCH   3   4
HETATM    4  C8  UNL     1     -32.864   7.284   3.519  1.00 20.00     0.004 C 
HETATM    5  C5  UNL     1     -32.518   5.981   2.793  1.00 20.00     0.083 C 
HETATM    6  C3  UNL     1     -32.655   6.128   1.294  1.00 20.00     0.127 C 
HETATM    7  C4  UNL     1     -31.962   7.316   0.666  1.00 20.00     0.078 C 
HETATM    8  O10 UNL     1     -33.215   5.272   0.611  1.00 20.00    -0.298 OA
HETATM    9  C6  UNL     1     -32.328   8.599   1.397  1.00 20.00     0.008 C 
HETATM   10  C7  UNL     1     -32.111   8.475   2.905  1.00 20.00     0.006 C 
ENDBRANCH   3   4
TORSDOF 1
ENDMDL
MODEL 6
REMARK VINA RESULT:       1.1      1.498      3.298
REMARK  1 active torsions:
REMARK  status: ('A' for Active; 'I' for Inactive)
REMARK    1  A    between atoms: C8_8  and  C9_9 
ROOT
HETATM    1  C1  UNL     1     -31.260   3.870  -0.140  1.00 20.00     0.012 C 
HETATM    2  C2  UNL     1     -31.460   4.631   0.766  1.00 20.00    -0.117 C 
HETATM    3  C9  UNL     1     -31.696   5.554   1.881  1.00 20.00     0.098 C 
ENDROOT
BRANCH   3   4
HETATM    4  C8  UNL     1     -32.737   6.613   1.506  1.00 20.00     0.004 C 
HETATM    5  C5  UNL     1     -34.135   6.207   1.979  1.00 20.00     0.083 C 
HETATM    6  C3  UNL     1     -34.291   6.392   3.472  1.00 20.00     0.127 C 
HETATM    7  C4  UNL     1     -33.881   7.735   4.033  1.00 20.00     0.078 C 
HETATM    8  O10 UNL     1     -34.815   5.531   4.177  1.00 20.00    -0.298 OA
HETATM    9  C6  UNL     1     -32.486   8.113   3.557  1.00 20.00     0.008 C 
HETATM   10  C7  UNL     1     -32.355   8.004   2.038  1.00 20.00     0.006 C 
ENDBRANCH   3   4
TORSDOF 1
ENDMDL
MODEL 7
REMARK VINA RESULT:       1.2      2.167      4.272
REMARK  1 active torsions:
REMARK  status: ('A' for Active; 'I' for Inactive)
REMARK    1  A    between atoms: C8_8  and  C9_9 
ROOT
HETATM    1  C1  UNL     1     -34.215   6.173   3.589  1.00 20.00     0.012 C 
HETATM    2  C2  UNL     1     -33.587   6.355   2.583  1.00 20.00    -0.117 C 
HETATM    3  C9  UNL     1     -32.826   6.569   1.348  1.00 20.00     0.098 C 
ENDROOT
BRANCH   3   4
HETATM    4  C8  UNL     1     -31.681   7.561   1.573  1.00 20.00     0.004 C 
HETATM    5  C5  UNL     1     -31.354   8.329   0.289  1.00 20.00     0.083 C 
HETATM    6  C3  UNL     1     -32.393   9.388  -0.004  1.00 20.00     0.127 C 
HETATM    7  C4  UNL     1     -32.741  10.324   1.131  1.00 20.00     0.078 C 
HETATM    8  O10 UNL     1     -32.856   9.543  -1.133  1.00 20.00    -0.298 OA
HETATM    9  C6  UNL     1     -33.071   9.541   2.392  1.00 20.00     0.008 C 
HETATM   10  C7  UNL     1     -31.980   8.526   2.732  1.00 20.00     0.006 C 
ENDBRANCH   3   4
TORSDOF 1
ENDMDL
MODEL 8
REMARK VINA RESULT:       1.2      2.089      3.941
REMARK  1 active torsions:
REMARK  status: ('A' for Active; 'I' for Inactive)
REMARK    1  A    between atoms: C8_8  and  C9_9 
ROOT
HETATM    1  C1  UNL     1     -34.371   3.388  -0.795  1.00 20.00     0.012 C 
HETATM    2  C2  UNL     1     -34.114   4.438  -0.273  1.00 20.00    -0.117 C 
HETATM    3  C9  UNL     1     -33.806   5.727   0.356  1.00 20.00     0.098 C 
ENDROOT
BRANCH   3   4
HETATM    4  C8  UNL     1     -32.816   5.552   1.510  1.00 20.00     0.004 C 
HETATM    5  C5  UNL     1     -31.789   6.688   1.535  1.00 20.00     0.083 C 
HETATM    6  C3  UNL     1     -32.390   7.969   2.069  1.00 20.00     0.127 C 
HETATM    7  C4  UNL     1     -33.140   7.868   3.377  1.00 20.00     0.078 C 
HETATM    8  O10 UNL     1     -32.194   9.051   1.519  1.00 20.00    -0.298 OA
HETATM    9  C6  UNL     1     -34.160   6.741   3.327  1.00 20.00     0.008 C 
HETATM   10  C7  UNL     1     -33.532   5.426   2.865  1.00 20.00     0.006 C 
ENDBRANCH   3   4
TORSDOF 1
ENDMDL
MODEL 9
REMARK VINA RESULT:       1.2      2.056      3.252
REMARK  1 active torsions:
REMARK  status: ('A' for Active; 'I' for Inactive)
REMARK    1  A    between atoms: C8_8  and  C9_9 
ROOT
HETATM    1  C1  UNL     1     -31.967   8.452   2.572  1.00 20.00     0.012 C 
HETATM    2  C2  UNL     1     -32.811   8.061   3.331  1.00 20.00    -0.117 C 
HETATM    3  C9  UNL     1     -33.835   7.588   4.268  1.00 20.00     0.098 C 
ENDROOT
BRANCH   3   4
HETATM    4  C8  UNL     1     -34.864   6.705   3.556  1.00 20.00     0.004 C 
HETATM    5  C5  UNL     1     -34.339   6.226   2.200  1.00 20.00     0.083 C 
HETATM    6  C3  UNL     1     -33.311   5.128   2.359  1.00 20.00     0.127 C 
HETATM    7  C4  UNL     1     -33.695   3.968   3.250  1.00 20.00     0.078 C 
HETATM    8  O10 UNL     1     -32.260   5.131   1.721  1.00 20.00    -0.298 OA
HETATM    9  C6  UNL     1     -34.204   4.467   4.593  1.00 20.00     0.008 C 
HETATM   10  C7  UNL     1     -35.302   5.519   4.429  1.00 20.00     0.006 C 
ENDBRANCH   3   4
TORSDOF 1
ENDMDL
