MODEL 1
REMARK VINA RESULT:      -2.3      0.000      0.000
REMARK  1 active torsions:
REMARK  status: ('A' for Active; 'I' for Inactive)
REMARK    1  A    between atoms: C7_7  and  C9_9 
ROOT
HETATM    1  C1  UNL     1     -32.508   9.717   0.396  1.00 20.00     0.012 C 
HETATM    2  C2  UNL     1     -32.234   8.747   1.048  1.00 20.00    -0.117 C 
HETATM    3  C9  UNL     1     -31.888   7.565   1.843  1.00 20.00     0.097 C 
ENDROOT
BRANCH   3   4
HETATM    4  C7  UNL     1     -33.145   6.825   2.299  1.00 20.00    -0.002 C 
HETATM    5  C4  UNL     1     -33.927   7.664   3.319  1.00 20.00     0.005 C 
HETATM    6  C3  UNL     1     -35.162   6.925   3.829  1.00 20.00     0.002 C 
HETATM    7  C5  UNL     1     -34.803   5.557   4.403  1.00 20.00     0.020 C 
HETATM    8  C8  UNL     1     -34.029   4.718   3.386  1.00 20.00     0.082 C 
HETATM    9  C6  UNL     1     -32.783   5.451   2.883  1.00 20.00     0.025 C 
HETATM   10 CL10 UNL     1     -33.559   3.158   4.120  1.00 20.00    -0.125 Cl
ENDBRANCH   3   4
TORSDOF 1
ENDMDL
MODEL 2
REMARK VINA RESULT:      -1.8      1.556      2.431
REMARK  1 active torsions:
REMARK  status: ('A' for Active; 'I' for Inactive)
REMARK    1  A    between atoms: C7_7  and  C9_9 
ROOT
HETATM    1  C1  UNL     1     -32.741   9.826  -0.544  1.00 20.00     0.012 C 
HETATM    2  C2  UNL     1     -32.356   9.612   0.573  1.00 20.00    -0.117 C 
HETATM    3  C9  UNL     1     -31.884   9.362   1.938  1.00 20.00     0.097 C 
ENDROOT
BRANCH   3   4
HETATM    4  C7  UNL     1     -32.130   7.910   2.345  1.00 20.00    -0.002 C 
HETATM    5  C4  UNL     1     -32.008   6.979   1.130  1.00 20.00     0.005 C 
HETATM    6  C3  UNL     1     -32.301   5.527   1.500  1.00 20.00     0.002 C 
HETATM    7  C5  UNL     1     -33.664   5.380   2.170  1.00 20.00     0.020 C 
HETATM    8  C8  UNL     1     -33.785   6.302   3.383  1.00 20.00     0.082 C 
HETATM    9  C6  UNL     1     -33.506   7.760   3.013  1.00 20.00     0.025 C 
HETATM   10 CL10 UNL     1     -35.419   6.159   4.092  1.00 20.00    -0.125 Cl
ENDBRANCH   3   4
TORSDOF 1
ENDMDL
MODEL 3
REMARK VINA RESULT:      -1.4      1.990      2.628
REMARK  1 active torsions:
REMARK  status: ('A' for Active; 'I' for Inactive)
REMARK    1  A    between atoms: C7_7  and  C9_9 
ROOT
HETATM    1  C1  UNL     1     -32.827  10.516   0.309  1.00 20.00     0.012 C 
HETATM    2  C2  UNL     1     -32.171   9.516   0.422  1.00 20.00    -0.117 C 
HETATM    3  C9  UNL     1     -31.364   8.300   0.552  1.00 20.00     0.097 C 
ENDROOT
BRANCH   3   4
HETATM    4  C7  UNL     1     -31.879   7.420   1.691  1.00 20.00    -0.002 C 
HETATM    5  C4  UNL     1     -32.829   6.341   1.153  1.00 20.00     0.005 C 
HETATM    6  C3  UNL     1     -33.399   5.480   2.277  1.00 20.00     0.002 C 
HETATM    7  C5  UNL     1     -34.080   6.328   3.347  1.00 20.00     0.020 C 
HETATM    8  C8  UNL     1     -33.133   7.399   3.888  1.00 20.00     0.082 C 
HETATM    9  C6  UNL     1     -32.571   8.273   2.765  1.00 20.00     0.025 C 
HETATM   10 CL10 UNL     1     -33.989   8.420   5.079  1.00 20.00    -0.125 Cl
ENDBRANCH   3   4
TORSDOF 1
ENDMDL
MODEL 4
REMARK VINA RESULT:      -1.1      2.389      4.550
REMARK  1 active torsions:
REMARK  status: ('A' for Active; 'I' for Inactive)
REMARK    1  A    between atoms: C7_7  and  C9_9 
ROOT
HETATM    1  C1  UNL     1     -33.082   2.623   5.156  1.00 20.00     0.012 C 
HETATM    2  C2  UNL     1     -33.472   3.354   4.287  1.00 20.00    -0.117 C 
HETATM    3  C9  UNL     1     -33.955   4.238   3.222  1.00 20.00     0.097 C 
ENDROOT
BRANCH   3   4
HETATM    4  C7  UNL     1     -33.441   5.663   3.418  1.00 20.00    -0.002 C 
HETATM    5  C4  UNL     1     -34.549   6.566   3.978  1.00 20.00     0.005 C 
HETATM    6  C3  UNL     1     -34.076   8.009   4.135  1.00 20.00     0.002 C 
HETATM    7  C5  UNL     1     -33.523   8.566   2.826  1.00 20.00     0.020 C 
HETATM    8  C8  UNL     1     -32.415   7.671   2.269  1.00 20.00     0.082 C 
HETATM    9  C6  UNL     1     -32.891   6.227   2.098  1.00 20.00     0.025 C 
HETATM   10 CL10 UNL     1     -31.849   8.312   0.701  1.00 20.00    -0.125 Cl
ENDBRANCH   3   4
TORSDOF 1
ENDMDL
MODEL 5
REMARK VINA RESULT:      -1.1      2.447      4.688
REMARK  1 active torsions:
REMARK  status: ('A' for Active; 'I' for Inactive)
REMARK    1  A    between atoms: C7_7  and  C9_9 
ROOT
HETATM    1  C1  UNL     1     -33.394   3.102   4.650  1.00 20.00     0.012 C 
HETATM    2  C2  UNL     1     -34.067   4.071   4.429  1.00 20.00    -0.117 C 
HETATM    3  C9  UNL     1     -34.897   5.250   4.166  1.00 20.00     0.097 C 
ENDROOT
BRANCH   3   4
HETATM    4  C7  UNL     1     -34.231   6.174   3.147  1.00 20.00    -0.002 C 
HETATM    5  C4  UNL     1     -33.438   5.358   2.116  1.00 20.00     0.005 C 
HETATM    6  C3  UNL     1     -32.719   6.259   1.116  1.00 20.00     0.002 C 
HETATM    7  C5  UNL     1     -31.824   7.278   1.816  1.00 20.00     0.020 C 
HETATM    8  C8  UNL     1     -32.613   8.095   2.839  1.00 20.00     0.082 C 
HETATM    9  C6  UNL     1     -33.324   7.194   3.852  1.00 20.00     0.025 C 
HETATM   10 CL10 UNL     1     -31.518   9.219   3.692  1.00 20.00    -0.125 Cl
ENDBRANCH   3   4
TORSDOF 1
ENDMDL
MODEL 6
REMARK VINA RESULT:      -0.4      1.549      1.994
REMARK  1 active torsions:
REMARK  status: ('A' for Active; 'I' for Inactive)
REMARK    1  A    between atoms: C7_7  and  C9_9 
ROOT
HETATM    1  C1  UNL     1     -32.392  10.442  -0.435  1.00 20.00     0.012 C 
HETATM    2  C2  UNL     1     -32.385   9.959   0.665  1.00 20.00    -0.117 C 
HETATM    3  C9  UNL     1     -32.372   9.380   2.011  1.00 20.00     0.097 C 
ENDROOT
BRANCH   3   4
HETATM    4  C7  UNL     1     -33.077   8.024   2.031  1.00 20.00    -0.002 C 
HETATM    5  C4  UNL     1     -33.513   7.663   3.457  1.00 20.00     0.005 C 
HETATM    6  C3  UNL     1     -34.175   6.289   3.514  1.00 20.00     0.002 C 
HETATM    7  C5  UNL     1     -33.277   5.205   2.923  1.00 20.00     0.020 C 
HETATM    8  C8  UNL     1     -32.846   5.561   1.500  1.00 20.00     0.082 C 
HETATM    9  C6  UNL     1     -32.170   6.932   1.443  1.00 20.00     0.025 C 
HETATM   10 CL10 UNL     1     -31.735   4.311   0.872  1.00 20.00    -0.125 Cl
ENDBRANCH   3   4
TORSDOF 1
ENDMDL
MODEL 7
REMARK VINA RESULT:      -0.2      1.771      4.057
REMARK  1 active torsions:
REMARK  status: ('A' for Active; 'I' for Inactive)
REMARK    1  A    between atoms: C7_7  and  C9_9 
ROOT
HETATM    1  C1  UNL     1     -35.552   5.051   4.565  1.00 20.00     0.012 C 
HETATM    2  C2  UNL     1     -35.079   6.122   4.300  1.00 20.00    -0.117 C 
HETATM    3  C9  UNL     1     -34.509   7.435   3.982  1.00 20.00     0.097 C 
ENDROOT
BRANCH   3   4
HETATM    4  C7  UNL     1     -33.186   7.290   3.231  1.00 20.00    -0.002 C 
HETATM    5  C4  UNL     1     -32.861   8.575   2.456  1.00 20.00     0.005 C 
HETATM    6  C3  UNL     1     -31.569   8.440   1.655  1.00 20.00     0.002 C 
HETATM    7  C5  UNL     1     -31.607   7.231   0.724  1.00 20.00     0.020 C 
HETATM    8  C8  UNL     1     -31.925   5.950   1.495  1.00 20.00     0.082 C 
HETATM    9  C6  UNL     1     -33.227   6.078   2.288  1.00 20.00     0.025 C 
HETATM   10 CL10 UNL     1     -32.038   4.572   0.363  1.00 20.00    -0.125 Cl
ENDBRANCH   3   4
TORSDOF 1
ENDMDL
MODEL 8
REMARK VINA RESULT:       0.5      1.161      1.342
REMARK  1 active torsions:
REMARK  status: ('A' for Active; 'I' for Inactive)
REMARK    1  A    between atoms: C7_7  and  C9_9 
ROOT
HETATM    1  C1  UNL     1     -31.065   7.308   0.719  1.00 20.00     0.012 C 
HETATM    2  C2  UNL     1     -31.823   7.516   1.626  1.00 20.00    -0.117 C 
HETATM    3  C9  UNL     1     -32.744   7.779   2.736  1.00 20.00     0.097 C 
ENDROOT
BRANCH   3   4
HETATM    4  C7  UNL     1     -33.702   6.607   2.942  1.00 20.00    -0.002 C 
HETATM    5  C4  UNL     1     -34.882   7.024   3.832  1.00 20.00     0.005 C 
HETATM    6  C3  UNL     1     -35.828   5.856   4.097  1.00 20.00     0.002 C 
HETATM    7  C5  UNL     1     -35.093   4.656   4.686  1.00 20.00     0.020 C 
HETATM    8  C8  UNL     1     -33.921   4.236   3.799  1.00 20.00     0.082 C 
HETATM    9  C6  UNL     1     -32.963   5.402   3.543  1.00 20.00     0.025 C 
HETATM   10 CL10 UNL     1     -33.038   2.882   4.559  1.00 20.00    -0.125 Cl
ENDBRANCH   3   4
TORSDOF 1
ENDMDL
MODEL 9
REMARK VINA RESULT:       0.6      2.890      5.000
REMARK  1 active torsions:
REMARK  status: ('A' for Active; 'I' for Inactive)
REMARK    1  A    between atoms: C7_7  and  C9_9 
ROOT
HETATM    1  C1  UNL     1     -35.409   5.195   4.432  1.00 20.00     0.012 C 
HETATM    2  C2  UNL     1     -34.843   6.234   4.226  1.00 20.00    -0.117 C 
HETATM    3  C9  UNL     1     -34.153   7.504   3.985  1.00 20.00     0.097 C 
ENDROOT
BRANCH   3   4
HETATM    4  C7  UNL     1     -33.613   7.572   2.557  1.00 20.00    -0.002 C 
HETATM    5  C4  UNL     1     -32.399   6.648   2.393  1.00 20.00     0.005 C 
HETATM    6  C3  UNL     1     -31.808   6.735   0.989  1.00 20.00     0.002 C 
HETATM    7  C5  UNL     1     -31.459   8.173   0.612  1.00 20.00     0.020 C 
HETATM    8  C8  UNL     1     -32.669   9.094   0.770  1.00 20.00     0.082 C 
HETATM    9  C6  UNL     1     -33.255   9.018   2.181  1.00 20.00     0.025 C 
HETATM   10 CL10 UNL     1     -32.202  10.778   0.397  1.00 20.00    -0.125 Cl
ENDBRANCH   3   4
TORSDOF 1
ENDMDL
