MODEL 1
REMARK VINA RESULT:      -0.2      0.000      0.000
REMARK  1 active torsions:
REMARK  status: ('A' for Active; 'I' for Inactive)
REMARK    1  A    between atoms: C4_4  and  C9_9 
ROOT
HETATM    1  C1  UNL     1     -33.173   5.230   3.311  1.00 20.00     0.052 A 
HETATM    2  C2  UNL     1     -34.688   7.014   3.736  1.00 20.00     0.123 A 
HETATM    3  C3  UNL     1     -35.231   4.901   4.457  1.00 20.00     0.158 A 
HETATM    4  C4  UNL     1     -33.488   6.580   3.197  1.00 20.00    -0.034 A 
HETATM    5  C5  UNL     1     -34.057   4.368   3.952  1.00 20.00     0.134 A 
HETATM    6  N11 UNL     1     -35.571   6.206   4.365  1.00 20.00    -0.269 NA
HETATM    7  F12 UNL     1     -33.780   3.066   4.076  1.00 20.00    -0.205 F 
ENDROOT
BRANCH   4   8
HETATM    8  C9  UNL     1     -32.547   7.545   2.506  1.00 20.00     0.021 C 
HETATM    9  C6  UNL     1     -31.743   6.922   1.345  1.00 20.00     0.011 C 
HETATM   10  C7  UNL     1     -31.529   8.033   0.310  1.00 20.00     0.021 C 
HETATM   11  C10 UNL     1     -32.042   9.300   0.980  1.00 20.00     0.083 C 
HETATM   12  C8  UNL     1     -33.168   8.797   1.870  1.00 20.00     0.029 C 
HETATM   13 CL13 UNL     1     -32.596  10.506  -0.191  1.00 20.00    -0.125 Cl
ENDBRANCH   4   8
TORSDOF 1
ENDMDL
MODEL 2
REMARK VINA RESULT:       1.4      1.522      1.831
REMARK  1 active torsions:
REMARK  status: ('A' for Active; 'I' for Inactive)
REMARK    1  A    between atoms: C4_4  and  C9_9 
ROOT
HETATM    1  C1  UNL     1     -34.226   7.053   3.649  1.00 20.00     0.052 A 
HETATM    2  C2  UNL     1     -32.782   5.520   2.543  1.00 20.00     0.123 A 
HETATM    3  C3  UNL     1     -34.440   4.698   3.903  1.00 20.00     0.158 A 
HETATM    4  C4  UNL     1     -33.151   6.831   2.794  1.00 20.00    -0.034 A 
HETATM    5  C5  UNL     1     -34.888   5.970   4.219  1.00 20.00     0.134 A 
HETATM    6  N11 UNL     1     -33.401   4.444   3.077  1.00 20.00    -0.269 NA
HETATM    7  F12 UNL     1     -35.924   6.154   5.043  1.00 20.00    -0.205 F 
ENDROOT
BRANCH   4   8
HETATM    8  C9  UNL     1     -32.410   7.988   2.157  1.00 20.00     0.021 C 
HETATM    9  C6  UNL     1     -31.314   7.563   1.155  1.00 20.00     0.011 C 
HETATM   10  C7  UNL     1     -31.257   8.651   0.077  1.00 20.00     0.021 C 
HETATM   11  C10 UNL     1     -32.174   9.757   0.581  1.00 20.00     0.083 C 
HETATM   12  C8  UNL     1     -33.242   9.001   1.357  1.00 20.00     0.029 C 
HETATM   13 CL13 UNL     1     -32.855  10.723  -0.735  1.00 20.00    -0.125 Cl
ENDBRANCH   4   8
TORSDOF 1
ENDMDL
MODEL 3
REMARK VINA RESULT:       1.9      3.701      5.417
REMARK  1 active torsions:
REMARK  status: ('A' for Active; 'I' for Inactive)
REMARK    1  A    between atoms: C4_4  and  C9_9 
ROOT
HETATM    1  C1  UNL     1     -31.680   7.997   1.068  1.00 20.00     0.052 A 
HETATM    2  C2  UNL     1     -33.294   9.593   1.779  1.00 20.00     0.123 A 
HETATM    3  C3  UNL     1     -32.028  10.049  -0.083  1.00 20.00     0.158 A 
HETATM    4  C4  UNL     1     -32.672   8.370   1.969  1.00 20.00    -0.034 A 
HETATM    5  C5  UNL     1     -31.346   8.848   0.020  1.00 20.00     0.134 A 
HETATM    6  N11 UNL     1     -32.997  10.445   0.772  1.00 20.00    -0.269 NA
HETATM    7  F12 UNL     1     -30.397   8.515  -0.861  1.00 20.00    -0.205 F 
ENDROOT
BRANCH   4   8
HETATM    8  C9  UNL     1     -33.059   7.466   3.121  1.00 20.00     0.021 C 
HETATM    9  C6  UNL     1     -34.514   7.648   3.606  1.00 20.00     0.011 C 
HETATM   10  C7  UNL     1     -34.990   6.275   4.095  1.00 20.00     0.021 C 
HETATM   11  C10 UNL     1     -33.752   5.390   4.058  1.00 20.00     0.083 C 
HETATM   12  C8  UNL     1     -32.954   5.951   2.891  1.00 20.00     0.029 C 
HETATM   13 CL13 UNL     1     -34.150   3.679   3.842  1.00 20.00    -0.125 Cl
ENDBRANCH   4   8
TORSDOF 1
ENDMDL
MODEL 4
REMARK VINA RESULT:       2.0      3.925      5.676
REMARK  1 active torsions:
REMARK  status: ('A' for Active; 'I' for Inactive)
REMARK    1  A    between atoms: C4_4  and  C9_9 
ROOT
HETATM    1  C1  UNL     1     -33.153   9.359   1.807  1.00 20.00     0.052 A 
HETATM    2  C2  UNL     1     -31.641   7.631   1.186  1.00 20.00     0.123 A 
HETATM    3  C3  UNL     1     -31.718   9.546  -0.080  1.00 20.00     0.158 A 
HETATM    4  C4  UNL     1     -32.619   8.098   2.049  1.00 20.00    -0.034 A 
HETATM    5  C5  UNL     1     -32.700  10.103   0.723  1.00 20.00     0.134 A 
HETATM    6  N11 UNL     1     -31.175   8.325   0.123  1.00 20.00    -0.269 NA
HETATM    7  F12 UNL     1     -33.195  11.318   0.467  1.00 20.00    -0.205 F 
ENDROOT
BRANCH   4   8
HETATM    8  C9  UNL     1     -33.091   7.263   3.221  1.00 20.00     0.021 C 
HETATM    9  C6  UNL     1     -34.584   7.447   3.568  1.00 20.00     0.011 C 
HETATM   10  C7  UNL     1     -35.082   6.099   4.104  1.00 20.00     0.021 C 
HETATM   11  C10 UNL     1     -33.833   5.238   4.230  1.00 20.00     0.083 C 
HETATM   12  C8  UNL     1     -32.945   5.738   3.101  1.00 20.00     0.029 C 
HETATM   13 CL13 UNL     1     -34.186   3.509   4.094  1.00 20.00    -0.125 Cl
ENDBRANCH   4   8
TORSDOF 1
ENDMDL
