MODEL 1
REMARK VINA RESULT:      -1.3      0.000      0.000
REMARK  5 active torsions:
REMARK  status: ('A' for Active; 'I' for Inactive)
REMARK    1  A    between atoms: C6_6  and  C7_7 
REMARK    2  A    between atoms: C7_7  and  C8_8 
REMARK    3  A    between atoms: C8_8  and  C9_9 
REMARK    4  A    between atoms: C9_9  and  C10_10 
REMARK    5  A    between atoms: C10_10  and  C11_11 
ROOT
HETATM    1  C1  UNL     1     -32.704   2.642   5.354  1.00 20.00     0.012 C 
HETATM    2  C2  UNL     1     -33.364   3.344   4.637  1.00 20.00    -0.117 C 
HETATM    3  C6  UNL     1     -34.168   4.201   3.754  1.00 20.00     0.093 C 
ENDROOT
BRANCH   3   4
HETATM    4  C7  UNL     1     -35.206   5.018   4.527  1.00 20.00     0.012 C 
BRANCH   4   5
HETATM    5  C8  UNL     1     -35.219   6.499   4.125  1.00 20.00     0.002 C 
BRANCH   5   6
HETATM    6  C9  UNL     1     -34.336   6.743   2.891  1.00 20.00     0.021 C 
BRANCH   6   7
HETATM    7  C10 UNL     1     -33.439   7.994   3.016  1.00 20.00     0.089 C 
HETATM    8 CL12 UNL     1     -32.908   8.164   4.732  1.00 20.00    -0.124 Cl
BRANCH   7   9
HETATM    9  C11 UNL     1     -32.219   8.028   2.031  1.00 20.00    -0.035 C 
HETATM   10  C3  UNL     1     -30.931   8.417   2.790  1.00 20.00     0.016 C 
HETATM   11  C4  UNL     1     -31.978   6.628   1.422  1.00 20.00     0.016 C 
HETATM   12  C5  UNL     1     -32.419   9.033   0.879  1.00 20.00     0.016 C 
ENDBRANCH   7   9
ENDBRANCH   6   7
ENDBRANCH   5   6
ENDBRANCH   4   5
ENDBRANCH   3   4
TORSDOF 5
ENDMDL
MODEL 2
REMARK VINA RESULT:      -1.2      0.058      1.259
REMARK  5 active torsions:
REMARK  status: ('A' for Active; 'I' for Inactive)
REMARK    1  A    between atoms: C6_6  and  C7_7 
REMARK    2  A    between atoms: C7_7  and  C8_8 
REMARK    3  A    between atoms: C8_8  and  C9_9 
REMARK    4  A    between atoms: C9_9  and  C10_10 
REMARK    5  A    between atoms: C10_10  and  C11_11 
ROOT
HETATM    1  C1  UNL     1     -32.716   2.722   5.359  1.00 20.00     0.012 C 
HETATM    2  C2  UNL     1     -33.385   3.414   4.640  1.00 20.00    -0.117 C 
HETATM    3  C6  UNL     1     -34.201   4.259   3.755  1.00 20.00     0.093 C 
ENDROOT
BRANCH   3   4
HETATM    4  C7  UNL     1     -35.240   5.073   4.528  1.00 20.00     0.012 C 
BRANCH   4   5
HETATM    5  C8  UNL     1     -35.257   6.554   4.123  1.00 20.00     0.002 C 
BRANCH   5   6
HETATM    6  C9  UNL     1     -34.390   6.795   2.878  1.00 20.00     0.021 C 
BRANCH   6   7
HETATM    7  C10 UNL     1     -33.448   8.011   3.013  1.00 20.00     0.089 C 
HETATM    8 CL12 UNL     1     -32.939   8.169   4.737  1.00 20.00    -0.124 Cl
BRANCH   7   9
HETATM    9  C11 UNL     1     -32.211   7.993   2.049  1.00 20.00    -0.035 C 
HETATM   10  C3  UNL     1     -32.430   8.981   0.882  1.00 20.00     0.016 C 
HETATM   11  C4  UNL     1     -30.937   8.453   2.795  1.00 20.00     0.016 C 
HETATM   12  C5  UNL     1     -31.948   6.596   1.452  1.00 20.00     0.016 C 
ENDBRANCH   7   9
ENDBRANCH   6   7
ENDBRANCH   5   6
ENDBRANCH   4   5
ENDBRANCH   3   4
TORSDOF 5
ENDMDL
MODEL 3
REMARK VINA RESULT:      -0.4      2.037      5.314
REMARK  5 active torsions:
REMARK  status: ('A' for Active; 'I' for Inactive)
REMARK    1  A    between atoms: C6_6  and  C7_7 
REMARK    2  A    between atoms: C7_7  and  C8_8 
REMARK    3  A    between atoms: C8_8  and  C9_9 
REMARK    4  A    between atoms: C9_9  and  C10_10 
REMARK    5  A    between atoms: C10_10  and  C11_11 
ROOT
HETATM    1  C1  UNL     1     -32.660  10.279  -0.098  1.00 20.00     0.012 C 
HETATM    2  C2  UNL     1     -32.343   9.432   0.692  1.00 20.00    -0.117 C 
HETATM    3  C6  UNL     1     -31.956   8.399   1.664  1.00 20.00     0.093 C 
ENDROOT
BRANCH   3   4
HETATM    4  C7  UNL     1     -31.622   7.066   0.991  1.00 20.00     0.012 C 
BRANCH   4   5
HETATM    5  C8  UNL     1     -32.683   5.987   1.245  1.00 20.00     0.002 C 
BRANCH   5   6
HETATM    6  C9  UNL     1     -32.689   5.556   2.720  1.00 20.00     0.021 C 
BRANCH   6   7
HETATM    7  C10 UNL     1     -34.067   5.059   3.208  1.00 20.00     0.089 C 
HETATM    8 CL12 UNL     1     -33.831   3.600   4.243  1.00 20.00    -0.124 Cl
BRANCH   7   9
HETATM    9  C11 UNL     1     -34.936   6.144   3.934  1.00 20.00    -0.035 C 
HETATM   10  C3  UNL     1     -36.044   6.660   2.989  1.00 20.00     0.016 C 
HETATM   11  C4  UNL     1     -35.644   5.532   5.165  1.00 20.00     0.016 C 
HETATM   12  C5  UNL     1     -34.102   7.353   4.402  1.00 20.00     0.016 C 
ENDBRANCH   7   9
ENDBRANCH   6   7
ENDBRANCH   5   6
ENDBRANCH   4   5
ENDBRANCH   3   4
TORSDOF 5
ENDMDL
MODEL 4
REMARK VINA RESULT:      -0.0      1.468      2.163
REMARK  5 active torsions:
REMARK  status: ('A' for Active; 'I' for Inactive)
REMARK    1  A    between atoms: C6_6  and  C7_7 
REMARK    2  A    between atoms: C7_7  and  C8_8 
REMARK    3  A    between atoms: C8_8  and  C9_9 
REMARK    4  A    between atoms: C9_9  and  C10_10 
REMARK    5  A    between atoms: C10_10  and  C11_11 
ROOT
HETATM    1  C1  UNL     1     -33.478   3.512   4.217  1.00 20.00     0.012 C 
HETATM    2  C2  UNL     1     -34.327   4.356   4.308  1.00 20.00    -0.117 C 
HETATM    3  C6  UNL     1     -35.369   5.386   4.424  1.00 20.00     0.093 C 
ENDROOT
BRANCH   3   4
HETATM    4  C7  UNL     1     -35.020   6.655   3.643  1.00 20.00     0.012 C 
BRANCH   4   5
HETATM    5  C8  UNL     1     -33.571   7.110   3.864  1.00 20.00     0.002 C 
BRANCH   5   6
HETATM    6  C9  UNL     1     -33.227   8.308   2.963  1.00 20.00     0.021 C 
BRANCH   6   7
HETATM    7  C10 UNL     1     -32.147   7.989   1.907  1.00 20.00     0.089 C 
HETATM    8 CL12 UNL     1     -32.304   6.262   1.410  1.00 20.00    -0.124 Cl
BRANCH   7   9
HETATM    9  C11 UNL     1     -32.143   8.946   0.664  1.00 20.00    -0.035 C 
HETATM   10  C3  UNL     1     -30.709   9.093   0.109  1.00 20.00     0.016 C 
HETATM   11  C4  UNL     1     -33.008   8.357  -0.474  1.00 20.00     0.016 C 
HETATM   12  C5  UNL     1     -32.673  10.354   1.001  1.00 20.00     0.016 C 
ENDBRANCH   7   9
ENDBRANCH   6   7
ENDBRANCH   5   6
ENDBRANCH   4   5
ENDBRANCH   3   4
TORSDOF 5
ENDMDL
MODEL 5
REMARK VINA RESULT:      -0.0      1.491      2.482
REMARK  5 active torsions:
REMARK  status: ('A' for Active; 'I' for Inactive)
REMARK    1  A    between atoms: C6_6  and  C7_7 
REMARK    2  A    between atoms: C7_7  and  C8_8 
REMARK    3  A    between atoms: C8_8  and  C9_9 
REMARK    4  A    between atoms: C9_9  and  C10_10 
REMARK    5  A    between atoms: C10_10  and  C11_11 
ROOT
HETATM    1  C1  UNL     1     -33.550   3.514   4.306  1.00 20.00     0.012 C 
HETATM    2  C2  UNL     1     -34.369   4.390   4.371  1.00 20.00    -0.117 C 
HETATM    3  C6  UNL     1     -35.374   5.460   4.453  1.00 20.00     0.093 C 
ENDROOT
BRANCH   3   4
HETATM    4  C7  UNL     1     -34.988   6.684   3.620  1.00 20.00     0.012 C 
BRANCH   4   5
HETATM    5  C8  UNL     1     -33.512   7.071   3.778  1.00 20.00     0.002 C 
BRANCH   5   6
HETATM    6  C9  UNL     1     -33.165   8.289   2.907  1.00 20.00     0.021 C 
BRANCH   6   7
HETATM    7  C10 UNL     1     -32.070   8.001   1.857  1.00 20.00     0.089 C 
HETATM    8 CL12 UNL     1     -32.165   6.265   1.373  1.00 20.00    -0.124 Cl
BRANCH   7   9
HETATM    9  C11 UNL     1     -32.093   8.948   0.607  1.00 20.00    -0.035 C 
HETATM   10  C3  UNL     1     -33.059   8.394  -0.464  1.00 20.00     0.016 C 
HETATM   11  C4  UNL     1     -32.614  10.349   1.001  1.00 20.00     0.016 C 
HETATM   12  C5  UNL     1     -30.703   9.108  -0.038  1.00 20.00     0.016 C 
ENDBRANCH   7   9
ENDBRANCH   6   7
ENDBRANCH   5   6
ENDBRANCH   4   5
ENDBRANCH   3   4
TORSDOF 5
ENDMDL
MODEL 6
REMARK VINA RESULT:       0.0      1.213      2.446
REMARK  5 active torsions:
REMARK  status: ('A' for Active; 'I' for Inactive)
REMARK    1  A    between atoms: C6_6  and  C7_7 
REMARK    2  A    between atoms: C7_7  and  C8_8 
REMARK    3  A    between atoms: C8_8  and  C9_9 
REMARK    4  A    between atoms: C9_9  and  C10_10 
REMARK    5  A    between atoms: C10_10  and  C11_11 
ROOT
HETATM    1  C1  UNL     1     -33.479   3.167   4.478  1.00 20.00     0.012 C 
HETATM    2  C2  UNL     1     -34.087   4.185   4.289  1.00 20.00    -0.117 C 
HETATM    3  C6  UNL     1     -34.836   5.430   4.061  1.00 20.00     0.093 C 
ENDROOT
BRANCH   3   4
HETATM    4  C7  UNL     1     -34.015   6.467   3.292  1.00 20.00     0.012 C 
BRANCH   4   5
HETATM    5  C8  UNL     1     -33.336   5.885   2.045  1.00 20.00     0.002 C 
BRANCH   5   6
HETATM    6  C9  UNL     1     -32.174   6.780   1.583  1.00 20.00     0.021 C 
BRANCH   6   7
HETATM    7  C10 UNL     1     -32.417   8.282   1.841  1.00 20.00     0.089 C 
HETATM    8 CL12 UNL     1     -31.436   8.799   3.264  1.00 20.00    -0.124 Cl
BRANCH   7   9
HETATM    9  C11 UNL     1     -32.164   9.210   0.602  1.00 20.00    -0.035 C 
HETATM   10  C3  UNL     1     -33.018   8.743  -0.597  1.00 20.00     0.016 C 
HETATM   11  C4  UNL     1     -32.590  10.662   0.919  1.00 20.00     0.016 C 
HETATM   12  C5  UNL     1     -30.687   9.220   0.164  1.00 20.00     0.016 C 
ENDBRANCH   7   9
ENDBRANCH   6   7
ENDBRANCH   5   6
ENDBRANCH   4   5
ENDBRANCH   3   4
TORSDOF 5
ENDMDL
MODEL 7
REMARK VINA RESULT:       0.0      1.493      2.290
REMARK  5 active torsions:
REMARK  status: ('A' for Active; 'I' for Inactive)
REMARK    1  A    between atoms: C6_6  and  C7_7 
REMARK    2  A    between atoms: C7_7  and  C8_8 
REMARK    3  A    between atoms: C8_8  and  C9_9 
REMARK    4  A    between atoms: C9_9  and  C10_10 
REMARK    5  A    between atoms: C10_10  and  C11_11 
ROOT
HETATM    1  C1  UNL     1     -33.496   3.517   4.226  1.00 20.00     0.012 C 
HETATM    2  C2  UNL     1     -34.337   4.371   4.302  1.00 20.00    -0.117 C 
HETATM    3  C6  UNL     1     -35.370   5.412   4.399  1.00 20.00     0.093 C 
ENDROOT
BRANCH   3   4
HETATM    4  C7  UNL     1     -34.986   6.682   3.638  1.00 20.00     0.012 C 
BRANCH   4   5
HETATM    5  C8  UNL     1     -33.489   7.006   3.737  1.00 20.00     0.002 C 
BRANCH   5   6
HETATM    6  C9  UNL     1     -33.140   8.258   2.915  1.00 20.00     0.021 C 
BRANCH   6   7
HETATM    7  C10 UNL     1     -32.041   8.011   1.859  1.00 20.00     0.089 C 
HETATM    8 CL12 UNL     1     -32.077   6.275   1.370  1.00 20.00    -0.124 Cl
BRANCH   7   9
HETATM    9  C11 UNL     1     -32.103   8.961   0.612  1.00 20.00    -0.035 C 
HETATM   10  C3  UNL     1     -32.605  10.360   1.032  1.00 20.00     0.016 C 
HETATM   11  C4  UNL     1     -30.693   9.152   0.008  1.00 20.00     0.016 C 
HETATM   12  C5  UNL     1     -33.038   8.426  -0.490  1.00 20.00     0.016 C 
ENDBRANCH   7   9
ENDBRANCH   6   7
ENDBRANCH   5   6
ENDBRANCH   4   5
ENDBRANCH   3   4
TORSDOF 5
ENDMDL
MODEL 8
REMARK VINA RESULT:       0.3      1.906      5.639
REMARK  5 active torsions:
REMARK  status: ('A' for Active; 'I' for Inactive)
REMARK    1  A    between atoms: C6_6  and  C7_7 
REMARK    2  A    between atoms: C7_7  and  C8_8 
REMARK    3  A    between atoms: C8_8  and  C9_9 
REMARK    4  A    between atoms: C9_9  and  C10_10 
REMARK    5  A    between atoms: C10_10  and  C11_11 
ROOT
HETATM    1  C1  UNL     1     -32.364  11.656   1.321  1.00 20.00     0.012 C 
HETATM    2  C2  UNL     1     -32.506  10.816   0.474  1.00 20.00    -0.117 C 
HETATM    3  C6  UNL     1     -32.679   9.792  -0.566  1.00 20.00     0.093 C 
ENDROOT
BRANCH   3   4
HETATM    4  C7  UNL     1     -32.607   8.372  -0.001  1.00 20.00     0.012 C 
BRANCH   4   5
HETATM    5  C8  UNL     1     -31.596   8.238   1.146  1.00 20.00     0.002 C 
BRANCH   5   6
HETATM    6  C9  UNL     1     -32.299   7.849   2.457  1.00 20.00     0.021 C 
BRANCH   6   7
HETATM    7  C10 UNL     1     -33.427   6.812   2.262  1.00 20.00     0.089 C 
HETATM    8 CL12 UNL     1     -32.717   5.291   1.598  1.00 20.00    -0.124 Cl
BRANCH   7   9
HETATM    9  C11 UNL     1     -34.288   6.531   3.543  1.00 20.00    -0.035 C 
HETATM   10  C3  UNL     1     -34.033   5.096   4.054  1.00 20.00     0.016 C 
HETATM   11  C4  UNL     1     -33.887   7.493   4.685  1.00 20.00     0.016 C 
HETATM   12  C5  UNL     1     -35.799   6.687   3.283  1.00 20.00     0.016 C 
ENDBRANCH   7   9
ENDBRANCH   6   7
ENDBRANCH   5   6
ENDBRANCH   4   5
ENDBRANCH   3   4
TORSDOF 5
ENDMDL
MODEL 9
REMARK VINA RESULT:       0.4      1.078      1.775
REMARK  5 active torsions:
REMARK  status: ('A' for Active; 'I' for Inactive)
REMARK    1  A    between atoms: C6_6  and  C7_7 
REMARK    2  A    between atoms: C7_7  and  C8_8 
REMARK    3  A    between atoms: C8_8  and  C9_9 
REMARK    4  A    between atoms: C9_9  and  C10_10 
REMARK    5  A    between atoms: C10_10  and  C11_11 
ROOT
HETATM    1  C1  UNL     1     -32.930   2.735   5.244  1.00 20.00     0.012 C 
HETATM    2  C2  UNL     1     -33.542   3.452   4.500  1.00 20.00    -0.117 C 
HETATM    3  C6  UNL     1     -34.289   4.326   3.584  1.00 20.00     0.093 C 
ENDROOT
BRANCH   3   4
HETATM    4  C7  UNL     1     -35.174   5.326   4.330  1.00 20.00     0.012 C 
BRANCH   4   5
HETATM    5  C8  UNL     1     -34.881   6.783   3.946  1.00 20.00     0.002 C 
BRANCH   5   6
HETATM    6  C9  UNL     1     -33.375   7.080   4.018  1.00 20.00     0.021 C 
BRANCH   6   7
HETATM    7  C10 UNL     1     -32.865   7.946   2.845  1.00 20.00     0.089 C 
HETATM    8 CL12 UNL     1     -31.493   8.966   3.423  1.00 20.00    -0.124 Cl
BRANCH   7   9
HETATM    9  C11 UNL     1     -32.478   7.141   1.555  1.00 20.00    -0.035 C 
HETATM   10  C3  UNL     1     -33.751   6.714   0.792  1.00 20.00     0.016 C 
HETATM   11  C4  UNL     1     -31.653   8.027   0.593  1.00 20.00     0.016 C 
HETATM   12  C5  UNL     1     -31.661   5.873   1.873  1.00 20.00     0.016 C 
ENDBRANCH   7   9
ENDBRANCH   6   7
ENDBRANCH   5   6
ENDBRANCH   4   5
ENDBRANCH   3   4
TORSDOF 5
ENDMDL
