MODEL 1
REMARK VINA RESULT:      -2.7      0.000      0.000
REMARK  3 active torsions:
REMARK  status: ('A' for Active; 'I' for Inactive)
REMARK    1  A    between atoms: C1_1  and  C4_4 
REMARK    2  A    between atoms: C1_1  and  C5_5 
REMARK    3  A    between atoms: C5_5  and  C6_6 
ROOT
HETATM    1  C1  UNL     1     -32.902   7.081   2.106  1.00 20.00     0.139 C 
HETATM    2  O7  UNL     1     -32.811   5.952   1.639  1.00 20.00    -0.297 OA
ENDROOT
BRANCH   1   3
HETATM    3  C4  UNL     1     -34.098   7.460   2.913  1.00 20.00     0.056 A 
HETATM    4  C2  UNL     1     -34.683   6.448   3.842  1.00 20.00     0.013 A 
HETATM    5  C3  UNL     1     -33.938   7.630   4.387  1.00 20.00     0.013 A 
ENDBRANCH   1   3
BRANCH   1   6
HETATM    6  C5  UNL     1     -31.868   8.171   1.931  1.00 20.00     0.196 C 
BRANCH   6   7
HETATM    7  C6  UNL     1     -32.081   8.981   0.674  1.00 20.00     0.394 C 
HETATM    8  F8  UNL     1     -32.376  10.267   0.958  1.00 20.00    -0.171 F 
HETATM    9  F9  UNL     1     -33.081   8.474  -0.077  1.00 20.00    -0.171 F 
HETATM   10  F10 UNL     1     -30.961   8.976  -0.083  1.00 20.00    -0.171 F 
ENDBRANCH   6   7
ENDBRANCH   1   6
TORSDOF 3
ENDMDL
MODEL 2
REMARK VINA RESULT:      -2.7      2.973      4.261
REMARK  3 active torsions:
REMARK  status: ('A' for Active; 'I' for Inactive)
REMARK    1  A    between atoms: C1_1  and  C4_4 
REMARK    2  A    between atoms: C1_1  and  C5_5 
REMARK    3  A    between atoms: C5_5  and  C6_6 
ROOT
HETATM    1  C1  UNL     1     -33.142   6.286   2.140  1.00 20.00     0.139 C 
HETATM    2  O7  UNL     1     -33.091   5.759   1.035  1.00 20.00    -0.297 OA
ENDROOT
BRANCH   1   3
HETATM    3  C4  UNL     1     -32.588   7.657   2.338  1.00 20.00     0.056 A 
HETATM    4  C2  UNL     1     -31.254   7.980   1.751  1.00 20.00     0.013 A 
HETATM    5  C3  UNL     1     -32.501   8.568   1.159  1.00 20.00     0.013 A 
ENDBRANCH   1   3
BRANCH   1   6
HETATM    6  C5  UNL     1     -33.741   5.647   3.373  1.00 20.00     0.196 C 
BRANCH   6   7
HETATM    7  C6  UNL     1     -34.940   6.401   3.897  1.00 20.00     0.394 C 
HETATM    8  F8  UNL     1     -35.737   6.824   2.894  1.00 20.00    -0.171 F 
HETATM    9  F9  UNL     1     -34.569   7.477   4.623  1.00 20.00    -0.171 F 
HETATM   10  F10 UNL     1     -35.682   5.605   4.700  1.00 20.00    -0.171 F 
ENDBRANCH   6   7
ENDBRANCH   1   6
TORSDOF 3
ENDMDL
MODEL 3
REMARK VINA RESULT:      -2.7      2.960      4.150
REMARK  3 active torsions:
REMARK  status: ('A' for Active; 'I' for Inactive)
REMARK    1  A    between atoms: C1_1  and  C4_4 
REMARK    2  A    between atoms: C1_1  and  C5_5 
REMARK    3  A    between atoms: C5_5  and  C6_6 
ROOT
HETATM    1  C1  UNL     1     -33.140   6.288   2.137  1.00 20.00     0.139 C 
HETATM    2  O7  UNL     1     -33.082   5.761   1.033  1.00 20.00    -0.297 OA
ENDROOT
BRANCH   1   3
HETATM    3  C4  UNL     1     -32.592   7.661   2.337  1.00 20.00     0.056 A 
HETATM    4  C2  UNL     1     -31.250   7.984   1.768  1.00 20.00     0.013 A 
HETATM    5  C3  UNL     1     -32.489   8.567   1.155  1.00 20.00     0.013 A 
ENDBRANCH   1   3
BRANCH   1   6
HETATM    6  C5  UNL     1     -33.742   5.647   3.367  1.00 20.00     0.196 C 
BRANCH   6   7
HETATM    7  C6  UNL     1     -34.932   6.410   3.899  1.00 20.00     0.394 C 
HETATM    8  F8  UNL     1     -34.552   7.518   4.568  1.00 20.00    -0.171 F 
HETATM    9  F9  UNL     1     -35.675   5.649   4.731  1.00 20.00    -0.171 F 
HETATM   10  F10 UNL     1     -35.733   6.800   2.882  1.00 20.00    -0.171 F 
ENDBRANCH   6   7
ENDBRANCH   1   6
TORSDOF 3
ENDMDL
MODEL 4
REMARK VINA RESULT:      -2.7      1.787      2.230
REMARK  3 active torsions:
REMARK  status: ('A' for Active; 'I' for Inactive)
REMARK    1  A    between atoms: C1_1  and  C4_4 
REMARK    2  A    between atoms: C1_1  and  C5_5 
REMARK    3  A    between atoms: C5_5  and  C6_6 
ROOT
HETATM    1  C1  UNL     1     -32.088   8.077   1.792  1.00 20.00     0.139 C 
HETATM    2  O7  UNL     1     -31.872   8.337   2.969  1.00 20.00    -0.297 OA
ENDROOT
BRANCH   1   3
HETATM    3  C4  UNL     1     -32.941   6.908   1.429  1.00 20.00     0.056 A 
HETATM    4  C2  UNL     1     -32.316   5.552   1.395  1.00 20.00     0.013 A 
HETATM    5  C3  UNL     1     -33.273   5.913   2.491  1.00 20.00     0.013 A 
ENDBRANCH   1   3
BRANCH   1   6
HETATM    6  C5  UNL     1     -31.546   8.868   0.622  1.00 20.00     0.196 C 
BRANCH   6   7
HETATM    7  C6  UNL     1     -32.479   9.972   0.181  1.00 20.00     0.394 C 
HETATM    8  F8  UNL     1     -31.807  11.108  -0.096  1.00 20.00    -0.171 F 
HETATM    9  F9  UNL     1     -33.402  10.246   1.128  1.00 20.00    -0.171 F 
HETATM   10  F10 UNL     1     -33.143   9.606  -0.939  1.00 20.00    -0.171 F 
ENDBRANCH   6   7
ENDBRANCH   1   6
TORSDOF 3
ENDMDL
MODEL 5
REMARK VINA RESULT:      -2.6      2.985      4.185
REMARK  3 active torsions:
REMARK  status: ('A' for Active; 'I' for Inactive)
REMARK    1  A    between atoms: C1_1  and  C4_4 
REMARK    2  A    between atoms: C1_1  and  C5_5 
REMARK    3  A    between atoms: C5_5  and  C6_6 
ROOT
HETATM    1  C1  UNL     1     -33.177   6.305   2.141  1.00 20.00     0.139 C 
HETATM    2  O7  UNL     1     -32.991   5.700   1.093  1.00 20.00    -0.297 OA
ENDROOT
BRANCH   1   3
HETATM    3  C4  UNL     1     -32.880   7.765   2.222  1.00 20.00     0.056 A 
HETATM    4  C2  UNL     1     -31.462   8.196   2.404  1.00 20.00     0.013 A 
HETATM    5  C3  UNL     1     -32.151   8.408   1.089  1.00 20.00     0.013 A 
ENDBRANCH   1   3
BRANCH   1   6
HETATM    6  C5  UNL     1     -33.704   5.682   3.414  1.00 20.00     0.196 C 
BRANCH   6   7
HETATM    7  C6  UNL     1     -34.957   6.358   3.920  1.00 20.00     0.394 C 
HETATM    8  F8  UNL     1     -35.672   5.542   4.721  1.00 20.00    -0.171 F 
HETATM    9  F9  UNL     1     -35.751   6.752   2.902  1.00 20.00    -0.171 F 
HETATM   10  F10 UNL     1     -34.639   7.460   4.637  1.00 20.00    -0.171 F 
ENDBRANCH   6   7
ENDBRANCH   1   6
TORSDOF 3
ENDMDL
MODEL 6
REMARK VINA RESULT:      -2.4      1.205      1.872
REMARK  3 active torsions:
REMARK  status: ('A' for Active; 'I' for Inactive)
REMARK    1  A    between atoms: C1_1  and  C4_4 
REMARK    2  A    between atoms: C1_1  and  C5_5 
REMARK    3  A    between atoms: C5_5  and  C6_6 
ROOT
HETATM    1  C1  UNL     1     -33.211   6.232   2.207  1.00 20.00     0.139 C 
HETATM    2  O7  UNL     1     -32.720   5.242   1.679  1.00 20.00    -0.297 OA
ENDROOT
BRANCH   1   3
HETATM    3  C4  UNL     1     -33.792   6.136   3.578  1.00 20.00     0.056 A 
HETATM    4  C2  UNL     1     -34.308   7.379   4.223  1.00 20.00     0.013 A 
HETATM    5  C3  UNL     1     -35.263   6.327   3.744  1.00 20.00     0.013 A 
ENDBRANCH   1   3
BRANCH   1   6
HETATM    6  C5  UNL     1     -33.285   7.602   1.569  1.00 20.00     0.196 C 
BRANCH   6   7
HETATM    7  C6  UNL     1     -31.965   8.335   1.607  1.00 20.00     0.394 C 
HETATM    8  F8  UNL     1     -31.020   7.691   0.891  1.00 20.00    -0.171 F 
HETATM    9  F9  UNL     1     -31.513   8.476   2.871  1.00 20.00    -0.171 F 
HETATM   10  F10 UNL     1     -32.100   9.574   1.083  1.00 20.00    -0.171 F 
ENDBRANCH   6   7
ENDBRANCH   1   6
TORSDOF 3
ENDMDL
MODEL 7
REMARK VINA RESULT:      -2.4      1.233      1.716
REMARK  3 active torsions:
REMARK  status: ('A' for Active; 'I' for Inactive)
REMARK    1  A    between atoms: C1_1  and  C4_4 
REMARK    2  A    between atoms: C1_1  and  C5_5 
REMARK    3  A    between atoms: C5_5  and  C6_6 
ROOT
HETATM    1  C1  UNL     1     -33.230   6.200   2.251  1.00 20.00     0.139 C 
HETATM    2  O7  UNL     1     -32.736   5.199   1.747  1.00 20.00    -0.297 OA
ENDROOT
BRANCH   1   3
HETATM    3  C4  UNL     1     -33.824   6.132   3.619  1.00 20.00     0.056 A 
HETATM    4  C2  UNL     1     -34.353   7.386   4.231  1.00 20.00     0.013 A 
HETATM    5  C3  UNL     1     -35.297   6.318   3.766  1.00 20.00     0.013 A 
ENDBRANCH   1   3
BRANCH   1   6
HETATM    6  C5  UNL     1     -33.296   7.557   1.586  1.00 20.00     0.196 C 
BRANCH   6   7
HETATM    7  C6  UNL     1     -31.981   8.298   1.640  1.00 20.00     0.394 C 
HETATM    8  F8  UNL     1     -32.076   9.518   1.072  1.00 20.00    -0.171 F 
HETATM    9  F9  UNL     1     -31.003   7.614   1.009  1.00 20.00    -0.171 F 
HETATM   10  F10 UNL     1     -31.591   8.472   2.923  1.00 20.00    -0.171 F 
ENDBRANCH   6   7
ENDBRANCH   1   6
TORSDOF 3
ENDMDL
MODEL 8
REMARK VINA RESULT:      -2.2      1.710      2.082
REMARK  3 active torsions:
REMARK  status: ('A' for Active; 'I' for Inactive)
REMARK    1  A    between atoms: C1_1  and  C4_4 
REMARK    2  A    between atoms: C1_1  and  C5_5 
REMARK    3  A    between atoms: C5_5  and  C6_6 
ROOT
HETATM    1  C1  UNL     1     -33.660   6.793   3.151  1.00 20.00     0.139 C 
HETATM    2  O7  UNL     1     -33.714   7.686   3.989  1.00 20.00    -0.297 OA
ENDROOT
BRANCH   1   3
HETATM    3  C4  UNL     1     -34.576   5.619   3.252  1.00 20.00     0.056 A 
HETATM    4  C2  UNL     1     -34.219   4.515   4.192  1.00 20.00     0.013 A 
HETATM    5  C3  UNL     1     -35.361   5.434   4.508  1.00 20.00     0.013 A 
ENDBRANCH   1   3
BRANCH   1   6
HETATM    6  C5  UNL     1     -32.711   6.772   1.974  1.00 20.00     0.196 C 
BRANCH   6   7
HETATM    7  C6  UNL     1     -31.973   8.078   1.796  1.00 20.00     0.394 C 
HETATM    8  F8  UNL     1     -31.349   8.453   2.932  1.00 20.00    -0.171 F 
HETATM    9  F9  UNL     1     -32.807   9.071   1.424  1.00 20.00    -0.171 F 
HETATM   10  F10 UNL     1     -31.030   7.957   0.834  1.00 20.00    -0.171 F 
ENDBRANCH   6   7
ENDBRANCH   1   6
TORSDOF 3
ENDMDL
MODEL 9
REMARK VINA RESULT:      -2.2      2.769      3.815
REMARK  3 active torsions:
REMARK  status: ('A' for Active; 'I' for Inactive)
REMARK    1  A    between atoms: C1_1  and  C4_4 
REMARK    2  A    between atoms: C1_1  and  C5_5 
REMARK    3  A    between atoms: C5_5  and  C6_6 
ROOT
HETATM    1  C1  UNL     1     -32.175   8.099   1.778  1.00 20.00     0.139 C 
HETATM    2  O7  UNL     1     -32.915   8.347   2.722  1.00 20.00    -0.297 OA
ENDROOT
BRANCH   1   3
HETATM    3  C4  UNL     1     -31.790   9.182   0.827  1.00 20.00     0.056 A 
HETATM    4  C2  UNL     1     -32.602   9.365  -0.413  1.00 20.00     0.013 A 
HETATM    5  C3  UNL     1     -32.686  10.369   0.698  1.00 20.00     0.013 A 
ENDBRANCH   1   3
BRANCH   1   6
HETATM    6  C5  UNL     1     -31.592   6.737   1.476  1.00 20.00     0.196 C 
BRANCH   6   7
HETATM    7  C6  UNL     1     -32.651   5.677   1.282  1.00 20.00     0.394 C 
HETATM    8  F8  UNL     1     -33.700   6.149   0.577  1.00 20.00    -0.171 F 
HETATM    9  F9  UNL     1     -33.110   5.215   2.464  1.00 20.00    -0.171 F 
HETATM   10  F10 UNL     1     -32.143   4.624   0.603  1.00 20.00    -0.171 F 
ENDBRANCH   6   7
ENDBRANCH   1   6
TORSDOF 3
ENDMDL
