MODEL 1
REMARK VINA RESULT:      -1.7      0.000      0.000
REMARK  1 active torsions:
REMARK  status: ('A' for Active; 'I' for Inactive)
REMARK    1  A    between atoms: C6_6  and  C7_7 
ROOT
HETATM    1  C1  UNL     1     -34.324   5.166   3.741  1.00 20.00     0.002 C 
HETATM    2  C2  UNL     1     -33.172   5.657   2.859  1.00 20.00     0.006 C 
HETATM    3  C5  UNL     1     -35.224   6.380   3.983  1.00 20.00     0.020 C 
HETATM    4  C7  UNL     1     -33.489   7.122   2.545  1.00 20.00     0.008 C 
HETATM    5  C8  UNL     1     -34.324   7.589   3.744  1.00 20.00     0.086 C 
HETATM    6 CL9  UNL     1     -33.347   7.917   5.207  1.00 20.00    -0.125 Cl
ENDROOT
BRANCH   4   7
HETATM    7  C6  UNL     1     -32.281   7.947   2.228  1.00 20.00    -0.009 A 
HETATM    8  C3  UNL     1     -31.486   7.678   0.981  1.00 20.00     0.005 A 
HETATM    9  C4  UNL     1     -32.312   8.929   1.091  1.00 20.00     0.005 A 
ENDBRANCH   4   7
TORSDOF 1
ENDMDL
MODEL 2
REMARK VINA RESULT:      -0.7      1.166      1.696
REMARK  1 active torsions:
REMARK  status: ('A' for Active; 'I' for Inactive)
REMARK    1  A    between atoms: C6_6  and  C7_7 
ROOT
HETATM    1  C1  UNL     1     -32.877   5.588   2.476  1.00 20.00     0.002 C 
HETATM    2  C2  UNL     1     -32.150   6.493   1.478  1.00 20.00     0.006 C 
HETATM    3  C5  UNL     1     -33.978   6.444   3.105  1.00 20.00     0.020 C 
HETATM    4  C7  UNL     1     -32.911   7.822   1.497  1.00 20.00     0.008 C 
HETATM    5  C8  UNL     1     -33.518   7.885   2.904  1.00 20.00     0.086 C 
HETATM    6 CL9  UNL     1     -32.335   8.326   4.171  1.00 20.00    -0.125 Cl
ENDROOT
BRANCH   4   7
HETATM    7  C6  UNL     1     -32.081   9.000   1.090  1.00 20.00    -0.009 A 
HETATM    8  C3  UNL     1     -32.210   9.577  -0.292  1.00 20.00     0.005 A 
HETATM    9  C4  UNL     1     -32.720  10.346   0.894  1.00 20.00     0.005 A 
ENDBRANCH   4   7
TORSDOF 1
ENDMDL
MODEL 3
REMARK VINA RESULT:      -0.7      0.958      1.269
REMARK  1 active torsions:
REMARK  status: ('A' for Active; 'I' for Inactive)
REMARK    1  A    between atoms: C6_6  and  C7_7 
ROOT
HETATM    1  C1  UNL     1     -34.188   4.487   4.297  1.00 20.00     0.002 C 
HETATM    2  C2  UNL     1     -33.354   4.986   3.113  1.00 20.00     0.006 C 
HETATM    3  C5  UNL     1     -35.360   5.461   4.434  1.00 20.00     0.020 C 
HETATM    4  C7  UNL     1     -34.121   6.185   2.546  1.00 20.00     0.008 C 
HETATM    5  C8  UNL     1     -34.889   6.742   3.751  1.00 20.00     0.086 C 
HETATM    6 CL9  UNL     1     -33.865   7.686   4.874  1.00 20.00    -0.125 Cl
ENDROOT
BRANCH   4   7
HETATM    7  C6  UNL     1     -33.256   7.163   1.814  1.00 20.00    -0.009 A 
HETATM    8  C3  UNL     1     -32.086   7.807   2.505  1.00 20.00     0.005 A 
HETATM    9  C4  UNL     1     -31.853   6.789   1.423  1.00 20.00     0.005 A 
ENDBRANCH   4   7
TORSDOF 1
ENDMDL
MODEL 4
REMARK VINA RESULT:      -0.5      1.768      3.630
REMARK  1 active torsions:
REMARK  status: ('A' for Active; 'I' for Inactive)
REMARK    1  A    between atoms: C6_6  and  C7_7 
ROOT
HETATM    1  C1  UNL     1     -31.943   5.782   0.807  1.00 20.00     0.002 C 
HETATM    2  C2  UNL     1     -33.189   5.796   1.697  1.00 20.00     0.006 C 
HETATM    3  C5  UNL     1     -31.040   6.906   1.318  1.00 20.00     0.020 C 
HETATM    4  C7  UNL     1     -32.927   6.873   2.754  1.00 20.00     0.008 C 
HETATM    5  C8  UNL     1     -31.977   7.856   2.059  1.00 20.00     0.086 C 
HETATM    6 CL9  UNL     1     -32.797   8.933   0.889  1.00 20.00    -0.125 Cl
ENDROOT
BRANCH   4   7
HETATM    7  C6  UNL     1     -34.174   7.467   3.332  1.00 20.00    -0.009 A 
HETATM    8  C3  UNL     1     -35.149   6.602   4.081  1.00 20.00     0.005 A 
HETATM    9  C4  UNL     1     -34.322   7.617   4.820  1.00 20.00     0.005 A 
ENDBRANCH   4   7
TORSDOF 1
ENDMDL
MODEL 5
REMARK VINA RESULT:      -0.5      1.629      3.821
REMARK  1 active torsions:
REMARK  status: ('A' for Active; 'I' for Inactive)
REMARK    1  A    between atoms: C6_6  and  C7_7 
ROOT
HETATM    1  C1  UNL     1     -32.801   7.281   1.648  1.00 20.00     0.002 C 
HETATM    2  C2  UNL     1     -32.921   5.759   1.770  1.00 20.00     0.006 C 
HETATM    3  C5  UNL     1     -33.036   7.842   3.052  1.00 20.00     0.020 C 
HETATM    4  C7  UNL     1     -33.136   5.482   3.261  1.00 20.00     0.008 C 
HETATM    5  C8  UNL     1     -33.815   6.753   3.784  1.00 20.00     0.086 C 
HETATM    6 CL9  UNL     1     -35.550   6.859   3.360  1.00 20.00    -0.125 Cl
ENDROOT
BRANCH   4   7
HETATM    7  C6  UNL     1     -33.851   4.196   3.539  1.00 20.00    -0.009 A 
HETATM    8  C3  UNL     1     -33.190   3.124   4.360  1.00 20.00     0.005 A 
HETATM    9  C4  UNL     1     -34.353   3.893   4.923  1.00 20.00     0.005 A 
ENDBRANCH   4   7
TORSDOF 1
ENDMDL
MODEL 6
REMARK VINA RESULT:      -0.5      1.771      3.863
REMARK  1 active torsions:
REMARK  status: ('A' for Active; 'I' for Inactive)
REMARK    1  A    between atoms: C6_6  and  C7_7 
ROOT
HETATM    1  C1  UNL     1     -31.743   8.354   3.114  1.00 20.00     0.002 C 
HETATM    2  C2  UNL     1     -32.912   7.649   3.808  1.00 20.00     0.006 C 
HETATM    3  C5  UNL     1     -31.958   8.161   1.612  1.00 20.00     0.020 C 
HETATM    4  C7  UNL     1     -33.816   7.144   2.680  1.00 20.00     0.008 C 
HETATM    5  C8  UNL     1     -32.860   6.935   1.499  1.00 20.00     0.086 C 
HETATM    6 CL9  UNL     1     -31.877   5.445   1.634  1.00 20.00    -0.125 Cl
ENDROOT
BRANCH   4   7
HETATM    7  C6  UNL     1     -34.654   5.964   3.061  1.00 20.00    -0.009 A 
HETATM    8  C3  UNL     1     -34.217   5.051   4.172  1.00 20.00     0.005 A 
HETATM    9  C4  UNL     1     -35.403   5.955   4.364  1.00 20.00     0.005 A 
ENDBRANCH   4   7
TORSDOF 1
ENDMDL
MODEL 7
REMARK VINA RESULT:      -0.4      1.765      2.295
REMARK  1 active torsions:
REMARK  status: ('A' for Active; 'I' for Inactive)
REMARK    1  A    between atoms: C6_6  and  C7_7 
ROOT
HETATM    1  C1  UNL     1     -35.273   5.510   4.053  1.00 20.00     0.002 C 
HETATM    2  C2  UNL     1     -34.866   6.959   3.768  1.00 20.00     0.006 C 
HETATM    3  C5  UNL     1     -34.023   4.661   3.811  1.00 20.00     0.020 C 
HETATM    4  C7  UNL     1     -33.368   6.912   3.454  1.00 20.00     0.008 C 
HETATM    5  C8  UNL     1     -33.148   5.504   2.887  1.00 20.00     0.086 C 
HETATM    6 CL9  UNL     1     -33.702   5.323   1.195  1.00 20.00    -0.125 Cl
ENDROOT
BRANCH   4   7
HETATM    7  C6  UNL     1     -32.895   8.044   2.595  1.00 20.00    -0.009 A 
HETATM    8  C3  UNL     1     -31.505   8.592   2.761  1.00 20.00     0.005 A 
HETATM    9  C4  UNL     1     -31.862   7.805   1.530  1.00 20.00     0.005 A 
ENDBRANCH   4   7
TORSDOF 1
ENDMDL
MODEL 8
REMARK VINA RESULT:      -0.3      1.745      3.938
REMARK  1 active torsions:
REMARK  status: ('A' for Active; 'I' for Inactive)
REMARK    1  A    between atoms: C6_6  and  C7_7 
ROOT
HETATM    1  C1  UNL     1     -31.519   8.519   1.764  1.00 20.00     0.002 C 
HETATM    2  C2  UNL     1     -32.221   8.253   3.099  1.00 20.00     0.006 C 
HETATM    3  C5  UNL     1     -32.304   7.742   0.706  1.00 20.00     0.020 C 
HETATM    4  C7  UNL     1     -33.446   7.399   2.756  1.00 20.00     0.008 C 
HETATM    5  C8  UNL     1     -33.036   6.650   1.482  1.00 20.00     0.086 C 
HETATM    6 CL9  UNL     1     -31.928   5.278   1.788  1.00 20.00    -0.125 Cl
ENDROOT
BRANCH   4   7
HETATM    7  C6  UNL     1     -33.924   6.547   3.890  1.00 20.00    -0.009 A 
HETATM    8  C3  UNL     1     -35.387   6.236   4.041  1.00 20.00     0.005 A 
HETATM    9  C4  UNL     1     -34.427   5.154   3.631  1.00 20.00     0.005 A 
ENDBRANCH   4   7
TORSDOF 1
ENDMDL
MODEL 9
REMARK VINA RESULT:      -0.0      1.950      2.525
REMARK  1 active torsions:
REMARK  status: ('A' for Active; 'I' for Inactive)
REMARK    1  A    between atoms: C6_6  and  C7_7 
ROOT
HETATM    1  C1  UNL     1     -34.275   6.606   3.445  1.00 20.00     0.002 C 
HETATM    2  C2  UNL     1     -33.596   7.853   2.873  1.00 20.00     0.006 C 
HETATM    3  C5  UNL     1     -33.407   5.417   3.025  1.00 20.00     0.020 C 
HETATM    4  C7  UNL     1     -32.307   7.355   2.213  1.00 20.00     0.008 C 
HETATM    5  C8  UNL     1     -32.627   5.910   1.810  1.00 20.00     0.086 C 
HETATM    6 CL9  UNL     1     -33.648   5.790   0.345  1.00 20.00    -0.125 Cl
ENDROOT
BRANCH   4   7
HETATM    7  C6  UNL     1     -31.806   8.244   1.118  1.00 20.00    -0.009 A 
HETATM    8  C3  UNL     1     -32.758   8.795   0.094  1.00 20.00     0.005 A 
HETATM    9  C4  UNL     1     -32.144   9.708   1.118  1.00 20.00     0.005 A 
ENDBRANCH   4   7
TORSDOF 1
ENDMDL
