MODEL 1
REMARK VINA RESULT:      -1.4      0.000      0.000
REMARK  2 active torsions:
REMARK  status: ('A' for Active; 'I' for Inactive)
REMARK    1  A    between atoms: C2_2  and  C10_10 
REMARK    2  A    between atoms: C7_7  and  C10_10 
ROOT
HETATM    1  C1  UNL     1     -33.838   3.398   4.640  1.00 20.00    -0.111 C 
HETATM    2  C2  UNL     1     -34.365   4.461   4.454  1.00 20.00    -0.107 C 
HETATM    3  C9  UNL     1     -33.196   2.104   4.867  1.00 20.00     0.112 C 
ENDROOT
BRANCH   2   4
HETATM    4  C10 UNL     1     -35.000   5.760   4.218  1.00 20.00     0.098 C 
BRANCH   4   5
HETATM    5  C7  UNL     1     -34.267   6.538   3.128  1.00 20.00    -0.002 C 
HETATM    6  C4  UNL     1     -33.475   7.704   3.734  1.00 20.00     0.005 C 
HETATM    7  C3  UNL     1     -32.690   8.468   2.671  1.00 20.00     0.002 C 
HETATM    8  C5  UNL     1     -31.779   7.542   1.870  1.00 20.00     0.020 C 
HETATM    9  C8  UNL     1     -32.568   6.384   1.260  1.00 20.00     0.082 C 
HETATM   10  C6  UNL     1     -33.345   5.609   2.324  1.00 20.00     0.025 C 
HETATM   11 CL11 UNL     1     -31.459   5.282   0.395  1.00 20.00    -0.125 Cl
ENDBRANCH   4   5
ENDBRANCH   2   4
TORSDOF 2
ENDMDL
MODEL 2
REMARK VINA RESULT:      -1.1      2.091      4.970
REMARK  2 active torsions:
REMARK  status: ('A' for Active; 'I' for Inactive)
REMARK    1  A    between atoms: C2_2  and  C10_10 
REMARK    2  A    between atoms: C7_7  and  C10_10 
ROOT
HETATM    1  C1  UNL     1     -32.393   9.192   0.759  1.00 20.00    -0.111 C 
HETATM    2  C2  UNL     1     -32.330   8.023   1.024  1.00 20.00    -0.107 C 
HETATM    3  C9  UNL     1     -32.471  10.617   0.438  1.00 20.00     0.112 C 
ENDROOT
BRANCH   2   4
HETATM    4  C10 UNL     1     -32.253   6.593   1.335  1.00 20.00     0.098 C 
BRANCH   4   5
HETATM    5  C7  UNL     1     -32.918   6.288   2.675  1.00 20.00    -0.002 C 
HETATM    6  C4  UNL     1     -34.370   6.790   2.686  1.00 20.00     0.005 C 
HETATM    7  C3  UNL     1     -35.075   6.451   3.996  1.00 20.00     0.002 C 
HETATM    8  C5  UNL     1     -35.008   4.957   4.302  1.00 20.00     0.020 C 
HETATM    9  C8  UNL     1     -33.564   4.458   4.298  1.00 20.00     0.082 C 
HETATM   10  C6  UNL     1     -32.858   4.784   2.981  1.00 20.00     0.025 C 
HETATM   11 CL11 UNL     1     -33.530   2.694   4.583  1.00 20.00    -0.125 Cl
ENDBRANCH   4   5
ENDBRANCH   2   4
TORSDOF 2
ENDMDL
MODEL 3
REMARK VINA RESULT:      -0.3      1.895      2.440
REMARK  2 active torsions:
REMARK  status: ('A' for Active; 'I' for Inactive)
REMARK    1  A    between atoms: C2_2  and  C10_10 
REMARK    2  A    between atoms: C7_7  and  C10_10 
ROOT
HETATM    1  C1  UNL     1     -33.774   3.823   4.321  1.00 20.00    -0.111 C 
HETATM    2  C2  UNL     1     -34.050   4.940   3.978  1.00 20.00    -0.107 C 
HETATM    3  C9  UNL     1     -33.440   2.462   4.740  1.00 20.00     0.112 C 
ENDROOT
BRANCH   2   4
HETATM    4  C10 UNL     1     -34.375   6.305   3.556  1.00 20.00     0.098 C 
BRANCH   4   5
HETATM    5  C7  UNL     1     -33.174   6.971   2.888  1.00 20.00    -0.002 C 
HETATM    6  C4  UNL     1     -32.617   6.084   1.765  1.00 20.00     0.005 C 
HETATM    7  C3  UNL     1     -31.447   6.751   1.046  1.00 20.00     0.002 C 
HETATM    8  C5  UNL     1     -31.825   8.133   0.519  1.00 20.00     0.020 C 
HETATM    9  C8  UNL     1     -32.372   9.019   1.637  1.00 20.00     0.082 C 
HETATM   10  C6  UNL     1     -33.553   8.360   2.351  1.00 20.00     0.025 C 
HETATM   11 CL11 UNL     1     -32.873  10.599   0.969  1.00 20.00    -0.125 Cl
ENDBRANCH   4   5
ENDBRANCH   2   4
TORSDOF 2
ENDMDL
MODEL 4
REMARK VINA RESULT:       0.3      2.607      5.487
REMARK  2 active torsions:
REMARK  status: ('A' for Active; 'I' for Inactive)
REMARK    1  A    between atoms: C2_2  and  C10_10 
REMARK    2  A    between atoms: C7_7  and  C10_10 
ROOT
HETATM    1  C1  UNL     1     -32.478   9.908   0.098  1.00 20.00    -0.111 C 
HETATM    2  C2  UNL     1     -32.122   9.088   0.899  1.00 20.00    -0.107 C 
HETATM    3  C9  UNL     1     -32.912  10.909  -0.876  1.00 20.00     0.112 C 
ENDROOT
BRANCH   2   4
HETATM    4  C10 UNL     1     -31.696   8.079   1.873  1.00 20.00     0.098 C 
BRANCH   4   5
HETATM    5  C7  UNL     1     -32.720   6.952   1.977  1.00 20.00    -0.002 C 
HETATM    6  C4  UNL     1     -32.025   5.583   1.944  1.00 20.00     0.005 C 
HETATM    7  C3  UNL     1     -33.024   4.438   2.098  1.00 20.00     0.002 C 
HETATM    8  C5  UNL     1     -33.869   4.596   3.360  1.00 20.00     0.020 C 
HETATM    9  C8  UNL     1     -34.567   5.955   3.390  1.00 20.00     0.082 C 
HETATM   10  C6  UNL     1     -33.568   7.104   3.249  1.00 20.00     0.025 C 
HETATM   11 CL11 UNL     1     -35.484   6.132   4.913  1.00 20.00    -0.125 Cl
ENDBRANCH   4   5
ENDBRANCH   2   4
TORSDOF 2
ENDMDL
MODEL 5
REMARK VINA RESULT:       0.7      1.609      2.502
REMARK  2 active torsions:
REMARK  status: ('A' for Active; 'I' for Inactive)
REMARK    1  A    between atoms: C2_2  and  C10_10 
REMARK    2  A    between atoms: C7_7  and  C10_10 
ROOT
HETATM    1  C1  UNL     1     -32.538   3.231   6.086  1.00 20.00    -0.111 C 
HETATM    2  C2  UNL     1     -33.022   3.199   4.987  1.00 20.00    -0.107 C 
HETATM    3  C9  UNL     1     -31.950   3.269   7.424  1.00 20.00     0.112 C 
ENDROOT
BRANCH   2   4
HETATM    4  C10 UNL     1     -33.603   3.167   3.643  1.00 20.00     0.098 C 
BRANCH   4   5
HETATM    5  C7  UNL     1     -34.076   4.556   3.219  1.00 20.00    -0.002 C 
HETATM    6  C4  UNL     1     -34.819   5.251   4.369  1.00 20.00     0.005 C 
HETATM    7  C3  UNL     1     -35.258   6.662   3.988  1.00 20.00     0.002 C 
HETATM    8  C5  UNL     1     -34.080   7.506   3.505  1.00 20.00     0.020 C 
HETATM    9  C8  UNL     1     -33.345   6.819   2.355  1.00 20.00     0.082 C 
HETATM   10  C6  UNL     1     -32.892   5.409   2.738  1.00 20.00     0.025 C 
HETATM   11 CL11 UNL     1     -31.931   7.798   1.868  1.00 20.00    -0.125 Cl
ENDBRANCH   4   5
ENDBRANCH   2   4
TORSDOF 2
ENDMDL
MODEL 6
REMARK VINA RESULT:       0.9      2.584      5.466
REMARK  2 active torsions:
REMARK  status: ('A' for Active; 'I' for Inactive)
REMARK    1  A    between atoms: C2_2  and  C10_10 
REMARK    2  A    between atoms: C7_7  and  C10_10 
ROOT
HETATM    1  C1  UNL     1     -32.156   9.642   0.207  1.00 20.00    -0.111 C 
HETATM    2  C2  UNL     1     -32.002   8.509   0.573  1.00 20.00    -0.107 C 
HETATM    3  C9  UNL     1     -32.342  11.022  -0.240  1.00 20.00     0.112 C 
ENDROOT
BRANCH   2   4
HETATM    4  C10 UNL     1     -31.821   7.128   1.028  1.00 20.00     0.098 C 
BRANCH   4   5
HETATM    5  C7  UNL     1     -33.011   6.670   1.869  1.00 20.00    -0.002 C 
HETATM    6  C4  UNL     1     -32.875   5.185   2.236  1.00 20.00     0.005 C 
HETATM    7  C3  UNL     1     -34.026   4.713   3.121  1.00 20.00     0.002 C 
HETATM    8  C5  UNL     1     -34.166   5.579   4.371  1.00 20.00     0.020 C 
HETATM    9  C8  UNL     1     -34.309   7.056   4.006  1.00 20.00     0.082 C 
HETATM   10  C6  UNL     1     -33.150   7.535   3.131  1.00 20.00     0.025 C 
HETATM   11 CL11 UNL     1     -34.394   8.043   5.493  1.00 20.00    -0.125 Cl
ENDBRANCH   4   5
ENDBRANCH   2   4
TORSDOF 2
ENDMDL
MODEL 7
REMARK VINA RESULT:       0.9      1.823      4.877
REMARK  2 active torsions:
REMARK  status: ('A' for Active; 'I' for Inactive)
REMARK    1  A    between atoms: C2_2  and  C10_10 
REMARK    2  A    between atoms: C7_7  and  C10_10 
ROOT
HETATM    1  C1  UNL     1     -32.517   9.939   0.293  1.00 20.00    -0.111 C 
HETATM    2  C2  UNL     1     -32.191   9.565   1.387  1.00 20.00    -0.107 C 
HETATM    3  C9  UNL     1     -32.912  10.397  -1.038  1.00 20.00     0.112 C 
ENDROOT
BRANCH   2   4
HETATM    4  C10 UNL     1     -31.801   9.098   2.719  1.00 20.00     0.098 C 
BRANCH   4   5
HETATM    5  C7  UNL     1     -32.264   7.663   2.954  1.00 20.00    -0.002 C 
HETATM    6  C4  UNL     1     -33.696   7.639   3.507  1.00 20.00     0.005 C 
HETATM    7  C3  UNL     1     -34.203   6.212   3.702  1.00 20.00     0.002 C 
HETATM    8  C5  UNL     1     -34.097   5.396   2.416  1.00 20.00     0.020 C 
HETATM    9  C8  UNL     1     -32.670   5.413   1.869  1.00 20.00     0.082 C 
HETATM   10  C6  UNL     1     -32.164   6.841   1.660  1.00 20.00     0.025 C 
HETATM   11 CL11 UNL     1     -32.601   4.514   0.327  1.00 20.00    -0.125 Cl
ENDBRANCH   4   5
ENDBRANCH   2   4
TORSDOF 2
ENDMDL
MODEL 8
REMARK VINA RESULT:       1.2      2.201      4.105
REMARK  2 active torsions:
REMARK  status: ('A' for Active; 'I' for Inactive)
REMARK    1  A    between atoms: C2_2  and  C10_10 
REMARK    2  A    between atoms: C7_7  and  C10_10 
ROOT
HETATM    1  C1  UNL     1     -31.485   4.701   0.368  1.00 20.00    -0.111 C 
HETATM    2  C2  UNL     1     -32.017   5.617   0.934  1.00 20.00    -0.107 C 
HETATM    3  C9  UNL     1     -30.838   3.585  -0.320  1.00 20.00     0.112 C 
ENDROOT
BRANCH   2   4
HETATM    4  C10 UNL     1     -32.661   6.742   1.616  1.00 20.00     0.098 C 
BRANCH   4   5
HETATM    5  C7  UNL     1     -33.247   6.307   2.956  1.00 20.00    -0.002 C 
HETATM    6  C4  UNL     1     -34.725   6.712   3.059  1.00 20.00     0.005 C 
HETATM    7  C3  UNL     1     -35.350   6.242   4.370  1.00 20.00     0.002 C 
HETATM    8  C5  UNL     1     -35.177   4.738   4.570  1.00 20.00     0.020 C 
HETATM    9  C8  UNL     1     -33.706   4.335   4.475  1.00 20.00     0.082 C 
HETATM   10  C6  UNL     1     -33.080   4.793   3.157  1.00 20.00     0.025 C 
HETATM   11 CL11 UNL     1     -33.550   2.563   4.637  1.00 20.00    -0.125 Cl
ENDBRANCH   4   5
ENDBRANCH   2   4
TORSDOF 2
ENDMDL
MODEL 9
REMARK VINA RESULT:       1.5      2.500      3.863
REMARK  2 active torsions:
REMARK  status: ('A' for Active; 'I' for Inactive)
REMARK    1  A    between atoms: C2_2  and  C10_10 
REMARK    2  A    between atoms: C7_7  and  C10_10 
ROOT
HETATM    1  C1  UNL     1     -33.792   3.877  -0.307  1.00 20.00    -0.111 C 
HETATM    2  C2  UNL     1     -32.867   4.520   0.111  1.00 20.00    -0.107 C 
HETATM    3  C9  UNL     1     -34.918   3.094  -0.813  1.00 20.00     0.112 C 
ENDROOT
BRANCH   2   4
HETATM    4  C10 UNL     1     -31.735   5.304   0.608  1.00 20.00     0.098 C 
BRANCH   4   5
HETATM    5  C7  UNL     1     -32.099   6.034   1.899  1.00 20.00    -0.002 C 
HETATM    6  C4  UNL     1     -31.987   7.554   1.712  1.00 20.00     0.005 C 
HETATM    7  C3  UNL     1     -32.396   8.311   2.973  1.00 20.00     0.002 C 
HETATM    8  C5  UNL     1     -33.797   7.916   3.436  1.00 20.00     0.020 C 
HETATM    9  C8  UNL     1     -33.907   6.404   3.630  1.00 20.00     0.082 C 
HETATM   10  C6  UNL     1     -33.510   5.644   2.364  1.00 20.00     0.025 C 
HETATM   11 CL11 UNL     1     -35.577   5.973   4.097  1.00 20.00    -0.125 Cl
ENDBRANCH   4   5
ENDBRANCH   2   4
TORSDOF 2
ENDMDL
