MODEL 1
REMARK VINA RESULT:      -2.9      0.000      0.000
REMARK  6 active torsions:
REMARK  status: ('A' for Active; 'I' for Inactive)
REMARK    1  A    between atoms: C2_2  and  C7_7 
REMARK    2  A    between atoms: C5_5  and  C10_10 
REMARK    3  A    between atoms: C7_7  and  C8_8 
REMARK    4  A    between atoms: C8_8  and  C9_9 
REMARK    5  A    between atoms: C9_9  and  C10_10 
REMARK    6  A    between atoms: C10_10  and  O11_11 
ROOT
HETATM    1  C1  UNL     1     -33.902   3.931   4.363  1.00 20.00    -0.111 C 
HETATM    2  C2  UNL     1     -34.444   4.985   4.163  1.00 20.00    -0.107 C 
HETATM    3  C6  UNL     1     -33.243   2.649   4.608  1.00 20.00     0.112 C 
ENDROOT
BRANCH   2   4
HETATM    4  C7  UNL     1     -35.107   6.273   3.920  1.00 20.00     0.094 C 
BRANCH   4   5
HETATM    5  C8  UNL     1     -34.086   7.368   3.609  1.00 20.00     0.014 C 
BRANCH   5   6
HETATM    6  C9  UNL     1     -33.287   7.039   2.346  1.00 20.00     0.033 C 
BRANCH   6   7
HETATM    7  C10 UNL     1     -32.308   8.147   1.940  1.00 20.00     0.122 C 
BRANCH   7   8
HETATM    8  C5  UNL     1     -32.765   8.928   0.744  1.00 20.00     0.014 A 
HETATM    9  C3  UNL     1     -32.788  10.431   0.783  1.00 20.00     0.007 A 
HETATM   10  C4  UNL     1     -31.776   9.717  -0.068  1.00 20.00     0.007 A 
ENDBRANCH   7   8
BRANCH   7  11
HETATM   11  O11 UNL     1     -31.061   7.521   1.635  1.00 20.00    -0.395 OA
HETATM   12  H27 UNL     1     -30.633   7.339   2.484  1.00 20.00     0.210 HD
ENDBRANCH   7  11
ENDBRANCH   6   7
ENDBRANCH   5   6
ENDBRANCH   4   5
ENDBRANCH   2   4
TORSDOF 6
ENDMDL
MODEL 2
REMARK VINA RESULT:      -2.8      1.569      2.355
REMARK  6 active torsions:
REMARK  status: ('A' for Active; 'I' for Inactive)
REMARK    1  A    between atoms: C2_2  and  C7_7 
REMARK    2  A    between atoms: C5_5  and  C10_10 
REMARK    3  A    between atoms: C7_7  and  C8_8 
REMARK    4  A    between atoms: C8_8  and  C9_9 
REMARK    5  A    between atoms: C9_9  and  C10_10 
REMARK    6  A    between atoms: C10_10  and  O11_11 
ROOT
HETATM    1  C1  UNL     1     -33.948   3.992   4.383  1.00 20.00    -0.111 C 
HETATM    2  C2  UNL     1     -34.514   5.020   4.126  1.00 20.00    -0.107 C 
HETATM    3  C6  UNL     1     -33.259   2.741   4.696  1.00 20.00     0.112 C 
ENDROOT
BRANCH   2   4
HETATM    4  C7  UNL     1     -35.206   6.278   3.813  1.00 20.00     0.094 C 
BRANCH   4   5
HETATM    5  C8  UNL     1     -34.319   7.486   4.119  1.00 20.00     0.014 C 
BRANCH   5   6
HETATM    6  C9  UNL     1     -32.943   7.343   3.465  1.00 20.00     0.033 C 
BRANCH   6   7
HETATM    7  C10 UNL     1     -32.947   7.657   1.965  1.00 20.00     0.122 C 
BRANCH   7   8
HETATM    8  C5  UNL     1     -32.257   6.610   1.141  1.00 20.00     0.014 A 
HETATM    9  C3  UNL     1     -31.874   5.293   1.756  1.00 20.00     0.007 A 
HETATM   10  C4  UNL     1     -32.986   5.356   0.748  1.00 20.00     0.007 A 
ENDBRANCH   7   8
BRANCH   7  11
HETATM   11  O11 UNL     1     -32.270   8.903   1.790  1.00 20.00    -0.395 OA
HETATM   12  H27 UNL     1     -32.945   9.545   1.523  1.00 20.00     0.210 HD
ENDBRANCH   7  11
ENDBRANCH   6   7
ENDBRANCH   5   6
ENDBRANCH   4   5
ENDBRANCH   2   4
TORSDOF 6
ENDMDL
MODEL 3
REMARK VINA RESULT:      -2.5      2.027      6.006
REMARK  6 active torsions:
REMARK  status: ('A' for Active; 'I' for Inactive)
REMARK    1  A    between atoms: C2_2  and  C7_7 
REMARK    2  A    between atoms: C5_5  and  C10_10 
REMARK    3  A    between atoms: C7_7  and  C8_8 
REMARK    4  A    between atoms: C8_8  and  C9_9 
REMARK    5  A    between atoms: C9_9  and  C10_10 
REMARK    6  A    between atoms: C10_10  and  O11_11 
ROOT
HETATM    1  C1  UNL     1     -32.403   9.324   0.720  1.00 20.00    -0.111 C 
HETATM    2  C2  UNL     1     -32.376   8.333   1.399  1.00 20.00    -0.107 C 
HETATM    3  C6  UNL     1     -32.437  10.529  -0.107  1.00 20.00     0.112 C 
ENDROOT
BRANCH   2   4
HETATM    4  C7  UNL     1     -32.342   7.120   2.228  1.00 20.00     0.094 C 
BRANCH   4   5
HETATM    5  C8  UNL     1     -33.328   7.222   3.393  1.00 20.00     0.014 C 
BRANCH   5   6
HETATM    6  C9  UNL     1     -34.442   6.180   3.270  1.00 20.00     0.033 C 
BRANCH   6   7
HETATM    7  C10 UNL     1     -34.396   5.108   4.365  1.00 20.00     0.122 C 
BRANCH   7   8
HETATM    8  C5  UNL     1     -33.763   3.826   3.910  1.00 20.00     0.014 A 
HETATM    9  C3  UNL     1     -32.302   3.573   4.156  1.00 20.00     0.007 A 
HETATM   10  C4  UNL     1     -33.337   2.794   4.917  1.00 20.00     0.007 A 
ENDBRANCH   7   8
BRANCH   7  11
HETATM   11  O11 UNL     1     -35.744   4.845   4.759  1.00 20.00    -0.395 OA
HETATM   12  H27 UNL     1     -36.271   4.858   3.947  1.00 20.00     0.210 HD
ENDBRANCH   7  11
ENDBRANCH   6   7
ENDBRANCH   5   6
ENDBRANCH   4   5
ENDBRANCH   2   4
TORSDOF 6
ENDMDL
MODEL 4
REMARK VINA RESULT:      -2.3      2.213      5.070
REMARK  6 active torsions:
REMARK  status: ('A' for Active; 'I' for Inactive)
REMARK    1  A    between atoms: C2_2  and  C7_7 
REMARK    2  A    between atoms: C5_5  and  C10_10 
REMARK    3  A    between atoms: C7_7  and  C8_8 
REMARK    4  A    between atoms: C8_8  and  C9_9 
REMARK    5  A    between atoms: C9_9  and  C10_10 
REMARK    6  A    between atoms: C10_10  and  O11_11 
ROOT
HETATM    1  C1  UNL     1     -32.236   8.965   0.769  1.00 20.00    -0.111 C 
HETATM    2  C2  UNL     1     -32.034   7.850   1.167  1.00 20.00    -0.107 C 
HETATM    3  C6  UNL     1     -32.482  10.323   0.285  1.00 20.00     0.112 C 
ENDROOT
BRANCH   2   4
HETATM    4  C7  UNL     1     -31.788   6.486   1.655  1.00 20.00     0.094 C 
BRANCH   4   5
HETATM    5  C8  UNL     1     -33.088   5.683   1.724  1.00 20.00     0.014 C 
BRANCH   5   6
HETATM    6  C9  UNL     1     -33.438   5.317   3.168  1.00 20.00     0.033 C 
BRANCH   6   7
HETATM    7  C10 UNL     1     -34.791   5.872   3.626  1.00 20.00     0.122 C 
BRANCH   7   8
HETATM    8  C5  UNL     1     -34.670   7.132   4.431  1.00 20.00     0.014 A 
HETATM    9  C3  UNL     1     -33.334   7.800   4.598  1.00 20.00     0.007 A 
HETATM   10  C4  UNL     1     -34.394   8.443   3.750  1.00 20.00     0.007 A 
ENDBRANCH   7   8
BRANCH   7  11
HETATM   11  O11 UNL     1     -35.413   4.867   4.429  1.00 20.00    -0.395 OA
HETATM   12  H27 UNL     1     -35.082   4.017   4.105  1.00 20.00     0.210 HD
ENDBRANCH   7  11
ENDBRANCH   6   7
ENDBRANCH   5   6
ENDBRANCH   4   5
ENDBRANCH   2   4
TORSDOF 6
ENDMDL
MODEL 5
REMARK VINA RESULT:      -2.2      2.022      5.388
REMARK  6 active torsions:
REMARK  status: ('A' for Active; 'I' for Inactive)
REMARK    1  A    between atoms: C2_2  and  C7_7 
REMARK    2  A    between atoms: C5_5  and  C10_10 
REMARK    3  A    between atoms: C7_7  and  C8_8 
REMARK    4  A    between atoms: C8_8  and  C9_9 
REMARK    5  A    between atoms: C9_9  and  C10_10 
REMARK    6  A    between atoms: C10_10  and  O11_11 
ROOT
HETATM    1  C1  UNL     1     -32.382   9.366   0.570  1.00 20.00    -0.111 C 
HETATM    2  C2  UNL     1     -32.039   8.330   1.073  1.00 20.00    -0.107 C 
HETATM    3  C6  UNL     1     -32.800  10.626  -0.042  1.00 20.00     0.112 C 
ENDROOT
BRANCH   2   4
HETATM    4  C7  UNL     1     -31.617   7.063   1.687  1.00 20.00     0.094 C 
BRANCH   4   5
HETATM    5  C8  UNL     1     -32.735   6.022   1.623  1.00 20.00     0.014 C 
BRANCH   5   6
HETATM    6  C9  UNL     1     -32.710   5.105   2.848  1.00 20.00     0.033 C 
BRANCH   6   7
HETATM    7  C10 UNL     1     -34.106   4.769   3.386  1.00 20.00     0.122 C 
BRANCH   7   8
HETATM    8  C5  UNL     1     -34.699   5.870   4.214  1.00 20.00     0.014 A 
HETATM    9  C3  UNL     1     -34.282   7.297   3.989  1.00 20.00     0.007 A 
HETATM   10  C4  UNL     1     -35.661   6.847   3.597  1.00 20.00     0.007 A 
ENDBRANCH   7   8
BRANCH   7  11
HETATM   11  O11 UNL     1     -33.979   3.598   4.195  1.00 20.00    -0.395 OA
HETATM   12  H27 UNL     1     -34.482   2.903   3.747  1.00 20.00     0.210 HD
ENDBRANCH   7  11
ENDBRANCH   6   7
ENDBRANCH   5   6
ENDBRANCH   4   5
ENDBRANCH   2   4
TORSDOF 6
ENDMDL
MODEL 6
REMARK VINA RESULT:      -2.0      2.541      5.193
REMARK  6 active torsions:
REMARK  status: ('A' for Active; 'I' for Inactive)
REMARK    1  A    between atoms: C2_2  and  C7_7 
REMARK    2  A    between atoms: C5_5  and  C10_10 
REMARK    3  A    between atoms: C7_7  and  C8_8 
REMARK    4  A    between atoms: C8_8  and  C9_9 
REMARK    5  A    between atoms: C9_9  and  C10_10 
REMARK    6  A    between atoms: C10_10  and  O11_11 
ROOT
HETATM    1  C1  UNL     1     -32.120   5.707   1.217  1.00 20.00    -0.111 C 
HETATM    2  C2  UNL     1     -32.425   6.664   1.874  1.00 20.00    -0.107 C 
HETATM    3  C6  UNL     1     -31.748   4.540   0.417  1.00 20.00     0.112 C 
ENDROOT
BRANCH   2   4
HETATM    4  C7  UNL     1     -32.797   7.836   2.679  1.00 20.00     0.094 C 
BRANCH   4   5
HETATM    5  C8  UNL     1     -33.778   7.452   3.789  1.00 20.00     0.014 C 
BRANCH   5   6
HETATM    6  C9  UNL     1     -34.581   6.205   3.413  1.00 20.00     0.033 C 
BRANCH   6   7
HETATM    7  C10 UNL     1     -34.490   5.085   4.456  1.00 20.00     0.122 C 
BRANCH   7   8
HETATM    8  C5  UNL     1     -33.819   3.849   3.937  1.00 20.00     0.014 A 
HETATM    9  C3  UNL     1     -32.355   3.616   4.192  1.00 20.00     0.007 A 
HETATM   10  C4  UNL     1     -33.383   2.768   4.887  1.00 20.00     0.007 A 
ENDBRANCH   7   8
BRANCH   7  11
HETATM   11  O11 UNL     1     -35.826   4.758   4.845  1.00 20.00    -0.395 OA
HETATM   12  H27 UNL     1     -35.763   3.954   5.381  1.00 20.00     0.210 HD
ENDBRANCH   7  11
ENDBRANCH   6   7
ENDBRANCH   5   6
ENDBRANCH   4   5
ENDBRANCH   2   4
TORSDOF 6
ENDMDL
MODEL 7
REMARK VINA RESULT:      -1.2      2.100      4.784
REMARK  6 active torsions:
REMARK  status: ('A' for Active; 'I' for Inactive)
REMARK    1  A    between atoms: C2_2  and  C7_7 
REMARK    2  A    between atoms: C5_5  and  C10_10 
REMARK    3  A    between atoms: C7_7  and  C8_8 
REMARK    4  A    between atoms: C8_8  and  C9_9 
REMARK    5  A    between atoms: C9_9  and  C10_10 
REMARK    6  A    between atoms: C10_10  and  O11_11 
ROOT
HETATM    1  C1  UNL     1     -32.430   9.195   1.132  1.00 20.00    -0.111 C 
HETATM    2  C2  UNL     1     -32.450   8.656   2.205  1.00 20.00    -0.107 C 
HETATM    3  C6  UNL     1     -32.404   9.850  -0.175  1.00 20.00     0.112 C 
ENDROOT
BRANCH   2   4
HETATM    4  C7  UNL     1     -32.473   7.998   3.519  1.00 20.00     0.094 C 
BRANCH   4   5
HETATM    5  C8  UNL     1     -33.908   7.725   3.973  1.00 20.00     0.014 C 
BRANCH   5   6
HETATM    6  C9  UNL     1     -34.459   6.448   3.335  1.00 20.00     0.033 C 
BRANCH   6   7
HETATM    7  C10 UNL     1     -33.464   5.282   3.351  1.00 20.00     0.122 C 
BRANCH   7   8
HETATM    8  C5  UNL     1     -33.147   4.759   1.981  1.00 20.00     0.014 A 
HETATM    9  C3  UNL     1     -33.249   5.660   0.783  1.00 20.00     0.007 A 
HETATM   10  C4  UNL     1     -31.901   5.207   1.269  1.00 20.00     0.007 A 
ENDBRANCH   7   8
BRANCH   7  11
HETATM   11  O11 UNL     1     -34.051   4.233   4.123  1.00 20.00    -0.395 OA
HETATM   12  H27 UNL     1     -33.325   3.645   4.379  1.00 20.00     0.210 HD
ENDBRANCH   7  11
ENDBRANCH   6   7
ENDBRANCH   5   6
ENDBRANCH   4   5
ENDBRANCH   2   4
TORSDOF 6
ENDMDL
MODEL 8
REMARK VINA RESULT:      -1.0      1.542      5.528
REMARK  6 active torsions:
REMARK  status: ('A' for Active; 'I' for Inactive)
REMARK    1  A    between atoms: C2_2  and  C7_7 
REMARK    2  A    between atoms: C5_5  and  C10_10 
REMARK    3  A    between atoms: C7_7  and  C8_8 
REMARK    4  A    between atoms: C8_8  and  C9_9 
REMARK    5  A    between atoms: C9_9  and  C10_10 
REMARK    6  A    between atoms: C10_10  and  O11_11 
ROOT
HETATM    1  C1  UNL     1     -32.365   8.219   2.085  1.00 20.00    -0.111 C 
HETATM    2  C2  UNL     1     -33.045   7.949   3.037  1.00 20.00    -0.107 C 
HETATM    3  C6  UNL     1     -31.536   8.548   0.926  1.00 20.00     0.112 C 
ENDROOT
BRANCH   2   4
HETATM    4  C7  UNL     1     -33.877   7.620   4.203  1.00 20.00     0.094 C 
BRANCH   4   5
HETATM    5  C8  UNL     1     -35.024   6.685   3.815  1.00 20.00     0.014 C 
BRANCH   5   6
HETATM    6  C9  UNL     1     -34.855   5.305   4.452  1.00 20.00     0.033 C 
BRANCH   6   7
HETATM    7  C10 UNL     1     -34.133   4.301   3.546  1.00 20.00     0.122 C 
BRANCH   7   8
HETATM    8  C5  UNL     1     -32.997   3.599   4.231  1.00 20.00     0.014 A 
HETATM    9  C3  UNL     1     -33.133   3.152   5.660  1.00 20.00     0.007 A 
HETATM   10  C4  UNL     1     -33.098   2.134   4.555  1.00 20.00     0.007 A 
ENDBRANCH   7   8
BRANCH   7  11
HETATM   11  O11 UNL     1     -33.620   5.029   2.429  1.00 20.00    -0.395 OA
HETATM   12  H27 UNL     1     -34.027   4.639   1.641  1.00 20.00     0.210 HD
ENDBRANCH   7  11
ENDBRANCH   6   7
ENDBRANCH   5   6
ENDBRANCH   4   5
ENDBRANCH   2   4
TORSDOF 6
ENDMDL
MODEL 9
REMARK VINA RESULT:      -0.9      1.584      2.444
REMARK  6 active torsions:
REMARK  status: ('A' for Active; 'I' for Inactive)
REMARK    1  A    between atoms: C2_2  and  C7_7 
REMARK    2  A    between atoms: C5_5  and  C10_10 
REMARK    3  A    between atoms: C7_7  and  C8_8 
REMARK    4  A    between atoms: C8_8  and  C9_9 
REMARK    5  A    between atoms: C9_9  and  C10_10 
REMARK    6  A    between atoms: C10_10  and  O11_11 
ROOT
HETATM    1  C1  UNL     1     -34.473   5.745   3.561  1.00 20.00    -0.111 C 
HETATM    2  C2  UNL     1     -33.565   5.349   2.882  1.00 20.00    -0.107 C 
HETATM    3  C6  UNL     1     -35.577   6.229   4.388  1.00 20.00     0.112 C 
ENDROOT
BRANCH   2   4
HETATM    4  C7  UNL     1     -32.454   4.865   2.050  1.00 20.00     0.094 C 
BRANCH   4   5
HETATM    5  C8  UNL     1     -32.238   5.772   0.837  1.00 20.00     0.014 C 
BRANCH   5   6
HETATM    6  C9  UNL     1     -31.414   7.006   1.207  1.00 20.00     0.033 C 
BRANCH   6   7
HETATM    7  C10 UNL     1     -32.270   8.234   1.537  1.00 20.00     0.122 C 
BRANCH   7   8
HETATM    8  C5  UNL     1     -31.899   9.445   0.734  1.00 20.00     0.014 A 
HETATM    9  C3  UNL     1     -32.624   9.760  -0.545  1.00 20.00     0.007 A 
HETATM   10  C4  UNL     1     -32.830  10.624   0.667  1.00 20.00     0.007 A 
ENDBRANCH   7   8
BRANCH   7  11
HETATM   11  O11 UNL     1     -32.084   8.523   2.924  1.00 20.00    -0.395 OA
HETATM   12  H27 UNL     1     -32.885   8.981   3.217  1.00 20.00     0.210 HD
ENDBRANCH   7  11
ENDBRANCH   6   7
ENDBRANCH   5   6
ENDBRANCH   4   5
ENDBRANCH   2   4
TORSDOF 6
ENDMDL
