MODEL 1
REMARK VINA RESULT:      -1.0      0.000      0.000
REMARK  1 active torsions:
REMARK  status: ('A' for Active; 'I' for Inactive)
REMARK    1  A    between atoms: C4_4  and  C9_9 
ROOT
HETATM    1  C1  UNL     1     -32.855   5.944   1.794  1.00 20.00     0.006 C 
HETATM    2  C2  UNL     1     -31.773   6.676   0.996  1.00 20.00     0.016 C 
HETATM    3  C3  UNL     1     -32.601   8.087   2.808  1.00 20.00     0.021 C 
HETATM    4  C4  UNL     1     -33.668   7.048   2.465  1.00 20.00    -0.006 C 
HETATM    5  C5  UNL     1     -31.683   8.081   1.592  1.00 20.00     0.058 C 
HETATM    6 BR10 UNL     1     -32.297   9.404   0.288  1.00 20.00    -0.091 Br
ENDROOT
BRANCH   4   7
HETATM    7  C9  UNL     1     -34.443   6.565   3.680  1.00 20.00    -0.048 C 
HETATM    8  C6  UNL     1     -34.053   5.111   4.011  1.00 20.00     0.015 C 
HETATM    9  C7  UNL     1     -35.956   6.623   3.398  1.00 20.00     0.015 C 
HETATM   10  C8  UNL     1     -34.126   7.455   4.896  1.00 20.00     0.015 C 
ENDBRANCH   4   7
TORSDOF 1
ENDMDL
MODEL 2
REMARK VINA RESULT:       1.7      1.764      2.538
REMARK  1 active torsions:
REMARK  status: ('A' for Active; 'I' for Inactive)
REMARK    1  A    between atoms: C4_4  and  C9_9 
ROOT
HETATM    1  C1  UNL     1     -32.645   7.604   2.601  1.00 20.00     0.006 C 
HETATM    2  C2  UNL     1     -31.836   7.245   1.353  1.00 20.00     0.016 C 
HETATM    3  C3  UNL     1     -33.712   5.708   1.627  1.00 20.00     0.021 C 
HETATM    4  C4  UNL     1     -33.372   6.319   2.986  1.00 20.00    -0.006 C 
HETATM    5  C5  UNL     1     -32.469   5.974   0.787  1.00 20.00     0.058 C 
HETATM    6 BR10 UNL     1     -31.223   4.473   0.949  1.00 20.00    -0.091 Br
ENDROOT
BRANCH   4   7
HETATM    7  C9  UNL     1     -34.595   6.561   3.854  1.00 20.00    -0.048 C 
HETATM    8  C6  UNL     1     -35.769   7.058   2.987  1.00 20.00     0.015 C 
HETATM    9  C7  UNL     1     -34.281   7.624   4.924  1.00 20.00     0.015 C 
HETATM   10  C8  UNL     1     -35.013   5.255   4.555  1.00 20.00     0.015 C 
ENDBRANCH   4   7
TORSDOF 1
ENDMDL
