MODEL 1
REMARK VINA RESULT:      -0.6      0.000      0.000
REMARK  2 active torsions:
REMARK  status: ('A' for Active; 'I' for Inactive)
REMARK    1  A    between atoms: C8_8  and  C10_10 
REMARK    2  A    between atoms: C9_9  and  O11_11 
ROOT
HETATM    1  C1  UNL     1     -32.741  10.960   0.360  1.00 20.00     0.012 C 
HETATM    2  C2  UNL     1     -32.366   9.820   0.350  1.00 20.00    -0.117 C 
HETATM    3  C10 UNL     1     -31.908   8.431   0.321  1.00 20.00     0.097 C 
ENDROOT
BRANCH   3   4
HETATM    4  C8  UNL     1     -31.784   7.870   1.740  1.00 20.00    -0.001 C 
HETATM    5  C5  UNL     1     -31.389   6.386   1.731  1.00 20.00     0.005 C 
HETATM    6  C3  UNL     1     -32.430   5.407   1.199  1.00 20.00     0.000 C 
HETATM    7  C4  UNL     1     -33.851   5.572   1.729  1.00 20.00     0.002 C 
HETATM    8  C6  UNL     1     -33.965   5.891   3.220  1.00 20.00     0.032 C 
HETATM    9  C9  UNL     1     -33.369   7.232   3.687  1.00 20.00     0.118 C 
HETATM   10  C7  UNL     1     -33.037   8.220   2.567  1.00 20.00     0.037 C 
BRANCH   9  11
HETATM   11  O11 UNL     1     -34.323   7.838   4.564  1.00 20.00    -0.396 OA
HETATM   12  H27 UNL     1     -34.948   7.139   4.805  1.00 20.00     0.210 HD
ENDBRANCH   9  11
ENDBRANCH   3   4
TORSDOF 2
ENDMDL
MODEL 2
REMARK VINA RESULT:       0.3      1.811      3.711
REMARK  2 active torsions:
REMARK  status: ('A' for Active; 'I' for Inactive)
REMARK    1  A    between atoms: C8_8  and  C10_10 
REMARK    2  A    between atoms: C9_9  and  O11_11 
ROOT
HETATM    1  C1  UNL     1     -31.168   3.674  -0.450  1.00 20.00     0.012 C 
HETATM    2  C2  UNL     1     -31.336   4.371   0.512  1.00 20.00    -0.117 C 
HETATM    3  C10 UNL     1     -31.525   5.218   1.690  1.00 20.00     0.097 C 
ENDROOT
BRANCH   3   4
HETATM    4  C8  UNL     1     -32.936   5.810   1.712  1.00 20.00    -0.001 C 
HETATM    5  C5  UNL     1     -32.921   7.325   1.461  1.00 20.00     0.005 C 
HETATM    6  C3  UNL     1     -32.303   8.191   2.554  1.00 20.00     0.000 C 
HETATM    7  C4  UNL     1     -32.746   7.897   3.983  1.00 20.00     0.002 C 
HETATM    8  C6  UNL     1     -34.233   7.591   4.163  1.00 20.00     0.032 C 
HETATM    9  C9  UNL     1     -34.765   6.321   3.475  1.00 20.00     0.118 C 
HETATM   10  C7  UNL     1     -33.690   5.353   2.978  1.00 20.00     0.037 C 
BRANCH   9  11
HETATM   11  O11 UNL     1     -35.593   5.640   4.421  1.00 20.00    -0.396 OA
HETATM   12  H27 UNL     1     -36.384   5.363   3.936  1.00 20.00     0.210 HD
ENDBRANCH   9  11
ENDBRANCH   3   4
TORSDOF 2
ENDMDL
MODEL 3
REMARK VINA RESULT:       0.7      1.772      2.768
REMARK  2 active torsions:
REMARK  status: ('A' for Active; 'I' for Inactive)
REMARK    1  A    between atoms: C8_8  and  C10_10 
REMARK    2  A    between atoms: C9_9  and  O11_11 
ROOT
HETATM    1  C1  UNL     1     -32.177   9.473   0.472  1.00 20.00     0.012 C 
HETATM    2  C2  UNL     1     -31.979   8.475   1.110  1.00 20.00    -0.117 C 
HETATM    3  C10 UNL     1     -31.722   7.266   1.892  1.00 20.00     0.097 C 
ENDROOT
BRANCH   3   4
HETATM    4  C8  UNL     1     -32.930   6.328   1.855  1.00 20.00    -0.001 C 
HETATM    5  C5  UNL     1     -34.254   7.107   1.882  1.00 20.00     0.005 C 
HETATM    6  C3  UNL     1     -34.587   7.840   3.177  1.00 20.00     0.000 C 
HETATM    7  C4  UNL     1     -34.412   7.048   4.469  1.00 20.00     0.002 C 
HETATM    8  C6  UNL     1     -34.868   5.590   4.416  1.00 20.00     0.032 C 
HETATM    9  C9  UNL     1     -34.105   4.662   3.453  1.00 20.00     0.118 C 
HETATM   10  C7  UNL     1     -32.785   5.223   2.920  1.00 20.00     0.037 C 
BRANCH   9  11
HETATM   11  O11 UNL     1     -33.835   3.447   4.159  1.00 20.00    -0.396 OA
HETATM   12  H27 UNL     1     -32.906   3.238   3.987  1.00 20.00     0.210 HD
ENDBRANCH   9  11
ENDBRANCH   3   4
TORSDOF 2
ENDMDL
MODEL 4
REMARK VINA RESULT:       1.4      1.892      4.184
REMARK  2 active torsions:
REMARK  status: ('A' for Active; 'I' for Inactive)
REMARK    1  A    between atoms: C8_8  and  C10_10 
REMARK    2  A    between atoms: C9_9  and  O11_11 
ROOT
HETATM    1  C1  UNL     1     -35.377   5.259   4.454  1.00 20.00     0.012 C 
HETATM    2  C2  UNL     1     -34.711   6.223   4.192  1.00 20.00    -0.117 C 
HETATM    3  C10 UNL     1     -33.897   7.400   3.890  1.00 20.00     0.097 C 
ENDROOT
BRANCH   3   4
HETATM    4  C8  UNL     1     -33.930   7.714   2.392  1.00 20.00    -0.001 C 
HETATM    5  C5  UNL     1     -33.397   6.542   1.555  1.00 20.00     0.005 C 
HETATM    6  C3  UNL     1     -31.908   6.237   1.681  1.00 20.00     0.000 C 
HETATM    7  C4  UNL     1     -30.961   7.428   1.586  1.00 20.00     0.002 C 
HETATM    8  C6  UNL     1     -31.319   8.474   0.530  1.00 20.00     0.032 C 
HETATM    9  C9  UNL     1     -32.646   9.229   0.729  1.00 20.00     0.118 C 
HETATM   10  C7  UNL     1     -33.276   9.082   2.115  1.00 20.00     0.037 C 
BRANCH   9  11
HETATM   11  O11 UNL     1     -32.387  10.615   0.488  1.00 20.00    -0.396 OA
HETATM   12  H27 UNL     1     -33.071  11.103   0.967  1.00 20.00     0.210 HD
ENDBRANCH   9  11
ENDBRANCH   3   4
TORSDOF 2
ENDMDL
MODEL 5
REMARK VINA RESULT:       1.7      1.990      4.285
REMARK  2 active torsions:
REMARK  status: ('A' for Active; 'I' for Inactive)
REMARK    1  A    between atoms: C8_8  and  C10_10 
REMARK    2  A    between atoms: C9_9  and  O11_11 
ROOT
HETATM    1  C1  UNL     1     -33.323   3.664   4.200  1.00 20.00     0.012 C 
HETATM    2  C2  UNL     1     -34.182   4.502   4.228  1.00 20.00    -0.117 C 
HETATM    3  C10 UNL     1     -35.238   5.512   4.271  1.00 20.00     0.097 C 
ENDROOT
BRANCH   3   4
HETATM    4  C8  UNL     1     -34.796   6.792   3.559  1.00 20.00    -0.001 C 
HETATM    5  C5  UNL     1     -34.888   6.652   2.031  1.00 20.00     0.005 C 
HETATM    6  C3  UNL     1     -33.907   5.686   1.375  1.00 20.00     0.000 C 
HETATM    7  C4  UNL     1     -32.449   5.802   1.809  1.00 20.00     0.002 C 
HETATM    8  C6  UNL     1     -31.927   7.226   1.996  1.00 20.00     0.032 C 
HETATM    9  C9  UNL     1     -32.582   8.061   3.111  1.00 20.00     0.118 C 
HETATM   10  C7  UNL     1     -33.433   7.266   4.103  1.00 20.00     0.037 C 
BRANCH   9  11
HETATM   11  O11 UNL     1     -31.529   8.712   3.829  1.00 20.00    -0.396 OA
HETATM   12  H27 UNL     1     -31.895   8.937   4.696  1.00 20.00     0.210 HD
ENDBRANCH   9  11
ENDBRANCH   3   4
TORSDOF 2
ENDMDL
MODEL 6
REMARK VINA RESULT:       1.9      1.684      4.423
REMARK  2 active torsions:
REMARK  status: ('A' for Active; 'I' for Inactive)
REMARK    1  A    between atoms: C8_8  and  C10_10 
REMARK    2  A    between atoms: C9_9  and  O11_11 
ROOT
HETATM    1  C1  UNL     1     -33.255   2.794   5.189  1.00 20.00     0.012 C 
HETATM    2  C2  UNL     1     -33.035   3.349   4.148  1.00 20.00    -0.117 C 
HETATM    3  C10 UNL     1     -32.753   4.014   2.876  1.00 20.00     0.097 C 
ENDROOT
BRANCH   3   4
HETATM    4  C8  UNL     1     -33.692   5.204   2.666  1.00 20.00    -0.001 C 
HETATM    5  C5  UNL     1     -33.463   5.874   1.302  1.00 20.00     0.005 C 
HETATM    6  C3  UNL     1     -32.137   6.606   1.117  1.00 20.00     0.000 C 
HETATM    7  C4  UNL     1     -31.717   7.543   2.245  1.00 20.00     0.002 C 
HETATM    8  C6  UNL     1     -32.838   8.381   2.859  1.00 20.00     0.032 C 
HETATM    9  C9  UNL     1     -33.958   7.612   3.583  1.00 20.00     0.118 C 
HETATM   10  C7  UNL     1     -33.647   6.145   3.886  1.00 20.00     0.037 C 
BRANCH   9  11
HETATM   11  O11 UNL     1     -34.210   8.291   4.816  1.00 20.00    -0.396 OA
HETATM   12  H27 UNL     1     -34.763   9.055   4.594  1.00 20.00     0.210 HD
ENDBRANCH   9  11
ENDBRANCH   3   4
TORSDOF 2
ENDMDL
MODEL 7
REMARK VINA RESULT:       2.0      2.075      4.367
REMARK  2 active torsions:
REMARK  status: ('A' for Active; 'I' for Inactive)
REMARK    1  A    between atoms: C8_8  and  C10_10 
REMARK    2  A    between atoms: C9_9  and  O11_11 
ROOT
HETATM    1  C1  UNL     1     -35.738   5.448   4.452  1.00 20.00     0.012 C 
HETATM    2  C2  UNL     1     -35.101   6.423   4.160  1.00 20.00    -0.117 C 
HETATM    3  C10 UNL     1     -34.341   7.621   3.808  1.00 20.00     0.097 C 
ENDROOT
BRANCH   3   4
HETATM    4  C8  UNL     1     -32.904   7.259   3.423  1.00 20.00    -0.001 C 
HETATM    5  C5  UNL     1     -32.028   8.510   3.256  1.00 20.00     0.005 C 
HETATM    6  C3  UNL     1     -32.350   9.413   2.071  1.00 20.00     0.000 C 
HETATM    7  C4  UNL     1     -32.547   8.723   0.725  1.00 20.00     0.002 C 
HETATM    8  C6  UNL     1     -31.580   7.579   0.422  1.00 20.00     0.032 C 
HETATM    9  C9  UNL     1     -31.655   6.348   1.344  1.00 20.00     0.118 C 
HETATM   10  C7  UNL     1     -32.898   6.278   2.233  1.00 20.00     0.037 C 
BRANCH   9  11
HETATM   11  O11 UNL     1     -31.624   5.188   0.508  1.00 20.00    -0.396 OA
HETATM   12  H27 UNL     1     -31.312   5.489  -0.358  1.00 20.00     0.210 HD
ENDBRANCH   9  11
ENDBRANCH   3   4
TORSDOF 2
ENDMDL
MODEL 8
REMARK VINA RESULT:       2.1      2.860      3.870
REMARK  2 active torsions:
REMARK  status: ('A' for Active; 'I' for Inactive)
REMARK    1  A    between atoms: C8_8  and  C10_10 
REMARK    2  A    between atoms: C9_9  and  O11_11 
ROOT
HETATM    1  C1  UNL     1     -31.640   9.064   4.651  1.00 20.00     0.012 C 
HETATM    2  C2  UNL     1     -32.708   8.525   4.746  1.00 20.00    -0.117 C 
HETATM    3  C10 UNL     1     -34.011   7.875   4.880  1.00 20.00     0.097 C 
ENDROOT
BRANCH   3   4
HETATM    4  C8  UNL     1     -34.398   7.163   3.581  1.00 20.00    -0.001 C 
HETATM    5  C5  UNL     1     -35.503   6.121   3.812  1.00 20.00     0.005 C 
HETATM    6  C3  UNL     1     -35.120   4.892   4.629  1.00 20.00     0.000 C 
HETATM    7  C4  UNL     1     -33.815   4.202   4.245  1.00 20.00     0.002 C 
HETATM    8  C6  UNL     1     -33.543   4.092   2.745  1.00 20.00     0.032 C 
HETATM    9  C9  UNL     1     -33.358   5.414   1.978  1.00 20.00     0.118 C 
HETATM   10  C7  UNL     1     -33.139   6.649   2.855  1.00 20.00     0.037 C 
BRANCH   9  11
HETATM   11  O11 UNL     1     -32.223   5.253   1.122  1.00 20.00    -0.396 OA
HETATM   12  H27 UNL     1     -32.283   5.958   0.462  1.00 20.00     0.210 HD
ENDBRANCH   9  11
ENDBRANCH   3   4
TORSDOF 2
ENDMDL
