MODEL 1
REMARK VINA RESULT:      -2.8      0.000      0.000
REMARK  2 active torsions:
REMARK  status: ('A' for Active; 'I' for Inactive)
REMARK    1  A    between atoms: C2_2  and  C9_9 
REMARK    2  A    between atoms: C7_7  and  C9_9 
ROOT
HETATM    1  C1  UNL     1     -33.876   3.784   4.457  1.00 20.00    -0.111 C 
HETATM    2  C2  UNL     1     -34.518   4.781   4.273  1.00 20.00    -0.107 C 
HETATM    3  C8  UNL     1     -33.094   2.568   4.681  1.00 20.00     0.112 C 
ENDROOT
BRANCH   2   4
HETATM    4  C9  UNL     1     -35.300   6.003   4.049  1.00 20.00     0.099 C 
BRANCH   4   5
HETATM    5  C7  UNL     1     -34.450   7.095   3.423  1.00 20.00     0.004 C 
HETATM    6  C5  UNL     1     -33.511   6.570   2.336  1.00 20.00     0.083 C 
HETATM    7  C3  UNL     1     -32.409   7.598   2.360  1.00 20.00     0.127 C 
HETATM    8  C4  UNL     1     -32.494   8.501   3.563  1.00 20.00     0.079 C 
HETATM    9  O10 UNL     1     -31.543   7.690   1.499  1.00 20.00    -0.298 OA
HETATM   10  C6  UNL     1     -33.514   7.768   4.429  1.00 20.00     0.013 C 
ENDBRANCH   4   5
ENDBRANCH   2   4
TORSDOF 2
ENDMDL
MODEL 2
REMARK VINA RESULT:      -2.0      2.417      4.871
REMARK  2 active torsions:
REMARK  status: ('A' for Active; 'I' for Inactive)
REMARK    1  A    between atoms: C2_2  and  C9_9 
REMARK    2  A    between atoms: C7_7  and  C9_9 
ROOT
HETATM    1  C1  UNL     1     -32.364   9.495   0.500  1.00 20.00    -0.111 C 
HETATM    2  C2  UNL     1     -32.155   8.391   0.924  1.00 20.00    -0.107 C 
HETATM    3  C8  UNL     1     -32.619  10.840  -0.016  1.00 20.00     0.112 C 
ENDROOT
BRANCH   2   4
HETATM    4  C9  UNL     1     -31.899   7.041   1.439  1.00 20.00     0.099 C 
BRANCH   4   5
HETATM    5  C7  UNL     1     -32.604   6.814   2.765  1.00 20.00     0.004 C 
HETATM    6  C5  UNL     1     -33.849   5.936   2.636  1.00 20.00     0.083 C 
HETATM    7  C3  UNL     1     -34.666   6.386   3.820  1.00 20.00     0.127 C 
HETATM    8  C4  UNL     1     -34.123   7.645   4.444  1.00 20.00     0.079 C 
HETATM    9  O10 UNL     1     -35.657   5.794   4.230  1.00 20.00    -0.298 OA
HETATM   10  C6  UNL     1     -33.127   8.110   3.388  1.00 20.00     0.013 C 
ENDBRANCH   4   5
ENDBRANCH   2   4
TORSDOF 2
ENDMDL
MODEL 3
REMARK VINA RESULT:      -1.8      2.424      5.072
REMARK  2 active torsions:
REMARK  status: ('A' for Active; 'I' for Inactive)
REMARK    1  A    between atoms: C2_2  and  C9_9 
REMARK    2  A    between atoms: C7_7  and  C9_9 
ROOT
HETATM    1  C1  UNL     1     -32.350   9.443   0.603  1.00 20.00    -0.111 C 
HETATM    2  C2  UNL     1     -32.106   8.394   1.132  1.00 20.00    -0.107 C 
HETATM    3  C8  UNL     1     -32.648  10.722  -0.042  1.00 20.00     0.112 C 
ENDROOT
BRANCH   2   4
HETATM    4  C9  UNL     1     -31.810   7.110   1.779  1.00 20.00     0.099 C 
BRANCH   4   5
HETATM    5  C7  UNL     1     -33.085   6.381   2.167  1.00 20.00     0.004 C 
HETATM    6  C5  UNL     1     -33.914   7.140   3.203  1.00 20.00     0.083 C 
HETATM    7  C3  UNL     1     -34.676   6.022   3.866  1.00 20.00     0.127 C 
HETATM    8  C4  UNL     1     -34.138   4.664   3.495  1.00 20.00     0.079 C 
HETATM    9  O10 UNL     1     -35.626   6.196   4.619  1.00 20.00    -0.298 OA
HETATM   10  C6  UNL     1     -32.816   5.027   2.827  1.00 20.00     0.013 C 
ENDBRANCH   4   5
ENDBRANCH   2   4
TORSDOF 2
ENDMDL
MODEL 4
REMARK VINA RESULT:      -1.4      1.201      1.738
REMARK  2 active torsions:
REMARK  status: ('A' for Active; 'I' for Inactive)
REMARK    1  A    between atoms: C2_2  and  C9_9 
REMARK    2  A    between atoms: C7_7  and  C9_9 
ROOT
HETATM    1  C1  UNL     1     -33.728   3.738   4.335  1.00 20.00    -0.111 C 
HETATM    2  C2  UNL     1     -34.041   4.847   3.998  1.00 20.00    -0.107 C 
HETATM    3  C8  UNL     1     -33.347   2.387   4.744  1.00 20.00     0.112 C 
ENDROOT
BRANCH   2   4
HETATM    4  C9  UNL     1     -34.422   6.204   3.588  1.00 20.00     0.099 C 
BRANCH   4   5
HETATM    5  C7  UNL     1     -33.231   6.967   3.032  1.00 20.00     0.004 C 
HETATM    6  C5  UNL     1     -33.610   8.337   2.468  1.00 20.00     0.083 C 
HETATM    7  C3  UNL     1     -32.512   8.570   1.463  1.00 20.00     0.127 C 
HETATM    8  C4  UNL     1     -31.704   7.326   1.199  1.00 20.00     0.079 C 
HETATM    9  O10 UNL     1     -32.299   9.649   0.924  1.00 20.00    -0.298 OA
HETATM   10  C6  UNL     1     -32.567   6.252   1.854  1.00 20.00     0.013 C 
ENDBRANCH   4   5
ENDBRANCH   2   4
TORSDOF 2
ENDMDL
MODEL 5
REMARK VINA RESULT:      -0.3      2.177      3.461
REMARK  2 active torsions:
REMARK  status: ('A' for Active; 'I' for Inactive)
REMARK    1  A    between atoms: C2_2  and  C9_9 
REMARK    2  A    between atoms: C7_7  and  C9_9 
ROOT
HETATM    1  C1  UNL     1     -34.408   6.921   3.875  1.00 20.00    -0.111 C 
HETATM    2  C2  UNL     1     -33.447   7.640   3.870  1.00 20.00    -0.107 C 
HETATM    3  C8  UNL     1     -35.579   6.045   3.881  1.00 20.00     0.112 C 
ENDROOT
BRANCH   2   4
HETATM    4  C9  UNL     1     -32.271   8.519   3.867  1.00 20.00     0.099 C 
BRANCH   4   5
HETATM    5  C7  UNL     1     -31.813   8.823   2.451  1.00 20.00     0.004 C 
HETATM    6  C5  UNL     1     -32.775   9.746   1.700  1.00 20.00     0.083 C 
HETATM    7  C3  UNL     1     -32.499   9.374   0.266  1.00 20.00     0.127 C 
HETATM    8  C4  UNL     1     -31.675   8.117   0.148  1.00 20.00     0.079 C 
HETATM    9  O10 UNL     1     -32.896  10.021  -0.696  1.00 20.00    -0.298 OA
HETATM   10  C6  UNL     1     -31.736   7.574   1.572  1.00 20.00     0.013 C 
ENDBRANCH   4   5
ENDBRANCH   2   4
TORSDOF 2
ENDMDL
MODEL 6
REMARK VINA RESULT:      -0.0      2.387      3.842
REMARK  2 active torsions:
REMARK  status: ('A' for Active; 'I' for Inactive)
REMARK    1  A    between atoms: C2_2  and  C9_9 
REMARK    2  A    between atoms: C7_7  and  C9_9 
ROOT
HETATM    1  C1  UNL     1     -34.048   6.572   3.129  1.00 20.00    -0.111 C 
HETATM    2  C2  UNL     1     -33.133   6.596   2.353  1.00 20.00    -0.107 C 
HETATM    3  C8  UNL     1     -35.164   6.543   4.075  1.00 20.00     0.112 C 
ENDROOT
BRANCH   2   4
HETATM    4  C9  UNL     1     -32.013   6.626   1.405  1.00 20.00     0.099 C 
BRANCH   4   5
HETATM    5  C7  UNL     1     -31.792   8.025   0.856  1.00 20.00     0.004 C 
HETATM    6  C5  UNL     1     -32.214   9.123   1.834  1.00 20.00     0.083 C 
HETATM    7  C3  UNL     1     -32.520  10.265   0.900  1.00 20.00     0.127 C 
HETATM    8  C4  UNL     1     -32.589   9.825  -0.539  1.00 20.00     0.079 C 
HETATM    9  O10 UNL     1     -32.692  11.420   1.269  1.00 20.00    -0.298 OA
HETATM   10  C6  UNL     1     -32.623   8.307  -0.398  1.00 20.00     0.013 C 
ENDBRANCH   4   5
ENDBRANCH   2   4
TORSDOF 2
ENDMDL
