MODEL 1
REMARK VINA RESULT:      -1.3      0.000      0.000
REMARK  1 active torsions:
REMARK  status: ('A' for Active; 'I' for Inactive)
REMARK    1  A    between atoms: C5_5  and  C8_8 
ROOT
HETATM    1  C1  UNL     1     -31.947   6.755   1.413  1.00 20.00     0.007 C 
HETATM    2  C2  UNL     1     -33.273   6.049   1.718  1.00 20.00     0.041 C 
HETATM    3  C3  UNL     1     -32.809   7.787   3.412  1.00 20.00     0.045 C 
HETATM    4  C4  UNL     1     -34.493   5.858   4.051  1.00 20.00     0.207 A 
HETATM    5  C5  UNL     1     -32.062   8.119   2.109  1.00 20.00    -0.012 C 
HETATM    6  C6  UNL     1     -33.673   6.620   3.042  1.00 20.00     0.083 A 
HETATM    7  O9  UNL     1     -35.081   6.843   3.194  1.00 20.00    -0.375 OA
ENDROOT
BRANCH   5   8
HETATM    8  C8  UNL     1     -32.826   9.132   1.258  1.00 20.00     0.000 C 
HETATM    9  C7  UNL     1     -32.088   9.479   0.003  1.00 20.00     0.005 C 
ENDBRANCH   5   8
TORSDOF 1
ENDMDL
MODEL 2
REMARK VINA RESULT:       0.1      2.085      3.367
REMARK  1 active torsions:
REMARK  status: ('A' for Active; 'I' for Inactive)
REMARK    1  A    between atoms: C5_5  and  C8_8 
ROOT
HETATM    1  C1  UNL     1     -35.486   6.041   3.831  1.00 20.00     0.007 C 
HETATM    2  C2  UNL     1     -35.001   4.959   4.803  1.00 20.00     0.041 C 
HETATM    3  C3  UNL     1     -33.534   5.058   2.816  1.00 20.00     0.045 C 
HETATM    4  C4  UNL     1     -33.533   2.837   4.243  1.00 20.00     0.207 A 
HETATM    5  C5  UNL     1     -34.244   6.410   3.006  1.00 20.00    -0.012 C 
HETATM    6  C6  UNL     1     -33.895   4.288   4.050  1.00 20.00     0.083 A 
HETATM    7  O9  UNL     1     -32.780   3.890   4.859  1.00 20.00    -0.375 OA
ENDROOT
BRANCH   5   8
HETATM    8  C8  UNL     1     -33.357   7.421   3.731  1.00 20.00     0.000 C 
HETATM    9  C7  UNL     1     -32.372   8.066   2.807  1.00 20.00     0.005 C 
ENDBRANCH   5   8
TORSDOF 1
ENDMDL
MODEL 3
REMARK VINA RESULT:       0.1      1.639      3.293
REMARK  1 active torsions:
REMARK  status: ('A' for Active; 'I' for Inactive)
REMARK    1  A    between atoms: C5_5  and  C8_8 
ROOT
HETATM    1  C1  UNL     1     -32.363   8.117   2.891  1.00 20.00     0.007 C 
HETATM    2  C2  UNL     1     -32.420   7.560   1.464  1.00 20.00     0.041 C 
HETATM    3  C3  UNL     1     -32.890   5.776   3.108  1.00 20.00     0.045 C 
HETATM    4  C4  UNL     1     -32.081   5.055   0.702  1.00 20.00     0.207 A 
HETATM    5  C5  UNL     1     -33.217   7.148   3.723  1.00 20.00    -0.012 C 
HETATM    6  C6  UNL     1     -32.592   6.088   1.673  1.00 20.00     0.083 A 
HETATM    7  O9  UNL     1     -33.458   5.449   0.726  1.00 20.00    -0.375 OA
ENDROOT
BRANCH   5   8
HETATM    8  C8  UNL     1     -34.707   7.474   3.627  1.00 20.00     0.000 C 
HETATM    9  C7  UNL     1     -35.562   6.285   3.934  1.00 20.00     0.005 C 
ENDBRANCH   5   8
TORSDOF 1
ENDMDL
MODEL 4
REMARK VINA RESULT:       0.2      1.974      4.014
REMARK  1 active torsions:
REMARK  status: ('A' for Active; 'I' for Inactive)
REMARK    1  A    between atoms: C5_5  and  C8_8 
ROOT
HETATM    1  C1  UNL     1     -32.294   8.314   2.677  1.00 20.00     0.007 C 
HETATM    2  C2  UNL     1     -33.086   9.321   1.835  1.00 20.00     0.041 C 
HETATM    3  C3  UNL     1     -31.247   8.338   0.507  1.00 20.00     0.045 C 
HETATM    4  C4  UNL     1     -32.251  10.645  -0.291  1.00 20.00     0.207 A 
HETATM    5  C5  UNL     1     -31.629   7.384   1.651  1.00 20.00    -0.012 C 
HETATM    6  C6  UNL     1     -32.297   9.406   0.565  1.00 20.00     0.083 A 
HETATM    7  O9  UNL     1     -33.092   9.533  -0.622  1.00 20.00    -0.375 OA
ENDROOT
BRANCH   5   8
HETATM    8  C8  UNL     1     -32.578   6.282   1.180  1.00 20.00     0.000 C 
HETATM    9  C7  UNL     1     -33.328   5.664   2.318  1.00 20.00     0.005 C 
ENDBRANCH   5   8
TORSDOF 1
ENDMDL
MODEL 5
REMARK VINA RESULT:       0.2      1.707      3.872
REMARK  1 active torsions:
REMARK  status: ('A' for Active; 'I' for Inactive)
REMARK    1  A    between atoms: C5_5  and  C8_8 
ROOT
HETATM    1  C1  UNL     1     -33.224   5.161   1.446  1.00 20.00     0.007 C 
HETATM    2  C2  UNL     1     -32.023   6.103   1.315  1.00 20.00     0.041 C 
HETATM    3  C3  UNL     1     -33.828   7.179   2.615  1.00 20.00     0.045 C 
HETATM    4  C4  UNL     1     -32.021   8.738   1.488  1.00 20.00     0.207 A 
HETATM    5  C5  UNL     1     -33.969   5.650   2.698  1.00 20.00    -0.012 C 
HETATM    6  C6  UNL     1     -32.517   7.381   1.917  1.00 20.00     0.083 A 
HETATM    7  O9  UNL     1     -31.536   8.100   2.676  1.00 20.00    -0.375 OA
ENDROOT
BRANCH   5   8
HETATM    8  C8  UNL     1     -33.357   5.090   3.981  1.00 20.00     0.000 C 
HETATM    9  C7  UNL     1     -33.742   3.663   4.210  1.00 20.00     0.005 C 
ENDBRANCH   5   8
TORSDOF 1
ENDMDL
MODEL 6
REMARK VINA RESULT:       0.2      1.414      2.547
REMARK  1 active torsions:
REMARK  status: ('A' for Active; 'I' for Inactive)
REMARK    1  A    between atoms: C5_5  and  C8_8 
ROOT
HETATM    1  C1  UNL     1     -32.435   8.075   2.538  1.00 20.00     0.007 C 
HETATM    2  C2  UNL     1     -33.064   7.506   3.814  1.00 20.00     0.041 C 
HETATM    3  C3  UNL     1     -34.005   6.396   1.817  1.00 20.00     0.045 C 
HETATM    4  C4  UNL     1     -35.401   6.301   4.055  1.00 20.00     0.207 A 
HETATM    5  C5  UNL     1     -32.617   6.970   1.486  1.00 20.00    -0.012 C 
HETATM    6  C6  UNL     1     -34.131   6.593   3.297  1.00 20.00     0.083 A 
HETATM    7  O9  UNL     1     -34.299   5.385   4.052  1.00 20.00    -0.375 OA
ENDROOT
BRANCH   5   8
HETATM    8  C8  UNL     1     -31.524   5.906   1.581  1.00 20.00     0.000 C 
HETATM    9  C7  UNL     1     -31.862   4.683   0.788  1.00 20.00     0.005 C 
ENDBRANCH   5   8
TORSDOF 1
ENDMDL
MODEL 7
REMARK VINA RESULT:       0.3      2.256      4.204
REMARK  1 active torsions:
REMARK  status: ('A' for Active; 'I' for Inactive)
REMARK    1  A    between atoms: C5_5  and  C8_8 
ROOT
HETATM    1  C1  UNL     1     -33.639   5.050   2.483  1.00 20.00     0.007 C 
HETATM    2  C2  UNL     1     -33.081   6.432   2.836  1.00 20.00     0.041 C 
HETATM    3  C3  UNL     1     -35.140   5.976   4.123  1.00 20.00     0.045 C 
HETATM    4  C4  UNL     1     -34.401   8.492   3.829  1.00 20.00     0.207 A 
HETATM    5  C5  UNL     1     -34.489   4.649   3.698  1.00 20.00    -0.012 C 
HETATM    6  C6  UNL     1     -34.132   7.012   3.729  1.00 20.00     0.083 A 
HETATM    7  O9  UNL     1     -33.624   7.800   4.814  1.00 20.00    -0.375 OA
ENDROOT
BRANCH   5   8
HETATM    8  C8  UNL     1     -33.638   4.048   4.816  1.00 20.00     0.000 C 
HETATM    9  C7  UNL     1     -33.222   2.644   4.511  1.00 20.00     0.005 C 
ENDBRANCH   5   8
TORSDOF 1
ENDMDL
MODEL 8
REMARK VINA RESULT:       0.6      2.063      3.151
REMARK  1 active torsions:
REMARK  status: ('A' for Active; 'I' for Inactive)
REMARK    1  A    between atoms: C5_5  and  C8_8 
ROOT
HETATM    1  C1  UNL     1     -34.867   6.184   3.988  1.00 20.00     0.007 C 
HETATM    2  C2  UNL     1     -33.883   5.222   3.314  1.00 20.00     0.041 C 
HETATM    3  C3  UNL     1     -33.641   7.500   2.386  1.00 20.00     0.045 C 
HETATM    4  C4  UNL     1     -32.761   5.476   0.938  1.00 20.00     0.207 A 
HETATM    5  C5  UNL     1     -34.246   7.576   3.797  1.00 20.00    -0.012 C 
HETATM    6  C6  UNL     1     -33.270   6.056   2.232  1.00 20.00     0.083 A 
HETATM    7  O9  UNL     1     -31.874   5.813   2.012  1.00 20.00    -0.375 OA
ENDROOT
BRANCH   5   8
HETATM    8  C8  UNL     1     -33.186   7.879   4.856  1.00 20.00     0.000 C 
HETATM    9  C7  UNL     1     -32.092   8.749   4.321  1.00 20.00     0.005 C 
ENDBRANCH   5   8
TORSDOF 1
ENDMDL
MODEL 9
REMARK VINA RESULT:       0.6      1.732      3.787
REMARK  1 active torsions:
REMARK  status: ('A' for Active; 'I' for Inactive)
REMARK    1  A    between atoms: C5_5  and  C8_8 
ROOT
HETATM    1  C1  UNL     1     -31.533   6.926   1.993  1.00 20.00     0.007 C 
HETATM    2  C2  UNL     1     -31.227   8.390   1.658  1.00 20.00     0.041 C 
HETATM    3  C3  UNL     1     -33.510   7.793   0.924  1.00 20.00     0.045 C 
HETATM    4  C4  UNL     1     -32.357   9.882  -0.204  1.00 20.00     0.207 A 
HETATM    5  C5  UNL     1     -33.066   6.851   2.056  1.00 20.00    -0.012 C 
HETATM    6  C6  UNL     1     -32.420   8.820   0.864  1.00 20.00     0.083 A 
HETATM    7  O9  UNL     1     -32.848  10.165   1.112  1.00 20.00    -0.375 OA
ENDROOT
BRANCH   5   8
HETATM    8  C8  UNL     1     -33.604   7.301   3.414  1.00 20.00     0.000 C 
HETATM    9  C7  UNL     1     -34.837   6.549   3.805  1.00 20.00     0.005 C 
ENDBRANCH   5   8
TORSDOF 1
ENDMDL
