MODEL 1
REMARK VINA RESULT:      -2.3      0.000      0.000
REMARK  3 active torsions:
REMARK  status: ('A' for Active; 'I' for Inactive)
REMARK    1  A    between atoms: C4_4  and  C5_5 
REMARK    2  A    between atoms: C5_5  and  C6_6 
REMARK    3  A    between atoms: C6_6  and  C7_7 
ROOT
HETATM    1  C1  UNL     1     -34.161   7.208   3.560  1.00 20.00     0.033 C 
HETATM    2  C2  UNL     1     -35.196   6.350   4.257  1.00 20.00     0.168 C 
HETATM    3  C3  UNL     1     -33.656   4.944   3.219  1.00 20.00     0.172 C 
HETATM    4  C4  UNL     1     -33.661   6.272   2.483  1.00 20.00     0.011 C 
HETATM    5  O8  UNL     1     -34.746   4.992   4.152  1.00 20.00    -0.391 OA
ENDROOT
BRANCH   4   6
HETATM    6  C5  UNL     1     -32.313   6.655   1.901  1.00 20.00     0.008 C 
BRANCH   6   7
HETATM    7  C6  UNL     1     -32.082   8.167   1.962  1.00 20.00     0.015 C 
BRANCH   7   8
HETATM    8  C7  UNL     1     -31.859   8.747   0.571  1.00 20.00     0.114 C 
HETATM    9 CL9  UNL     1     -32.641  10.338   0.429  1.00 20.00    -0.130 Cl
ENDBRANCH   7   8
ENDBRANCH   6   7
ENDBRANCH   4   6
TORSDOF 3
ENDMDL
MODEL 2
REMARK VINA RESULT:      -1.9      0.811      1.667
REMARK  3 active torsions:
REMARK  status: ('A' for Active; 'I' for Inactive)
REMARK    1  A    between atoms: C4_4  and  C5_5 
REMARK    2  A    between atoms: C5_5  and  C6_6 
REMARK    3  A    between atoms: C6_6  and  C7_7 
ROOT
HETATM    1  C1  UNL     1     -33.416   5.084   3.296  1.00 20.00     0.033 C 
HETATM    2  C2  UNL     1     -34.170   4.144   4.213  1.00 20.00     0.168 C 
HETATM    3  C3  UNL     1     -35.353   6.146   4.082  1.00 20.00     0.172 C 
HETATM    4  C4  UNL     1     -33.893   6.434   3.781  1.00 20.00     0.011 C 
HETATM    5  O8  UNL     1     -35.414   4.783   4.529  1.00 20.00    -0.391 OA
ENDROOT
BRANCH   4   6
HETATM    6  C5  UNL     1     -33.684   7.562   2.788  1.00 20.00     0.008 C 
BRANCH   6   7
HETATM    7  C6  UNL     1     -32.603   7.216   1.761  1.00 20.00     0.015 C 
BRANCH   7   8
HETATM    8  C7  UNL     1     -31.670   8.397   1.523  1.00 20.00     0.114 C 
HETATM    9 CL9  UNL     1     -32.395   9.536   0.366  1.00 20.00    -0.130 Cl
ENDBRANCH   7   8
ENDBRANCH   6   7
ENDBRANCH   4   6
TORSDOF 3
ENDMDL
MODEL 3
REMARK VINA RESULT:      -1.9      3.400      4.633
REMARK  3 active torsions:
REMARK  status: ('A' for Active; 'I' for Inactive)
REMARK    1  A    between atoms: C4_4  and  C5_5 
REMARK    2  A    between atoms: C5_5  and  C6_6 
REMARK    3  A    between atoms: C6_6  and  C7_7 
ROOT
HETATM    1  C1  UNL     1     -33.232   8.019   3.190  1.00 20.00     0.033 C 
HETATM    2  C2  UNL     1     -32.033   8.091   2.268  1.00 20.00     0.168 C 
HETATM    3  C3  UNL     1     -33.191   6.123   1.811  1.00 20.00     0.172 C 
HETATM    4  C4  UNL     1     -33.488   6.530   3.244  1.00 20.00     0.011 C 
HETATM    5  O8  UNL     1     -32.151   6.997   1.348  1.00 20.00    -0.391 OA
ENDROOT
BRANCH   4   6
HETATM    6  C5  UNL     1     -34.883   6.155   3.710  1.00 20.00     0.008 C 
BRANCH   6   7
HETATM    7  C6  UNL     1     -34.883   4.835   4.485  1.00 20.00     0.015 C 
BRANCH   7   8
HETATM    8  C7  UNL     1     -33.886   3.847   3.891  1.00 20.00     0.114 C 
HETATM    9 CL9  UNL     1     -33.039   2.968   5.185  1.00 20.00    -0.130 Cl
ENDBRANCH   7   8
ENDBRANCH   6   7
ENDBRANCH   4   6
TORSDOF 3
ENDMDL
MODEL 4
REMARK VINA RESULT:      -1.7      3.225      4.636
REMARK  3 active torsions:
REMARK  status: ('A' for Active; 'I' for Inactive)
REMARK    1  A    between atoms: C4_4  and  C5_5 
REMARK    2  A    between atoms: C5_5  and  C6_6 
REMARK    3  A    between atoms: C6_6  and  C7_7 
ROOT
HETATM    1  C1  UNL     1     -32.984   6.169   1.996  1.00 20.00     0.033 C 
HETATM    2  C2  UNL     1     -31.954   6.758   1.056  1.00 20.00     0.168 C 
HETATM    3  C3  UNL     1     -32.242   8.227   2.841  1.00 20.00     0.172 C 
HETATM    4  C4  UNL     1     -33.511   7.406   2.688  1.00 20.00     0.011 C 
HETATM    5  O8  UNL     1     -31.424   7.924   1.701  1.00 20.00    -0.391 OA
ENDROOT
BRANCH   4   6
HETATM    6  C5  UNL     1     -34.222   7.130   4.000  1.00 20.00     0.008 C 
BRANCH   6   7
HETATM    7  C6  UNL     1     -35.382   6.149   3.817  1.00 20.00     0.015 C 
BRANCH   7   8
HETATM    8  C7  UNL     1     -35.248   4.954   4.752  1.00 20.00     0.114 C 
HETATM    9 CL9  UNL     1     -33.945   3.876   4.199  1.00 20.00    -0.130 Cl
ENDBRANCH   7   8
ENDBRANCH   6   7
ENDBRANCH   4   6
TORSDOF 3
ENDMDL
MODEL 5
REMARK VINA RESULT:      -1.6      1.059      1.459
REMARK  3 active torsions:
REMARK  status: ('A' for Active; 'I' for Inactive)
REMARK    1  A    between atoms: C4_4  and  C5_5 
REMARK    2  A    between atoms: C5_5  and  C6_6 
REMARK    3  A    between atoms: C6_6  and  C7_7 
ROOT
HETATM    1  C1  UNL     1     -34.318   5.853   2.790  1.00 20.00     0.033 C 
HETATM    2  C2  UNL     1     -35.028   6.147   4.095  1.00 20.00     0.168 C 
HETATM    3  C3  UNL     1     -33.540   7.886   3.663  1.00 20.00     0.172 C 
HETATM    4  C4  UNL     1     -33.038   6.641   2.954  1.00 20.00     0.011 C 
HETATM    5  O8  UNL     1     -34.633   7.467   4.494  1.00 20.00    -0.391 OA
ENDROOT
BRANCH   4   6
HETATM    6  C5  UNL     1     -32.314   6.928   1.652  1.00 20.00     0.008 C 
BRANCH   6   7
HETATM    7  C6  UNL     1     -31.806   8.371   1.595  1.00 20.00     0.015 C 
BRANCH   7   8
HETATM    8  C7  UNL     1     -32.102   9.007   0.243  1.00 20.00     0.114 C 
HETATM    9 CL9  UNL     1     -32.659  10.683   0.454  1.00 20.00    -0.130 Cl
ENDBRANCH   7   8
ENDBRANCH   6   7
ENDBRANCH   4   6
TORSDOF 3
ENDMDL
MODEL 6
REMARK VINA RESULT:      -1.5      3.471      4.817
REMARK  3 active torsions:
REMARK  status: ('A' for Active; 'I' for Inactive)
REMARK    1  A    between atoms: C4_4  and  C5_5 
REMARK    2  A    between atoms: C5_5  and  C6_6 
REMARK    3  A    between atoms: C6_6  and  C7_7 
ROOT
HETATM    1  C1  UNL     1     -32.854   6.518   1.861  1.00 20.00     0.033 C 
HETATM    2  C2  UNL     1     -31.887   7.650   1.580  1.00 20.00     0.168 C 
HETATM    3  C3  UNL     1     -32.824   7.993   3.685  1.00 20.00     0.172 C 
HETATM    4  C4  UNL     1     -33.790   7.157   2.863  1.00 20.00     0.011 C 
HETATM    5  O8  UNL     1     -31.791   8.422   2.785  1.00 20.00    -0.391 OA
ENDROOT
BRANCH   4   6
HETATM    6  C5  UNL     1     -34.592   6.165   3.685  1.00 20.00     0.008 C 
BRANCH   6   7
HETATM    7  C6  UNL     1     -34.094   4.732   3.483  1.00 20.00     0.015 C 
BRANCH   7   8
HETATM    8  C7  UNL     1     -34.169   3.934   4.779  1.00 20.00     0.114 C 
HETATM    9 CL9  UNL     1     -32.871   2.719   4.836  1.00 20.00    -0.130 Cl
ENDBRANCH   7   8
ENDBRANCH   6   7
ENDBRANCH   4   6
TORSDOF 3
ENDMDL
MODEL 7
REMARK VINA RESULT:      -0.9      1.699      2.229
REMARK  3 active torsions:
REMARK  status: ('A' for Active; 'I' for Inactive)
REMARK    1  A    between atoms: C4_4  and  C5_5 
REMARK    2  A    between atoms: C5_5  and  C6_6 
REMARK    3  A    between atoms: C6_6  and  C7_7 
ROOT
HETATM    1  C1  UNL     1     -33.516   5.046   3.394  1.00 20.00     0.033 C 
HETATM    2  C2  UNL     1     -34.221   4.102   4.345  1.00 20.00     0.168 C 
HETATM    3  C3  UNL     1     -35.474   6.060   4.193  1.00 20.00     0.172 C 
HETATM    4  C4  UNL     1     -34.030   6.390   3.859  1.00 20.00     0.011 C 
HETATM    5  O8  UNL     1     -35.481   4.706   4.670  1.00 20.00    -0.391 OA
ENDROOT
BRANCH   4   6
HETATM    6  C5  UNL     1     -33.876   7.501   2.837  1.00 20.00     0.008 C 
BRANCH   6   7
HETATM    7  C6  UNL     1     -32.462   8.085   2.847  1.00 20.00     0.015 C 
BRANCH   7   8
HETATM    8  C7  UNL     1     -31.765   7.864   1.510  1.00 20.00     0.114 C 
HETATM    9 CL9  UNL     1     -31.857   6.151   1.038  1.00 20.00    -0.130 Cl
ENDBRANCH   7   8
ENDBRANCH   6   7
ENDBRANCH   4   6
TORSDOF 3
ENDMDL
MODEL 8
REMARK VINA RESULT:      -0.9      3.345      4.747
REMARK  3 active torsions:
REMARK  status: ('A' for Active; 'I' for Inactive)
REMARK    1  A    between atoms: C4_4  and  C5_5 
REMARK    2  A    between atoms: C5_5  and  C6_6 
REMARK    3  A    between atoms: C6_6  and  C7_7 
ROOT
HETATM    1  C1  UNL     1     -32.708   9.929   1.487  1.00 20.00     0.033 C 
HETATM    2  C2  UNL     1     -32.846  10.851   0.294  1.00 20.00     0.168 C 
HETATM    3  C3  UNL     1     -32.496   8.685  -0.489  1.00 20.00     0.172 C 
HETATM    4  C4  UNL     1     -31.901   8.791   0.904  1.00 20.00     0.011 C 
HETATM    5  O8  UNL     1     -32.871  10.017  -0.873  1.00 20.00    -0.391 OA
ENDROOT
BRANCH   4   6
HETATM    6  C5  UNL     1     -31.977   7.502   1.701  1.00 20.00     0.008 C 
BRANCH   6   7
HETATM    7  C6  UNL     1     -33.002   7.599   2.833  1.00 20.00     0.015 C 
BRANCH   7   8
HETATM    8  C7  UNL     1     -33.675   6.255   3.085  1.00 20.00     0.114 C 
HETATM    9 CL9  UNL     1     -35.219   6.484   3.938  1.00 20.00    -0.130 Cl
ENDBRANCH   7   8
ENDBRANCH   6   7
ENDBRANCH   4   6
TORSDOF 3
ENDMDL
MODEL 9
REMARK VINA RESULT:      -0.9      1.398      2.072
REMARK  3 active torsions:
REMARK  status: ('A' for Active; 'I' for Inactive)
REMARK    1  A    between atoms: C4_4  and  C5_5 
REMARK    2  A    between atoms: C5_5  and  C6_6 
REMARK    3  A    between atoms: C6_6  and  C7_7 
ROOT
HETATM    1  C1  UNL     1     -33.491   4.945   3.335  1.00 20.00     0.033 C 
HETATM    2  C2  UNL     1     -34.191   4.031   4.319  1.00 20.00     0.168 C 
HETATM    3  C3  UNL     1     -35.401   6.016   4.174  1.00 20.00     0.172 C 
HETATM    4  C4  UNL     1     -33.960   6.307   3.795  1.00 20.00     0.011 C 
HETATM    5  O8  UNL     1     -35.426   4.669   4.671  1.00 20.00    -0.391 OA
ENDROOT
BRANCH   4   6
HETATM    6  C5  UNL     1     -33.810   7.401   2.754  1.00 20.00     0.008 C 
BRANCH   6   7
HETATM    7  C6  UNL     1     -32.794   7.018   1.675  1.00 20.00     0.015 C 
BRANCH   7   8
HETATM    8  C7  UNL     1     -31.648   8.020   1.615  1.00 20.00     0.114 C 
HETATM    9 CL9  UNL     1     -31.392   8.766   3.210  1.00 20.00    -0.130 Cl
ENDBRANCH   7   8
ENDBRANCH   6   7
ENDBRANCH   4   6
TORSDOF 3
ENDMDL
