MODEL 1
REMARK VINA RESULT:      -2.2      0.000      0.000
REMARK  3 active torsions:
REMARK  status: ('A' for Active; 'I' for Inactive)
REMARK    1  A    between atoms: C2_2  and  C9_9 
REMARK    2  A    between atoms: C6_6  and  C9_9 
REMARK    3  A    between atoms: C7_7  and  O10_10 
ROOT
HETATM    1  C1  UNL     1     -32.341   9.500   0.541  1.00 20.00    -0.111 C 
HETATM    2  C2  UNL     1     -32.277   8.638   1.374  1.00 20.00    -0.107 C 
HETATM    3  C8  UNL     1     -32.417  10.551  -0.473  1.00 20.00     0.112 C 
ENDROOT
BRANCH   2   4
HETATM    4  C9  UNL     1     -32.204   7.584   2.392  1.00 20.00     0.098 C 
BRANCH   4   5
HETATM    5  C6  UNL     1     -33.559   6.928   2.605  1.00 20.00    -0.001 C 
HETATM    6  C3  UNL     1     -34.134   7.185   3.996  1.00 20.00     0.008 C 
HETATM    7  C4  UNL     1     -35.171   6.079   4.139  1.00 20.00     0.032 C 
HETATM    8  C7  UNL     1     -34.470   4.860   3.551  1.00 20.00     0.118 C 
HETATM    9  C5  UNL     1     -33.520   5.398   2.476  1.00 20.00     0.037 C 
BRANCH   8  10
HETATM   10  O10 UNL     1     -33.698   4.215   4.560  1.00 20.00    -0.396 OA
HETATM   11  H24 UNL     1     -33.971   3.285   4.566  1.00 20.00     0.210 HD
ENDBRANCH   8  10
ENDBRANCH   4   5
ENDBRANCH   2   4
TORSDOF 3
ENDMDL
MODEL 2
REMARK VINA RESULT:      -1.4      1.439      1.908
REMARK  3 active torsions:
REMARK  status: ('A' for Active; 'I' for Inactive)
REMARK    1  A    between atoms: C2_2  and  C9_9 
REMARK    2  A    between atoms: C6_6  and  C9_9 
REMARK    3  A    between atoms: C7_7  and  O10_10 
ROOT
HETATM    1  C1  UNL     1     -32.405   8.752   0.972  1.00 20.00    -0.111 C 
HETATM    2  C2  UNL     1     -32.431   7.602   1.315  1.00 20.00    -0.107 C 
HETATM    3  C8  UNL     1     -32.373  10.154   0.556  1.00 20.00     0.112 C 
ENDROOT
BRANCH   2   4
HETATM    4  C9  UNL     1     -32.466   6.195   1.731  1.00 20.00     0.098 C 
BRANCH   4   5
HETATM    5  C6  UNL     1     -33.117   6.040   3.096  1.00 20.00    -0.001 C 
HETATM    6  C3  UNL     1     -33.887   4.730   3.246  1.00 20.00     0.008 C 
HETATM    7  C4  UNL     1     -34.813   5.017   4.419  1.00 20.00     0.032 C 
HETATM    8  C7  UNL     1     -35.292   6.440   4.151  1.00 20.00     0.118 C 
HETATM    9  C5  UNL     1     -34.148   7.135   3.405  1.00 20.00     0.037 C 
BRANCH   8  10
HETATM   10  O10 UNL     1     -36.436   6.410   3.303  1.00 20.00    -0.396 OA
HETATM   11  H24 UNL     1     -36.109   6.473   2.392  1.00 20.00     0.210 HD
ENDBRANCH   8  10
ENDBRANCH   4   5
ENDBRANCH   2   4
TORSDOF 3
ENDMDL
MODEL 3
REMARK VINA RESULT:      -1.4      2.213      5.068
REMARK  3 active torsions:
REMARK  status: ('A' for Active; 'I' for Inactive)
REMARK    1  A    between atoms: C2_2  and  C9_9 
REMARK    2  A    between atoms: C6_6  and  C9_9 
REMARK    3  A    between atoms: C7_7  and  O10_10 
ROOT
HETATM    1  C1  UNL     1     -33.777   3.625   4.448  1.00 20.00    -0.111 C 
HETATM    2  C2  UNL     1     -34.317   4.685   4.279  1.00 20.00    -0.107 C 
HETATM    3  C8  UNL     1     -33.122   2.334   4.652  1.00 20.00     0.112 C 
ENDROOT
BRANCH   2   4
HETATM    4  C9  UNL     1     -34.974   5.981   4.077  1.00 20.00     0.098 C 
BRANCH   4   5
HETATM    5  C6  UNL     1     -34.317   6.763   2.950  1.00 20.00    -0.001 C 
HETATM    6  C3  UNL     1     -33.082   6.067   2.383  1.00 20.00     0.008 C 
HETATM    7  C4  UNL     1     -32.352   7.203   1.678  1.00 20.00     0.032 C 
HETATM    8  C7  UNL     1     -32.491   8.369   2.650  1.00 20.00     0.118 C 
HETATM    9  C5  UNL     1     -33.818   8.150   3.384  1.00 20.00     0.037 C 
BRANCH   8  10
HETATM   10  O10 UNL     1     -31.433   8.330   3.602  1.00 20.00    -0.396 OA
HETATM   11  H24 UNL     1     -30.615   8.523   3.117  1.00 20.00     0.210 HD
ENDBRANCH   8  10
ENDBRANCH   4   5
ENDBRANCH   2   4
TORSDOF 3
ENDMDL
MODEL 4
REMARK VINA RESULT:      -1.2      2.679      5.082
REMARK  3 active torsions:
REMARK  status: ('A' for Active; 'I' for Inactive)
REMARK    1  A    between atoms: C2_2  and  C9_9 
REMARK    2  A    between atoms: C6_6  and  C9_9 
REMARK    3  A    between atoms: C7_7  and  O10_10 
ROOT
HETATM    1  C1  UNL     1     -34.193   6.353   3.304  1.00 20.00    -0.111 C 
HETATM    2  C2  UNL     1     -33.257   6.541   2.575  1.00 20.00    -0.107 C 
HETATM    3  C8  UNL     1     -35.332   6.125   4.192  1.00 20.00     0.112 C 
ENDROOT
BRANCH   2   4
HETATM    4  C9  UNL     1     -32.112   6.765   1.685  1.00 20.00     0.098 C 
BRANCH   4   5
HETATM    5  C6  UNL     1     -31.824   8.249   1.521  1.00 20.00    -0.001 C 
HETATM    6  C3  UNL     1     -33.017   9.132   1.876  1.00 20.00     0.008 C 
HETATM    7  C4  UNL     1     -32.680  10.446   1.185  1.00 20.00     0.032 C 
HETATM    8  C7  UNL     1     -32.123  10.003  -0.163  1.00 20.00     0.118 C 
HETATM    9  C5  UNL     1     -31.464   8.642   0.080  1.00 20.00     0.037 C 
BRANCH   8  10
HETATM   10  O10 UNL     1     -33.190   9.833  -1.091  1.00 20.00    -0.396 OA
HETATM   11  H24 UNL     1     -32.783   9.685  -1.959  1.00 20.00     0.210 HD
ENDBRANCH   8  10
ENDBRANCH   4   5
ENDBRANCH   2   4
TORSDOF 3
ENDMDL
MODEL 5
REMARK VINA RESULT:      -0.5      2.468      5.220
REMARK  3 active torsions:
REMARK  status: ('A' for Active; 'I' for Inactive)
REMARK    1  A    between atoms: C2_2  and  C9_9 
REMARK    2  A    between atoms: C6_6  and  C9_9 
REMARK    3  A    between atoms: C7_7  and  O10_10 
ROOT
HETATM    1  C1  UNL     1     -33.625   3.543   4.223  1.00 20.00    -0.111 C 
HETATM    2  C2  UNL     1     -33.848   4.615   3.731  1.00 20.00    -0.107 C 
HETATM    3  C8  UNL     1     -33.355   2.237   4.823  1.00 20.00     0.112 C 
ENDROOT
BRANCH   2   4
HETATM    4  C9  UNL     1     -34.115   5.927   3.129  1.00 20.00     0.098 C 
BRANCH   4   5
HETATM    5  C6  UNL     1     -32.833   6.727   2.961  1.00 20.00    -0.001 C 
HETATM    6  C3  UNL     1     -32.948   8.155   3.488  1.00 20.00     0.008 C 
HETATM    7  C4  UNL     1     -31.797   8.865   2.787  1.00 20.00     0.032 C 
HETATM    8  C7  UNL     1     -31.852   8.310   1.368  1.00 20.00     0.118 C 
HETATM    9  C5  UNL     1     -32.405   6.886   1.494  1.00 20.00     0.037 C 
BRANCH   8  10
HETATM   10  O10 UNL     1     -32.755   9.082   0.584  1.00 20.00    -0.396 OA
HETATM   11  H24 UNL     1     -32.324   9.231  -0.271  1.00 20.00     0.210 HD
ENDBRANCH   8  10
ENDBRANCH   4   5
ENDBRANCH   2   4
TORSDOF 3
ENDMDL
MODEL 6
REMARK VINA RESULT:       0.0      1.135      1.459
REMARK  3 active torsions:
REMARK  status: ('A' for Active; 'I' for Inactive)
REMARK    1  A    between atoms: C2_2  and  C9_9 
REMARK    2  A    between atoms: C6_6  and  C9_9 
REMARK    3  A    between atoms: C7_7  and  O10_10 
ROOT
HETATM    1  C1  UNL     1     -31.979   8.387   1.621  1.00 20.00    -0.111 C 
HETATM    2  C2  UNL     1     -32.627   8.179   2.610  1.00 20.00    -0.107 C 
HETATM    3  C8  UNL     1     -31.190   8.642   0.417  1.00 20.00     0.112 C 
ENDROOT
BRANCH   2   4
HETATM    4  C9  UNL     1     -33.419   7.919   3.818  1.00 20.00     0.098 C 
BRANCH   4   5
HETATM    5  C6  UNL     1     -34.336   6.721   3.629  1.00 20.00    -0.001 C 
HETATM    6  C3  UNL     1     -34.920   6.203   4.941  1.00 20.00     0.008 C 
HETATM    7  C4  UNL     1     -35.354   4.789   4.580  1.00 20.00     0.032 C 
HETATM    8  C7  UNL     1     -34.205   4.276   3.720  1.00 20.00     0.118 C 
HETATM    9  C5  UNL     1     -33.627   5.506   3.012  1.00 20.00     0.037 C 
BRANCH   8  10
HETATM   10  O10 UNL     1     -33.195   3.713   4.552  1.00 20.00    -0.396 OA
HETATM   11  H24 UNL     1     -32.344   4.020   4.203  1.00 20.00     0.210 HD
ENDBRANCH   8  10
ENDBRANCH   4   5
ENDBRANCH   2   4
TORSDOF 3
ENDMDL
MODEL 7
REMARK VINA RESULT:       0.2      2.861      5.453
REMARK  3 active torsions:
REMARK  status: ('A' for Active; 'I' for Inactive)
REMARK    1  A    between atoms: C2_2  and  C9_9 
REMARK    2  A    between atoms: C6_6  and  C9_9 
REMARK    3  A    between atoms: C7_7  and  O10_10 
ROOT
HETATM    1  C1  UNL     1     -34.284   6.614   3.598  1.00 20.00    -0.111 C 
HETATM    2  C2  UNL     1     -33.321   7.116   3.086  1.00 20.00    -0.107 C 
HETATM    3  C8  UNL     1     -35.455   6.000   4.222  1.00 20.00     0.112 C 
ENDROOT
BRANCH   2   4
HETATM    4  C9  UNL     1     -32.148   7.734   2.456  1.00 20.00     0.098 C 
BRANCH   4   5
HETATM    5  C6  UNL     1     -32.516   8.409   1.145  1.00 20.00    -0.001 C 
HETATM    6  C3  UNL     1     -31.299   8.799   0.311  1.00 20.00     0.008 C 
HETATM    7  C4  UNL     1     -31.864   9.847  -0.638  1.00 20.00     0.032 C 
HETATM    8  C7  UNL     1     -32.777  10.677   0.257  1.00 20.00     0.118 C 
HETATM    9  C5  UNL     1     -33.295   9.719   1.335  1.00 20.00     0.037 C 
BRANCH   8  10
HETATM   10  O10 UNL     1     -32.025  11.709   0.887  1.00 20.00    -0.396 OA
HETATM   11  H24 UNL     1     -31.121  11.643   0.543  1.00 20.00     0.210 HD
ENDBRANCH   8  10
ENDBRANCH   4   5
ENDBRANCH   2   4
TORSDOF 3
ENDMDL
MODEL 8
REMARK VINA RESULT:       0.4      2.076      4.670
REMARK  3 active torsions:
REMARK  status: ('A' for Active; 'I' for Inactive)
REMARK    1  A    between atoms: C2_2  and  C9_9 
REMARK    2  A    between atoms: C6_6  and  C9_9 
REMARK    3  A    between atoms: C7_7  and  O10_10 
ROOT
HETATM    1  C1  UNL     1     -33.130   3.705   3.822  1.00 20.00    -0.111 C 
HETATM    2  C2  UNL     1     -32.987   4.365   2.829  1.00 20.00    -0.107 C 
HETATM    3  C8  UNL     1     -33.305   2.902   5.032  1.00 20.00     0.112 C 
ENDROOT
BRANCH   2   4
HETATM    4  C9  UNL     1     -32.809   5.167   1.614  1.00 20.00     0.098 C 
BRANCH   4   5
HETATM    5  C6  UNL     1     -33.199   6.618   1.849  1.00 20.00    -0.001 C 
HETATM    6  C3  UNL     1     -31.996   7.554   1.926  1.00 20.00     0.008 C 
HETATM    7  C4  UNL     1     -32.566   8.776   2.634  1.00 20.00     0.032 C 
HETATM    8  C7  UNL     1     -33.442   8.173   3.726  1.00 20.00     0.118 C 
HETATM    9  C5  UNL     1     -33.949   6.838   3.171  1.00 20.00     0.037 C 
BRANCH   8  10
HETATM   10  O10 UNL     1     -32.656   7.915   4.886  1.00 20.00    -0.396 OA
HETATM   11  H24 UNL     1     -33.159   7.287   5.428  1.00 20.00     0.210 HD
ENDBRANCH   8  10
ENDBRANCH   4   5
ENDBRANCH   2   4
TORSDOF 3
ENDMDL
MODEL 9
REMARK VINA RESULT:       0.5      2.205      3.375
REMARK  3 active torsions:
REMARK  status: ('A' for Active; 'I' for Inactive)
REMARK    1  A    between atoms: C2_2  and  C9_9 
REMARK    2  A    between atoms: C6_6  and  C9_9 
REMARK    3  A    between atoms: C7_7  and  O10_10 
ROOT
HETATM    1  C1  UNL     1     -31.525   4.760   0.482  1.00 20.00    -0.111 C 
HETATM    2  C2  UNL     1     -31.992   5.686   1.086  1.00 20.00    -0.107 C 
HETATM    3  C8  UNL     1     -30.956   3.630  -0.252  1.00 20.00     0.112 C 
ENDROOT
BRANCH   2   4
HETATM    4  C9  UNL     1     -32.559   6.822   1.822  1.00 20.00     0.098 C 
BRANCH   4   5
HETATM    5  C6  UNL     1     -33.162   6.376   3.145  1.00 20.00    -0.001 C 
HETATM    6  C3  UNL     1     -33.788   4.985   3.077  1.00 20.00     0.008 C 
HETATM    7  C4  UNL     1     -34.715   4.975   4.285  1.00 20.00     0.032 C 
HETATM    8  C7  UNL     1     -35.344   6.363   4.258  1.00 20.00     0.118 C 
HETATM    9  C5  UNL     1     -34.295   7.290   3.635  1.00 20.00     0.037 C 
BRANCH   8  10
HETATM   10  O10 UNL     1     -36.497   6.352   3.421  1.00 20.00    -0.396 OA
HETATM   11  H24 UNL     1     -37.148   6.937   3.837  1.00 20.00     0.210 HD
ENDBRANCH   8  10
ENDBRANCH   4   5
ENDBRANCH   2   4
TORSDOF 3
ENDMDL
