MODEL 1
REMARK VINA RESULT:      -2.1      0.000      0.000
REMARK  3 active torsions:
REMARK  status: ('A' for Active; 'I' for Inactive)
REMARK    1  A    between atoms: C4_4  and  C7_7 
REMARK    2  A    between atoms: C7_7  and  C9_9 
REMARK    3  A    between atoms: C8_8  and  C9_9 
ROOT
HETATM    1  C1  UNL     1     -33.978   7.607   4.151  1.00 20.00     0.006 C 
HETATM    2  C2  UNL     1     -35.093   6.607   3.838  1.00 20.00     0.020 C 
HETATM    3  C3  UNL     1     -33.373   6.200   2.250  1.00 20.00     0.024 C 
HETATM    4  C4  UNL     1     -32.821   7.274   3.194  1.00 20.00    -0.013 C 
HETATM    5  C5  UNL     1     -34.420   5.469   3.081  1.00 20.00     0.082 C 
HETATM    6 CL10 UNL     1     -33.654   4.318   4.213  1.00 20.00    -0.125 Cl
ENDROOT
BRANCH   4   7
HETATM    7  C7  UNL     1     -32.293   8.492   2.451  1.00 20.00     0.005 C 
BRANCH   7   8
HETATM    8  C9  UNL     1     -31.855   8.135   1.031  1.00 20.00     0.000 C 
BRANCH   8   9
HETATM    9  C8  UNL     1     -32.182   9.261   0.050  1.00 20.00    -0.005 C 
HETATM   10  C6  UNL     1     -32.737  10.481   0.767  1.00 20.00     0.005 C 
ENDBRANCH   8   9
ENDBRANCH   7   8
ENDBRANCH   4   7
TORSDOF 3
ENDMDL
MODEL 2
REMARK VINA RESULT:      -2.0      2.451      4.807
REMARK  3 active torsions:
REMARK  status: ('A' for Active; 'I' for Inactive)
REMARK    1  A    between atoms: C4_4  and  C7_7 
REMARK    2  A    between atoms: C7_7  and  C9_9 
REMARK    3  A    between atoms: C8_8  and  C9_9 
ROOT
HETATM    1  C1  UNL     1     -33.128   8.178   3.839  1.00 20.00     0.006 C 
HETATM    2  C2  UNL     1     -31.734   8.304   3.220  1.00 20.00     0.020 C 
HETATM    3  C3  UNL     1     -32.910   6.726   1.889  1.00 20.00     0.024 C 
HETATM    4  C4  UNL     1     -33.924   7.241   2.917  1.00 20.00    -0.013 C 
HETATM    5  C5  UNL     1     -31.886   7.850   1.774  1.00 20.00     0.082 C 
HETATM    6 CL10 UNL     1     -32.501   9.178   0.752  1.00 20.00    -0.125 Cl
ENDROOT
BRANCH   4   7
HETATM    7  C7  UNL     1     -34.619   6.115   3.668  1.00 20.00     0.005 C 
BRANCH   7   8
HETATM    8  C9  UNL     1     -33.902   4.780   3.464  1.00 20.00     0.000 C 
BRANCH   8   9
HETATM    9  C8  UNL     1     -34.078   3.864   4.675  1.00 20.00    -0.005 C 
HETATM   10  C6  UNL     1     -32.987   2.808   4.737  1.00 20.00     0.005 C 
ENDBRANCH   8   9
ENDBRANCH   7   8
ENDBRANCH   4   7
TORSDOF 3
ENDMDL
MODEL 3
REMARK VINA RESULT:      -1.9      1.338      1.875
REMARK  3 active torsions:
REMARK  status: ('A' for Active; 'I' for Inactive)
REMARK    1  A    between atoms: C4_4  and  C7_7 
REMARK    2  A    between atoms: C7_7  and  C9_9 
REMARK    3  A    between atoms: C8_8  and  C9_9 
ROOT
HETATM    1  C1  UNL     1     -33.212   5.870   2.139  1.00 20.00     0.006 C 
HETATM    2  C2  UNL     1     -33.880   5.229   3.357  1.00 20.00     0.020 C 
HETATM    3  C3  UNL     1     -33.725   7.552   3.832  1.00 20.00     0.024 C 
HETATM    4  C4  UNL     1     -33.210   7.386   2.398  1.00 20.00    -0.013 C 
HETATM    5  C5  UNL     1     -34.643   6.353   4.044  1.00 20.00     0.082 C 
HETATM    6 CL10 UNL     1     -36.229   6.613   3.265  1.00 20.00    -0.125 Cl
ENDROOT
BRANCH   4   7
HETATM    7  C7  UNL     1     -31.844   8.024   2.189  1.00 20.00     0.005 C 
BRANCH   7   8
HETATM    8  C9  UNL     1     -31.713   8.619   0.788  1.00 20.00     0.000 C 
BRANCH   8   9
HETATM    9  C8  UNL     1     -32.438   9.962   0.686  1.00 20.00    -0.005 C 
HETATM   10  C6  UNL     1     -32.881  10.248  -0.740  1.00 20.00     0.005 C 
ENDBRANCH   8   9
ENDBRANCH   7   8
ENDBRANCH   4   7
TORSDOF 3
ENDMDL
MODEL 4
REMARK VINA RESULT:      -1.3      2.405      4.627
REMARK  3 active torsions:
REMARK  status: ('A' for Active; 'I' for Inactive)
REMARK    1  A    between atoms: C4_4  and  C7_7 
REMARK    2  A    between atoms: C7_7  and  C9_9 
REMARK    3  A    between atoms: C8_8  and  C9_9 
ROOT
HETATM    1  C1  UNL     1     -32.175   8.635   3.740  1.00 20.00     0.006 C 
HETATM    2  C2  UNL     1     -31.128   8.233   2.699  1.00 20.00     0.020 C 
HETATM    3  C3  UNL     1     -33.141   7.140   2.071  1.00 20.00     0.024 C 
HETATM    4  C4  UNL     1     -33.503   8.016   3.275  1.00 20.00    -0.013 C 
HETATM    5  C5  UNL     1     -31.917   7.817   1.465  1.00 20.00     0.082 C 
HETATM    6 CL10 UNL     1     -32.385   9.244   0.498  1.00 20.00    -0.125 Cl
ENDROOT
BRANCH   4   7
HETATM    7  C7  UNL     1     -34.214   7.238   4.373  1.00 20.00     0.005 C 
BRANCH   7   8
HETATM    8  C9  UNL     1     -35.156   6.185   3.791  1.00 20.00     0.000 C 
BRANCH   8   9
HETATM    9  C8  UNL     1     -35.079   4.876   4.579  1.00 20.00    -0.005 C 
HETATM   10  C6  UNL     1     -33.931   4.004   4.097  1.00 20.00     0.005 C 
ENDBRANCH   8   9
ENDBRANCH   7   8
ENDBRANCH   4   7
TORSDOF 3
ENDMDL
MODEL 5
REMARK VINA RESULT:      -0.7      2.208      4.859
REMARK  3 active torsions:
REMARK  status: ('A' for Active; 'I' for Inactive)
REMARK    1  A    between atoms: C4_4  and  C7_7 
REMARK    2  A    between atoms: C7_7  and  C9_9 
REMARK    3  A    between atoms: C8_8  and  C9_9 
ROOT
HETATM    1  C1  UNL     1     -32.980   5.949   2.112  1.00 20.00     0.006 C 
HETATM    2  C2  UNL     1     -32.539   7.121   1.233  1.00 20.00     0.020 C 
HETATM    3  C3  UNL     1     -33.635   8.077   3.111  1.00 20.00     0.024 C 
HETATM    4  C4  UNL     1     -33.593   6.569   3.379  1.00 20.00    -0.013 C 
HETATM    5  C5  UNL     1     -32.468   8.325   2.162  1.00 20.00     0.082 C 
HETATM    6 CL10 UNL     1     -30.916   8.355   3.046  1.00 20.00    -0.125 Cl
ENDROOT
BRANCH   4   7
HETATM    7  C7  UNL     1     -34.961   5.996   3.720  1.00 20.00     0.005 C 
BRANCH   7   8
HETATM    8  C9  UNL     1     -34.841   4.731   4.570  1.00 20.00     0.000 C 
BRANCH   8   9
HETATM    9  C8  UNL     1     -33.833   3.752   3.968  1.00 20.00    -0.005 C 
HETATM   10  C6  UNL     1     -33.095   2.978   5.049  1.00 20.00     0.005 C 
ENDBRANCH   8   9
ENDBRANCH   7   8
ENDBRANCH   4   7
TORSDOF 3
ENDMDL
MODEL 6
REMARK VINA RESULT:      -0.2      2.448      4.564
REMARK  3 active torsions:
REMARK  status: ('A' for Active; 'I' for Inactive)
REMARK    1  A    between atoms: C4_4  and  C7_7 
REMARK    2  A    between atoms: C7_7  and  C9_9 
REMARK    3  A    between atoms: C8_8  and  C9_9 
ROOT
HETATM    1  C1  UNL     1     -33.333   7.575   3.035  1.00 20.00     0.006 C 
HETATM    2  C2  UNL     1     -32.085   8.461   3.030  1.00 20.00     0.020 C 
HETATM    3  C3  UNL     1     -31.857   6.984   1.183  1.00 20.00     0.024 C 
HETATM    4  C4  UNL     1     -33.238   6.693   1.779  1.00 20.00    -0.013 C 
HETATM    5  C5  UNL     1     -31.560   8.420   1.601  1.00 20.00     0.082 C 
HETATM    6 CL10 UNL     1     -32.437   9.584   0.568  1.00 20.00    -0.125 Cl
ENDROOT
BRANCH   4   7
HETATM    7  C7  UNL     1     -33.449   5.214   2.071  1.00 20.00     0.005 C 
BRANCH   7   8
HETATM    8  C9  UNL     1     -33.123   4.881   3.527  1.00 20.00     0.000 C 
BRANCH   8   9
HETATM    9  C8  UNL     1     -34.331   4.275   4.242  1.00 20.00    -0.005 C 
HETATM   10  C6  UNL     1     -35.418   5.312   4.474  1.00 20.00     0.005 C 
ENDBRANCH   8   9
ENDBRANCH   7   8
ENDBRANCH   4   7
TORSDOF 3
ENDMDL
MODEL 7
REMARK VINA RESULT:       0.3      2.706      4.811
REMARK  3 active torsions:
REMARK  status: ('A' for Active; 'I' for Inactive)
REMARK    1  A    between atoms: C4_4  and  C7_7 
REMARK    2  A    between atoms: C7_7  and  C9_9 
REMARK    3  A    between atoms: C8_8  and  C9_9 
ROOT
HETATM    1  C1  UNL     1     -31.358   8.733   0.013  1.00 20.00     0.006 C 
HETATM    2  C2  UNL     1     -32.404   9.690  -0.564  1.00 20.00     0.020 C 
HETATM    3  C3  UNL     1     -33.119   9.179   1.643  1.00 20.00     0.024 C 
HETATM    4  C4  UNL     1     -31.761   8.488   1.476  1.00 20.00    -0.013 C 
HETATM    5  C5  UNL     1     -33.084  10.327   0.640  1.00 20.00     0.082 C 
HETATM    6 CL10 UNL     1     -32.121  11.696   1.264  1.00 20.00    -0.125 Cl
ENDROOT
BRANCH   4   7
HETATM    7  C7  UNL     1     -31.807   7.011   1.842  1.00 20.00     0.005 C 
BRANCH   7   8
HETATM    8  C9  UNL     1     -33.231   6.461   1.768  1.00 20.00     0.000 C 
BRANCH   8   9
HETATM    9  C8  UNL     1     -33.659   5.848   3.101  1.00 20.00    -0.005 C 
HETATM   10  C6  UNL     1     -34.696   6.709   3.803  1.00 20.00     0.005 C 
ENDBRANCH   8   9
ENDBRANCH   7   8
ENDBRANCH   4   7
TORSDOF 3
ENDMDL
MODEL 8
REMARK VINA RESULT:       0.8      1.892      4.100
REMARK  3 active torsions:
REMARK  status: ('A' for Active; 'I' for Inactive)
REMARK    1  A    between atoms: C4_4  and  C7_7 
REMARK    2  A    between atoms: C7_7  and  C9_9 
REMARK    3  A    between atoms: C8_8  and  C9_9 
ROOT
HETATM    1  C1  UNL     1     -32.353   7.948   1.544  1.00 20.00     0.006 C 
HETATM    2  C2  UNL     1     -31.465   6.847   0.959  1.00 20.00     0.020 C 
HETATM    3  C3  UNL     1     -32.798   5.806   2.628  1.00 20.00     0.024 C 
HETATM    4  C4  UNL     1     -33.290   7.255   2.548  1.00 20.00    -0.013 C 
HETATM    5  C5  UNL     1     -32.186   5.539   1.257  1.00 20.00     0.082 C 
HETATM    6 CL10 UNL     1     -33.452   5.218   0.039  1.00 20.00    -0.125 Cl
ENDROOT
BRANCH   4   7
HETATM    7  C7  UNL     1     -33.319   7.940   3.906  1.00 20.00     0.005 C 
BRANCH   7   8
HETATM    8  C9  UNL     1     -34.464   7.415   4.773  1.00 20.00     0.000 C 
BRANCH   8   9
HETATM    9  C8  UNL     1     -35.374   6.475   3.980  1.00 20.00    -0.005 C 
HETATM   10  C6  UNL     1     -35.423   5.090   4.605  1.00 20.00     0.005 C 
ENDBRANCH   8   9
ENDBRANCH   7   8
ENDBRANCH   4   7
TORSDOF 3
ENDMDL
