MODEL 1
REMARK VINA RESULT:      -1.9      0.000      0.000
REMARK  1 active torsions:
REMARK  status: ('A' for Active; 'I' for Inactive)
REMARK    1  A    between atoms: C4_4  and  C8_8 
ROOT
HETATM    1  C1  UNL     1     -35.265   6.249   4.021  1.00 20.00     0.006 C 
HETATM    2  C2  UNL     1     -35.118   4.870   4.671  1.00 20.00     0.020 C 
HETATM    3  C3  UNL     1     -33.134   5.261   3.405  1.00 20.00     0.025 C 
HETATM    4  C4  UNL     1     -34.103   6.381   3.023  1.00 20.00    -0.010 C 
HETATM    5  C5  UNL     1     -34.081   4.146   3.824  1.00 20.00     0.082 C 
HETATM    6 CL9  UNL     1     -33.256   2.861   4.717  1.00 20.00    -0.125 Cl
ENDROOT
BRANCH   4   7
HETATM    7  C8  UNL     1     -33.457   7.755   3.033  1.00 20.00    -0.019 C 
HETATM    8  C6  UNL     1     -33.084   8.167   4.458  1.00 20.00     0.010 C 
HETATM    9  C7  UNL     1     -32.223   7.780   2.131  1.00 20.00     0.010 C 
ENDBRANCH   4   7
TORSDOF 1
ENDMDL
MODEL 2
REMARK VINA RESULT:      -1.5      1.179      1.992
REMARK  1 active torsions:
REMARK  status: ('A' for Active; 'I' for Inactive)
REMARK    1  A    between atoms: C4_4  and  C8_8 
ROOT
HETATM    1  C1  UNL     1     -34.000   7.731   3.302  1.00 20.00     0.006 C 
HETATM    2  C2  UNL     1     -34.422   6.526   4.147  1.00 20.00     0.020 C 
HETATM    3  C3  UNL     1     -32.928   5.715   2.474  1.00 20.00     0.025 C 
HETATM    4  C4  UNL     1     -33.241   7.162   2.092  1.00 20.00    -0.010 C 
HETATM    5  C5  UNL     1     -34.167   5.315   3.260  1.00 20.00     0.082 C 
HETATM    6 CL9  UNL     1     -33.925   3.832   4.193  1.00 20.00    -0.125 Cl
ENDROOT
BRANCH   4   7
HETATM    7  C8  UNL     1     -32.001   7.963   1.731  1.00 20.00    -0.019 C 
HETATM    8  C6  UNL     1     -32.342   9.067   0.730  1.00 20.00     0.010 C 
HETATM    9  C7  UNL     1     -31.359   8.559   2.983  1.00 20.00     0.010 C 
ENDBRANCH   4   7
TORSDOF 1
ENDMDL
MODEL 3
REMARK VINA RESULT:      -1.4      2.645      4.146
REMARK  1 active torsions:
REMARK  status: ('A' for Active; 'I' for Inactive)
REMARK    1  A    between atoms: C4_4  and  C8_8 
ROOT
HETATM    1  C1  UNL     1     -33.181   7.584   3.883  1.00 20.00     0.006 C 
HETATM    2  C2  UNL     1     -32.631   8.637   2.916  1.00 20.00     0.020 C 
HETATM    3  C3  UNL     1     -32.906   6.622   1.670  1.00 20.00     0.025 C 
HETATM    4  C4  UNL     1     -33.122   6.241   3.135  1.00 20.00    -0.010 C 
HETATM    5  C5  UNL     1     -32.000   7.838   1.784  1.00 20.00     0.082 C 
HETATM    6 CL9  UNL     1     -31.913   8.758   0.275  1.00 20.00    -0.125 Cl
ENDROOT
BRANCH   4   7
HETATM    7  C8  UNL     1     -34.354   5.380   3.350  1.00 20.00    -0.019 C 
HETATM    8  C6  UNL     1     -33.997   4.106   4.117  1.00 20.00     0.010 C 
HETATM    9  C7  UNL     1     -35.438   6.162   4.092  1.00 20.00     0.010 C 
ENDBRANCH   4   7
TORSDOF 1
ENDMDL
MODEL 4
REMARK VINA RESULT:      -1.4      1.516      2.522
REMARK  1 active torsions:
REMARK  status: ('A' for Active; 'I' for Inactive)
REMARK    1  A    between atoms: C4_4  and  C8_8 
ROOT
HETATM    1  C1  UNL     1     -33.332   8.238   3.880  1.00 20.00     0.006 C 
HETATM    2  C2  UNL     1     -34.222   7.402   4.805  1.00 20.00     0.020 C 
HETATM    3  C3  UNL     1     -33.925   6.146   2.798  1.00 20.00     0.025 C 
HETATM    4  C4  UNL     1     -33.351   7.535   2.513  1.00 20.00    -0.010 C 
HETATM    5  C5  UNL     1     -34.954   6.440   3.879  1.00 20.00     0.082 C 
HETATM    6 CL9  UNL     1     -35.491   4.975   4.714  1.00 20.00    -0.125 Cl
ENDROOT
BRANCH   4   7
HETATM    7  C8  UNL     1     -31.989   7.489   1.843  1.00 20.00    -0.019 C 
HETATM    8  C6  UNL     1     -31.764   6.137   1.166  1.00 20.00     0.010 C 
HETATM    9  C7  UNL     1     -31.846   8.624   0.829  1.00 20.00     0.010 C 
ENDBRANCH   4   7
TORSDOF 1
ENDMDL
MODEL 5
REMARK VINA RESULT:      -1.1      2.288      3.696
REMARK  1 active torsions:
REMARK  status: ('A' for Active; 'I' for Inactive)
REMARK    1  A    between atoms: C4_4  and  C8_8 
ROOT
HETATM    1  C1  UNL     1     -32.031   6.838   1.130  1.00 20.00     0.006 C 
HETATM    2  C2  UNL     1     -33.052   6.023   1.929  1.00 20.00     0.020 C 
HETATM    3  C3  UNL     1     -33.284   8.296   2.614  1.00 20.00     0.025 C 
HETATM    4  C4  UNL     1     -32.022   8.244   1.752  1.00 20.00    -0.010 C 
HETATM    5  C5  UNL     1     -33.365   6.875   3.151  1.00 20.00     0.082 C 
HETATM    6 CL9  UNL     1     -34.949   6.506   3.846  1.00 20.00    -0.125 Cl
ENDROOT
BRANCH   4   7
HETATM    7  C8  UNL     1     -31.962   9.356   0.719  1.00 20.00    -0.019 C 
HETATM    8  C6  UNL     1     -32.448   8.858  -0.642  1.00 20.00     0.010 C 
HETATM    9  C7  UNL     1     -32.788  10.560   1.171  1.00 20.00     0.010 C 
ENDBRANCH   4   7
TORSDOF 1
ENDMDL
MODEL 6
REMARK VINA RESULT:      -1.0      2.035      3.403
REMARK  1 active torsions:
REMARK  status: ('A' for Active; 'I' for Inactive)
REMARK    1  A    between atoms: C4_4  and  C8_8 
ROOT
HETATM    1  C1  UNL     1     -32.356   7.897   2.146  1.00 20.00     0.006 C 
HETATM    2  C2  UNL     1     -31.925   7.036   0.955  1.00 20.00     0.020 C 
HETATM    3  C3  UNL     1     -33.242   5.648   2.380  1.00 20.00     0.025 C 
HETATM    4  C4  UNL     1     -32.989   6.936   3.165  1.00 20.00    -0.010 C 
HETATM    5  C5  UNL     1     -32.041   5.600   1.447  1.00 20.00     0.082 C 
HETATM    6 CL9  UNL     1     -32.261   4.447   0.123  1.00 20.00    -0.125 Cl
ENDROOT
BRANCH   4   7
HETATM    7  C8  UNL     1     -34.245   7.492   3.814  1.00 20.00    -0.019 C 
HETATM    8  C6  UNL     1     -35.278   6.386   4.030  1.00 20.00     0.010 C 
HETATM    9  C7  UNL     1     -33.912   8.176   5.140  1.00 20.00     0.010 C 
ENDBRANCH   4   7
TORSDOF 1
ENDMDL
MODEL 7
REMARK VINA RESULT:      -0.6      2.553      4.096
REMARK  1 active torsions:
REMARK  status: ('A' for Active; 'I' for Inactive)
REMARK    1  A    between atoms: C4_4  and  C8_8 
ROOT
HETATM    1  C1  UNL     1     -32.942   5.245   1.857  1.00 20.00     0.006 C 
HETATM    2  C2  UNL     1     -31.967   6.255   1.245  1.00 20.00     0.020 C 
HETATM    3  C3  UNL     1     -33.165   7.395   2.964  1.00 20.00     0.025 C 
HETATM    4  C4  UNL     1     -33.868   6.049   2.784  1.00 20.00    -0.010 C 
HETATM    5  C5  UNL     1     -32.545   7.620   1.593  1.00 20.00     0.082 C 
HETATM    6 CL9  UNL     1     -31.316   8.891   1.609  1.00 20.00    -0.125 Cl
ENDROOT
BRANCH   4   7
HETATM    7  C8  UNL     1     -34.155   5.348   4.101  1.00 20.00    -0.019 C 
HETATM    8  C6  UNL     1     -35.619   5.529   4.503  1.00 20.00     0.010 C 
HETATM    9  C7  UNL     1     -33.807   3.862   4.009  1.00 20.00     0.010 C 
ENDBRANCH   4   7
TORSDOF 1
ENDMDL
MODEL 8
REMARK VINA RESULT:      -0.3      2.827      4.104
REMARK  1 active torsions:
REMARK  status: ('A' for Active; 'I' for Inactive)
REMARK    1  A    between atoms: C4_4  and  C8_8 
ROOT
HETATM    1  C1  UNL     1     -32.868   5.675   1.932  1.00 20.00     0.006 C 
HETATM    2  C2  UNL     1     -31.812   6.347   1.050  1.00 20.00     0.020 C 
HETATM    3  C3  UNL     1     -32.890   8.077   2.289  1.00 20.00     0.025 C 
HETATM    4  C4  UNL     1     -33.711   6.811   2.534  1.00 20.00    -0.010 C 
HETATM    5  C5  UNL     1     -32.264   7.796   0.932  1.00 20.00     0.082 C 
HETATM    6 CL9  UNL     1     -30.926   8.894   0.566  1.00 20.00    -0.125 Cl
ENDROOT
BRANCH   4   7
HETATM    7  C8  UNL     1     -34.049   6.595   3.999  1.00 20.00    -0.019 C 
HETATM    8  C6  UNL     1     -33.897   7.896   4.787  1.00 20.00     0.010 C 
HETATM    9  C7  UNL     1     -35.465   6.041   4.153  1.00 20.00     0.010 C 
ENDBRANCH   4   7
TORSDOF 1
ENDMDL
MODEL 9
REMARK VINA RESULT:       0.4      2.575      3.982
REMARK  1 active torsions:
REMARK  status: ('A' for Active; 'I' for Inactive)
REMARK    1  A    between atoms: C4_4  and  C8_8 
ROOT
HETATM    1  C1  UNL     1     -32.069   7.397   1.610  1.00 20.00     0.006 C 
HETATM    2  C2  UNL     1     -32.141   8.224   2.897  1.00 20.00     0.020 C 
HETATM    3  C3  UNL     1     -33.693   6.428   3.135  1.00 20.00     0.025 C 
HETATM    4  C4  UNL     1     -33.237   6.398   1.675  1.00 20.00    -0.010 C 
HETATM    5  C5  UNL     1     -33.498   7.891   3.502  1.00 20.00     0.082 C 
HETATM    6 CL9  UNL     1     -33.542   8.159   5.251  1.00 20.00    -0.125 Cl
ENDROOT
BRANCH   4   7
HETATM    7  C8  UNL     1     -32.863   5.006   1.198  1.00 20.00    -0.019 C 
HETATM    8  C6  UNL     1     -33.639   4.640  -0.067  1.00 20.00     0.010 C 
HETATM    9  C7  UNL     1     -31.358   4.906   0.947  1.00 20.00     0.010 C 
ENDBRANCH   4   7
TORSDOF 1
ENDMDL
