MODEL 1
REMARK VINA RESULT:      -1.5      0.000      0.000
REMARK  1 active torsions:
REMARK  status: ('A' for Active; 'I' for Inactive)
REMARK    1  A    between atoms: C7_7  and  C8_8 
ROOT
HETATM    1  C1  UNL     1     -32.207   5.883   1.142  1.00 20.00     0.002 C 
HETATM    2  C2  UNL     1     -31.323   7.061   1.549  1.00 20.00     0.005 C 
HETATM    3  C5  UNL     1     -33.184   5.501   2.252  1.00 20.00     0.016 C 
HETATM    4  C6  UNL     1     -33.126   7.877   3.122  1.00 20.00     0.020 C 
HETATM    5  C8  UNL     1     -32.123   8.280   2.029  1.00 20.00    -0.009 C 
HETATM    6  C9  UNL     1     -34.008   6.703   2.701  1.00 20.00     0.058 C 
HETATM    7 BR10 UNL     1     -35.140   6.179   4.208  1.00 20.00    -0.091 Br
ENDROOT
BRANCH   5   8
HETATM    8  C7  UNL     1     -32.813   8.998   0.866  1.00 20.00    -0.010 A 
HETATM    9  C3  UNL     1     -32.678  10.488   0.708  1.00 20.00     0.005 A 
HETATM   10  C4  UNL     1     -31.998   9.564  -0.264  1.00 20.00     0.005 A 
ENDBRANCH   5   8
TORSDOF 1
ENDMDL
MODEL 2
REMARK VINA RESULT:      -0.7      0.965      1.096
REMARK  1 active torsions:
REMARK  status: ('A' for Active; 'I' for Inactive)
REMARK    1  A    between atoms: C7_7  and  C8_8 
ROOT
HETATM    1  C1  UNL     1     -33.201   5.900   1.576  1.00 20.00     0.002 C 
HETATM    2  C2  UNL     1     -31.865   6.540   1.203  1.00 20.00     0.005 C 
HETATM    3  C5  UNL     1     -33.569   6.169   3.033  1.00 20.00     0.016 C 
HETATM    4  C6  UNL     1     -32.208   8.303   2.983  1.00 20.00     0.020 C 
HETATM    5  C8  UNL     1     -31.803   8.041   1.524  1.00 20.00    -0.009 C 
HETATM    6  C9  UNL     1     -33.548   7.663   3.341  1.00 20.00     0.058 C 
HETATM    7 BR10 UNL     1     -33.897   7.930   5.248  1.00 20.00    -0.091 Br
ENDROOT
BRANCH   5   8
HETATM    8  C7  UNL     1     -32.648   8.864   0.547  1.00 20.00    -0.010 A 
HETATM    9  C3  UNL     1     -32.636  10.366   0.615  1.00 20.00     0.005 A 
HETATM   10  C4  UNL     1     -31.983   9.660  -0.542  1.00 20.00     0.005 A 
ENDBRANCH   5   8
TORSDOF 1
ENDMDL
MODEL 3
REMARK VINA RESULT:       0.7      1.832      3.149
REMARK  1 active torsions:
REMARK  status: ('A' for Active; 'I' for Inactive)
REMARK    1  A    between atoms: C7_7  and  C8_8 
ROOT
HETATM    1  C1  UNL     1     -35.157   6.578   4.064  1.00 20.00     0.002 C 
HETATM    2  C2  UNL     1     -34.962   6.775   2.561  1.00 20.00     0.005 C 
HETATM    3  C5  UNL     1     -34.892   5.134   4.483  1.00 20.00     0.016 C 
HETATM    4  C6  UNL     1     -33.323   4.850   2.517  1.00 20.00     0.020 C 
HETATM    5  C8  UNL     1     -33.592   6.292   2.061  1.00 20.00    -0.009 C 
HETATM    6  C9  UNL     1     -33.515   4.669   4.022  1.00 20.00     0.058 C 
HETATM    7 BR10 UNL     1     -33.293   2.777   4.473  1.00 20.00    -0.091 Br
ENDROOT
BRANCH   5   8
HETATM    8  C7  UNL     1     -32.468   7.240   2.488  1.00 20.00    -0.010 A 
HETATM    9  C3  UNL     1     -31.404   7.644   1.505  1.00 20.00     0.005 A 
HETATM   10  C4  UNL     1     -32.425   8.649   1.964  1.00 20.00     0.005 A 
ENDBRANCH   5   8
TORSDOF 1
ENDMDL
MODEL 4
REMARK VINA RESULT:       1.3      2.309      3.847
REMARK  1 active torsions:
REMARK  status: ('A' for Active; 'I' for Inactive)
REMARK    1  A    between atoms: C7_7  and  C8_8 
ROOT
HETATM    1  C1  UNL     1     -31.235   5.947   1.694  1.00 20.00     0.002 C 
HETATM    2  C2  UNL     1     -32.587   5.267   1.485  1.00 20.00     0.005 C 
HETATM    3  C5  UNL     1     -31.195   7.332   1.052  1.00 20.00     0.016 C 
HETATM    4  C6  UNL     1     -33.705   7.529   1.316  1.00 20.00     0.020 C 
HETATM    5  C8  UNL     1     -33.774   6.127   1.942  1.00 20.00    -0.009 C 
HETATM    6  C9  UNL     1     -32.351   8.200   1.538  1.00 20.00     0.058 C 
HETATM    7 BR10 UNL     1     -32.317   9.907   0.581  1.00 20.00    -0.091 Br
ENDROOT
BRANCH   5   8
HETATM    8  C7  UNL     1     -33.869   6.195   3.469  1.00 20.00    -0.010 A 
HETATM    9  C3  UNL     1     -34.366   7.444   4.142  1.00 20.00     0.005 A 
HETATM   10  C4  UNL     1     -35.213   6.201   4.144  1.00 20.00     0.005 A 
ENDBRANCH   5   8
TORSDOF 1
ENDMDL
