MODEL 1
REMARK VINA RESULT:      -0.7      0.000      0.000
REMARK  4 active torsions:
REMARK  status: ('A' for Active; 'I' for Inactive)
REMARK    1  A    between atoms: C5_5  and  C8_8 
REMARK    2  A    between atoms: C6_6  and  C7_7 
REMARK    3  A    between atoms: C6_6  and  C8_8 
REMARK    4  A    between atoms: C7_7  and  C9_9 
ROOT
HETATM    1  C6  UNL     1     -33.224   5.611   2.337  1.00 20.00     0.021 C 
ENDROOT
BRANCH   1   2
HETATM    2  C7  UNL     1     -33.487   7.027   1.799  1.00 20.00     0.010 C 
BRANCH   2   3
HETATM    3  C9  UNL     1     -32.271   7.995   1.829  1.00 20.00    -0.051 C 
HETATM    4  C2  UNL     1     -31.019   7.204   1.399  1.00 20.00     0.014 C 
HETATM    5  C3  UNL     1     -32.036   8.548   3.245  1.00 20.00     0.014 C 
HETATM    6  C4  UNL     1     -32.463   9.167   0.853  1.00 20.00     0.014 C 
ENDBRANCH   2   3
ENDBRANCH   1   2
BRANCH   1   7
HETATM    7  C8  UNL     1     -33.801   5.380   3.746  1.00 20.00     0.082 C 
HETATM    8 CL10 UNL     1     -35.274   6.373   3.988  1.00 20.00    -0.125 Cl
BRANCH   7   9
HETATM    9  C5  UNL     1     -34.120   3.893   3.963  1.00 20.00     0.016 C 
HETATM   10  C1  UNL     1     -33.083   3.164   4.807  1.00 20.00     0.006 C 
ENDBRANCH   7   9
ENDBRANCH   1   7
TORSDOF 4
ENDMDL
MODEL 2
REMARK VINA RESULT:      -0.7      2.092      4.774
REMARK  4 active torsions:
REMARK  status: ('A' for Active; 'I' for Inactive)
REMARK    1  A    between atoms: C5_5  and  C8_8 
REMARK    2  A    between atoms: C6_6  and  C7_7 
REMARK    3  A    between atoms: C6_6  and  C8_8 
REMARK    4  A    between atoms: C7_7  and  C9_9 
ROOT
HETATM    1  C6  UNL     1     -32.893   7.792   2.371  1.00 20.00     0.021 C 
ENDROOT
BRANCH   1   2
HETATM    2  C7  UNL     1     -33.707   6.494   2.496  1.00 20.00     0.010 C 
BRANCH   2   3
HETATM    3  C9  UNL     1     -34.665   6.415   3.717  1.00 20.00    -0.051 C 
HETATM    4  C2  UNL     1     -34.215   7.471   4.747  1.00 20.00     0.014 C 
HETATM    5  C3  UNL     1     -34.604   5.029   4.382  1.00 20.00     0.014 C 
HETATM    6  C4  UNL     1     -36.116   6.719   3.312  1.00 20.00     0.014 C 
ENDBRANCH   2   3
ENDBRANCH   1   2
BRANCH   1   7
HETATM    7  C8  UNL     1     -31.623   7.631   1.515  1.00 20.00     0.082 C 
HETATM    8 CL10 UNL     1     -31.459   5.937   0.952  1.00 20.00    -0.125 Cl
BRANCH   7   9
HETATM    9  C5  UNL     1     -31.654   8.590   0.315  1.00 20.00     0.016 C 
HETATM   10  C1  UNL     1     -32.489   9.841   0.554  1.00 20.00     0.006 C 
ENDBRANCH   7   9
ENDBRANCH   1   7
TORSDOF 4
ENDMDL
MODEL 3
REMARK VINA RESULT:      -0.6      2.086      4.812
REMARK  4 active torsions:
REMARK  status: ('A' for Active; 'I' for Inactive)
REMARK    1  A    between atoms: C5_5  and  C8_8 
REMARK    2  A    between atoms: C6_6  and  C7_7 
REMARK    3  A    between atoms: C6_6  and  C8_8 
REMARK    4  A    between atoms: C7_7  and  C9_9 
ROOT
HETATM    1  C6  UNL     1     -32.830   7.812   2.393  1.00 20.00     0.021 C 
ENDROOT
BRANCH   1   2
HETATM    2  C7  UNL     1     -33.714   6.558   2.476  1.00 20.00     0.010 C 
BRANCH   2   3
HETATM    3  C9  UNL     1     -34.623   6.456   3.732  1.00 20.00    -0.051 C 
HETATM    4  C2  UNL     1     -36.073   6.754   3.300  1.00 20.00     0.014 C 
HETATM    5  C3  UNL     1     -34.212   7.485   4.800  1.00 20.00     0.014 C 
HETATM    6  C4  UNL     1     -34.578   5.047   4.344  1.00 20.00     0.014 C 
ENDBRANCH   2   3
ENDBRANCH   1   2
BRANCH   1   7
HETATM    7  C8  UNL     1     -31.583   7.619   1.509  1.00 20.00     0.082 C 
HETATM    8 CL10 UNL     1     -31.473   5.920   0.948  1.00 20.00    -0.125 Cl
BRANCH   7   9
HETATM    9  C5  UNL     1     -31.618   8.576   0.308  1.00 20.00     0.016 C 
HETATM   10  C1  UNL     1     -32.503   9.796   0.524  1.00 20.00     0.006 C 
ENDBRANCH   7   9
ENDBRANCH   1   7
TORSDOF 4
ENDMDL
MODEL 4
REMARK VINA RESULT:      -0.6      1.040      1.722
REMARK  4 active torsions:
REMARK  status: ('A' for Active; 'I' for Inactive)
REMARK    1  A    between atoms: C5_5  and  C8_8 
REMARK    2  A    between atoms: C6_6  and  C7_7 
REMARK    3  A    between atoms: C6_6  and  C8_8 
REMARK    4  A    between atoms: C7_7  and  C9_9 
ROOT
HETATM    1  C6  UNL     1     -33.654   7.338   3.990  1.00 20.00     0.021 C 
ENDROOT
BRANCH   1   2
HETATM    2  C7  UNL     1     -33.654   7.982   2.595  1.00 20.00     0.010 C 
BRANCH   2   3
HETATM    3  C9  UNL     1     -32.278   8.026   1.874  1.00 20.00    -0.051 C 
HETATM    4  C2  UNL     1     -31.208   8.432   2.907  1.00 20.00     0.014 C 
HETATM    5  C3  UNL     1     -32.278   9.064   0.739  1.00 20.00     0.014 C 
HETATM    6  C4  UNL     1     -31.901   6.650   1.301  1.00 20.00     0.014 C 
ENDBRANCH   2   3
ENDBRANCH   1   2
BRANCH   1   7
HETATM    7  C8  UNL     1     -34.614   6.138   4.104  1.00 20.00     0.082 C 
HETATM    8 CL10 UNL     1     -36.182   6.516   3.324  1.00 20.00    -0.125 Cl
BRANCH   7   9
HETATM    9  C5  UNL     1     -33.992   4.885   3.470  1.00 20.00     0.016 C 
HETATM   10  C1  UNL     1     -33.818   3.728   4.446  1.00 20.00     0.006 C 
ENDBRANCH   7   9
ENDBRANCH   1   7
TORSDOF 4
ENDMDL
MODEL 5
REMARK VINA RESULT:      -0.6      2.104      4.766
REMARK  4 active torsions:
REMARK  status: ('A' for Active; 'I' for Inactive)
REMARK    1  A    between atoms: C5_5  and  C8_8 
REMARK    2  A    between atoms: C6_6  and  C7_7 
REMARK    3  A    between atoms: C6_6  and  C8_8 
REMARK    4  A    between atoms: C7_7  and  C9_9 
ROOT
HETATM    1  C6  UNL     1     -32.841   7.754   2.389  1.00 20.00     0.021 C 
ENDROOT
BRANCH   1   2
HETATM    2  C7  UNL     1     -33.679   6.475   2.548  1.00 20.00     0.010 C 
BRANCH   2   3
HETATM    3  C9  UNL     1     -34.678   6.469   3.739  1.00 20.00    -0.051 C 
HETATM    4  C2  UNL     1     -34.671   5.058   4.362  1.00 20.00     0.014 C 
HETATM    5  C3  UNL     1     -36.107   6.785   3.266  1.00 20.00     0.014 C 
HETATM    6  C4  UNL     1     -34.267   7.479   4.822  1.00 20.00     0.014 C 
ENDBRANCH   2   3
ENDBRANCH   1   2
BRANCH   1   7
HETATM    7  C8  UNL     1     -31.593   7.556   1.509  1.00 20.00     0.082 C 
HETATM    8 CL10 UNL     1     -31.488   5.857   0.947  1.00 20.00    -0.125 Cl
BRANCH   7   9
HETATM    9  C5  UNL     1     -31.619   8.514   0.308  1.00 20.00     0.016 C 
HETATM   10  C1  UNL     1     -32.482   9.749   0.531  1.00 20.00     0.006 C 
ENDBRANCH   7   9
ENDBRANCH   1   7
TORSDOF 4
ENDMDL
MODEL 6
REMARK VINA RESULT:      -0.5      1.045      1.785
REMARK  4 active torsions:
REMARK  status: ('A' for Active; 'I' for Inactive)
REMARK    1  A    between atoms: C5_5  and  C8_8 
REMARK    2  A    between atoms: C6_6  and  C7_7 
REMARK    3  A    between atoms: C6_6  and  C8_8 
REMARK    4  A    between atoms: C7_7  and  C9_9 
ROOT
HETATM    1  C6  UNL     1     -33.675   7.364   3.986  1.00 20.00     0.021 C 
ENDROOT
BRANCH   1   2
HETATM    2  C7  UNL     1     -33.643   7.970   2.574  1.00 20.00     0.010 C 
BRANCH   2   3
HETATM    3  C9  UNL     1     -32.248   8.012   1.891  1.00 20.00    -0.051 C 
HETATM    4  C2  UNL     1     -32.303   9.054   0.755  1.00 20.00     0.014 C 
HETATM    5  C3  UNL     1     -31.885   6.647   1.283  1.00 20.00     0.014 C 
HETATM    6  C4  UNL     1     -31.151   8.432   2.882  1.00 20.00     0.014 C 
ENDBRANCH   2   3
ENDBRANCH   1   2
BRANCH   1   7
HETATM    7  C8  UNL     1     -34.615   6.149   4.104  1.00 20.00     0.082 C 
HETATM    8 CL10 UNL     1     -36.192   6.502   3.330  1.00 20.00    -0.125 Cl
BRANCH   7   9
HETATM    9  C5  UNL     1     -33.975   4.906   3.467  1.00 20.00     0.016 C 
HETATM   10  C1  UNL     1     -33.824   3.736   4.430  1.00 20.00     0.006 C 
ENDBRANCH   7   9
ENDBRANCH   1   7
TORSDOF 4
ENDMDL
MODEL 7
REMARK VINA RESULT:      -0.4      2.016      4.814
REMARK  4 active torsions:
REMARK  status: ('A' for Active; 'I' for Inactive)
REMARK    1  A    between atoms: C5_5  and  C8_8 
REMARK    2  A    between atoms: C6_6  and  C7_7 
REMARK    3  A    between atoms: C6_6  and  C8_8 
REMARK    4  A    between atoms: C7_7  and  C9_9 
ROOT
HETATM    1  C6  UNL     1     -33.104   6.953   1.450  1.00 20.00     0.021 C 
ENDROOT
BRANCH   1   2
HETATM    2  C7  UNL     1     -33.201   6.130   2.744  1.00 20.00     0.010 C 
BRANCH   2   3
HETATM    3  C9  UNL     1     -34.416   6.453   3.658  1.00 20.00    -0.051 C 
HETATM    4  C2  UNL     1     -34.809   5.164   4.407  1.00 20.00     0.014 C 
HETATM    5  C3  UNL     1     -35.625   6.923   2.830  1.00 20.00     0.014 C 
HETATM    6  C4  UNL     1     -34.066   7.530   4.697  1.00 20.00     0.014 C 
ENDBRANCH   2   3
ENDBRANCH   1   2
BRANCH   1   7
HETATM    7  C8  UNL     1     -32.472   8.342   1.660  1.00 20.00     0.082 C 
HETATM    8 CL10 UNL     1     -31.126   8.244   2.840  1.00 20.00    -0.125 Cl
BRANCH   7   9
HETATM    9  C5  UNL     1     -31.970   8.916   0.326  1.00 20.00     0.016 C 
HETATM   10  C1  UNL     1     -32.645  10.224  -0.068  1.00 20.00     0.006 C 
ENDBRANCH   7   9
ENDBRANCH   1   7
TORSDOF 4
ENDMDL
MODEL 8
REMARK VINA RESULT:      -0.4      2.036      4.814
REMARK  4 active torsions:
REMARK  status: ('A' for Active; 'I' for Inactive)
REMARK    1  A    between atoms: C5_5  and  C8_8 
REMARK    2  A    between atoms: C6_6  and  C7_7 
REMARK    3  A    between atoms: C6_6  and  C8_8 
REMARK    4  A    between atoms: C7_7  and  C9_9 
ROOT
HETATM    1  C6  UNL     1     -33.068   6.890   1.494  1.00 20.00     0.021 C 
ENDROOT
BRANCH   1   2
HETATM    2  C7  UNL     1     -33.190   6.093   2.802  1.00 20.00     0.010 C 
BRANCH   2   3
HETATM    3  C9  UNL     1     -34.422   6.434   3.686  1.00 20.00    -0.051 C 
HETATM    4  C2  UNL     1     -35.550   6.936   2.762  1.00 20.00     0.014 C 
HETATM    5  C3  UNL     1     -34.090   7.545   4.697  1.00 20.00     0.014 C 
HETATM    6  C4  UNL     1     -34.930   5.196   4.442  1.00 20.00     0.014 C 
ENDBRANCH   2   3
ENDBRANCH   1   2
BRANCH   1   7
HETATM    7  C8  UNL     1     -32.480   8.300   1.694  1.00 20.00     0.082 C 
HETATM    8 CL10 UNL     1     -31.104   8.245   2.841  1.00 20.00    -0.125 Cl
BRANCH   7   9
HETATM    9  C5  UNL     1     -32.031   8.895   0.351  1.00 20.00     0.016 C 
HETATM   10  C1  UNL     1     -32.610  10.275   0.071  1.00 20.00     0.006 C 
ENDBRANCH   7   9
ENDBRANCH   1   7
TORSDOF 4
ENDMDL
MODEL 9
REMARK VINA RESULT:      -0.0      1.667      2.276
REMARK  4 active torsions:
REMARK  status: ('A' for Active; 'I' for Inactive)
REMARK    1  A    between atoms: C5_5  and  C8_8 
REMARK    2  A    between atoms: C6_6  and  C7_7 
REMARK    3  A    between atoms: C6_6  and  C8_8 
REMARK    4  A    between atoms: C7_7  and  C9_9 
ROOT
HETATM    1  C6  UNL     1     -32.867   6.234   2.484  1.00 20.00     0.021 C 
ENDROOT
BRANCH   1   2
HETATM    2  C7  UNL     1     -33.059   7.191   1.297  1.00 20.00     0.010 C 
BRANCH   2   3
HETATM    3  C9  UNL     1     -32.092   8.407   1.249  1.00 20.00    -0.051 C 
HETATM    4  C2  UNL     1     -31.312   8.450   2.578  1.00 20.00     0.014 C 
HETATM    5  C3  UNL     1     -32.867   9.727   1.096  1.00 20.00     0.014 C 
HETATM    6  C4  UNL     1     -31.083   8.276   0.097  1.00 20.00     0.014 C 
ENDBRANCH   2   3
ENDBRANCH   1   2
BRANCH   1   7
HETATM    7  C8  UNL     1     -34.192   5.667   3.028  1.00 20.00     0.082 C 
HETATM    8 CL10 UNL     1     -33.888   4.196   4.005  1.00 20.00    -0.125 Cl
BRANCH   7   9
HETATM    9  C5  UNL     1     -34.927   6.723   3.868  1.00 20.00     0.016 C 
HETATM   10  C1  UNL     1     -33.994   7.673   4.607  1.00 20.00     0.006 C 
ENDBRANCH   7   9
ENDBRANCH   1   7
TORSDOF 4
ENDMDL
