MODEL 1
REMARK VINA RESULT:      -2.4      0.000      0.000
REMARK  3 active torsions:
REMARK  status: ('A' for Active; 'I' for Inactive)
REMARK    1  A    between atoms: C1_1  and  C3_3 
REMARK    2  A    between atoms: C2_2  and  C7_7 
REMARK    3  A    between atoms: C7_7  and  C8_8 
ROOT
HETATM    1  C1  UNL     1     -32.624   8.779   1.003  1.00 20.00     0.005 C 
HETATM    2  C2  UNL     1     -32.657   7.751   1.624  1.00 20.00    -0.090 C 
ENDROOT
BRANCH   2   3
HETATM    3  C7  UNL     1     -32.701   6.486   2.383  1.00 20.00     0.065 C 
HETATM    4  C4  UNL     1     -32.416   5.309   1.445  1.00 20.00     0.024 C 
BRANCH   3   5
HETATM    5  C8  UNL     1     -34.032   6.298   3.157  1.00 20.00    -0.007 C 
HETATM    6  C5  UNL     1     -34.162   4.940   3.858  1.00 20.00     0.011 C 
HETATM    7  C6  UNL     1     -34.260   7.428   4.169  1.00 20.00     0.011 C 
ENDBRANCH   3   5
ENDBRANCH   2   3
BRANCH   1   8
HETATM    8  C3  UNL     1     -32.581  10.100   0.211  1.00 20.00     0.258 C 
HETATM    9  O9  UNL     1     -32.848  10.013  -1.022  1.00 20.00    -0.637 OA
HETATM   10  O10 UNL     1     -32.284  11.134   0.876  1.00 20.00    -0.637 OA
ENDBRANCH   1   8
TORSDOF 3
ENDMDL
MODEL 2
REMARK VINA RESULT:      -1.8      0.756      1.593
REMARK  3 active torsions:
REMARK  status: ('A' for Active; 'I' for Inactive)
REMARK    1  A    between atoms: C1_1  and  C3_3 
REMARK    2  A    between atoms: C2_2  and  C7_7 
REMARK    3  A    between atoms: C7_7  and  C8_8 
ROOT
HETATM    1  C1  UNL     1     -32.629   8.870   1.063  1.00 20.00     0.005 C 
HETATM    2  C2  UNL     1     -32.656   7.883   1.746  1.00 20.00    -0.090 C 
ENDROOT
BRANCH   2   3
HETATM    3  C7  UNL     1     -32.693   6.672   2.590  1.00 20.00     0.065 C 
HETATM    4  C4  UNL     1     -33.060   5.455   1.736  1.00 20.00     0.024 C 
BRANCH   3   5
HETATM    5  C8  UNL     1     -33.635   6.824   3.814  1.00 20.00    -0.007 C 
HETATM    6  C5  UNL     1     -33.597   8.212   4.465  1.00 20.00     0.011 C 
HETATM    7  C6  UNL     1     -35.082   6.457   3.460  1.00 20.00     0.011 C 
ENDBRANCH   3   5
ENDBRANCH   2   3
BRANCH   1   8
HETATM    8  C3  UNL     1     -32.589  10.135   0.185  1.00 20.00     0.258 C 
HETATM    9  O9  UNL     1     -32.239  11.202   0.768  1.00 20.00    -0.637 OA
HETATM   10  O10 UNL     1     -32.910   9.977  -1.029  1.00 20.00    -0.637 OA
ENDBRANCH   1   8
TORSDOF 3
ENDMDL
MODEL 3
REMARK VINA RESULT:      -0.9      3.934      5.221
REMARK  3 active torsions:
REMARK  status: ('A' for Active; 'I' for Inactive)
REMARK    1  A    between atoms: C1_1  and  C3_3 
REMARK    2  A    between atoms: C2_2  and  C7_7 
REMARK    3  A    between atoms: C7_7  and  C8_8 
ROOT
HETATM    1  C1  UNL     1     -33.753   5.070   3.254  1.00 20.00     0.005 C 
HETATM    2  C2  UNL     1     -33.215   5.682   2.371  1.00 20.00    -0.090 C 
ENDROOT
BRANCH   2   3
HETATM    3  C7  UNL     1     -32.549   6.429   1.286  1.00 20.00     0.065 C 
HETATM    4  C4  UNL     1     -31.491   5.544   0.620  1.00 20.00     0.024 C 
BRANCH   3   5
HETATM    5  C8  UNL     1     -31.953   7.779   1.766  1.00 20.00    -0.007 C 
HETATM    6  C5  UNL     1     -32.107   8.925   0.759  1.00 20.00     0.011 C 
HETATM    7  C6  UNL     1     -32.533   8.199   3.123  1.00 20.00     0.011 C 
ENDBRANCH   3   5
ENDBRANCH   2   3
BRANCH   1   8
HETATM    8  C3  UNL     1     -34.445   4.291   4.388  1.00 20.00     0.258 C 
HETATM    9  O9  UNL     1     -33.840   3.259   4.799  1.00 20.00    -0.637 OA
HETATM   10  O10 UNL     1     -35.547   4.763   4.792  1.00 20.00    -0.637 OA
ENDBRANCH   1   8
TORSDOF 3
ENDMDL
MODEL 4
REMARK VINA RESULT:      -0.7      4.524      5.762
REMARK  3 active torsions:
REMARK  status: ('A' for Active; 'I' for Inactive)
REMARK    1  A    between atoms: C1_1  and  C3_3 
REMARK    2  A    between atoms: C2_2  and  C7_7 
REMARK    3  A    between atoms: C7_7  and  C8_8 
ROOT
HETATM    1  C1  UNL     1     -33.260   4.002   3.860  1.00 20.00     0.005 C 
HETATM    2  C2  UNL     1     -33.349   4.883   3.049  1.00 20.00    -0.090 C 
ENDROOT
BRANCH   2   3
HETATM    3  C7  UNL     1     -33.460   5.962   2.047  1.00 20.00     0.065 C 
HETATM    4  C4  UNL     1     -32.304   5.861   1.047  1.00 20.00     0.024 C 
BRANCH   3   5
HETATM    5  C8  UNL     1     -33.544   7.371   2.691  1.00 20.00    -0.007 C 
HETATM    6  C5  UNL     1     -34.090   7.372   4.124  1.00 20.00     0.011 C 
HETATM    7  C6  UNL     1     -32.190   8.090   2.652  1.00 20.00     0.011 C 
ENDBRANCH   3   5
ENDBRANCH   2   3
BRANCH   1   8
HETATM    8  C3  UNL     1     -33.142   2.875   4.903  1.00 20.00     0.258 C 
HETATM    9  O9  UNL     1     -32.595   3.191   5.999  1.00 20.00    -0.637 OA
HETATM   10  O10 UNL     1     -33.606   1.749   4.557  1.00 20.00    -0.637 OA
ENDBRANCH   1   8
TORSDOF 3
ENDMDL
MODEL 5
REMARK VINA RESULT:      -0.6      4.515      6.084
REMARK  3 active torsions:
REMARK  status: ('A' for Active; 'I' for Inactive)
REMARK    1  A    between atoms: C1_1  and  C3_3 
REMARK    2  A    between atoms: C2_2  and  C7_7 
REMARK    3  A    between atoms: C7_7  and  C8_8 
ROOT
HETATM    1  C1  UNL     1     -33.492   4.240   4.358  1.00 20.00     0.005 C 
HETATM    2  C2  UNL     1     -33.743   5.326   3.911  1.00 20.00    -0.090 C 
ENDROOT
BRANCH   2   3
HETATM    3  C7  UNL     1     -34.051   6.660   3.357  1.00 20.00     0.065 C 
HETATM    4  C4  UNL     1     -35.567   6.837   3.244  1.00 20.00     0.024 C 
BRANCH   3   5
HETATM    5  C8  UNL     1     -33.336   6.925   2.005  1.00 20.00    -0.007 C 
HETATM    6  C5  UNL     1     -32.208   7.961   2.086  1.00 20.00     0.011 C 
HETATM    7  C6  UNL     1     -32.805   5.627   1.385  1.00 20.00     0.011 C 
ENDBRANCH   3   5
ENDBRANCH   2   3
BRANCH   1   8
HETATM    8  C3  UNL     1     -33.168   2.850   4.936  1.00 20.00     0.258 C 
HETATM    9  O9  UNL     1     -32.488   2.839   6.002  1.00 20.00    -0.637 OA
HETATM   10  O10 UNL     1     -33.617   1.862   4.285  1.00 20.00    -0.637 OA
ENDBRANCH   1   8
TORSDOF 3
ENDMDL
MODEL 6
REMARK VINA RESULT:      -0.5      1.292      2.190
REMARK  3 active torsions:
REMARK  status: ('A' for Active; 'I' for Inactive)
REMARK    1  A    between atoms: C1_1  and  C3_3 
REMARK    2  A    between atoms: C2_2  and  C7_7 
REMARK    3  A    between atoms: C7_7  and  C8_8 
ROOT
HETATM    1  C1  UNL     1     -32.689   8.676   1.574  1.00 20.00     0.005 C 
HETATM    2  C2  UNL     1     -33.206   8.240   2.567  1.00 20.00    -0.090 C 
ENDROOT
BRANCH   2   3
HETATM    3  C7  UNL     1     -33.846   7.704   3.784  1.00 20.00     0.065 C 
HETATM    4  C4  UNL     1     -33.087   8.184   5.024  1.00 20.00     0.024 C 
BRANCH   3   5
HETATM    5  C8  UNL     1     -33.986   6.159   3.755  1.00 20.00    -0.007 C 
HETATM    6  C5  UNL     1     -35.383   5.650   4.132  1.00 20.00     0.011 C 
HETATM    7  C6  UNL     1     -33.574   5.581   2.396  1.00 20.00     0.011 C 
ENDBRANCH   3   5
ENDBRANCH   2   3
BRANCH   1   8
HETATM    8  C3  UNL     1     -32.023   9.238   0.304  1.00 20.00     0.258 C 
HETATM    9  O9  UNL     1     -30.860   8.808   0.053  1.00 20.00    -0.637 OA
HETATM   10  O10 UNL     1     -32.707  10.072  -0.358  1.00 20.00    -0.637 OA
ENDBRANCH   1   8
TORSDOF 3
ENDMDL
MODEL 7
REMARK VINA RESULT:      -0.5      1.292      2.173
REMARK  3 active torsions:
REMARK  status: ('A' for Active; 'I' for Inactive)
REMARK    1  A    between atoms: C1_1  and  C3_3 
REMARK    2  A    between atoms: C2_2  and  C7_7 
REMARK    3  A    between atoms: C7_7  and  C8_8 
ROOT
HETATM    1  C1  UNL     1     -32.689   8.676   1.576  1.00 20.00     0.005 C 
HETATM    2  C2  UNL     1     -33.207   8.239   2.567  1.00 20.00    -0.090 C 
ENDROOT
BRANCH   2   3
HETATM    3  C7  UNL     1     -33.848   7.702   3.784  1.00 20.00     0.065 C 
HETATM    4  C4  UNL     1     -33.092   8.185   5.025  1.00 20.00     0.024 C 
BRANCH   3   5
HETATM    5  C8  UNL     1     -33.986   6.157   3.756  1.00 20.00    -0.007 C 
HETATM    6  C5  UNL     1     -35.381   5.646   4.137  1.00 20.00     0.011 C 
HETATM    7  C6  UNL     1     -33.577   5.580   2.396  1.00 20.00     0.011 C 
ENDBRANCH   3   5
ENDBRANCH   2   3
BRANCH   1   8
HETATM    8  C3  UNL     1     -32.022   9.239   0.306  1.00 20.00     0.258 C 
HETATM    9  O9  UNL     1     -32.703  10.077  -0.351  1.00 20.00    -0.637 OA
HETATM   10  O10 UNL     1     -30.860   8.805   0.053  1.00 20.00    -0.637 OA
ENDBRANCH   1   8
TORSDOF 3
ENDMDL
MODEL 8
REMARK VINA RESULT:      -0.4      3.390      5.111
REMARK  3 active torsions:
REMARK  status: ('A' for Active; 'I' for Inactive)
REMARK    1  A    between atoms: C1_1  and  C3_3 
REMARK    2  A    between atoms: C2_2  and  C7_7 
REMARK    3  A    between atoms: C7_7  and  C8_8 
ROOT
HETATM    1  C1  UNL     1     -33.619   6.507   2.945  1.00 20.00     0.005 C 
HETATM    2  C2  UNL     1     -32.887   7.209   2.302  1.00 20.00    -0.090 C 
ENDROOT
BRANCH   2   3
HETATM    3  C7  UNL     1     -31.988   8.076   1.514  1.00 20.00     0.065 C 
HETATM    4  C4  UNL     1     -30.947   8.718   2.437  1.00 20.00     0.024 C 
BRANCH   3   5
HETATM    5  C8  UNL     1     -32.756   9.137   0.683  1.00 20.00    -0.007 C 
HETATM    6  C5  UNL     1     -32.696  10.553   1.267  1.00 20.00     0.011 C 
HETATM    7  C6  UNL     1     -32.285   9.158  -0.777  1.00 20.00     0.011 C 
ENDBRANCH   3   5
ENDBRANCH   2   3
BRANCH   1   8
HETATM    8  C3  UNL     1     -34.559   5.605   3.766  1.00 20.00     0.258 C 
HETATM    9  O9  UNL     1     -35.644   6.135   4.143  1.00 20.00    -0.637 OA
HETATM   10  O10 UNL     1     -34.150   4.427   3.979  1.00 20.00    -0.637 OA
ENDBRANCH   1   8
TORSDOF 3
ENDMDL
MODEL 9
REMARK VINA RESULT:      -0.2      1.288      2.087
REMARK  3 active torsions:
REMARK  status: ('A' for Active; 'I' for Inactive)
REMARK    1  A    between atoms: C1_1  and  C3_3 
REMARK    2  A    between atoms: C2_2  and  C7_7 
REMARK    3  A    between atoms: C7_7  and  C8_8 
ROOT
HETATM    1  C1  UNL     1     -32.724   8.684   1.653  1.00 20.00     0.005 C 
HETATM    2  C2  UNL     1     -33.328   8.193   2.568  1.00 20.00    -0.090 C 
ENDROOT
BRANCH   2   3
HETATM    3  C7  UNL     1     -34.073   7.585   3.688  1.00 20.00     0.065 C 
HETATM    4  C4  UNL     1     -33.272   7.735   4.985  1.00 20.00     0.024 C 
BRANCH   3   5
HETATM    5  C8  UNL     1     -34.463   6.109   3.417  1.00 20.00    -0.007 C 
HETATM    6  C5  UNL     1     -33.267   5.171   3.219  1.00 20.00     0.011 C 
HETATM    7  C6  UNL     1     -35.377   5.556   4.518  1.00 20.00     0.011 C 
ENDBRANCH   3   5
ENDBRANCH   2   3
BRANCH   1   8
HETATM    8  C3  UNL     1     -31.949   9.319   0.483  1.00 20.00     0.258 C 
HETATM    9  O9  UNL     1     -32.387  10.431   0.069  1.00 20.00    -0.637 OA
HETATM   10  O10 UNL     1     -30.955   8.662   0.057  1.00 20.00    -0.637 OA
ENDBRANCH   1   8
TORSDOF 3
ENDMDL
