MODEL 1
REMARK VINA RESULT:      -1.8      0.000      0.000
REMARK  0 active torsions:
REMARK  status: ('A' for Active; 'I' for Inactive)
ROOT
HETATM    1  C1  UNL     1     -34.983   5.987   4.193  1.00 20.00     0.088 C 
HETATM    2  C2  UNL     1     -33.400   7.110   2.767  1.00 20.00    -0.044 C 
HETATM    3  C3  UNL     1     -34.285   7.147   3.767  1.00 20.00     0.098 C 
HETATM    4  C4  UNL     1     -32.619   8.267   2.250  1.00 20.00     0.063 C 
HETATM    5  C5  UNL     1     -32.965   5.883   2.039  1.00 20.00     0.202 C 
HETATM    6  C6  UNL     1     -31.411   7.551   1.683  1.00 20.00     0.172 C 
HETATM    7  N7  UNL     1     -35.556   5.040   4.544  1.00 20.00    -0.192 NA
HETATM    8  O8  UNL     1     -31.910   6.312   1.158  1.00 20.00    -0.387 OA
ENDROOT
TORSDOF 0
ENDMDL
MODEL 2
REMARK VINA RESULT:      -1.2      2.860      4.035
REMARK  0 active torsions:
REMARK  status: ('A' for Active; 'I' for Inactive)
ROOT
HETATM    1  C1  UNL     1     -32.288   7.614   1.674  1.00 20.00     0.088 C 
HETATM    2  C2  UNL     1     -33.597   5.933   2.798  1.00 20.00    -0.044 C 
HETATM    3  C3  UNL     1     -32.561   6.265   2.023  1.00 20.00     0.098 C 
HETATM    4  C4  UNL     1     -33.965   4.553   3.219  1.00 20.00     0.063 C 
HETATM    5  C5  UNL     1     -34.530   6.892   3.456  1.00 20.00     0.202 C 
HETATM    6  C6  UNL     1     -34.697   4.848   4.512  1.00 20.00     0.172 C 
HETATM    7  N7  UNL     1     -32.062   8.716   1.387  1.00 20.00    -0.192 NA
HETATM    8  O8  UNL     1     -35.384   6.087   4.290  1.00 20.00    -0.387 OA
ENDROOT
TORSDOF 0
ENDMDL
MODEL 3
REMARK VINA RESULT:      -1.0      2.816      3.824
REMARK  0 active torsions:
REMARK  status: ('A' for Active; 'I' for Inactive)
ROOT
HETATM    1  C1  UNL     1     -32.176   5.463   1.194  1.00 20.00     0.088 C 
HETATM    2  C2  UNL     1     -33.678   6.047   2.984  1.00 20.00    -0.044 C 
HETATM    3  C3  UNL     1     -32.912   6.412   1.952  1.00 20.00     0.098 C 
HETATM    4  C4  UNL     1     -34.485   6.962   3.837  1.00 20.00     0.063 C 
HETATM    5  C5  UNL     1     -33.937   4.645   3.420  1.00 20.00     0.202 C 
HETATM    6  C6  UNL     1     -35.567   6.014   4.309  1.00 20.00     0.172 C 
HETATM    7  N7  UNL     1     -31.574   4.690   0.571  1.00 20.00    -0.192 NA
HETATM    8  O8  UNL     1     -34.921   4.742   4.466  1.00 20.00    -0.387 OA
ENDROOT
TORSDOF 0
ENDMDL
MODEL 4
REMARK VINA RESULT:      -0.9      2.688      3.761
REMARK  0 active torsions:
REMARK  status: ('A' for Active; 'I' for Inactive)
ROOT
HETATM    1  C1  UNL     1     -31.975   8.051   1.688  1.00 20.00     0.088 C 
HETATM    2  C2  UNL     1     -33.540   7.199   3.308  1.00 20.00    -0.044 C 
HETATM    3  C3  UNL     1     -32.915   8.232   2.736  1.00 20.00     0.098 C 
HETATM    4  C4  UNL     1     -34.538   7.285   4.409  1.00 20.00     0.063 C 
HETATM    5  C5  UNL     1     -33.418   5.772   2.891  1.00 20.00     0.202 C 
HETATM    6  C6  UNL     1     -35.329   6.016   4.162  1.00 20.00     0.172 C 
HETATM    7  N7  UNL     1     -31.206   7.907   0.829  1.00 20.00    -0.192 NA
HETATM    8  O8  UNL     1     -34.372   5.054   3.695  1.00 20.00    -0.387 OA
ENDROOT
TORSDOF 0
ENDMDL
MODEL 5
REMARK VINA RESULT:      -0.9      1.649      2.007
REMARK  0 active torsions:
REMARK  status: ('A' for Active; 'I' for Inactive)
ROOT
HETATM    1  C1  UNL     1     -33.867   3.692   4.308  1.00 20.00     0.088 C 
HETATM    2  C2  UNL     1     -33.823   5.921   3.397  1.00 20.00    -0.044 C 
HETATM    3  C3  UNL     1     -34.255   5.058   4.320  1.00 20.00     0.098 C 
HETATM    4  C4  UNL     1     -34.170   7.367   3.324  1.00 20.00     0.063 C 
HETATM    5  C5  UNL     1     -32.841   5.616   2.316  1.00 20.00     0.202 C 
HETATM    6  C6  UNL     1     -32.957   7.903   2.593  1.00 20.00     0.172 C 
HETATM    7  N7  UNL     1     -33.552   2.574   4.303  1.00 20.00    -0.192 NA
HETATM    8  O8  UNL     1     -32.580   6.874   1.667  1.00 20.00    -0.387 OA
ENDROOT
TORSDOF 0
ENDMDL
MODEL 6
REMARK VINA RESULT:      -0.4      2.962      3.883
REMARK  0 active torsions:
REMARK  status: ('A' for Active; 'I' for Inactive)
ROOT
HETATM    1  C1  UNL     1     -32.257   9.319   0.654  1.00 20.00     0.088 C 
HETATM    2  C2  UNL     1     -32.956   7.809   2.395  1.00 20.00    -0.044 C 
HETATM    3  C3  UNL     1     -32.733   9.053   1.965  1.00 20.00     0.098 C 
HETATM    4  C4  UNL     1     -33.453   7.428   3.746  1.00 20.00     0.063 C 
HETATM    5  C5  UNL     1     -32.829   6.571   1.573  1.00 20.00     0.202 C 
HETATM    6  C6  UNL     1     -34.114   6.102   3.432  1.00 20.00     0.172 C 
HETATM    7  N7  UNL     1     -31.868   9.539  -0.418  1.00 20.00    -0.192 NA
HETATM    8  O8  UNL     1     -33.301   5.501   2.413  1.00 20.00    -0.387 OA
ENDROOT
TORSDOF 0
ENDMDL
MODEL 7
REMARK VINA RESULT:      -0.3      2.438      3.125
REMARK  0 active torsions:
REMARK  status: ('A' for Active; 'I' for Inactive)
ROOT
HETATM    1  C1  UNL     1     -33.380   7.408   3.157  1.00 20.00     0.088 C 
HETATM    2  C2  UNL     1     -32.301   8.555   1.335  1.00 20.00    -0.044 C 
HETATM    3  C3  UNL     1     -32.505   7.439   2.039  1.00 20.00     0.098 C 
HETATM    4  C4  UNL     1     -31.407   8.689   0.152  1.00 20.00     0.063 C 
HETATM    5  C5  UNL     1     -32.997   9.857   1.550  1.00 20.00     0.202 C 
HETATM    6  C6  UNL     1     -32.071   9.849  -0.563  1.00 20.00     0.172 C 
HETATM    7  N7  UNL     1     -34.095   7.379   4.071  1.00 20.00    -0.192 NA
HETATM    8  O8  UNL     1     -32.560  10.709   0.476  1.00 20.00    -0.387 OA
ENDROOT
TORSDOF 0
ENDMDL
MODEL 8
REMARK VINA RESULT:      -0.3      1.305      1.723
REMARK  0 active torsions:
REMARK  status: ('A' for Active; 'I' for Inactive)
ROOT
HETATM    1  C1  UNL     1     -34.683   5.088   3.833  1.00 20.00     0.088 C 
HETATM    2  C2  UNL     1     -33.035   6.320   2.581  1.00 20.00    -0.044 C 
HETATM    3  C3  UNL     1     -33.771   5.218   2.753  1.00 20.00     0.098 C 
HETATM    4  C4  UNL     1     -32.055   6.551   1.484  1.00 20.00     0.063 C 
HETATM    5  C5  UNL     1     -33.120   7.558   3.407  1.00 20.00     0.202 C 
HETATM    6  C6  UNL     1     -32.077   8.064   1.413  1.00 20.00     0.172 C 
HETATM    7  N7  UNL     1     -35.430   4.979   4.715  1.00 20.00    -0.192 NA
HETATM    8  O8  UNL     1     -32.251   8.509   2.766  1.00 20.00    -0.387 OA
ENDROOT
TORSDOF 0
ENDMDL
MODEL 9
REMARK VINA RESULT:      -0.2      3.038      4.047
REMARK  0 active torsions:
REMARK  status: ('A' for Active; 'I' for Inactive)
ROOT
HETATM    1  C1  UNL     1     -32.213   9.196   0.735  1.00 20.00     0.088 C 
HETATM    2  C2  UNL     1     -32.790   7.056   1.677  1.00 20.00    -0.044 C 
HETATM    3  C3  UNL     1     -32.078   7.785   0.813  1.00 20.00     0.098 C 
HETATM    4  C4  UNL     1     -32.721   5.578   1.835  1.00 20.00     0.063 C 
HETATM    5  C5  UNL     1     -33.726   7.598   2.705  1.00 20.00     0.202 C 
HETATM    6  C6  UNL     1     -33.160   5.436   3.278  1.00 20.00     0.172 C 
HETATM    7  N7  UNL     1     -32.320  10.351   0.669  1.00 20.00    -0.192 NA
HETATM    8  O8  UNL     1     -34.143   6.460   3.482  1.00 20.00    -0.387 OA
ENDROOT
TORSDOF 0
ENDMDL
