MODEL 1
REMARK VINA RESULT:      -1.1      0.000      0.000
REMARK  1 active torsions:
REMARK  status: ('A' for Active; 'I' for Inactive)
REMARK    1  A    between atoms: C4_4  and  S6_6 
ROOT
HETATM    1  C1  UNL     1     -34.049   7.500   3.753  1.00 20.00     0.043 C 
HETATM    2  C2  UNL     1     -34.934   6.338   4.158  1.00 20.00     0.168 C 
HETATM    3  C3  UNL     1     -33.280   5.530   2.725  1.00 20.00     0.182 C 
HETATM    4  C4  UNL     1     -33.488   7.006   2.440  1.00 20.00     0.070 C 
HETATM    5  O5  UNL     1     -34.307   5.149   3.658  1.00 20.00    -0.390 OA
ENDROOT
BRANCH   4   6
HETATM    6  S6  UNL     1     -31.971   7.858   1.947  1.00 20.00    -0.175 SA
HETATM    7  H14 UNL     1     -31.364   7.741   3.135  1.00 20.00     0.102 HD
ENDBRANCH   4   6
TORSDOF 1
ENDMDL
MODEL 2
REMARK VINA RESULT:      -0.9      2.403      2.806
REMARK  1 active torsions:
REMARK  status: ('A' for Active; 'I' for Inactive)
REMARK    1  A    between atoms: C4_4  and  S6_6 
ROOT
HETATM    1  C1  UNL     1     -33.235   7.989   2.925  1.00 20.00     0.043 C 
HETATM    2  C2  UNL     1     -32.031   7.863   2.012  1.00 20.00     0.168 C 
HETATM    3  C3  UNL     1     -33.171   5.827   1.999  1.00 20.00     0.182 C 
HETATM    4  C4  UNL     1     -33.477   6.545   3.301  1.00 20.00     0.070 C 
HETATM    5  O5  UNL     1     -32.154   6.602   1.338  1.00 20.00    -0.390 OA
ENDROOT
BRANCH   4   6
HETATM    6  S6  UNL     1     -35.152   6.238   3.907  1.00 20.00    -0.175 SA
HETATM    7  H14 UNL     1     -35.755   6.415   2.724  1.00 20.00     0.102 HD
ENDBRANCH   4   6
TORSDOF 1
ENDMDL
MODEL 3
REMARK VINA RESULT:      -0.6      2.503      3.179
REMARK  1 active torsions:
REMARK  status: ('A' for Active; 'I' for Inactive)
REMARK    1  A    between atoms: C4_4  and  S6_6 
ROOT
HETATM    1  C1  UNL     1     -33.047   6.037   2.057  1.00 20.00     0.043 C 
HETATM    2  C2  UNL     1     -32.067   7.073   1.546  1.00 20.00     0.168 C 
HETATM    3  C3  UNL     1     -33.061   7.905   3.486  1.00 20.00     0.182 C 
HETATM    4  C4  UNL     1     -34.002   6.896   2.855  1.00 20.00     0.070 C 
HETATM    5  O5  UNL     1     -31.982   8.092   2.552  1.00 20.00    -0.390 OA
ENDROOT
BRANCH   4   6
HETATM    6  S6  UNL     1     -34.960   5.959   4.068  1.00 20.00    -0.175 SA
HETATM    7  H14 UNL     1     -35.881   6.910   4.272  1.00 20.00     0.102 HD
ENDBRANCH   4   6
TORSDOF 1
ENDMDL
MODEL 4
REMARK VINA RESULT:      -0.6      0.968      1.661
REMARK  1 active torsions:
REMARK  status: ('A' for Active; 'I' for Inactive)
REMARK    1  A    between atoms: C4_4  and  S6_6 
ROOT
HETATM    1  C1  UNL     1     -33.568   5.847   2.555  1.00 20.00     0.043 C 
HETATM    2  C2  UNL     1     -34.517   5.524   3.691  1.00 20.00     0.168 C 
HETATM    3  C3  UNL     1     -34.035   7.805   3.772  1.00 20.00     0.182 C 
HETATM    4  C4  UNL     1     -32.890   7.093   3.078  1.00 20.00     0.070 C 
HETATM    5  O5  UNL     1     -34.909   6.776   4.271  1.00 20.00    -0.390 OA
ENDROOT
BRANCH   4   6
HETATM    6  S6  UNL     1     -32.118   8.083   1.777  1.00 20.00    -0.175 SA
HETATM    7  H14 UNL     1     -32.532   9.266   2.250  1.00 20.00     0.102 HD
ENDBRANCH   4   6
TORSDOF 1
ENDMDL
MODEL 5
REMARK VINA RESULT:      -0.6      1.285      1.957
REMARK  1 active torsions:
REMARK  status: ('A' for Active; 'I' for Inactive)
REMARK    1  A    between atoms: C4_4  and  S6_6 
ROOT
HETATM    1  C1  UNL     1     -32.814   6.173   1.566  1.00 20.00     0.043 C 
HETATM    2  C2  UNL     1     -33.490   5.439   2.707  1.00 20.00     0.168 C 
HETATM    3  C3  UNL     1     -33.552   7.724   3.173  1.00 20.00     0.182 C 
HETATM    4  C4  UNL     1     -32.381   7.451   2.248  1.00 20.00     0.070 C 
HETATM    5  O5  UNL     1     -34.079   6.439   3.550  1.00 20.00    -0.390 OA
ENDROOT
BRANCH   4   6
HETATM    6  S6  UNL     1     -32.056   8.801   1.090  1.00 20.00    -0.175 SA
HETATM    7  H14 UNL     1     -32.884   9.677   1.675  1.00 20.00     0.102 HD
ENDBRANCH   4   6
TORSDOF 1
ENDMDL
MODEL 6
REMARK VINA RESULT:      -0.3      1.382      1.541
REMARK  1 active torsions:
REMARK  status: ('A' for Active; 'I' for Inactive)
REMARK    1  A    between atoms: C4_4  and  S6_6 
ROOT
HETATM    1  C1  UNL     1     -32.941   7.635   3.197  1.00 20.00     0.043 C 
HETATM    2  C2  UNL     1     -34.100   7.869   4.144  1.00 20.00     0.168 C 
HETATM    3  C3  UNL     1     -34.290   5.710   3.280  1.00 20.00     0.182 C 
HETATM    4  C4  UNL     1     -33.502   6.557   2.298  1.00 20.00     0.070 C 
HETATM    5  O5  UNL     1     -34.769   6.609   4.296  1.00 20.00    -0.390 OA
ENDROOT
BRANCH   4   6
HETATM    6  S6  UNL     1     -32.225   5.627   1.418  1.00 20.00    -0.175 SA
HETATM    7  H14 UNL     1     -31.819   4.923   2.483  1.00 20.00     0.102 HD
ENDBRANCH   4   6
TORSDOF 1
ENDMDL
MODEL 7
REMARK VINA RESULT:      -0.0      2.640      3.101
REMARK  1 active torsions:
REMARK  status: ('A' for Active; 'I' for Inactive)
REMARK    1  A    between atoms: C4_4  and  S6_6 
ROOT
HETATM    1  C1  UNL     1     -33.290   5.533   3.410  1.00 20.00     0.043 C 
HETATM    2  C2  UNL     1     -34.329   6.620   3.222  1.00 20.00     0.168 C 
HETATM    3  C3  UNL     1     -35.226   4.990   4.630  1.00 20.00     0.182 C 
HETATM    4  C4  UNL     1     -34.157   4.348   3.764  1.00 20.00     0.070 C 
HETATM    5  O5  UNL     1     -35.399   6.329   4.132  1.00 20.00    -0.390 OA
ENDROOT
BRANCH   4   6
HETATM    6  S6  UNL     1     -33.253   3.030   4.609  1.00 20.00    -0.175 SA
HETATM    7  H14 UNL     1     -32.633   3.835   5.482  1.00 20.00     0.102 HD
ENDBRANCH   4   6
TORSDOF 1
ENDMDL
MODEL 8
REMARK VINA RESULT:       0.0      1.944      2.409
REMARK  1 active torsions:
REMARK  status: ('A' for Active; 'I' for Inactive)
REMARK    1  A    between atoms: C4_4  and  S6_6 
ROOT
HETATM    1  C1  UNL     1     -32.008   7.524   1.924  1.00 20.00     0.043 C 
HETATM    2  C2  UNL     1     -32.819   8.354   2.897  1.00 20.00     0.168 C 
HETATM    3  C3  UNL     1     -33.598   6.156   2.988  1.00 20.00     0.182 C 
HETATM    4  C4  UNL     1     -32.962   6.389   1.630  1.00 20.00     0.070 C 
HETATM    5  O5  UNL     1     -33.631   7.437   3.644  1.00 20.00    -0.390 OA
ENDROOT
BRANCH   4   6
HETATM    6  S6  UNL     1     -32.141   4.921   0.967  1.00 20.00    -0.175 SA
HETATM    7  H14 UNL     1     -31.297   4.767   1.995  1.00 20.00     0.102 HD
ENDBRANCH   4   6
TORSDOF 1
ENDMDL
MODEL 9
REMARK VINA RESULT:       0.0      1.630      1.937
REMARK  1 active torsions:
REMARK  status: ('A' for Active; 'I' for Inactive)
REMARK    1  A    between atoms: C4_4  and  S6_6 
ROOT
HETATM    1  C1  UNL     1     -34.552   5.728   3.192  1.00 20.00     0.043 C 
HETATM    2  C2  UNL     1     -34.923   6.617   4.362  1.00 20.00     0.168 C 
HETATM    3  C3  UNL     1     -33.231   7.674   3.152  1.00 20.00     0.182 C 
HETATM    4  C4  UNL     1     -33.137   6.178   2.911  1.00 20.00     0.070 C 
HETATM    5  O5  UNL     1     -34.226   7.857   4.175  1.00 20.00    -0.390 OA
ENDROOT
BRANCH   4   6
HETATM    6  S6  UNL     1     -32.573   5.759   1.245  1.00 20.00    -0.175 SA
HETATM    7  H14 UNL     1     -32.984   4.485   1.285  1.00 20.00     0.102 HD
ENDBRANCH   4   6
TORSDOF 1
ENDMDL
