MODEL 1
REMARK VINA RESULT:      -0.0      0.000      0.000
REMARK  4 active torsions:
REMARK  status: ('A' for Active; 'I' for Inactive)
REMARK    1  A    between atoms: C4_4  and  C7_7 
REMARK    2  A    between atoms: C8_8  and  C10_10 
REMARK    3  A    between atoms: C9_9  and  C10_10 
REMARK    4  A    between atoms: C9_9  and  N11_11 
ROOT
HETATM    1  C1  UNL     1     -35.330   5.504   4.380  1.00 20.00     0.035 C 
HETATM    2  C2  UNL     1     -34.741   6.900   4.362  1.00 20.00     0.235 C 
HETATM    3  C3  UNL     1     -33.865   5.578   2.491  1.00 20.00     0.240 C 
HETATM    4  C4  UNL     1     -34.304   4.663   3.631  1.00 20.00     0.027 C 
HETATM    5  N11 UNL     1     -34.081   6.993   3.003  1.00 20.00    -0.070 N 
HETATM    6  H33 UNL     1     -34.762   7.440   2.372  1.00 20.00     0.279 HD
ENDROOT
BRANCH   5   7
HETATM    7  C9  UNL     1     -32.852   7.845   2.990  1.00 20.00     0.239 C 
BRANCH   7   8
HETATM    8  C10 UNL     1     -32.389   8.164   1.561  1.00 20.00     0.007 C 
HETATM    9  C6  UNL     1     -31.014   7.551   1.267  1.00 20.00     0.011 C 
BRANCH   8  10
HETATM   10  C8  UNL     1     -32.371   9.665   1.212  1.00 20.00     0.001 C 
HETATM   11  C5  UNL     1     -32.606   9.954  -0.263  1.00 20.00     0.005 C 
ENDBRANCH   8  10
ENDBRANCH   7   8
ENDBRANCH   5   7
BRANCH   4  12
HETATM   12  C7  UNL     1     -33.130   4.249   4.518  1.00 20.00     0.121 C 
HETATM   13 CL12 UNL     1     -33.169   2.500   4.818  1.00 20.00    -0.130 Cl
ENDBRANCH   4  12
TORSDOF 4
ENDMDL
MODEL 2
REMARK VINA RESULT:       0.6      2.815      5.487
REMARK  4 active torsions:
REMARK  status: ('A' for Active; 'I' for Inactive)
REMARK    1  A    between atoms: C4_4  and  C7_7 
REMARK    2  A    between atoms: C8_8  and  C10_10 
REMARK    3  A    between atoms: C9_9  and  C10_10 
REMARK    4  A    between atoms: C9_9  and  N11_11 
ROOT
HETATM    1  C1  UNL     1     -31.912   8.622   2.842  1.00 20.00     0.035 C 
HETATM    2  C2  UNL     1     -33.028   7.731   3.348  1.00 20.00     0.235 C 
HETATM    3  C3  UNL     1     -31.832   6.641   1.505  1.00 20.00     0.240 C 
HETATM    4  C4  UNL     1     -31.693   8.157   1.408  1.00 20.00     0.027 C 
HETATM    5  N11 UNL     1     -32.742   6.395   2.697  1.00 20.00    -0.070 N 
HETATM    6  H33 UNL     1     -32.201   5.842   3.379  1.00 20.00     0.279 HD
ENDROOT
BRANCH   5   7
HETATM    7  C9  UNL     1     -33.972   5.606   2.378  1.00 20.00     0.239 C 
BRANCH   7   8
HETATM    8  C10 UNL     1     -34.439   4.760   3.571  1.00 20.00     0.007 C 
HETATM    9  C6  UNL     1     -35.394   5.547   4.477  1.00 20.00     0.011 C 
BRANCH   8  10
HETATM   10  C8  UNL     1     -33.299   4.161   4.418  1.00 20.00     0.001 C 
HETATM   11  C5  UNL     1     -33.350   2.644   4.528  1.00 20.00     0.005 C 
ENDBRANCH   8  10
ENDBRANCH   7   8
ENDBRANCH   5   7
BRANCH   4  12
HETATM   12  C7  UNL     1     -32.705   8.764   0.437  1.00 20.00     0.121 C 
HETATM   13 CL12 UNL     1     -32.496  10.524   0.345  1.00 20.00    -0.130 Cl
ENDBRANCH   4  12
TORSDOF 4
ENDMDL
MODEL 3
REMARK VINA RESULT:       1.4      1.055      1.284
REMARK  4 active torsions:
REMARK  status: ('A' for Active; 'I' for Inactive)
REMARK    1  A    between atoms: C4_4  and  C7_7 
REMARK    2  A    between atoms: C8_8  and  C10_10 
REMARK    3  A    between atoms: C9_9  and  C10_10 
REMARK    4  A    between atoms: C9_9  and  N11_11 
ROOT
HETATM    1  C1  UNL     1     -34.675   6.731   4.194  1.00 20.00     0.035 C 
HETATM    2  C2  UNL     1     -33.691   7.857   3.952  1.00 20.00     0.235 C 
HETATM    3  C3  UNL     1     -33.936   6.486   1.933  1.00 20.00     0.240 C 
HETATM    4  C4  UNL     1     -34.276   5.669   3.176  1.00 20.00     0.027 C 
HETATM    5  N11 UNL     1     -33.496   7.845   2.451  1.00 20.00    -0.070 N 
HETATM    6  H33 UNL     1     -34.150   8.540   2.061  1.00 20.00     0.279 HD
ENDROOT
BRANCH   5   7
HETATM    7  C9  UNL     1     -32.123   8.252   2.020  1.00 20.00     0.239 C 
BRANCH   7   8
HETATM    8  C10 UNL     1     -32.041   8.486   0.505  1.00 20.00     0.007 C 
HETATM    9  C6  UNL     1     -30.590   8.457   0.011  1.00 20.00     0.011 C 
BRANCH   8  10
HETATM   10  C8  UNL     1     -32.728   9.776   0.016  1.00 20.00     0.001 C 
HETATM   11  C5  UNL     1     -32.679  10.915   1.024  1.00 20.00     0.005 C 
ENDBRANCH   8  10
ENDBRANCH   7   8
ENDBRANCH   5   7
BRANCH   4  12
HETATM   12  C7  UNL     1     -33.094   4.824   3.648  1.00 20.00     0.121 C 
HETATM   13 CL12 UNL     1     -33.668   3.347   4.446  1.00 20.00    -0.130 Cl
ENDBRANCH   4  12
TORSDOF 4
ENDMDL
MODEL 4
REMARK VINA RESULT:       1.4      0.922      1.852
REMARK  4 active torsions:
REMARK  status: ('A' for Active; 'I' for Inactive)
REMARK    1  A    between atoms: C4_4  and  C7_7 
REMARK    2  A    between atoms: C8_8  and  C10_10 
REMARK    3  A    between atoms: C9_9  and  C10_10 
REMARK    4  A    between atoms: C9_9  and  N11_11 
ROOT
HETATM    1  C1  UNL     1     -35.479   5.824   4.378  1.00 20.00     0.035 C 
HETATM    2  C2  UNL     1     -34.663   7.100   4.327  1.00 20.00     0.235 C 
HETATM    3  C3  UNL     1     -33.871   5.510   2.636  1.00 20.00     0.240 C 
HETATM    4  C4  UNL     1     -34.551   4.771   3.784  1.00 20.00     0.027 C 
HETATM    5  N11 UNL     1     -33.886   6.977   3.034  1.00 20.00    -0.070 N 
HETATM    6  H33 UNL     1     -34.427   7.478   2.314  1.00 20.00     0.279 HD
ENDROOT
BRANCH   5   7
HETATM    7  C9  UNL     1     -32.534   7.615   3.082  1.00 20.00     0.239 C 
BRANCH   7   8
HETATM    8  C10 UNL     1     -31.879   7.680   1.696  1.00 20.00     0.007 C 
HETATM    9  C6  UNL     1     -32.238   8.981   0.966  1.00 20.00     0.011 C 
BRANCH   8  10
HETATM   10  C8  UNL     1     -32.184   6.475   0.784  1.00 20.00     0.001 C 
HETATM   11  C5  UNL     1     -31.391   5.225   1.137  1.00 20.00     0.005 C 
ENDBRANCH   8  10
ENDBRANCH   7   8
ENDBRANCH   5   7
BRANCH   4  12
HETATM   12  C7  UNL     1     -33.542   4.243   4.803  1.00 20.00     0.121 C 
HETATM   13 CL12 UNL     1     -33.272   2.505   4.562  1.00 20.00    -0.130 Cl
ENDBRANCH   4  12
TORSDOF 4
ENDMDL
MODEL 5
REMARK VINA RESULT:       1.5      2.913      5.195
REMARK  4 active torsions:
REMARK  status: ('A' for Active; 'I' for Inactive)
REMARK    1  A    between atoms: C4_4  and  C7_7 
REMARK    2  A    between atoms: C8_8  and  C10_10 
REMARK    3  A    between atoms: C9_9  and  C10_10 
REMARK    4  A    between atoms: C9_9  and  N11_11 
ROOT
HETATM    1  C1  UNL     1     -31.494   8.819   2.400  1.00 20.00     0.035 C 
HETATM    2  C2  UNL     1     -32.458   7.926   3.154  1.00 20.00     0.235 C 
HETATM    3  C3  UNL     1     -31.725   6.836   1.083  1.00 20.00     0.240 C 
HETATM    4  C4  UNL     1     -31.616   8.353   0.955  1.00 20.00     0.027 C 
HETATM    5  N11 UNL     1     -32.331   6.590   2.455  1.00 20.00    -0.070 N 
HETATM    6  H33 UNL     1     -31.644   6.038   2.991  1.00 20.00     0.279 HD
ENDROOT
BRANCH   5   7
HETATM    7  C9  UNL     1     -33.600   5.799   2.433  1.00 20.00     0.239 C 
BRANCH   7   8
HETATM    8  C10 UNL     1     -34.033   5.367   3.841  1.00 20.00     0.007 C 
HETATM    9  C6  UNL     1     -33.899   3.851   4.029  1.00 20.00     0.011 C 
BRANCH   8  10
HETATM   10  C8  UNL     1     -35.453   5.815   4.242  1.00 20.00     0.001 C 
HETATM   11  C5  UNL     1     -36.049   6.863   3.314  1.00 20.00     0.005 C 
ENDBRANCH   8  10
ENDBRANCH   7   8
ENDBRANCH   5   7
BRANCH   4  12
HETATM   12  C7  UNL     1     -32.829   8.957   0.248  1.00 20.00     0.121 C 
HETATM   13 CL12 UNL     1     -32.762  10.729   0.312  1.00 20.00    -0.130 Cl
ENDBRANCH   4  12
TORSDOF 4
ENDMDL
MODEL 6
REMARK VINA RESULT:       1.9      1.482      1.811
REMARK  4 active torsions:
REMARK  status: ('A' for Active; 'I' for Inactive)
REMARK    1  A    between atoms: C4_4  and  C7_7 
REMARK    2  A    between atoms: C8_8  and  C10_10 
REMARK    3  A    between atoms: C9_9  and  C10_10 
REMARK    4  A    between atoms: C9_9  and  N11_11 
ROOT
HETATM    1  C1  UNL     1     -34.233   7.403   4.915  1.00 20.00     0.035 C 
HETATM    2  C2  UNL     1     -32.928   7.991   4.417  1.00 20.00     0.235 C 
HETATM    3  C3  UNL     1     -34.329   7.298   2.528  1.00 20.00     0.240 C 
HETATM    4  C4  UNL     1     -34.684   6.496   3.776  1.00 20.00     0.027 C 
HETATM    5  N11 UNL     1     -33.164   8.186   2.935  1.00 20.00    -0.070 N 
HETATM    6  H33 UNL     1     -33.472   9.161   2.809  1.00 20.00     0.279 HD
ENDROOT
BRANCH   5   7
HETATM    7  C9  UNL     1     -31.935   8.008   2.102  1.00 20.00     0.239 C 
BRANCH   7   8
HETATM    8  C10 UNL     1     -32.088   8.635   0.710  1.00 20.00     0.007 C 
HETATM    9  C6  UNL     1     -30.792   8.520  -0.103  1.00 20.00     0.011 C 
BRANCH   8  10
HETATM   10  C8  UNL     1     -32.568  10.100   0.714  1.00 20.00     0.001 C 
HETATM   11  C5  UNL     1     -33.019  10.600  -0.650  1.00 20.00     0.005 C 
ENDBRANCH   8  10
ENDBRANCH   7   8
ENDBRANCH   5   7
BRANCH   4  12
HETATM   12  C7  UNL     1     -33.986   5.137   3.802  1.00 20.00     0.121 C 
HETATM   13 CL12 UNL     1     -33.083   4.876   2.297  1.00 20.00    -0.130 Cl
ENDBRANCH   4  12
TORSDOF 4
ENDMDL
MODEL 7
REMARK VINA RESULT:       2.0      2.105      5.103
REMARK  4 active torsions:
REMARK  status: ('A' for Active; 'I' for Inactive)
REMARK    1  A    between atoms: C4_4  and  C7_7 
REMARK    2  A    between atoms: C8_8  and  C10_10 
REMARK    3  A    between atoms: C9_9  and  C10_10 
REMARK    4  A    between atoms: C9_9  and  N11_11 
ROOT
HETATM    1  C1  UNL     1     -31.915   8.128   1.152  1.00 20.00     0.035 C 
HETATM    2  C2  UNL     1     -31.798   6.631   1.350  1.00 20.00     0.235 C 
HETATM    3  C3  UNL     1     -33.693   7.518   2.629  1.00 20.00     0.240 C 
HETATM    4  C4  UNL     1     -32.650   8.607   2.397  1.00 20.00     0.027 C 
HETATM    5  N11 UNL     1     -33.101   6.256   2.023  1.00 20.00    -0.070 N 
HETATM    6  H33 UNL     1     -33.744   5.951   1.277  1.00 20.00     0.279 HD
ENDROOT
BRANCH   5   7
HETATM    7  C9  UNL     1     -32.976   5.114   2.981  1.00 20.00     0.239 C 
BRANCH   7   8
HETATM    8  C10 UNL     1     -34.319   4.761   3.633  1.00 20.00     0.007 C 
HETATM    9  C6  UNL     1     -35.088   6.019   4.052  1.00 20.00     0.011 C 
BRANCH   8  10
HETATM   10  C8  UNL     1     -34.217   3.795   4.830  1.00 20.00     0.001 C 
HETATM   11  C5  UNL     1     -33.043   2.832   4.742  1.00 20.00     0.005 C 
ENDBRANCH   8  10
ENDBRANCH   7   8
ENDBRANCH   5   7
BRANCH   4  12
HETATM   12  C7  UNL     1     -31.719   8.773   3.598  1.00 20.00     0.121 C 
HETATM   13 CL12 UNL     1     -32.589   8.436   5.107  1.00 20.00    -0.130 Cl
ENDBRANCH   4  12
TORSDOF 4
ENDMDL
MODEL 8
REMARK VINA RESULT:       2.5      1.835      4.503
REMARK  4 active torsions:
REMARK  status: ('A' for Active; 'I' for Inactive)
REMARK    1  A    between atoms: C4_4  and  C7_7 
REMARK    2  A    between atoms: C8_8  and  C10_10 
REMARK    3  A    between atoms: C9_9  and  C10_10 
REMARK    4  A    between atoms: C9_9  and  N11_11 
ROOT
HETATM    1  C1  UNL     1     -32.400   8.579   1.178  1.00 20.00     0.035 C 
HETATM    2  C2  UNL     1     -33.520   8.810   2.173  1.00 20.00     0.235 C 
HETATM    3  C3  UNL     1     -31.895   7.208   3.071  1.00 20.00     0.240 C 
HETATM    4  C4  UNL     1     -31.861   7.202   1.546  1.00 20.00     0.027 C 
HETATM    5  N11 UNL     1     -33.004   8.178   3.447  1.00 20.00    -0.070 N 
HETATM    6  H33 UNL     1     -32.568   8.932   3.998  1.00 20.00     0.279 HD
ENDROOT
BRANCH   5   7
HETATM    7  C9  UNL     1     -34.078   7.582   4.301  1.00 20.00     0.239 C 
BRANCH   7   8
HETATM    8  C10 UNL     1     -34.750   6.380   3.624  1.00 20.00     0.007 C 
HETATM    9  C6  UNL     1     -36.151   6.735   3.112  1.00 20.00     0.011 C 
BRANCH   8  10
HETATM   10  C8  UNL     1     -34.824   5.111   4.497  1.00 20.00     0.001 C 
HETATM   11  C5  UNL     1     -33.888   4.001   4.044  1.00 20.00     0.005 C 
ENDBRANCH   8  10
ENDBRANCH   7   8
ENDBRANCH   5   7
BRANCH   4  12
HETATM   12  C7  UNL     1     -32.704   6.071   0.958  1.00 20.00     0.121 C 
HETATM   13 CL12 UNL     1     -31.733   4.593   0.802  1.00 20.00    -0.130 Cl
ENDBRANCH   4  12
TORSDOF 4
ENDMDL
MODEL 9
REMARK VINA RESULT:       2.5      1.746      2.584
REMARK  4 active torsions:
REMARK  status: ('A' for Active; 'I' for Inactive)
REMARK    1  A    between atoms: C4_4  and  C7_7 
REMARK    2  A    between atoms: C8_8  and  C10_10 
REMARK    3  A    between atoms: C9_9  and  C10_10 
REMARK    4  A    between atoms: C9_9  and  N11_11 
ROOT
HETATM    1  C1  UNL     1     -32.915   5.415   3.053  1.00 20.00     0.035 C 
HETATM    2  C2  UNL     1     -32.940   5.736   1.572  1.00 20.00     0.235 C 
HETATM    3  C3  UNL     1     -32.769   7.796   2.891  1.00 20.00     0.240 C 
HETATM    4  C4  UNL     1     -33.424   6.691   3.713  1.00 20.00     0.027 C 
HETATM    5  N11 UNL     1     -32.538   7.194   1.514  1.00 20.00    -0.070 N 
HETATM    6  H33 UNL     1     -31.522   7.215   1.344  1.00 20.00     0.279 HD
ENDROOT
BRANCH   5   7
HETATM    7  C9  UNL     1     -33.182   7.951   0.397  1.00 20.00     0.239 C 
BRANCH   7   8
HETATM    8  C10 UNL     1     -32.209   8.936  -0.265  1.00 20.00     0.007 C 
HETATM    9  C6  UNL     1     -30.828   8.893   0.399  1.00 20.00     0.011 C 
BRANCH   8  10
HETATM   10  C8  UNL     1     -32.711  10.393  -0.321  1.00 20.00     0.001 C 
HETATM   11  C5  UNL     1     -32.768  11.074   1.038  1.00 20.00     0.005 C 
ENDBRANCH   8  10
ENDBRANCH   7   8
ENDBRANCH   5   7
BRANCH   4  12
HETATM   12  C7  UNL     1     -34.949   6.789   3.694  1.00 20.00     0.121 C 
HETATM   13 CL12 UNL     1     -35.671   5.355   4.452  1.00 20.00    -0.130 Cl
ENDBRANCH   4  12
TORSDOF 4
ENDMDL
