MODEL 1
REMARK VINA RESULT:      -1.5      0.000      0.000
REMARK  3 active torsions:
REMARK  status: ('A' for Active; 'I' for Inactive)
REMARK    1  A    between atoms: C4_4  and  C6_6 
REMARK    2  A    between atoms: C7_7  and  C8_8 
REMARK    3  A    between atoms: C8_8  and  N9_9 
ROOT
HETATM    1  C1  UNL     1     -34.545   7.115   4.138  1.00 20.00     0.032 C 
HETATM    2  C2  UNL     1     -34.291   5.850   3.324  1.00 20.00     0.038 C 
HETATM    3  C3  UNL     1     -33.444   8.079   3.729  1.00 20.00     0.273 C 
HETATM    4  C4  UNL     1     -33.054   6.156   2.478  1.00 20.00     0.236 C 
HETATM    5  N9  UNL     1     -33.079   7.623   2.386  1.00 20.00     0.094 N 
ENDROOT
BRANCH   5   6
HETATM    6  C8  UNL     1     -31.809   8.196   1.955  1.00 20.00     0.272 C 
BRANCH   6   7
HETATM    7  C7  UNL     1     -31.877   8.757   0.540  1.00 20.00     0.026 C 
HETATM    8  C5  UNL     1     -32.564  10.114   0.478  1.00 20.00     0.007 C 
ENDBRANCH   6   7
ENDBRANCH   5   6
BRANCH   4   9
HETATM    9  C6  UNL     1     -33.112   5.465   1.122  1.00 20.00     0.150 C 
HETATM   10 CL10 UNL     1     -31.532   4.763   0.723  1.00 20.00    -0.128 Cl
ENDBRANCH   4   9
TORSDOF 3
ENDMDL
MODEL 2
REMARK VINA RESULT:      -1.4      1.943      2.738
REMARK  3 active torsions:
REMARK  status: ('A' for Active; 'I' for Inactive)
REMARK    1  A    between atoms: C4_4  and  C6_6 
REMARK    2  A    between atoms: C7_7  and  C8_8 
REMARK    3  A    between atoms: C8_8  and  N9_9 
ROOT
HETATM    1  C1  UNL     1     -32.196   5.291   1.375  1.00 20.00     0.032 C 
HETATM    2  C2  UNL     1     -33.411   5.439   2.283  1.00 20.00     0.038 C 
HETATM    3  C3  UNL     1     -31.762   6.712   1.056  1.00 20.00     0.273 C 
HETATM    4  C4  UNL     1     -33.611   6.946   2.448  1.00 20.00     0.236 C 
HETATM    5  N9  UNL     1     -32.266   7.481   2.196  1.00 20.00     0.094 N 
ENDROOT
BRANCH   5   6
HETATM    6  C8  UNL     1     -32.256   8.913   1.920  1.00 20.00     0.272 C 
BRANCH   6   7
HETATM    7  C7  UNL     1     -31.994   9.220   0.451  1.00 20.00     0.026 C 
HETATM    8  C5  UNL     1     -32.771  10.430  -0.045  1.00 20.00     0.007 C 
ENDBRANCH   6   7
ENDBRANCH   5   6
BRANCH   4   9
HETATM    9  C6  UNL     1     -34.152   7.297   3.829  1.00 20.00     0.150 C 
HETATM   10 CL10 UNL     1     -35.418   6.147   4.302  1.00 20.00    -0.128 Cl
ENDBRANCH   4   9
TORSDOF 3
ENDMDL
MODEL 3
REMARK VINA RESULT:      -0.8      1.878      4.123
REMARK  3 active torsions:
REMARK  status: ('A' for Active; 'I' for Inactive)
REMARK    1  A    between atoms: C4_4  and  C6_6 
REMARK    2  A    between atoms: C7_7  and  C8_8 
REMARK    3  A    between atoms: C8_8  and  N9_9 
ROOT
HETATM    1  C1  UNL     1     -32.042   5.680   1.066  1.00 20.00     0.032 C 
HETATM    2  C2  UNL     1     -31.578   7.130   0.980  1.00 20.00     0.038 C 
HETATM    3  C3  UNL     1     -32.937   5.621   2.293  1.00 20.00     0.273 C 
HETATM    4  C4  UNL     1     -32.240   7.837   2.165  1.00 20.00     0.236 C 
HETATM    5  N9  UNL     1     -33.418   6.998   2.425  1.00 20.00     0.094 N 
ENDROOT
BRANCH   5   6
HETATM    6  C8  UNL     1     -34.015   7.231   3.735  1.00 20.00     0.272 C 
BRANCH   6   7
HETATM    7  C7  UNL     1     -35.362   6.538   3.891  1.00 20.00     0.026 C 
HETATM    8  C5  UNL     1     -35.249   5.173   4.553  1.00 20.00     0.007 C 
ENDBRANCH   6   7
ENDBRANCH   5   6
BRANCH   4   9
HETATM    9  C6  UNL     1     -32.589   9.283   1.836  1.00 20.00     0.150 C 
HETATM   10 CL10 UNL     1     -32.303   9.608   0.116  1.00 20.00    -0.128 Cl
ENDBRANCH   4   9
TORSDOF 3
ENDMDL
MODEL 4
REMARK VINA RESULT:      -0.8      1.313      3.647
REMARK  3 active torsions:
REMARK  status: ('A' for Active; 'I' for Inactive)
REMARK    1  A    between atoms: C4_4  and  C6_6 
REMARK    2  A    between atoms: C7_7  and  C8_8 
REMARK    3  A    between atoms: C8_8  and  N9_9 
ROOT
HETATM    1  C1  UNL     1     -32.089   8.363   3.206  1.00 20.00     0.032 C 
HETATM    2  C2  UNL     1     -32.095   7.627   1.871  1.00 20.00     0.038 C 
HETATM    3  C3  UNL     1     -33.356   7.912   3.915  1.00 20.00     0.273 C 
HETATM    4  C4  UNL     1     -33.369   6.780   1.882  1.00 20.00     0.236 C 
HETATM    5  N9  UNL     1     -33.628   6.603   3.318  1.00 20.00     0.094 N 
ENDROOT
BRANCH   5   6
HETATM    6  C8  UNL     1     -34.984   6.154   3.609  1.00 20.00     0.272 C 
BRANCH   6   7
HETATM    7  C7  UNL     1     -35.009   4.944   4.533  1.00 20.00     0.026 C 
HETATM    8  C5  UNL     1     -33.887   3.958   4.242  1.00 20.00     0.007 C 
ENDBRANCH   6   7
ENDBRANCH   5   6
BRANCH   4   9
HETATM    9  C6  UNL     1     -33.180   5.466   1.135  1.00 20.00     0.150 C 
HETATM   10 CL10 UNL     1     -31.466   5.008   1.122  1.00 20.00    -0.128 Cl
ENDBRANCH   4   9
TORSDOF 3
ENDMDL
MODEL 5
REMARK VINA RESULT:      -0.7      2.183      3.015
REMARK  3 active torsions:
REMARK  status: ('A' for Active; 'I' for Inactive)
REMARK    1  A    between atoms: C4_4  and  C6_6 
REMARK    2  A    between atoms: C7_7  and  C8_8 
REMARK    3  A    between atoms: C8_8  and  N9_9 
ROOT
HETATM    1  C1  UNL     1     -33.949   3.954   4.148  1.00 20.00     0.032 C 
HETATM    2  C2  UNL     1     -34.874   5.114   4.501  1.00 20.00     0.038 C 
HETATM    3  C3  UNL     1     -33.227   4.391   2.884  1.00 20.00     0.273 C 
HETATM    4  C4  UNL     1     -34.629   6.168   3.420  1.00 20.00     0.236 C 
HETATM    5  N9  UNL     1     -33.269   5.852   2.961  1.00 20.00     0.094 N 
ENDROOT
BRANCH   5   6
HETATM    6  C8  UNL     1     -32.936   6.464   1.680  1.00 20.00     0.272 C 
BRANCH   6   7
HETATM    7  C7  UNL     1     -31.850   7.525   1.808  1.00 20.00     0.026 C 
HETATM    8  C5  UNL     1     -32.192   8.808   1.066  1.00 20.00     0.007 C 
ENDBRANCH   6   7
ENDBRANCH   5   6
BRANCH   4   9
HETATM    9  C6  UNL     1     -34.769   7.583   3.968  1.00 20.00     0.150 C 
HETATM   10 CL10 UNL     1     -33.381   7.981   4.999  1.00 20.00    -0.128 Cl
ENDBRANCH   4   9
TORSDOF 3
ENDMDL
MODEL 6
REMARK VINA RESULT:      -0.5      1.921      2.262
REMARK  3 active torsions:
REMARK  status: ('A' for Active; 'I' for Inactive)
REMARK    1  A    between atoms: C4_4  and  C6_6 
REMARK    2  A    between atoms: C7_7  and  C8_8 
REMARK    3  A    between atoms: C8_8  and  N9_9 
ROOT
HETATM    1  C1  UNL     1     -35.460   6.805   4.004  1.00 20.00     0.032 C 
HETATM    2  C2  UNL     1     -35.009   5.411   4.424  1.00 20.00     0.038 C 
HETATM    3  C3  UNL     1     -34.357   7.325   3.097  1.00 20.00     0.273 C 
HETATM    4  C4  UNL     1     -33.664   5.195   3.727  1.00 20.00     0.236 C 
HETATM    5  N9  UNL     1     -33.748   6.100   2.573  1.00 20.00     0.094 N 
ENDROOT
BRANCH   5   6
HETATM    6  C8  UNL     1     -32.455   6.369   1.954  1.00 20.00     0.272 C 
BRANCH   6   7
HETATM    7  C7  UNL     1     -32.022   7.820   2.121  1.00 20.00     0.026 C 
HETATM    8  C5  UNL     1     -32.006   8.584   0.806  1.00 20.00     0.007 C 
ENDBRANCH   6   7
ENDBRANCH   5   6
BRANCH   4   9
HETATM    9  C6  UNL     1     -33.458   3.736   3.338  1.00 20.00     0.150 C 
HETATM   10 CL10 UNL     1     -33.104   2.761   4.777  1.00 20.00    -0.128 Cl
ENDBRANCH   4   9
TORSDOF 3
ENDMDL
MODEL 7
REMARK VINA RESULT:      -0.4      2.653      4.794
REMARK  3 active torsions:
REMARK  status: ('A' for Active; 'I' for Inactive)
REMARK    1  A    between atoms: C4_4  and  C6_6 
REMARK    2  A    between atoms: C7_7  and  C8_8 
REMARK    3  A    between atoms: C8_8  and  N9_9 
ROOT
HETATM    1  C1  UNL     1     -32.420   6.449   1.185  1.00 20.00     0.032 C 
HETATM    2  C2  UNL     1     -32.506   7.607   2.172  1.00 20.00     0.038 C 
HETATM    3  C3  UNL     1     -33.003   5.253   1.920  1.00 20.00     0.273 C 
HETATM    4  C4  UNL     1     -33.146   7.017   3.431  1.00 20.00     0.236 C 
HETATM    5  N9  UNL     1     -33.896   5.868   2.906  1.00 20.00     0.094 N 
ENDROOT
BRANCH   5   6
HETATM    6  C8  UNL     1     -34.289   4.915   3.937  1.00 20.00     0.272 C 
BRANCH   6   7
HETATM    7  C7  UNL     1     -33.618   3.559   3.760  1.00 20.00     0.026 C 
HETATM    8  C5  UNL     1     -33.064   3.003   5.064  1.00 20.00     0.007 C 
ENDBRANCH   6   7
ENDBRANCH   5   6
BRANCH   4   9
HETATM    9  C6  UNL     1     -34.024   8.035   4.149  1.00 20.00     0.150 C 
HETATM   10 CL10 UNL     1     -33.263   8.535   5.671  1.00 20.00    -0.128 Cl
ENDBRANCH   4   9
TORSDOF 3
ENDMDL
MODEL 8
REMARK VINA RESULT:      -0.3      2.181      4.183
REMARK  3 active torsions:
REMARK  status: ('A' for Active; 'I' for Inactive)
REMARK    1  A    between atoms: C4_4  and  C6_6 
REMARK    2  A    between atoms: C7_7  and  C8_8 
REMARK    3  A    between atoms: C8_8  and  N9_9 
ROOT
HETATM    1  C1  UNL     1     -34.678   7.429   4.163  1.00 20.00     0.032 C 
HETATM    2  C2  UNL     1     -33.798   7.636   2.935  1.00 20.00     0.038 C 
HETATM    3  C3  UNL     1     -34.867   5.925   4.269  1.00 20.00     0.273 C 
HETATM    4  C4  UNL     1     -33.518   6.231   2.398  1.00 20.00     0.236 C 
HETATM    5  N9  UNL     1     -33.684   5.389   3.591  1.00 20.00     0.094 N 
ENDROOT
BRANCH   5   6
HETATM    6  C8  UNL     1     -33.843   3.973   3.281  1.00 20.00     0.272 C 
BRANCH   6   7
HETATM    7  C7  UNL     1     -33.765   3.095   4.524  1.00 20.00     0.026 C 
HETATM    8  C5  UNL     1     -32.413   3.174   5.216  1.00 20.00     0.007 C 
ENDBRANCH   6   7
ENDBRANCH   5   6
BRANCH   4   9
HETATM    9  C6  UNL     1     -32.130   6.130   1.776  1.00 20.00     0.150 C 
HETATM   10 CL10 UNL     1     -31.454   7.750   1.520  1.00 20.00    -0.128 Cl
ENDBRANCH   4   9
TORSDOF 3
ENDMDL
MODEL 9
REMARK VINA RESULT:       0.2      1.831      3.280
REMARK  3 active torsions:
REMARK  status: ('A' for Active; 'I' for Inactive)
REMARK    1  A    between atoms: C4_4  and  C6_6 
REMARK    2  A    between atoms: C7_7  and  C8_8 
REMARK    3  A    between atoms: C8_8  and  N9_9 
ROOT
HETATM    1  C1  UNL     1     -34.614   6.767   4.439  1.00 20.00     0.032 C 
HETATM    2  C2  UNL     1     -33.918   8.023   3.926  1.00 20.00     0.038 C 
HETATM    3  C3  UNL     1     -34.409   5.726   3.351  1.00 20.00     0.273 C 
HETATM    4  C4  UNL     1     -33.338   7.635   2.564  1.00 20.00     0.236 C 
HETATM    5  N9  UNL     1     -33.190   6.178   2.678  1.00 20.00     0.094 N 
ENDROOT
BRANCH   5   6
HETATM    6  C8  UNL     1     -33.012   5.513   1.393  1.00 20.00     0.272 C 
BRANCH   6   7
HETATM    7  C7  UNL     1     -31.577   5.053   1.170  1.00 20.00     0.026 C 
HETATM    8  C5  UNL     1     -31.445   4.076   0.012  1.00 20.00     0.007 C 
ENDBRANCH   6   7
ENDBRANCH   5   6
BRANCH   4   9
HETATM    9  C6  UNL     1     -32.025   8.356   2.283  1.00 20.00     0.150 C 
HETATM   10 CL10 UNL     1     -32.068   9.102   0.674  1.00 20.00    -0.128 Cl
ENDBRANCH   4   9
TORSDOF 3
ENDMDL
