MODEL 1
REMARK VINA RESULT:      -1.4      0.000      0.000
REMARK  3 active torsions:
REMARK  status: ('A' for Active; 'I' for Inactive)
REMARK    1  A    between atoms: C2_2  and  C8_8 
REMARK    2  A    between atoms: C7_7  and  C9_9 
REMARK    3  A    between atoms: C8_8  and  N10_10 
ROOT
HETATM    1  C3  UNL     1     -34.399   7.696   4.160  1.00 20.00     0.031 C 
HETATM    2  C4  UNL     1     -34.778   6.220   4.114  1.00 20.00     0.009 C 
HETATM    3  C5  UNL     1     -33.761   8.147   2.847  1.00 20.00     0.272 C 
HETATM    4  C6  UNL     1     -32.962   5.904   2.389  1.00 20.00     0.278 C 
HETATM    5  C7  UNL     1     -33.573   5.370   3.695  1.00 20.00     0.028 C 
HETATM    6  N10 UNL     1     -32.592   7.322   2.516  1.00 20.00     0.092 N 
ENDROOT
BRANCH   6   7
HETATM    7  C8  UNL     1     -31.961   7.798   1.286  1.00 20.00     0.299 C 
BRANCH   7   8
HETATM    8  C2  UNL     1     -32.359   9.220   1.062  1.00 20.00    -0.007 C 
HETATM    9  C1  UNL     1     -32.425   9.795  -0.144  1.00 20.00     0.008 C 
ENDBRANCH   7   8
ENDBRANCH   6   7
BRANCH   5  10
HETATM   10  C9  UNL     1     -33.974   3.903   3.546  1.00 20.00     0.121 C 
HETATM   11 CL11 UNL     1     -33.180   2.925   4.793  1.00 20.00    -0.130 Cl
ENDBRANCH   5  10
TORSDOF 3
ENDMDL
MODEL 2
REMARK VINA RESULT:      -1.0      1.348      2.317
REMARK  3 active torsions:
REMARK  status: ('A' for Active; 'I' for Inactive)
REMARK    1  A    between atoms: C2_2  and  C8_8 
REMARK    2  A    between atoms: C7_7  and  C9_9 
REMARK    3  A    between atoms: C8_8  and  N10_10 
ROOT
HETATM    1  C3  UNL     1     -32.599   5.376   1.404  1.00 20.00     0.031 C 
HETATM    2  C4  UNL     1     -33.379   5.336   2.713  1.00 20.00     0.009 C 
HETATM    3  C5  UNL     1     -31.717   6.622   1.321  1.00 20.00     0.272 C 
HETATM    4  C6  UNL     1     -33.205   7.853   2.788  1.00 20.00     0.278 C 
HETATM    5  C7  UNL     1     -34.147   6.645   2.922  1.00 20.00     0.028 C 
HETATM    6  N10 UNL     1     -32.511   7.845   1.491  1.00 20.00     0.092 N 
ENDROOT
BRANCH   6   7
HETATM    7  C8  UNL     1     -31.663   9.028   1.357  1.00 20.00     0.299 C 
BRANCH   7   8
HETATM    8  C2  UNL     1     -32.426  10.085   0.627  1.00 20.00    -0.007 C 
HETATM    9  C1  UNL     1     -32.751  10.010  -0.669  1.00 20.00     0.008 C 
ENDBRANCH   7   8
ENDBRANCH   6   7
BRANCH   5  10
HETATM   10  C9  UNL     1     -34.845   6.650   4.281  1.00 20.00     0.121 C 
HETATM   11 CL11 UNL     1     -35.445   5.027   4.664  1.00 20.00    -0.130 Cl
ENDBRANCH   5  10
TORSDOF 3
ENDMDL
MODEL 3
REMARK VINA RESULT:      -0.7      2.694      4.875
REMARK  3 active torsions:
REMARK  status: ('A' for Active; 'I' for Inactive)
REMARK    1  A    between atoms: C2_2  and  C8_8 
REMARK    2  A    between atoms: C7_7  and  C9_9 
REMARK    3  A    between atoms: C8_8  and  N10_10 
ROOT
HETATM    1  C3  UNL     1     -34.454   7.568   4.065  1.00 20.00     0.031 C 
HETATM    2  C4  UNL     1     -33.297   8.277   3.370  1.00 20.00     0.009 C 
HETATM    3  C5  UNL     1     -34.198   6.065   4.176  1.00 20.00     0.272 C 
HETATM    4  C6  UNL     1     -32.778   6.095   2.211  1.00 20.00     0.278 C 
HETATM    5  C7  UNL     1     -32.986   7.607   2.027  1.00 20.00     0.028 C 
HETATM    6  N10 UNL     1     -33.943   5.472   2.857  1.00 20.00     0.092 N 
ENDROOT
BRANCH   6   7
HETATM    7  C8  UNL     1     -33.753   4.027   2.973  1.00 20.00     0.299 C 
BRANCH   7   8
HETATM    8  C2  UNL     1     -33.782   3.654   4.419  1.00 20.00    -0.007 C 
HETATM    9  C1  UNL     1     -32.982   2.733   4.968  1.00 20.00     0.008 C 
ENDBRANCH   7   8
ENDBRANCH   6   7
BRANCH   5  10
HETATM   10  C9  UNL     1     -31.762   8.248   1.376  1.00 20.00     0.121 C 
HETATM   11 CL11 UNL     1     -32.259   9.596   0.337  1.00 20.00    -0.130 Cl
ENDBRANCH   5  10
TORSDOF 3
ENDMDL
MODEL 4
REMARK VINA RESULT:      -0.6      1.891      2.684
REMARK  3 active torsions:
REMARK  status: ('A' for Active; 'I' for Inactive)
REMARK    1  A    between atoms: C2_2  and  C8_8 
REMARK    2  A    between atoms: C7_7  and  C9_9 
REMARK    3  A    between atoms: C8_8  and  N10_10 
ROOT
HETATM    1  C3  UNL     1     -32.760   5.153   1.516  1.00 20.00     0.031 C 
HETATM    2  C4  UNL     1     -33.454   5.294   2.866  1.00 20.00     0.009 C 
HETATM    3  C5  UNL     1     -31.786   6.305   1.268  1.00 20.00     0.272 C 
HETATM    4  C6  UNL     1     -33.070   7.783   2.699  1.00 20.00     0.278 C 
HETATM    5  C7  UNL     1     -34.097   6.678   2.997  1.00 20.00     0.028 C 
HETATM    6  N10 UNL     1     -32.466   7.603   1.370  1.00 20.00     0.092 N 
ENDROOT
BRANCH   6   7
HETATM    7  C8  UNL     1     -31.535   8.692   1.080  1.00 20.00     0.299 C 
BRANCH   7   8
HETATM    8  C2  UNL     1     -32.152   9.591   0.060  1.00 20.00    -0.007 C 
HETATM    9  C1  UNL     1     -32.788  10.730   0.357  1.00 20.00     0.008 C 
ENDBRANCH   7   8
ENDBRANCH   6   7
BRANCH   5  10
HETATM   10  C9  UNL     1     -34.703   6.862   4.388  1.00 20.00     0.121 C 
HETATM   11 CL11 UNL     1     -33.871   8.170   5.247  1.00 20.00    -0.130 Cl
ENDBRANCH   5  10
TORSDOF 3
ENDMDL
MODEL 5
REMARK VINA RESULT:      -0.5      2.763      4.955
REMARK  3 active torsions:
REMARK  status: ('A' for Active; 'I' for Inactive)
REMARK    1  A    between atoms: C2_2  and  C8_8 
REMARK    2  A    between atoms: C7_7  and  C9_9 
REMARK    3  A    between atoms: C8_8  and  N10_10 
ROOT
HETATM    1  C3  UNL     1     -32.283   5.488   1.603  1.00 20.00     0.031 C 
HETATM    2  C4  UNL     1     -31.905   6.642   0.681  1.00 20.00     0.009 C 
HETATM    3  C5  UNL     1     -33.479   5.849   2.485  1.00 20.00     0.272 C 
HETATM    4  C6  UNL     1     -32.928   8.209   2.375  1.00 20.00     0.278 C 
HETATM    5  C7  UNL     1     -31.705   7.929   1.487  1.00 20.00     0.028 C 
HETATM    6  N10 UNL     1     -33.215   7.069   3.259  1.00 20.00     0.092 N 
ENDROOT
BRANCH   6   7
HETATM    7  C8  UNL     1     -34.345   7.372   4.136  1.00 20.00     0.299 C 
BRANCH   7   8
HETATM    8  C2  UNL     1     -35.387   6.317   3.959  1.00 20.00    -0.007 C 
HETATM    9  C1  UNL     1     -35.426   5.182   4.665  1.00 20.00     0.008 C 
ENDBRANCH   7   8
ENDBRANCH   6   7
BRANCH   5  10
HETATM   10  C9  UNL     1     -31.428   9.110   0.557  1.00 20.00     0.121 C 
HETATM   11 CL11 UNL     1     -32.799  10.233   0.575  1.00 20.00    -0.130 Cl
ENDBRANCH   5  10
TORSDOF 3
ENDMDL
MODEL 6
REMARK VINA RESULT:      -0.4      2.747      5.073
REMARK  3 active torsions:
REMARK  status: ('A' for Active; 'I' for Inactive)
REMARK    1  A    between atoms: C2_2  and  C8_8 
REMARK    2  A    between atoms: C7_7  and  C9_9 
REMARK    3  A    between atoms: C8_8  and  N10_10 
ROOT
HETATM    1  C3  UNL     1     -32.190   5.672   1.381  1.00 20.00     0.031 C 
HETATM    2  C4  UNL     1     -31.988   7.120   0.947  1.00 20.00     0.009 C 
HETATM    3  C5  UNL     1     -33.525   5.489   2.102  1.00 20.00     0.272 C 
HETATM    4  C6  UNL     1     -33.520   7.801   2.834  1.00 20.00     0.278 C 
HETATM    5  C7  UNL     1     -32.176   8.067   2.137  1.00 20.00     0.028 C 
HETATM    6  N10 UNL     1     -33.633   6.396   3.252  1.00 20.00     0.092 N 
ENDROOT
BRANCH   6   7
HETATM    7  C8  UNL     1     -34.892   6.173   3.963  1.00 20.00     0.299 C 
BRANCH   7   8
HETATM    8  C2  UNL     1     -34.953   4.744   4.393  1.00 20.00    -0.007 C 
HETATM    9  C1  UNL     1     -33.886   3.941   4.471  1.00 20.00     0.008 C 
ENDBRANCH   7   8
ENDBRANCH   6   7
BRANCH   5  10
HETATM   10  C9  UNL     1     -32.077   9.524   1.687  1.00 20.00     0.121 C 
HETATM   11 CL11 UNL     1     -32.445   9.654  -0.041  1.00 20.00    -0.130 Cl
ENDBRANCH   5  10
TORSDOF 3
ENDMDL
MODEL 7
REMARK VINA RESULT:      -0.3      2.150      4.387
REMARK  3 active torsions:
REMARK  status: ('A' for Active; 'I' for Inactive)
REMARK    1  A    between atoms: C2_2  and  C8_8 
REMARK    2  A    between atoms: C7_7  and  C9_9 
REMARK    3  A    between atoms: C8_8  and  N10_10 
ROOT
HETATM    1  C3  UNL     1     -33.906   8.346   3.907  1.00 20.00     0.031 C 
HETATM    2  C4  UNL     1     -32.758   8.168   2.919  1.00 20.00     0.009 C 
HETATM    3  C5  UNL     1     -34.216   7.041   4.640  1.00 20.00     0.272 C 
HETATM    4  C6  UNL     1     -33.375   5.724   2.785  1.00 20.00     0.278 C 
HETATM    5  C7  UNL     1     -33.036   6.989   1.980  1.00 20.00     0.028 C 
HETATM    6  N10 UNL     1     -34.510   5.959   3.692  1.00 20.00     0.092 N 
ENDROOT
BRANCH   6   7
HETATM    7  C8  UNL     1     -34.856   4.732   4.407  1.00 20.00     0.299 C 
BRANCH   7   8
HETATM    8  C2  UNL     1     -33.839   3.686   4.087  1.00 20.00    -0.007 C 
HETATM    9  C1  UNL     1     -33.161   2.997   5.012  1.00 20.00     0.008 C 
ENDBRANCH   7   8
ENDBRANCH   6   7
BRANCH   5  10
HETATM   10  C9  UNL     1     -31.844   6.741   1.058  1.00 20.00     0.121 C 
HETATM   11 CL11 UNL     1     -31.566   5.000   0.875  1.00 20.00    -0.130 Cl
ENDBRANCH   5  10
TORSDOF 3
ENDMDL
MODEL 8
REMARK VINA RESULT:      -0.1      1.449      1.762
REMARK  3 active torsions:
REMARK  status: ('A' for Active; 'I' for Inactive)
REMARK    1  A    between atoms: C2_2  and  C8_8 
REMARK    2  A    between atoms: C7_7  and  C9_9 
REMARK    3  A    between atoms: C8_8  and  N10_10 
ROOT
HETATM    1  C3  UNL     1     -32.313   8.563   4.564  1.00 20.00     0.031 C 
HETATM    2  C4  UNL     1     -33.710   7.972   4.718  1.00 20.00     0.009 C 
HETATM    3  C5  UNL     1     -32.009   8.899   3.104  1.00 20.00     0.272 C 
HETATM    4  C6  UNL     1     -33.542   7.188   2.324  1.00 20.00     0.278 C 
HETATM    5  C7  UNL     1     -33.899   6.787   3.765  1.00 20.00     0.028 C 
HETATM    6  N10 UNL     1     -32.172   7.719   2.245  1.00 20.00     0.092 N 
ENDROOT
BRANCH   6   7
HETATM    7  C8  UNL     1     -31.828   8.043   0.861  1.00 20.00     0.299 C 
BRANCH   7   8
HETATM    8  C2  UNL     1     -32.059   9.501   0.637  1.00 20.00    -0.007 C 
HETATM    9  C1  UNL     1     -32.726   9.999  -0.410  1.00 20.00     0.008 C 
ENDBRANCH   7   8
ENDBRANCH   6   7
BRANCH   5  10
HETATM   10  C9  UNL     1     -35.331   6.258   3.841  1.00 20.00     0.121 C 
HETATM   11 CL11 UNL     1     -35.354   4.676   4.639  1.00 20.00    -0.130 Cl
ENDBRANCH   5  10
TORSDOF 3
ENDMDL
MODEL 9
REMARK VINA RESULT:       0.6      1.874      2.224
REMARK  3 active torsions:
REMARK  status: ('A' for Active; 'I' for Inactive)
REMARK    1  A    between atoms: C2_2  and  C8_8 
REMARK    2  A    between atoms: C7_7  and  C9_9 
REMARK    3  A    between atoms: C8_8  and  N10_10 
ROOT
HETATM    1  C3  UNL     1     -33.868   6.667   3.711  1.00 20.00     0.031 C 
HETATM    2  C4  UNL     1     -33.970   5.617   2.609  1.00 20.00     0.009 C 
HETATM    3  C5  UNL     1     -33.483   8.033   3.143  1.00 20.00     0.272 C 
HETATM    4  C6  UNL     1     -32.343   7.004   1.266  1.00 20.00     0.278 C 
HETATM    5  C7  UNL     1     -32.687   5.593   1.772  1.00 20.00     0.028 C 
HETATM    6  N10 UNL     1     -32.230   7.955   2.382  1.00 20.00     0.092 N 
ENDROOT
BRANCH   6   7
HETATM    7  C8  UNL     1     -31.847   9.278   1.890  1.00 20.00     0.299 C 
BRANCH   7   8
HETATM    8  C2  UNL     1     -32.147   9.352   0.429  1.00 20.00    -0.007 C 
HETATM    9  C1  UNL     1     -32.733  10.400  -0.161  1.00 20.00     0.008 C 
ENDBRANCH   7   8
ENDBRANCH   6   7
BRANCH   5  10
HETATM   10  C9  UNL     1     -32.824   4.617   0.604  1.00 20.00     0.121 C 
HETATM   11 CL11 UNL     1     -31.222   4.081   0.067  1.00 20.00    -0.130 Cl
ENDBRANCH   5  10
TORSDOF 3
ENDMDL
