MODEL 1
REMARK VINA RESULT:      -1.3      0.000      0.000
REMARK  1 active torsions:
REMARK  status: ('A' for Active; 'I' for Inactive)
REMARK    1  A    between atoms: C6_6  and  N7_7 
ROOT
HETATM    1  C1  UNL     1     -32.028   8.802   0.848  1.00 20.00     0.158 C 
HETATM    2  N7  UNL     1     -31.550   7.809   1.247  1.00 20.00    -0.268 NA
HETATM    3  S9  UNL     1     -32.652  10.153   0.280  1.00 20.00    -0.055 SA
ENDROOT
BRANCH   2   4
HETATM    4  C6  UNL     1     -32.233   7.226   2.404  1.00 20.00     0.133 C 
HETATM    5  C3  UNL     1     -33.070   8.303   3.089  1.00 20.00     0.032 C 
HETATM    6  C2  UNL     1     -33.951   7.684   4.169  1.00 20.00     0.028 C 
HETATM    7  C4  UNL     1     -34.738   6.505   3.612  1.00 20.00     0.167 C 
HETATM    8  O8  UNL     1     -33.861   5.537   3.035  1.00 20.00    -0.389 OA
HETATM    9  C5  UNL     1     -33.115   6.072   1.940  1.00 20.00     0.195 C 
ENDBRANCH   2   4
TORSDOF 1
ENDMDL
MODEL 2
REMARK VINA RESULT:      -1.0      1.049      1.806
REMARK  1 active torsions:
REMARK  status: ('A' for Active; 'I' for Inactive)
REMARK    1  A    between atoms: C6_6  and  N7_7 
ROOT
HETATM    1  C1  UNL     1     -32.221   8.899   1.081  1.00 20.00     0.158 C 
HETATM    2  N7  UNL     1     -32.014   8.072   1.884  1.00 20.00    -0.268 NA
HETATM    3  S9  UNL     1     -32.469  10.036  -0.007  1.00 20.00    -0.055 SA
ENDROOT
BRANCH   2   4
HETATM    4  C6  UNL     1     -33.169   7.232   2.207  1.00 20.00     0.133 C 
HETATM    5  C3  UNL     1     -32.745   5.765   2.189  1.00 20.00     0.032 C 
HETATM    6  C2  UNL     1     -33.869   4.882   2.720  1.00 20.00     0.028 C 
HETATM    7  C4  UNL     1     -34.372   5.398   4.062  1.00 20.00     0.167 C 
HETATM    8  O8  UNL     1     -34.784   6.761   3.959  1.00 20.00    -0.389 OA
HETATM    9  C5  UNL     1     -33.708   7.620   3.578  1.00 20.00     0.195 C 
ENDBRANCH   2   4
TORSDOF 1
ENDMDL
MODEL 3
REMARK VINA RESULT:      -1.0      3.535      4.283
REMARK  1 active torsions:
REMARK  status: ('A' for Active; 'I' for Inactive)
REMARK    1  A    between atoms: C6_6  and  N7_7 
ROOT
HETATM    1  C1  UNL     1     -34.170   4.104   4.403  1.00 20.00     0.158 C 
HETATM    2  N7  UNL     1     -34.947   4.966   4.243  1.00 20.00    -0.268 NA
HETATM    3  S9  UNL     1     -33.138   2.915   4.644  1.00 20.00    -0.055 SA
ENDROOT
BRANCH   2   4
HETATM    4  C6  UNL     1     -34.502   6.026   3.336  1.00 20.00     0.133 C 
HETATM    5  C3  UNL     1     -34.026   7.223   4.155  1.00 20.00     0.032 C 
HETATM    6  C2  UNL     1     -33.368   8.258   3.251  1.00 20.00     0.028 C 
HETATM    7  C4  UNL     1     -32.308   7.609   2.371  1.00 20.00     0.167 C 
HETATM    8  O8  UNL     1     -32.865   6.533   1.615  1.00 20.00    -0.389 OA
HETATM    9  C5  UNL     1     -33.378   5.497   2.453  1.00 20.00     0.195 C 
ENDBRANCH   2   4
TORSDOF 1
ENDMDL
MODEL 4
REMARK VINA RESULT:      -0.6      3.639      4.524
REMARK  1 active torsions:
REMARK  status: ('A' for Active; 'I' for Inactive)
REMARK    1  A    between atoms: C6_6  and  N7_7 
ROOT
HETATM    1  C1  UNL     1     -33.814   3.978   4.077  1.00 20.00     0.158 C 
HETATM    2  N7  UNL     1     -34.226   4.958   3.582  1.00 20.00    -0.268 NA
HETATM    3  S9  UNL     1     -33.289   2.635   4.752  1.00 20.00    -0.055 SA
ENDROOT
BRANCH   2   4
HETATM    4  C6  UNL     1     -33.197   5.930   3.206  1.00 20.00     0.133 C 
HETATM    5  C3  UNL     1     -32.884   5.781   1.719  1.00 20.00     0.032 C 
HETATM    6  C2  UNL     1     -31.971   6.909   1.253  1.00 20.00     0.028 C 
HETATM    7  C4  UNL     1     -32.533   8.263   1.668  1.00 20.00     0.167 C 
HETATM    8  O8  UNL     1     -32.746   8.312   3.079  1.00 20.00    -0.389 OA
HETATM    9  C5  UNL     1     -33.694   7.337   3.514  1.00 20.00     0.195 C 
ENDBRANCH   2   4
TORSDOF 1
ENDMDL
MODEL 5
REMARK VINA RESULT:       0.9      2.073      2.778
REMARK  1 active torsions:
REMARK  status: ('A' for Active; 'I' for Inactive)
REMARK    1  A    between atoms: C6_6  and  N7_7 
ROOT
HETATM    1  C1  UNL     1     -32.830   7.909   2.361  1.00 20.00     0.158 C 
HETATM    2  N7  UNL     1     -33.675   7.734   3.153  1.00 20.00    -0.268 NA
HETATM    3  S9  UNL     1     -31.679   8.183   1.294  1.00 20.00    -0.055 SA
ENDROOT
BRANCH   2   4
HETATM    4  C6  UNL     1     -34.191   6.365   3.201  1.00 20.00     0.133 C 
HETATM    5  C3  UNL     1     -33.020   5.386   3.221  1.00 20.00     0.032 C 
HETATM    6  C2  UNL     1     -33.517   3.968   3.477  1.00 20.00     0.028 C 
HETATM    7  C4  UNL     1     -34.421   3.926   4.702  1.00 20.00     0.167 C 
HETATM    8  O8  UNL     1     -35.506   4.843   4.563  1.00 20.00    -0.389 OA
HETATM    9  C5  UNL     1     -35.057   6.194   4.443  1.00 20.00     0.195 C 
ENDBRANCH   2   4
TORSDOF 1
ENDMDL
MODEL 6
REMARK VINA RESULT:       1.2      3.154      4.166
REMARK  1 active torsions:
REMARK  status: ('A' for Active; 'I' for Inactive)
REMARK    1  A    between atoms: C6_6  and  N7_7 
ROOT
HETATM    1  C1  UNL     1     -34.802   6.429   4.198  1.00 20.00     0.158 C 
HETATM    2  N7  UNL     1     -34.270   7.432   3.908  1.00 20.00    -0.268 NA
HETATM    3  S9  UNL     1     -35.552   5.085   4.607  1.00 20.00    -0.055 SA
ENDROOT
BRANCH   2   4
HETATM    4  C6  UNL     1     -33.003   7.265   3.194  1.00 20.00     0.133 C 
HETATM    5  C3  UNL     1     -33.170   6.197   2.116  1.00 20.00     0.032 C 
HETATM    6  C2  UNL     1     -31.935   6.145   1.223  1.00 20.00     0.028 C 
HETATM    7  C4  UNL     1     -31.582   7.536   0.712  1.00 20.00     0.167 C 
HETATM    8  O8  UNL     1     -31.403   8.445   1.798  1.00 20.00    -0.389 OA
HETATM    9  C5  UNL     1     -32.593   8.596   2.574  1.00 20.00     0.195 C 
ENDBRANCH   2   4
TORSDOF 1
ENDMDL
MODEL 7
REMARK VINA RESULT:       1.3      2.856      3.993
REMARK  1 active torsions:
REMARK  status: ('A' for Active; 'I' for Inactive)
REMARK    1  A    between atoms: C6_6  and  N7_7 
ROOT
HETATM    1  C1  UNL     1     -34.084   7.178   3.711  1.00 20.00     0.158 C 
HETATM    2  N7  UNL     1     -33.244   7.961   3.479  1.00 20.00    -0.268 NA
HETATM    3  S9  UNL     1     -35.221   6.119   4.063  1.00 20.00    -0.055 SA
ENDROOT
BRANCH   2   4
HETATM    4  C6  UNL     1     -32.938   8.122   2.056  1.00 20.00     0.133 C 
HETATM    5  C3  UNL     1     -33.016   9.602   1.689  1.00 20.00     0.032 C 
HETATM    6  C2  UNL     1     -32.504   9.826   0.271  1.00 20.00     0.028 C 
HETATM    7  C4  UNL     1     -31.137   9.180   0.084  1.00 20.00     0.167 C 
HETATM    8  O8  UNL     1     -31.184   7.791   0.409  1.00 20.00    -0.389 OA
HETATM    9  C5  UNL     1     -31.546   7.570   1.773  1.00 20.00     0.195 C 
ENDBRANCH   2   4
TORSDOF 1
ENDMDL
MODEL 8
REMARK VINA RESULT:       1.6      2.719      3.236
REMARK  1 active torsions:
REMARK  status: ('A' for Active; 'I' for Inactive)
REMARK    1  A    between atoms: C6_6  and  N7_7 
ROOT
HETATM    1  C1  UNL     1     -33.135   4.733   0.378  1.00 20.00     0.158 C 
HETATM    2  N7  UNL     1     -32.446   5.348   1.099  1.00 20.00    -0.268 NA
HETATM    3  S9  UNL     1     -34.043   3.876  -0.611  1.00 20.00    -0.055 SA
ENDROOT
BRANCH   2   4
HETATM    4  C6  UNL     1     -33.120   6.443   1.799  1.00 20.00     0.133 C 
HETATM    5  C3  UNL     1     -33.824   5.891   3.037  1.00 20.00     0.032 C 
HETATM    6  C2  UNL     1     -34.360   7.031   3.896  1.00 20.00     0.028 C 
HETATM    7  C4  UNL     1     -33.268   8.057   4.171  1.00 20.00     0.167 C 
HETATM    8  O8  UNL     1     -32.708   8.542   2.950  1.00 20.00    -0.389 OA
HETATM    9  C5  UNL     1     -32.094   7.500   2.190  1.00 20.00     0.195 C 
ENDBRANCH   2   4
TORSDOF 1
ENDMDL
MODEL 9
REMARK VINA RESULT:       1.7      2.785      4.081
REMARK  1 active torsions:
REMARK  status: ('A' for Active; 'I' for Inactive)
REMARK    1  A    between atoms: C6_6  and  N7_7 
ROOT
HETATM    1  C1  UNL     1     -33.517   6.657   2.968  1.00 20.00     0.158 C 
HETATM    2  N7  UNL     1     -32.593   6.620   2.247  1.00 20.00    -0.268 NA
HETATM    3  S9  UNL     1     -34.772   6.670   3.948  1.00 20.00    -0.055 SA
ENDROOT
BRANCH   2   4
HETATM    4  C6  UNL     1     -32.109   7.931   1.810  1.00 20.00     0.133 C 
HETATM    5  C3  UNL     1     -31.514   7.805   0.410  1.00 20.00     0.032 C 
HETATM    6  C2  UNL     1     -31.189   9.184  -0.155  1.00 20.00     0.028 C 
HETATM    7  C4  UNL     1     -32.392  10.110  -0.040  1.00 20.00     0.167 C 
HETATM    8  O8  UNL     1     -32.841  10.192   1.313  1.00 20.00    -0.389 OA
HETATM    9  C5  UNL     1     -33.264   8.925   1.817  1.00 20.00     0.195 C 
ENDBRANCH   2   4
TORSDOF 1
ENDMDL
