MODEL 1
REMARK VINA RESULT:      -1.9      0.000      0.000
REMARK  3 active torsions:
REMARK  status: ('A' for Active; 'I' for Inactive)
REMARK    1  A    between atoms: C6_6  and  C7_7 
REMARK    2  A    between atoms: C7_7  and  C8_8 
REMARK    3  A    between atoms: C8_8  and  N9_9 
ROOT
HETATM    1  C1  UNL     1     -34.905   6.170   4.218  1.00 20.00     0.052 C 
HETATM    2  C2  UNL     1     -34.199   7.475   3.853  1.00 20.00     0.274 C 
HETATM    3  C3  UNL     1     -32.914   5.768   2.925  1.00 20.00     0.292 C 
HETATM    4  C4  UNL     1     -34.200   5.101   3.385  1.00 20.00     0.112 C 
HETATM    5  N9  UNL     1     -33.379   7.136   2.689  1.00 20.00     0.089 N 
HETATM    6 CL10 UNL     1     -33.894   3.616   4.301  1.00 20.00    -0.123 Cl
ENDROOT
BRANCH   5   7
HETATM    7  C8  UNL     1     -32.281   8.071   2.488  1.00 20.00     0.272 C 
BRANCH   7   8
HETATM    8  C7  UNL     1     -32.066   8.408   1.017  1.00 20.00     0.030 C 
BRANCH   8   9
HETATM    9  C6  UNL     1     -32.319   9.886   0.710  1.00 20.00    -0.003 C 
HETATM   10  C5  UNL     1     -32.777  10.083  -0.727  1.00 20.00     0.005 C 
ENDBRANCH   8   9
ENDBRANCH   7   8
ENDBRANCH   5   7
TORSDOF 3
ENDMDL
MODEL 2
REMARK VINA RESULT:      -1.5      1.402      1.938
REMARK  3 active torsions:
REMARK  status: ('A' for Active; 'I' for Inactive)
REMARK    1  A    between atoms: C6_6  and  C7_7 
REMARK    2  A    between atoms: C7_7  and  C8_8 
REMARK    3  A    between atoms: C8_8  and  N9_9 
ROOT
HETATM    1  C1  UNL     1     -33.508   5.491   2.276  1.00 20.00     0.052 C 
HETATM    2  C2  UNL     1     -32.574   6.411   1.492  1.00 20.00     0.274 C 
HETATM    3  C3  UNL     1     -33.441   7.701   3.227  1.00 20.00     0.292 C 
HETATM    4  C4  UNL     1     -33.851   6.272   3.542  1.00 20.00     0.112 C 
HETATM    5  N9  UNL     1     -32.229   7.475   2.436  1.00 20.00     0.089 N 
HETATM    6 CL10 UNL     1     -35.563   6.147   3.978  1.00 20.00    -0.123 Cl
ENDROOT
BRANCH   5   7
HETATM    7  C8  UNL     1     -31.765   8.683   1.770  1.00 20.00     0.272 C 
BRANCH   7   8
HETATM    8  C7  UNL     1     -31.863   8.585   0.252  1.00 20.00     0.030 C 
BRANCH   8   9
HETATM    9  C6  UNL     1     -32.596   9.776  -0.368  1.00 20.00    -0.003 C 
HETATM   10  C5  UNL     1     -32.793  10.895   0.642  1.00 20.00     0.005 C 
ENDBRANCH   8   9
ENDBRANCH   7   8
ENDBRANCH   5   7
TORSDOF 3
ENDMDL
MODEL 3
REMARK VINA RESULT:      -1.4      2.680      5.019
REMARK  3 active torsions:
REMARK  status: ('A' for Active; 'I' for Inactive)
REMARK    1  A    between atoms: C6_6  and  C7_7 
REMARK    2  A    between atoms: C7_7  and  C8_8 
REMARK    3  A    between atoms: C8_8  and  N9_9 
ROOT
HETATM    1  C1  UNL     1     -32.237   8.542   3.337  1.00 20.00     0.052 C 
HETATM    2  C2  UNL     1     -33.361   7.891   4.142  1.00 20.00     0.274 C 
HETATM    3  C3  UNL     1     -33.428   6.908   2.031  1.00 20.00     0.292 C 
HETATM    4  C4  UNL     1     -32.134   7.703   2.064  1.00 20.00     0.112 C 
HETATM    5  N9  UNL     1     -33.618   6.624   3.454  1.00 20.00     0.089 N 
HETATM    6 CL10 UNL     1     -31.919   8.693   0.612  1.00 20.00    -0.123 Cl
ENDROOT
BRANCH   5   7
HETATM    7  C8  UNL     1     -34.941   6.090   3.745  1.00 20.00     0.272 C 
BRANCH   7   8
HETATM    8  C7  UNL     1     -34.881   4.755   4.479  1.00 20.00     0.030 C 
BRANCH   8   9
HETATM    9  C6  UNL     1     -33.818   3.816   3.905  1.00 20.00    -0.003 C 
HETATM   10  C5  UNL     1     -33.136   3.013   5.002  1.00 20.00     0.005 C 
ENDBRANCH   8   9
ENDBRANCH   7   8
ENDBRANCH   5   7
TORSDOF 3
ENDMDL
MODEL 4
REMARK VINA RESULT:      -0.2      2.882      5.114
REMARK  3 active torsions:
REMARK  status: ('A' for Active; 'I' for Inactive)
REMARK    1  A    between atoms: C6_6  and  C7_7 
REMARK    2  A    between atoms: C7_7  and  C8_8 
REMARK    3  A    between atoms: C8_8  and  N9_9 
ROOT
HETATM    1  C1  UNL     1     -31.364   8.405   0.470  1.00 20.00     0.052 C 
HETATM    2  C2  UNL     1     -31.490   7.453   1.658  1.00 20.00     0.274 C 
HETATM    3  C3  UNL     1     -33.143   9.068   1.949  1.00 20.00     0.292 C 
HETATM    4  C4  UNL     1     -32.609   9.287   0.544  1.00 20.00     0.112 C 
HETATM    5  N9  UNL     1     -32.860   7.644   2.138  1.00 20.00     0.089 N 
HETATM    6 CL10 UNL     1     -32.257  10.991   0.217  1.00 20.00    -0.123 Cl
ENDROOT
BRANCH   5   7
HETATM    7  C8  UNL     1     -33.032   7.220   3.519  1.00 20.00     0.272 C 
BRANCH   7   8
HETATM    8  C7  UNL     1     -34.452   7.450   4.026  1.00 20.00     0.030 C 
BRANCH   8   9
HETATM    9  C6  UNL     1     -35.297   6.175   4.009  1.00 20.00    -0.003 C 
HETATM   10  C5  UNL     1     -34.423   4.930   4.000  1.00 20.00     0.005 C 
ENDBRANCH   8   9
ENDBRANCH   7   8
ENDBRANCH   5   7
TORSDOF 3
ENDMDL
MODEL 5
REMARK VINA RESULT:      -0.2      2.524      5.182
REMARK  3 active torsions:
REMARK  status: ('A' for Active; 'I' for Inactive)
REMARK    1  A    between atoms: C6_6  and  C7_7 
REMARK    2  A    between atoms: C7_7  and  C8_8 
REMARK    3  A    between atoms: C8_8  and  N9_9 
ROOT
HETATM    1  C1  UNL     1     -32.394   6.594   1.441  1.00 20.00     0.052 C 
HETATM    2  C2  UNL     1     -33.353   5.645   2.159  1.00 20.00     0.274 C 
HETATM    3  C3  UNL     1     -33.204   7.546   3.498  1.00 20.00     0.292 C 
HETATM    4  C4  UNL     1     -32.520   7.917   2.193  1.00 20.00     0.112 C 
HETATM    5  N9  UNL     1     -34.136   6.513   3.041  1.00 20.00     0.089 N 
HETATM    6 CL10 UNL     1     -30.955   8.703   2.457  1.00 20.00    -0.123 Cl
ENDROOT
BRANCH   5   7
HETATM    7  C8  UNL     1     -34.745   5.784   4.143  1.00 20.00     0.272 C 
BRANCH   7   8
HETATM    8  C7  UNL     1     -34.551   4.277   4.022  1.00 20.00     0.030 C 
BRANCH   8   9
HETATM    9  C6  UNL     1     -33.534   3.732   5.027  1.00 20.00    -0.003 C 
HETATM   10  C5  UNL     1     -33.035   2.354   4.621  1.00 20.00     0.005 C 
ENDBRANCH   8   9
ENDBRANCH   7   8
ENDBRANCH   5   7
TORSDOF 3
ENDMDL
MODEL 6
REMARK VINA RESULT:      -0.1      2.740      5.038
REMARK  3 active torsions:
REMARK  status: ('A' for Active; 'I' for Inactive)
REMARK    1  A    between atoms: C6_6  and  C7_7 
REMARK    2  A    between atoms: C7_7  and  C8_8 
REMARK    3  A    between atoms: C8_8  and  N9_9 
ROOT
HETATM    1  C1  UNL     1     -32.013   8.924   2.466  1.00 20.00     0.052 C 
HETATM    2  C2  UNL     1     -32.646   7.721   3.163  1.00 20.00     0.274 C 
HETATM    3  C3  UNL     1     -32.864   7.330   0.877  1.00 20.00     0.292 C 
HETATM    4  C4  UNL     1     -31.932   8.524   0.995  1.00 20.00     0.112 C 
HETATM    5  N9  UNL     1     -32.621   6.659   2.155  1.00 20.00     0.089 N 
HETATM    6 CL10 UNL     1     -32.389   9.842  -0.096  1.00 20.00    -0.123 Cl
ENDROOT
BRANCH   5   7
HETATM    7  C8  UNL     1     -33.592   5.609   2.427  1.00 20.00     0.272 C 
BRANCH   7   8
HETATM    8  C7  UNL     1     -34.508   5.953   3.597  1.00 20.00     0.030 C 
BRANCH   8   9
HETATM    9  C6  UNL     1     -34.831   4.737   4.468  1.00 20.00    -0.003 C 
HETATM   10  C5  UNL     1     -33.769   3.657   4.330  1.00 20.00     0.005 C 
ENDBRANCH   8   9
ENDBRANCH   7   8
ENDBRANCH   5   7
TORSDOF 3
ENDMDL
MODEL 7
REMARK VINA RESULT:       0.0      1.429      1.924
REMARK  3 active torsions:
REMARK  status: ('A' for Active; 'I' for Inactive)
REMARK    1  A    between atoms: C6_6  and  C7_7 
REMARK    2  A    between atoms: C7_7  and  C8_8 
REMARK    3  A    between atoms: C8_8  and  N9_9 
ROOT
HETATM    1  C1  UNL     1     -35.353   4.708   4.598  1.00 20.00     0.052 C 
HETATM    2  C2  UNL     1     -35.375   6.221   4.385  1.00 20.00     0.274 C 
HETATM    3  C3  UNL     1     -33.274   5.503   3.681  1.00 20.00     0.292 C 
HETATM    4  C4  UNL     1     -34.084   4.235   3.892  1.00 20.00     0.112 C 
HETATM    5  N9  UNL     1     -34.336   6.466   3.384  1.00 20.00     0.089 N 
HETATM    6 CL10 UNL     1     -33.196   3.021   4.827  1.00 20.00    -0.123 Cl
ENDROOT
BRANCH   5   7
HETATM    7  C8  UNL     1     -33.861   7.842   3.398  1.00 20.00     0.272 C 
BRANCH   7   8
HETATM    8  C7  UNL     1     -32.362   7.942   3.141  1.00 20.00     0.030 C 
BRANCH   8   9
HETATM    9  C6  UNL     1     -32.031   8.149   1.661  1.00 20.00    -0.003 C 
HETATM   10  C5  UNL     1     -31.823   6.822   0.948  1.00 20.00     0.005 C 
ENDBRANCH   8   9
ENDBRANCH   7   8
ENDBRANCH   5   7
TORSDOF 3
ENDMDL
MODEL 8
REMARK VINA RESULT:       0.3      2.105      4.445
REMARK  3 active torsions:
REMARK  status: ('A' for Active; 'I' for Inactive)
REMARK    1  A    between atoms: C6_6  and  C7_7 
REMARK    2  A    between atoms: C7_7  and  C8_8 
REMARK    3  A    between atoms: C8_8  and  N9_9 
ROOT
HETATM    1  C1  UNL     1     -31.758   7.410   1.254  1.00 20.00     0.052 C 
HETATM    2  C2  UNL     1     -32.709   8.123   2.214  1.00 20.00     0.274 C 
HETATM    3  C3  UNL     1     -33.102   5.844   2.493  1.00 20.00     0.292 C 
HETATM    4  C4  UNL     1     -31.847   5.936   1.642  1.00 20.00     0.112 C 
HETATM    5  N9  UNL     1     -33.039   7.113   3.221  1.00 20.00     0.089 N 
HETATM    6 CL10 UNL     1     -31.911   4.863   0.235  1.00 20.00    -0.123 Cl
ENDROOT
BRANCH   5   7
HETATM    7  C8  UNL     1     -34.276   7.413   3.927  1.00 20.00     0.272 C 
BRANCH   7   8
HETATM    8  C7  UNL     1     -35.355   6.365   3.679  1.00 20.00     0.030 C 
BRANCH   8   9
HETATM    9  C6  UNL     1     -35.392   5.289   4.767  1.00 20.00    -0.003 C 
HETATM   10  C5  UNL     1     -34.370   4.195   4.500  1.00 20.00     0.005 C 
ENDBRANCH   8   9
ENDBRANCH   7   8
ENDBRANCH   5   7
TORSDOF 3
ENDMDL
MODEL 9
REMARK VINA RESULT:       1.0      1.825      2.821
REMARK  3 active torsions:
REMARK  status: ('A' for Active; 'I' for Inactive)
REMARK    1  A    between atoms: C6_6  and  C7_7 
REMARK    2  A    between atoms: C7_7  and  C8_8 
REMARK    3  A    between atoms: C8_8  and  N9_9 
ROOT
HETATM    1  C1  UNL     1     -34.048   7.642   4.924  1.00 20.00     0.052 C 
HETATM    2  C2  UNL     1     -32.813   8.120   4.163  1.00 20.00     0.274 C 
HETATM    3  C3  UNL     1     -33.875   6.587   2.768  1.00 20.00     0.292 C 
HETATM    4  C4  UNL     1     -34.856   6.852   3.897  1.00 20.00     0.112 C 
HETATM    5  N9  UNL     1     -33.116   7.839   2.758  1.00 20.00     0.089 N 
HETATM    6 CL10 UNL     1     -35.530   5.356   4.564  1.00 20.00    -0.123 Cl
ENDROOT
BRANCH   5   7
HETATM    7  C8  UNL     1     -31.918   7.758   1.935  1.00 20.00     0.272 C 
BRANCH   7   8
HETATM    8  C7  UNL     1     -32.019   6.675   0.866  1.00 20.00     0.030 C 
BRANCH   8   9
HETATM    9  C6  UNL     1     -31.708   5.280   1.412  1.00 20.00    -0.003 C 
HETATM   10  C5  UNL     1     -31.451   4.289   0.287  1.00 20.00     0.005 C 
ENDBRANCH   8   9
ENDBRANCH   7   8
ENDBRANCH   5   7
TORSDOF 3
ENDMDL
