MODEL 1
REMARK VINA RESULT:      -0.5      0.000      0.000
REMARK  1 active torsions:
REMARK  status: ('A' for Active; 'I' for Inactive)
REMARK    1  A    between atoms: C8_8  and  N9_9 
ROOT
HETATM    1  C1  UNL     1     -33.119   7.918   3.108  1.00 20.00     0.050 C 
HETATM    2  C2  UNL     1     -32.195   6.371   1.365  1.00 20.00     0.050 C 
HETATM    3  C3  UNL     1     -34.031   6.781   3.576  1.00 20.00     0.274 C 
HETATM    4  C4  UNL     1     -33.136   5.284   1.890  1.00 20.00     0.274 C 
HETATM    5  C5  UNL     1     -32.768   7.761   1.631  1.00 20.00     0.085 C 
HETATM    6  N9  UNL     1     -33.418   5.470   3.320  1.00 20.00     0.092 N 
HETATM    7 CL10 UNL     1     -31.601   9.015   1.135  1.00 20.00    -0.125 Cl
ENDROOT
BRANCH   6   8
HETATM    8  C8  UNL     1     -34.280   4.397   3.816  1.00 20.00     0.215 C 
HETATM    9  C6  UNL     1     -35.372   4.998   4.689  1.00 20.00     0.042 C 
HETATM   10  C7  UNL     1     -33.429   3.397   4.585  1.00 20.00     0.042 C 
ENDBRANCH   6   8
TORSDOF 1
ENDMDL
MODEL 2
REMARK VINA RESULT:      -0.0      0.754      2.053
REMARK  1 active torsions:
REMARK  status: ('A' for Active; 'I' for Inactive)
REMARK    1  A    between atoms: C8_8  and  N9_9 
ROOT
HETATM    1  C1  UNL     1     -32.422   6.533   1.158  1.00 20.00     0.050 C 
HETATM    2  C2  UNL     1     -33.006   8.466   2.644  1.00 20.00     0.050 C 
HETATM    3  C3  UNL     1     -32.792   5.591   2.306  1.00 20.00     0.274 C 
HETATM    4  C4  UNL     1     -33.356   7.461   3.744  1.00 20.00     0.274 C 
HETATM    5  C5  UNL     1     -31.963   7.888   1.692  1.00 20.00     0.085 C 
HETATM    6  N9  UNL     1     -33.817   6.187   3.173  1.00 20.00     0.092 N 
HETATM    7 CL10 UNL     1     -31.664   9.015   0.343  1.00 20.00    -0.125 Cl
ENDROOT
BRANCH   6   8
HETATM    8  C8  UNL     1     -34.192   5.256   4.237  1.00 20.00     0.215 C 
HETATM    9  C6  UNL     1     -33.767   3.850   3.841  1.00 20.00     0.042 C 
HETATM   10  C7  UNL     1     -35.694   5.347   4.464  1.00 20.00     0.042 C 
ENDBRANCH   6   8
TORSDOF 1
ENDMDL
MODEL 3
REMARK VINA RESULT:       0.1      2.545      4.499
REMARK  1 active torsions:
REMARK  status: ('A' for Active; 'I' for Inactive)
REMARK    1  A    between atoms: C8_8  and  N9_9 
ROOT
HETATM    1  C1  UNL     1     -33.970   7.282   3.680  1.00 20.00     0.050 C 
HETATM    2  C2  UNL     1     -33.184   5.622   1.973  1.00 20.00     0.050 C 
HETATM    3  C3  UNL     1     -33.005   8.303   3.073  1.00 20.00     0.274 C 
HETATM    4  C4  UNL     1     -32.245   6.698   1.421  1.00 20.00     0.274 C 
HETATM    5  C5  UNL     1     -33.468   5.857   3.454  1.00 20.00     0.085 C 
HETATM    6  N9  UNL     1     -32.789   8.045   1.643  1.00 20.00     0.092 N 
HETATM    7 CL10 UNL     1     -34.667   4.678   4.048  1.00 20.00    -0.125 Cl
ENDROOT
BRANCH   6   8
HETATM    8  C8  UNL     1     -31.903   9.056   1.068  1.00 20.00     0.215 C 
HETATM    9  C6  UNL     1     -32.738  10.231   0.580  1.00 20.00     0.042 C 
HETATM   10  C7  UNL     1     -31.103   8.425  -0.062  1.00 20.00     0.042 C 
ENDBRANCH   6   8
TORSDOF 1
ENDMDL
MODEL 4
REMARK VINA RESULT:       0.2      2.547      4.403
REMARK  1 active torsions:
REMARK  status: ('A' for Active; 'I' for Inactive)
REMARK    1  A    between atoms: C8_8  and  N9_9 
ROOT
HETATM    1  C1  UNL     1     -34.290   7.291   3.950  1.00 20.00     0.050 C 
HETATM    2  C2  UNL     1     -33.865   5.305   2.480  1.00 20.00     0.050 C 
HETATM    3  C3  UNL     1     -33.122   8.001   3.260  1.00 20.00     0.274 C 
HETATM    4  C4  UNL     1     -32.711   6.080   1.838  1.00 20.00     0.274 C 
HETATM    5  C5  UNL     1     -34.104   5.776   3.912  1.00 20.00     0.085 C 
HETATM    6  N9  UNL     1     -32.955   7.528   1.879  1.00 20.00     0.092 N 
HETATM    7 CL10 UNL     1     -35.534   4.961   4.600  1.00 20.00    -0.125 Cl
ENDROOT
BRANCH   6   8
HETATM    8  C8  UNL     1     -31.866   8.249   1.220  1.00 20.00     0.215 C 
HETATM    9  C6  UNL     1     -30.822   8.634   2.258  1.00 20.00     0.042 C 
HETATM   10  C7  UNL     1     -32.439   9.472   0.518  1.00 20.00     0.042 C 
ENDBRANCH   6   8
TORSDOF 1
ENDMDL
MODEL 5
REMARK VINA RESULT:       0.3      0.841      1.457
REMARK  1 active torsions:
REMARK  status: ('A' for Active; 'I' for Inactive)
REMARK    1  A    between atoms: C8_8  and  N9_9 
ROOT
HETATM    1  C1  UNL     1     -32.366   8.452   2.739  1.00 20.00     0.050 C 
HETATM    2  C2  UNL     1     -32.231   6.486   1.189  1.00 20.00     0.050 C 
HETATM    3  C3  UNL     1     -33.427   7.695   3.542  1.00 20.00     0.274 C 
HETATM    4  C4  UNL     1     -33.297   5.793   2.042  1.00 20.00     0.274 C 
HETATM    5  C5  UNL     1     -32.366   8.004   1.280  1.00 20.00     0.085 C 
HETATM    6  N9  UNL     1     -33.234   6.242   3.440  1.00 20.00     0.092 N 
HETATM    7 CL10 UNL     1     -31.038   8.796   0.390  1.00 20.00    -0.125 Cl
ENDROOT
BRANCH   6   8
HETATM    8  C8  UNL     1     -34.227   5.536   4.250  1.00 20.00     0.215 C 
HETATM    9  C6  UNL     1     -34.099   4.040   4.001  1.00 20.00     0.042 C 
HETATM   10  C7  UNL     1     -35.613   6.051   3.890  1.00 20.00     0.042 C 
ENDBRANCH   6   8
TORSDOF 1
ENDMDL
MODEL 6
REMARK VINA RESULT:       0.4      2.591      4.620
REMARK  1 active torsions:
REMARK  status: ('A' for Active; 'I' for Inactive)
REMARK    1  A    between atoms: C8_8  and  N9_9 
ROOT
HETATM    1  C1  UNL     1     -33.291   5.579   2.460  1.00 20.00     0.050 C 
HETATM    2  C2  UNL     1     -34.001   7.402   4.028  1.00 20.00     0.050 C 
HETATM    3  C3  UNL     1     -32.742   6.656   1.521  1.00 20.00     0.274 C 
HETATM    4  C4  UNL     1     -33.428   8.420   3.038  1.00 20.00     0.274 C 
HETATM    5  C5  UNL     1     -34.436   6.129   3.308  1.00 20.00     0.085 C 
HETATM    6  N9  UNL     1     -32.315   7.846   2.270  1.00 20.00     0.092 N 
HETATM    7 CL10 UNL     1     -34.976   4.905   4.487  1.00 20.00    -0.125 Cl
ENDROOT
BRANCH   6   8
HETATM    8  C8  UNL     1     -31.750   8.845   1.364  1.00 20.00     0.215 C 
HETATM    9  C6  UNL     1     -32.817   9.878   1.033  1.00 20.00     0.042 C 
HETATM   10  C7  UNL     1     -31.237   8.144   0.114  1.00 20.00     0.042 C 
ENDBRANCH   6   8
TORSDOF 1
ENDMDL
MODEL 7
REMARK VINA RESULT:       1.5      2.533      4.780
REMARK  1 active torsions:
REMARK  status: ('A' for Active; 'I' for Inactive)
REMARK    1  A    between atoms: C8_8  and  N9_9 
ROOT
HETATM    1  C1  UNL     1     -33.006   5.340   2.320  1.00 20.00     0.050 C 
HETATM    2  C2  UNL     1     -33.982   7.091   3.825  1.00 20.00     0.050 C 
HETATM    3  C3  UNL     1     -32.802   6.424   1.258  1.00 20.00     0.274 C 
HETATM    4  C4  UNL     1     -33.747   8.118   2.715  1.00 20.00     0.274 C 
HETATM    5  C5  UNL     1     -34.170   5.693   3.242  1.00 20.00     0.085 C 
HETATM    6  N9  UNL     1     -32.600   7.742   1.876  1.00 20.00     0.092 N 
HETATM    7 CL10 UNL     1     -34.310   4.491   4.551  1.00 20.00    -0.125 Cl
ENDROOT
BRANCH   6   8
HETATM    8  C8  UNL     1     -32.361   8.757   0.851  1.00 20.00     0.215 C 
HETATM    9  C6  UNL     1     -30.894   8.722   0.448  1.00 20.00     0.042 C 
HETATM   10  C7  UNL     1     -32.762  10.117   1.402  1.00 20.00     0.042 C 
ENDBRANCH   6   8
TORSDOF 1
ENDMDL
MODEL 8
REMARK VINA RESULT:       2.0      2.062      3.004
REMARK  1 active torsions:
REMARK  status: ('A' for Active; 'I' for Inactive)
REMARK    1  A    between atoms: C8_8  and  N9_9 
ROOT
HETATM    1  C1  UNL     1     -31.765   6.610   1.132  1.00 20.00     0.050 C 
HETATM    2  C2  UNL     1     -32.734   4.540   2.162  1.00 20.00     0.050 C 
HETATM    3  C3  UNL     1     -32.805   7.430   1.899  1.00 20.00     0.274 C 
HETATM    4  C4  UNL     1     -33.743   5.427   2.896  1.00 20.00     0.274 C 
HETATM    5  C5  UNL     1     -32.277   5.197   0.863  1.00 20.00     0.085 C 
HETATM    6  N9  UNL     1     -33.188   6.764   3.151  1.00 20.00     0.092 N 
HETATM    7 CL10 UNL     1     -31.005   4.215   0.088  1.00 20.00    -0.125 Cl
ENDROOT
BRANCH   6   8
HETATM    8  C8  UNL     1     -34.146   7.582   3.894  1.00 20.00     0.215 C 
HETATM    9  C6  UNL     1     -33.473   8.126   5.146  1.00 20.00     0.042 C 
HETATM   10  C7  UNL     1     -35.362   6.732   4.232  1.00 20.00     0.042 C 
ENDBRANCH   6   8
TORSDOF 1
ENDMDL
MODEL 9
REMARK VINA RESULT:       2.2      1.947      2.960
REMARK  1 active torsions:
REMARK  status: ('A' for Active; 'I' for Inactive)
REMARK    1  A    between atoms: C8_8  and  N9_9 
ROOT
HETATM    1  C1  UNL     1     -33.038   4.562   1.851  1.00 20.00     0.050 C 
HETATM    2  C2  UNL     1     -31.915   6.710   1.209  1.00 20.00     0.050 C 
HETATM    3  C3  UNL     1     -33.684   5.299   3.027  1.00 20.00     0.274 C 
HETATM    4  C4  UNL     1     -32.597   7.377   2.406  1.00 20.00     0.274 C 
HETATM    5  C5  UNL     1     -31.715   5.217   1.459  1.00 20.00     0.085 C 
HETATM    6  N9  UNL     1     -33.875   6.723   2.721  1.00 20.00     0.092 N 
HETATM    7 CL10 UNL     1     -31.043   4.432   0.006  1.00 20.00    -0.125 Cl
ENDROOT
BRANCH   6   8
HETATM    8  C8  UNL     1     -34.536   7.402   3.836  1.00 20.00     0.215 C 
HETATM    9  C6  UNL     1     -33.478   7.998   4.753  1.00 20.00     0.042 C 
HETATM   10  C7  UNL     1     -35.418   6.401   4.569  1.00 20.00     0.042 C 
ENDBRANCH   6   8
TORSDOF 1
ENDMDL
