MODEL 1
REMARK VINA RESULT:      -1.5      0.000      0.000
REMARK  3 active torsions:
REMARK  status: ('A' for Active; 'I' for Inactive)
REMARK    1  A    between atoms: C1_1  and  C4_4 
REMARK       I    between atoms: C1_1  and  N7_7 
REMARK    2  A    between atoms: C5_5  and  C6_6 
REMARK    3  A    between atoms: C5_5  and  N7_7 
ROOT
HETATM    1  C1  UNL     1     -33.009   7.114   2.440  1.00 20.00     0.219 C 
HETATM    2  C3  UNL     1     -33.533   7.846   4.776  1.00 20.00     0.152 C 
HETATM    3  N7  UNL     1     -33.865   7.136   3.547  1.00 20.00    -0.355 N 
HETATM    4  O8  UNL     1     -32.234   8.034   2.163  1.00 20.00    -0.273 OA
ENDROOT
BRANCH   3   5
HETATM    5  C5  UNL     1     -35.153   6.448   3.554  1.00 20.00     0.140 C 
BRANCH   5   6
HETATM    6  C6  UNL     1     -35.208   5.319   4.569  1.00 20.00     0.134 C 
HETATM    7 CL9  UNL     1     -34.034   4.038   4.177  1.00 20.00    -0.129 Cl
ENDBRANCH   5   6
ENDBRANCH   3   5
BRANCH   1   8
HETATM    8  C4  UNL     1     -33.076   5.871   1.564  1.00 20.00     0.098 C 
HETATM    9  C2  UNL     1     -31.700   5.312   1.233  1.00 20.00     0.014 C 
ENDBRANCH   1   8
TORSDOF 3
ENDMDL
MODEL 2
REMARK VINA RESULT:      -1.1      1.985      3.414
REMARK  3 active torsions:
REMARK  status: ('A' for Active; 'I' for Inactive)
REMARK    1  A    between atoms: C1_1  and  C4_4 
REMARK       I    between atoms: C1_1  and  N7_7 
REMARK    2  A    between atoms: C5_5  and  C6_6 
REMARK    3  A    between atoms: C5_5  and  N7_7 
ROOT
HETATM    1  C1  UNL     1     -33.913   7.243   3.708  1.00 20.00     0.219 C 
HETATM    2  C3  UNL     1     -32.232   8.176   2.104  1.00 20.00     0.152 C 
HETATM    3  N7  UNL     1     -33.108   7.109   2.571  1.00 20.00    -0.355 N 
HETATM    4  O8  UNL     1     -33.611   7.950   4.673  1.00 20.00    -0.273 OA
ENDROOT
BRANCH   3   5
HETATM    5  C5  UNL     1     -33.087   5.890   1.766  1.00 20.00     0.140 C 
BRANCH   5   6
HETATM    6  C6  UNL     1     -31.676   5.439   1.425  1.00 20.00     0.134 C 
HETATM    7 CL9  UNL     1     -31.681   4.230   0.117  1.00 20.00    -0.129 Cl
ENDBRANCH   5   6
ENDBRANCH   3   5
BRANCH   1   8
HETATM    8  C4  UNL     1     -35.214   6.454   3.706  1.00 20.00     0.098 C 
HETATM    9  C2  UNL     1     -35.105   5.140   4.463  1.00 20.00     0.014 C 
ENDBRANCH   1   8
TORSDOF 3
ENDMDL
MODEL 3
REMARK VINA RESULT:      -1.0      2.315      3.111
REMARK  3 active torsions:
REMARK  status: ('A' for Active; 'I' for Inactive)
REMARK    1  A    between atoms: C1_1  and  C4_4 
REMARK       I    between atoms: C1_1  and  N7_7 
REMARK    2  A    between atoms: C5_5  and  C6_6 
REMARK    3  A    between atoms: C5_5  and  N7_7 
ROOT
HETATM    1  C1  UNL     1     -31.962   8.269   1.142  1.00 20.00     0.219 C 
HETATM    2  C3  UNL     1     -32.384   5.814   1.398  1.00 20.00     0.152 C 
HETATM    3  N7  UNL     1     -32.559   7.199   1.819  1.00 20.00    -0.355 N 
HETATM    4  O8  UNL     1     -30.890   8.177   0.539  1.00 20.00    -0.273 OA
ENDROOT
BRANCH   3   5
HETATM    5  C5  UNL     1     -33.403   7.390   2.996  1.00 20.00     0.140 C 
BRANCH   5   6
HETATM    6  C6  UNL     1     -33.927   6.079   3.558  1.00 20.00     0.134 C 
HETATM    7 CL9  UNL     1     -35.624   6.229   4.077  1.00 20.00    -0.129 Cl
ENDBRANCH   5   6
ENDBRANCH   3   5
BRANCH   1   8
HETATM    8  C4  UNL     1     -32.713   9.592   1.184  1.00 20.00     0.098 C 
HETATM    9  C2  UNL     1     -32.684  10.326  -0.149  1.00 20.00     0.014 C 
ENDBRANCH   1   8
TORSDOF 3
ENDMDL
MODEL 4
REMARK VINA RESULT:      -0.8      2.985      4.267
REMARK  3 active torsions:
REMARK  status: ('A' for Active; 'I' for Inactive)
REMARK    1  A    between atoms: C1_1  and  C4_4 
REMARK       I    between atoms: C1_1  and  N7_7 
REMARK    2  A    between atoms: C5_5  and  C6_6 
REMARK    3  A    between atoms: C5_5  and  N7_7 
ROOT
HETATM    1  C1  UNL     1     -33.836   6.108   3.258  1.00 20.00     0.219 C 
HETATM    2  C3  UNL     1     -31.969   5.447   1.726  1.00 20.00     0.152 C 
HETATM    3  N7  UNL     1     -33.039   6.349   2.133  1.00 20.00    -0.355 N 
HETATM    4  O8  UNL     1     -34.101   4.976   3.673  1.00 20.00    -0.273 OA
ENDROOT
BRANCH   3   5
HETATM    5  C5  UNL     1     -33.221   7.522   1.282  1.00 20.00     0.140 C 
BRANCH   5   6
HETATM    6  C6  UNL     1     -32.030   8.465   1.325  1.00 20.00     0.134 C 
HETATM    7 CL9  UNL     1     -32.315   9.914   0.329  1.00 20.00    -0.129 Cl
ENDBRANCH   5   6
ENDBRANCH   3   5
BRANCH   1   8
HETATM    8  C4  UNL     1     -34.380   7.337   3.971  1.00 20.00     0.098 C 
HETATM    9  C2  UNL     1     -33.340   8.012   4.852  1.00 20.00     0.014 C 
ENDBRANCH   1   8
TORSDOF 3
ENDMDL
MODEL 5
REMARK VINA RESULT:      -0.8      2.983      3.786
REMARK  3 active torsions:
REMARK  status: ('A' for Active; 'I' for Inactive)
REMARK    1  A    between atoms: C1_1  and  C4_4 
REMARK       I    between atoms: C1_1  and  N7_7 
REMARK    2  A    between atoms: C5_5  and  C6_6 
REMARK    3  A    between atoms: C5_5  and  N7_7 
ROOT
HETATM    1  C1  UNL     1     -34.586   4.875   4.162  1.00 20.00     0.219 C 
HETATM    2  C3  UNL     1     -35.599   7.012   3.336  1.00 20.00     0.152 C 
HETATM    3  N7  UNL     1     -34.451   6.163   3.630  1.00 20.00    -0.355 N 
HETATM    4  O8  UNL     1     -35.519   4.540   4.898  1.00 20.00    -0.273 OA
ENDROOT
BRANCH   3   5
HETATM    5  C5  UNL     1     -33.148   6.752   3.330  1.00 20.00     0.140 C 
BRANCH   5   6
HETATM    6  C6  UNL     1     -32.846   6.774   1.841  1.00 20.00     0.134 C 
HETATM    7 CL9  UNL     1     -31.994   8.267   1.375  1.00 20.00    -0.129 Cl
ENDBRANCH   5   6
ENDBRANCH   3   5
BRANCH   1   8
HETATM    8  C4  UNL     1     -33.503   3.875   3.784  1.00 20.00     0.098 C 
HETATM    9  C2  UNL     1     -33.156   2.928   4.923  1.00 20.00     0.014 C 
ENDBRANCH   1   8
TORSDOF 3
ENDMDL
MODEL 6
REMARK VINA RESULT:      -0.6      2.717      3.937
REMARK  3 active torsions:
REMARK  status: ('A' for Active; 'I' for Inactive)
REMARK    1  A    between atoms: C1_1  and  C4_4 
REMARK       I    between atoms: C1_1  and  N7_7 
REMARK    2  A    between atoms: C5_5  and  C6_6 
REMARK    3  A    between atoms: C5_5  and  N7_7 
ROOT
HETATM    1  C1  UNL     1     -34.818   5.618   3.966  1.00 20.00     0.219 C 
HETATM    2  C3  UNL     1     -33.170   3.766   3.614  1.00 20.00     0.152 C 
HETATM    3  N7  UNL     1     -33.842   4.986   3.186  1.00 20.00    -0.355 N 
HETATM    4  O8  UNL     1     -35.564   5.012   4.741  1.00 20.00    -0.273 OA
ENDROOT
BRANCH   3   5
HETATM    5  C5  UNL     1     -33.425   5.503   1.885  1.00 20.00     0.140 C 
BRANCH   5   6
HETATM    6  C6  UNL     1     -31.974   5.954   1.874  1.00 20.00     0.134 C 
HETATM    7 CL9  UNL     1     -31.846   7.715   1.640  1.00 20.00    -0.129 Cl
ENDBRANCH   5   6
ENDBRANCH   3   5
BRANCH   1   8
HETATM    8  C4  UNL     1     -34.926   7.128   3.812  1.00 20.00     0.098 C 
HETATM    9  C2  UNL     1     -33.843   7.874   4.577  1.00 20.00     0.014 C 
ENDBRANCH   1   8
TORSDOF 3
ENDMDL
MODEL 7
REMARK VINA RESULT:      -0.4      1.343      2.844
REMARK  3 active torsions:
REMARK  status: ('A' for Active; 'I' for Inactive)
REMARK    1  A    between atoms: C1_1  and  C4_4 
REMARK       I    between atoms: C1_1  and  N7_7 
REMARK    2  A    between atoms: C5_5  and  C6_6 
REMARK    3  A    between atoms: C5_5  and  N7_7 
ROOT
HETATM    1  C1  UNL     1     -33.164   7.296   2.987  1.00 20.00     0.219 C 
HETATM    2  C3  UNL     1     -33.204   5.357   1.403  1.00 20.00     0.152 C 
HETATM    3  N7  UNL     1     -33.459   5.957   2.707  1.00 20.00    -0.355 N 
HETATM    4  O8  UNL     1     -32.244   7.916   2.446  1.00 20.00    -0.273 OA
ENDROOT
BRANCH   3   5
HETATM    5  C5  UNL     1     -34.047   5.061   3.700  1.00 20.00     0.140 C 
BRANCH   5   6
HETATM    6  C6  UNL     1     -33.577   3.625   3.542  1.00 20.00     0.134 C 
HETATM    7 CL9  UNL     1     -33.021   2.950   5.094  1.00 20.00    -0.129 Cl
ENDBRANCH   5   6
ENDBRANCH   3   5
BRANCH   1   8
HETATM    8  C4  UNL     1     -34.050   7.978   4.019  1.00 20.00     0.098 C 
HETATM    9  C2  UNL     1     -33.302   8.326   5.297  1.00 20.00     0.014 C 
ENDBRANCH   1   8
TORSDOF 3
ENDMDL
MODEL 8
REMARK VINA RESULT:      -0.3      3.062      3.627
REMARK  3 active torsions:
REMARK  status: ('A' for Active; 'I' for Inactive)
REMARK    1  A    between atoms: C1_1  and  C4_4 
REMARK       I    between atoms: C1_1  and  N7_7 
REMARK    2  A    between atoms: C5_5  and  C6_6 
REMARK    3  A    between atoms: C5_5  and  N7_7 
ROOT
HETATM    1  C1  UNL     1     -33.211   5.884   2.351  1.00 20.00     0.219 C 
HETATM    2  C3  UNL     1     -33.702   7.902   3.750  1.00 20.00     0.152 C 
HETATM    3  N7  UNL     1     -32.994   7.230   2.668  1.00 20.00    -0.355 N 
HETATM    4  O8  UNL     1     -33.546   5.037   3.183  1.00 20.00    -0.273 OA
ENDROOT
BRANCH   3   5
HETATM    5  C5  UNL     1     -32.042   8.063   1.936  1.00 20.00     0.140 C 
BRANCH   5   6
HETATM    6  C6  UNL     1     -32.639   9.392   1.506  1.00 20.00     0.134 C 
HETATM    7 CL9  UNL     1     -32.435   9.657  -0.244  1.00 20.00    -0.129 Cl
ENDBRANCH   5   6
ENDBRANCH   3   5
BRANCH   1   8
HETATM    8  C4  UNL     1     -33.010   5.497   0.893  1.00 20.00     0.098 C 
HETATM    9  C2  UNL     1     -31.743   4.685   0.671  1.00 20.00     0.014 C 
ENDBRANCH   1   8
TORSDOF 3
ENDMDL
MODEL 9
REMARK VINA RESULT:       0.0      1.797      2.268
REMARK  3 active torsions:
REMARK  status: ('A' for Active; 'I' for Inactive)
REMARK    1  A    between atoms: C1_1  and  C4_4 
REMARK       I    between atoms: C1_1  and  N7_7 
REMARK    2  A    between atoms: C5_5  and  C6_6 
REMARK    3  A    between atoms: C5_5  and  N7_7 
ROOT
HETATM    1  C1  UNL     1     -33.923   7.450   3.396  1.00 20.00     0.219 C 
HETATM    2  C3  UNL     1     -35.474   5.809   4.478  1.00 20.00     0.152 C 
HETATM    3  N7  UNL     1     -34.277   6.134   3.713  1.00 20.00    -0.355 N 
HETATM    4  O8  UNL     1     -34.748   8.354   3.231  1.00 20.00    -0.273 OA
ENDROOT
BRANCH   3   5
HETATM    5  C5  UNL     1     -33.472   4.986   3.301  1.00 20.00     0.140 C 
BRANCH   5   6
HETATM    6  C6  UNL     1     -33.934   3.688   3.941  1.00 20.00     0.134 C 
HETATM    7 CL9  UNL     1     -32.708   3.044   5.060  1.00 20.00    -0.129 Cl
ENDBRANCH   5   6
ENDBRANCH   3   5
BRANCH   1   8
HETATM    8  C4  UNL     1     -32.434   7.730   3.256  1.00 20.00     0.098 C 
HETATM    9  C2  UNL     1     -32.022   8.007   1.818  1.00 20.00     0.014 C 
ENDBRANCH   1   8
TORSDOF 3
ENDMDL
