MODEL 1
REMARK VINA RESULT:       0.3      0.000      0.000
REMARK  1 active torsions:
REMARK  status: ('A' for Active; 'I' for Inactive)
REMARK    1  A    between atoms: C1_1  and  C8_8 
REMARK       I    between atoms: C1_1  and  N10_10 
ROOT
HETATM    1  C1  UNL     1     -32.103   7.765   1.452  1.00 20.00     0.224 C 
HETATM    2  C2  UNL     1     -34.233   7.538   4.616  1.00 20.00     0.021 C 
HETATM    3  C5  UNL     1     -35.067   6.460   3.932  1.00 20.00     0.023 C 
HETATM    4  C6  UNL     1     -33.339   8.249   3.599  1.00 20.00     0.126 C 
HETATM    5  C7  UNL     1     -32.760   5.913   2.960  1.00 20.00     0.145 C 
HETATM    6  C9  UNL     1     -34.187   5.420   3.223  1.00 20.00     0.100 C 
HETATM    7  N10 UNL     1     -32.740   7.334   2.619  1.00 20.00    -0.350 N 
HETATM    8  O11 UNL     1     -31.593   7.026   0.614  1.00 20.00    -0.273 OA
HETATM    9 CL12 UNL     1     -34.105   3.912   4.188  1.00 20.00    -0.123 Cl
ENDROOT
BRANCH   1  10
HETATM   10  C8  UNL     1     -32.061   9.241   1.209  1.00 20.00     0.078 A 
HETATM   11  C3  UNL     1     -31.679   9.727  -0.149  1.00 20.00     0.015 A 
HETATM   12  C4  UNL     1     -33.098   9.843   0.321  1.00 20.00     0.015 A 
ENDBRANCH   1  10
TORSDOF 1
ENDMDL
MODEL 2
REMARK VINA RESULT:       1.6      2.723      4.881
REMARK  1 active torsions:
REMARK  status: ('A' for Active; 'I' for Inactive)
REMARK    1  A    between atoms: C1_1  and  C8_8 
REMARK       I    between atoms: C1_1  and  N10_10 
ROOT
HETATM    1  C1  UNL     1     -33.234   4.504   3.066  1.00 20.00     0.224 C 
HETATM    2  C2  UNL     1     -34.229   8.098   3.896  1.00 20.00     0.021 C 
HETATM    3  C5  UNL     1     -32.792   8.522   3.611  1.00 20.00     0.023 C 
HETATM    4  C6  UNL     1     -34.326   6.576   4.007  1.00 20.00     0.126 C 
HETATM    5  C7  UNL     1     -33.057   6.664   1.867  1.00 20.00     0.145 C 
HETATM    6  C9  UNL     1     -32.256   7.890   2.319  1.00 20.00     0.100 C 
HETATM    7  N10 UNL     1     -33.512   5.873   3.008  1.00 20.00    -0.350 N 
HETATM    8  O11 UNL     1     -32.558   3.887   2.247  1.00 20.00    -0.273 OA
HETATM    9 CL12 UNL     1     -32.250   9.094   0.991  1.00 20.00    -0.123 Cl
ENDROOT
BRANCH   1  10
HETATM   10  C8  UNL     1     -33.796   3.747   4.228  1.00 20.00     0.078 A 
HETATM   11  C3  UNL     1     -33.369   2.332   4.430  1.00 20.00     0.015 A 
HETATM   12  C4  UNL     1     -32.884   3.405   5.359  1.00 20.00     0.015 A 
ENDBRANCH   1  10
TORSDOF 1
ENDMDL
