MODEL 1
REMARK VINA RESULT:      -3.0      0.000      0.000
REMARK  2 active torsions:
REMARK  status: ('A' for Active; 'I' for Inactive)
REMARK    1  A    between atoms: C3_3  and  C6_6 
REMARK    2  A    between atoms: C5_5  and  C6_6 
ROOT
HETATM    1  C6  UNL     1     -33.068   6.914   1.957  1.00 20.00     0.086 C 
HETATM    2 CL7  UNL     1     -32.567   5.355   1.236  1.00 20.00    -0.125 Cl
ENDROOT
BRANCH   1   3
HETATM    3  C3  UNL     1     -33.463   6.667   3.384  1.00 20.00     0.004 A 
HETATM    4  C1  UNL     1     -34.243   7.704   4.145  1.00 20.00     0.006 A 
HETATM    5  C2  UNL     1     -34.903   6.416   3.739  1.00 20.00     0.006 A 
ENDBRANCH   1   3
BRANCH   1   6
HETATM    6  C5  UNL     1     -31.947   7.953   1.855  1.00 20.00     0.016 C 
HETATM    7  C4  UNL     1     -32.237   9.063   0.853  1.00 20.00     0.006 C 
ENDBRANCH   1   6
TORSDOF 2
ENDMDL
MODEL 2
REMARK VINA RESULT:      -2.5      2.124      3.973
REMARK  2 active torsions:
REMARK  status: ('A' for Active; 'I' for Inactive)
REMARK    1  A    between atoms: C3_3  and  C6_6 
REMARK    2  A    between atoms: C5_5  and  C6_6 
ROOT
HETATM    1  C6  UNL     1     -34.346   6.219   3.343  1.00 20.00     0.086 C 
HETATM    2 CL7  UNL     1     -34.171   7.736   4.275  1.00 20.00    -0.125 Cl
ENDROOT
BRANCH   1   3
HETATM    3  C3  UNL     1     -33.030   5.916   2.685  1.00 20.00     0.004 A 
HETATM    4  C1  UNL     1     -32.948   5.762   1.191  1.00 20.00     0.006 A 
HETATM    5  C2  UNL     1     -32.339   6.964   1.856  1.00 20.00     0.006 A 
ENDBRANCH   1   3
BRANCH   1   6
HETATM    6  C5  UNL     1     -34.801   5.067   4.245  1.00 20.00     0.016 C 
HETATM    7  C4  UNL     1     -33.853   3.875   4.234  1.00 20.00     0.006 C 
ENDBRANCH   1   6
TORSDOF 2
ENDMDL
MODEL 3
REMARK VINA RESULT:      -2.2      1.742      3.428
REMARK  2 active torsions:
REMARK  status: ('A' for Active; 'I' for Inactive)
REMARK    1  A    between atoms: C3_3  and  C6_6 
REMARK    2  A    between atoms: C5_5  and  C6_6 
ROOT
HETATM    1  C6  UNL     1     -33.360   7.242   2.401  1.00 20.00     0.086 C 
HETATM    2 CL7  UNL     1     -31.839   8.181   2.325  1.00 20.00    -0.125 Cl
ENDROOT
BRANCH   1   3
HETATM    3  C3  UNL     1     -33.050   5.813   2.062  1.00 20.00     0.004 A 
HETATM    4  C1  UNL     1     -33.223   5.313   0.654  1.00 20.00     0.006 A 
HETATM    5  C2  UNL     1     -31.844   5.477   1.228  1.00 20.00     0.006 A 
ENDBRANCH   1   3
BRANCH   1   6
HETATM    6  C5  UNL     1     -34.014   7.363   3.782  1.00 20.00     0.016 C 
HETATM    7  C4  UNL     1     -35.132   6.356   4.015  1.00 20.00     0.006 C 
ENDBRANCH   1   6
TORSDOF 2
ENDMDL
MODEL 4
REMARK VINA RESULT:      -2.1      2.028      2.482
REMARK  2 active torsions:
REMARK  status: ('A' for Active; 'I' for Inactive)
REMARK    1  A    between atoms: C3_3  and  C6_6 
REMARK    2  A    between atoms: C5_5  and  C6_6 
ROOT
HETATM    1  C6  UNL     1     -33.340   6.328   3.280  1.00 20.00     0.086 C 
HETATM    2 CL7  UNL     1     -34.210   7.707   4.017  1.00 20.00    -0.125 Cl
ENDROOT
BRANCH   1   3
HETATM    3  C3  UNL     1     -34.233   5.122   3.337  1.00 20.00     0.004 A 
HETATM    4  C1  UNL     1     -33.910   3.982   4.264  1.00 20.00     0.006 A 
HETATM    5  C2  UNL     1     -35.090   4.870   4.547  1.00 20.00     0.006 A 
ENDBRANCH   1   3
BRANCH   1   6
HETATM    6  C5  UNL     1     -32.917   6.647   1.843  1.00 20.00     0.016 C 
HETATM    7  C4  UNL     1     -31.993   7.853   1.736  1.00 20.00     0.006 C 
ENDBRANCH   1   6
TORSDOF 2
ENDMDL
MODEL 5
REMARK VINA RESULT:      -2.1      1.706      3.289
REMARK  2 active torsions:
REMARK  status: ('A' for Active; 'I' for Inactive)
REMARK    1  A    between atoms: C3_3  and  C6_6 
REMARK    2  A    between atoms: C5_5  and  C6_6 
ROOT
HETATM    1  C6  UNL     1     -33.550   5.666   3.410  1.00 20.00     0.086 C 
HETATM    2 CL7  UNL     1     -33.915   3.959   3.802  1.00 20.00    -0.125 Cl
ENDROOT
BRANCH   1   3
HETATM    3  C3  UNL     1     -33.303   5.768   1.932  1.00 20.00     0.004 A 
HETATM    4  C1  UNL     1     -32.244   6.695   1.403  1.00 20.00     0.006 A 
HETATM    5  C2  UNL     1     -32.042   5.208   1.334  1.00 20.00     0.006 A 
ENDBRANCH   1   3
BRANCH   1   6
HETATM    6  C5  UNL     1     -34.688   6.590   3.855  1.00 20.00     0.016 C 
HETATM    7  C4  UNL     1     -34.212   7.958   4.323  1.00 20.00     0.006 C 
ENDBRANCH   1   6
TORSDOF 2
ENDMDL
MODEL 6
REMARK VINA RESULT:      -2.1      1.714      2.337
REMARK  2 active torsions:
REMARK  status: ('A' for Active; 'I' for Inactive)
REMARK    1  A    between atoms: C3_3  and  C6_6 
REMARK    2  A    between atoms: C5_5  and  C6_6 
ROOT
HETATM    1  C6  UNL     1     -32.787   6.717   2.410  1.00 20.00     0.086 C 
HETATM    2 CL7  UNL     1     -31.876   8.129   1.794  1.00 20.00    -0.125 Cl
ENDROOT
BRANCH   1   3
HETATM    3  C3  UNL     1     -34.088   7.207   2.978  1.00 20.00     0.004 A 
HETATM    4  C1  UNL     1     -34.842   6.371   3.975  1.00 20.00     0.006 A 
HETATM    5  C2  UNL     1     -34.171   7.642   4.415  1.00 20.00     0.006 A 
ENDBRANCH   1   3
BRANCH   1   6
HETATM    6  C5  UNL     1     -33.010   5.680   1.304  1.00 20.00     0.016 C 
HETATM    7  C4  UNL     1     -31.745   4.930   0.911  1.00 20.00     0.006 C 
ENDBRANCH   1   6
TORSDOF 2
ENDMDL
MODEL 7
REMARK VINA RESULT:      -1.9      2.007      3.787
REMARK  2 active torsions:
REMARK  status: ('A' for Active; 'I' for Inactive)
REMARK    1  A    between atoms: C3_3  and  C6_6 
REMARK    2  A    between atoms: C5_5  and  C6_6 
ROOT
HETATM    1  C6  UNL     1     -33.608   7.596   3.340  1.00 20.00     0.086 C 
HETATM    2 CL7  UNL     1     -33.417   8.246   4.995  1.00 20.00    -0.125 Cl
ENDROOT
BRANCH   1   3
HETATM    3  C3  UNL     1     -32.283   7.697   2.639  1.00 20.00     0.004 A 
HETATM    4  C1  UNL     1     -32.072   7.012   1.316  1.00 20.00     0.006 A 
HETATM    5  C2  UNL     1     -32.152   8.512   1.382  1.00 20.00     0.006 A 
ENDBRANCH   1   3
BRANCH   1   6
HETATM    6  C5  UNL     1     -34.120   6.152   3.370  1.00 20.00     0.016 C 
HETATM    7  C4  UNL     1     -35.406   5.981   4.167  1.00 20.00     0.006 C 
ENDBRANCH   1   6
TORSDOF 2
ENDMDL
MODEL 8
REMARK VINA RESULT:      -1.9      1.855      3.472
REMARK  2 active torsions:
REMARK  status: ('A' for Active; 'I' for Inactive)
REMARK    1  A    between atoms: C3_3  and  C6_6 
REMARK    2  A    between atoms: C5_5  and  C6_6 
ROOT
HETATM    1  C6  UNL     1     -33.446   5.379   3.463  1.00 20.00     0.086 C 
HETATM    2 CL7  UNL     1     -32.941   5.347   1.747  1.00 20.00    -0.125 Cl
ENDROOT
BRANCH   1   3
HETATM    3  C3  UNL     1     -34.360   6.554   3.664  1.00 20.00     0.004 A 
HETATM    4  C1  UNL     1     -34.017   7.617   4.671  1.00 20.00     0.006 A 
HETATM    5  C2  UNL     1     -33.946   7.923   3.201  1.00 20.00     0.006 A 
ENDBRANCH   1   3
BRANCH   1   6
HETATM    6  C5  UNL     1     -34.123   4.064   3.863  1.00 20.00     0.016 C 
HETATM    7  C4  UNL     1     -33.219   3.132   4.657  1.00 20.00     0.006 C 
ENDBRANCH   1   6
TORSDOF 2
ENDMDL
MODEL 9
REMARK VINA RESULT:      -1.8      2.437      3.895
REMARK  2 active torsions:
REMARK  status: ('A' for Active; 'I' for Inactive)
REMARK    1  A    between atoms: C3_3  and  C6_6 
REMARK    2  A    between atoms: C5_5  and  C6_6 
ROOT
HETATM    1  C6  UNL     1     -32.388   8.151   1.731  1.00 20.00     0.086 C 
HETATM    2 CL7  UNL     1     -31.885   8.609   3.386  1.00 20.00    -0.125 Cl
ENDROOT
BRANCH   1   3
HETATM    3  C3  UNL     1     -31.888   9.200   0.779  1.00 20.00     0.004 A 
HETATM    4  C1  UNL     1     -32.677   9.541  -0.455  1.00 20.00     0.006 A 
HETATM    5  C2  UNL     1     -32.589  10.526   0.677  1.00 20.00     0.006 A 
ENDBRANCH   1   3
BRANCH   1   6
HETATM    6  C5  UNL     1     -31.864   6.759   1.361  1.00 20.00     0.016 C 
HETATM    7  C4  UNL     1     -32.900   5.656   1.529  1.00 20.00     0.006 C 
ENDBRANCH   1   6
TORSDOF 2
ENDMDL
