MODEL 1
REMARK VINA RESULT:      -2.5      0.000      0.000
REMARK  2 active torsions:
REMARK  status: ('A' for Active; 'I' for Inactive)
REMARK    1  A    between atoms: C3_3  and  C6_6 
REMARK    2  A    between atoms: C5_5  and  C6_6 
ROOT
HETATM    1  C6  UNL     1     -32.535   6.909   2.399  1.00 20.00     0.086 C 
HETATM    2 CL7  UNL     1     -32.895   5.650   1.179  1.00 20.00    -0.125 Cl
ENDROOT
BRANCH   1   3
HETATM    3  C3  UNL     1     -33.836   7.427   2.941  1.00 20.00     0.004 A 
HETATM    4  C1  UNL     1     -34.698   6.551   3.808  1.00 20.00     0.006 A 
HETATM    5  C2  UNL     1     -33.979   7.728   4.408  1.00 20.00     0.006 A 
ENDBRANCH   1   3
BRANCH   1   6
HETATM    6  C5  UNL     1     -31.690   8.036   1.795  1.00 20.00     0.016 C 
HETATM    7  C4  UNL     1     -32.487   8.980   0.904  1.00 20.00     0.006 C 
ENDBRANCH   1   6
TORSDOF 2
ENDMDL
MODEL 2
REMARK VINA RESULT:      -2.2      2.168      3.971
REMARK  2 active torsions:
REMARK  status: ('A' for Active; 'I' for Inactive)
REMARK    1  A    between atoms: C3_3  and  C6_6 
REMARK    2  A    between atoms: C5_5  and  C6_6 
ROOT
HETATM    1  C6  UNL     1     -33.614   6.156   3.545  1.00 20.00     0.086 C 
HETATM    2 CL7  UNL     1     -34.381   7.648   4.170  1.00 20.00    -0.125 Cl
ENDROOT
BRANCH   1   3
HETATM    3  C3  UNL     1     -33.346   6.341   2.079  1.00 20.00     0.004 A 
HETATM    4  C1  UNL     1     -32.181   7.174   1.622  1.00 20.00     0.006 A 
HETATM    5  C2  UNL     1     -32.156   5.682   1.439  1.00 20.00     0.006 A 
ENDBRANCH   1   3
BRANCH   1   6
HETATM    6  C5  UNL     1     -34.500   4.932   3.805  1.00 20.00     0.016 C 
HETATM    7  C4  UNL     1     -33.722   3.709   4.272  1.00 20.00     0.006 C 
ENDBRANCH   1   6
TORSDOF 2
ENDMDL
MODEL 3
REMARK VINA RESULT:      -2.2      1.674      2.318
REMARK  2 active torsions:
REMARK  status: ('A' for Active; 'I' for Inactive)
REMARK    1  A    between atoms: C3_3  and  C6_6 
REMARK    2  A    between atoms: C5_5  and  C6_6 
ROOT
HETATM    1  C6  UNL     1     -33.340   6.780   1.955  1.00 20.00     0.086 C 
HETATM    2 CL7  UNL     1     -31.927   7.876   1.889  1.00 20.00    -0.125 Cl
ENDROOT
BRANCH   1   3
HETATM    3  C3  UNL     1     -33.666   6.515   3.397  1.00 20.00     0.004 A 
HETATM    4  C1  UNL     1     -34.237   7.609   4.257  1.00 20.00     0.006 A 
HETATM    5  C2  UNL     1     -35.099   6.446   3.848  1.00 20.00     0.006 A 
ENDBRANCH   1   3
BRANCH   1   6
HETATM    6  C5  UNL     1     -33.063   5.478   1.194  1.00 20.00     0.016 C 
HETATM    7  C4  UNL     1     -31.584   5.119   1.126  1.00 20.00     0.006 C 
ENDBRANCH   1   6
TORSDOF 2
ENDMDL
MODEL 4
REMARK VINA RESULT:      -2.1      0.707      3.291
REMARK  2 active torsions:
REMARK  status: ('A' for Active; 'I' for Inactive)
REMARK    1  A    between atoms: C3_3  and  C6_6 
REMARK    2  A    between atoms: C5_5  and  C6_6 
ROOT
HETATM    1  C6  UNL     1     -33.206   7.227   2.107  1.00 20.00     0.086 C 
HETATM    2 CL7  UNL     1     -32.607   5.615   1.612  1.00 20.00    -0.125 Cl
ENDROOT
BRANCH   1   3
HETATM    3  C3  UNL     1     -32.129   8.237   1.828  1.00 20.00     0.004 A 
HETATM    4  C1  UNL     1     -31.503   8.318   0.463  1.00 20.00     0.006 A 
HETATM    5  C2  UNL     1     -32.411   9.417   0.941  1.00 20.00     0.006 A 
ENDBRANCH   1   3
BRANCH   1   6
HETATM    6  C5  UNL     1     -33.611   7.233   3.585  1.00 20.00     0.016 C 
HETATM    7  C4  UNL     1     -34.937   6.533   3.853  1.00 20.00     0.006 C 
ENDBRANCH   1   6
TORSDOF 2
ENDMDL
MODEL 5
REMARK VINA RESULT:      -1.8      1.825      3.334
REMARK  2 active torsions:
REMARK  status: ('A' for Active; 'I' for Inactive)
REMARK    1  A    between atoms: C3_3  and  C6_6 
REMARK    2  A    between atoms: C5_5  and  C6_6 
ROOT
HETATM    1  C6  UNL     1     -34.233   5.540   3.138  1.00 20.00     0.086 C 
HETATM    2 CL7  UNL     1     -34.000   4.062   4.120  1.00 20.00    -0.125 Cl
ENDROOT
BRANCH   1   3
HETATM    3  C3  UNL     1     -32.891   5.990   2.635  1.00 20.00     0.004 A 
HETATM    4  C1  UNL     1     -32.342   5.441   1.348  1.00 20.00     0.006 A 
HETATM    5  C2  UNL     1     -32.794   6.873   1.423  1.00 20.00     0.006 A 
ENDBRANCH   1   3
BRANCH   1   6
HETATM    6  C5  UNL     1     -34.924   6.639   3.953  1.00 20.00     0.016 C 
HETATM    7  C4  UNL     1     -33.976   7.735   4.420  1.00 20.00     0.006 C 
ENDBRANCH   1   6
TORSDOF 2
ENDMDL
MODEL 6
REMARK VINA RESULT:      -1.8      1.731      3.299
REMARK  2 active torsions:
REMARK  status: ('A' for Active; 'I' for Inactive)
REMARK    1  A    between atoms: C3_3  and  C6_6 
REMARK    2  A    between atoms: C5_5  and  C6_6 
ROOT
HETATM    1  C6  UNL     1     -32.815   7.096   2.942  1.00 20.00     0.086 C 
HETATM    2 CL7  UNL     1     -32.325   8.344   1.757  1.00 20.00    -0.125 Cl
ENDROOT
BRANCH   1   3
HETATM    3  C3  UNL     1     -33.050   5.809   2.204  1.00 20.00     0.004 A 
HETATM    4  C1  UNL     1     -33.199   5.811   0.708  1.00 20.00     0.006 A 
HETATM    5  C2  UNL     1     -31.967   5.224   1.340  1.00 20.00     0.006 A 
ENDBRANCH   1   3
BRANCH   1   6
HETATM    6  C5  UNL     1     -34.062   7.533   3.719  1.00 20.00     0.016 C 
HETATM    7  C4  UNL     1     -35.074   6.413   3.922  1.00 20.00     0.006 C 
ENDBRANCH   1   6
TORSDOF 2
ENDMDL
MODEL 7
REMARK VINA RESULT:      -1.7      1.885      2.701
REMARK  2 active torsions:
REMARK  status: ('A' for Active; 'I' for Inactive)
REMARK    1  A    between atoms: C3_3  and  C6_6 
REMARK    2  A    between atoms: C5_5  and  C6_6 
ROOT
HETATM    1  C6  UNL     1     -33.275   7.312   2.248  1.00 20.00     0.086 C 
HETATM    2 CL7  UNL     1     -33.832   7.526   3.936  1.00 20.00    -0.125 Cl
ENDROOT
BRANCH   1   3
HETATM    3  C3  UNL     1     -33.052   5.847   2.007  1.00 20.00     0.004 A 
HETATM    4  C1  UNL     1     -33.163   5.282   0.618  1.00 20.00     0.006 A 
HETATM    5  C2  UNL     1     -31.819   5.378   1.285  1.00 20.00     0.006 A 
ENDBRANCH   1   3
BRANCH   1   6
HETATM    6  C5  UNL     1     -32.003   8.125   1.981  1.00 20.00     0.016 C 
HETATM    7  C4  UNL     1     -32.141   9.102   0.820  1.00 20.00     0.006 C 
ENDBRANCH   1   6
TORSDOF 2
ENDMDL
MODEL 8
REMARK VINA RESULT:      -1.7      1.710      1.964
REMARK  2 active torsions:
REMARK  status: ('A' for Active; 'I' for Inactive)
REMARK    1  A    between atoms: C3_3  and  C6_6 
REMARK    2  A    between atoms: C5_5  and  C6_6 
ROOT
HETATM    1  C6  UNL     1     -33.170   5.561   3.119  1.00 20.00     0.086 C 
HETATM    2 CL7  UNL     1     -33.771   3.966   3.666  1.00 20.00    -0.125 Cl
ENDROOT
BRANCH   1   3
HETATM    3  C3  UNL     1     -34.305   6.541   3.186  1.00 20.00     0.004 A 
HETATM    4  C1  UNL     1     -35.395   6.369   4.209  1.00 20.00     0.006 A 
HETATM    5  C2  UNL     1     -34.410   7.498   4.341  1.00 20.00     0.006 A 
ENDBRANCH   1   3
BRANCH   1   6
HETATM    6  C5  UNL     1     -32.588   5.473   1.703  1.00 20.00     0.016 C 
HETATM    7  C4  UNL     1     -32.013   6.791   1.202  1.00 20.00     0.006 C 
ENDBRANCH   1   6
TORSDOF 2
ENDMDL
MODEL 9
REMARK VINA RESULT:      -1.6      2.246      3.562
REMARK  2 active torsions:
REMARK  status: ('A' for Active; 'I' for Inactive)
REMARK    1  A    between atoms: C3_3  and  C6_6 
REMARK    2  A    between atoms: C5_5  and  C6_6 
ROOT
HETATM    1  C6  UNL     1     -32.144   8.103   1.951  1.00 20.00     0.086 C 
HETATM    2 CL7  UNL     1     -33.216   7.927   3.374  1.00 20.00    -0.125 Cl
ENDROOT
BRANCH   1   3
HETATM    3  C3  UNL     1     -32.850   8.947   0.929  1.00 20.00     0.004 A 
HETATM    4  C1  UNL     1     -32.609  10.430   0.874  1.00 20.00     0.006 A 
HETATM    5  C2  UNL     1     -32.085   9.541  -0.220  1.00 20.00     0.006 A 
ENDBRANCH   1   3
BRANCH   1   6
HETATM    6  C5  UNL     1     -31.759   6.734   1.380  1.00 20.00     0.016 C 
HETATM    7  C4  UNL     1     -32.847   5.681   1.542  1.00 20.00     0.006 C 
ENDBRANCH   1   6
TORSDOF 2
ENDMDL
