MODEL 1
REMARK VINA RESULT:       0.0      0.000      0.000
REMARK  3 active torsions:
REMARK  status: ('A' for Active; 'I' for Inactive)
REMARK    1  A    between atoms: C7_7  and  C8_8 
REMARK    2  A    between atoms: C7_7  and  C9_9 
REMARK    3  A    between atoms: C8_8  and  N10_10 
ROOT
HETATM    1  C1  UNL     1     -31.339   8.279   0.383  1.00 20.00     0.052 C 
HETATM    2  C2  UNL     1     -31.705   7.273   1.473  1.00 20.00     0.274 C 
HETATM    3  C3  UNL     1     -33.185   9.056   1.718  1.00 20.00     0.292 C 
HETATM    4  C4  UNL     1     -32.135   9.535   0.729  1.00 20.00     0.112 C 
HETATM    5  N10 UNL     1     -32.420   8.064   2.476  1.00 20.00     0.089 N 
HETATM    6 CL11 UNL     1     -32.858  10.299  -0.695  1.00 20.00    -0.123 Cl
ENDROOT
BRANCH   5   7
HETATM    7  C8  UNL     1     -33.266   7.245   3.333  1.00 20.00     0.272 C 
BRANCH   7   8
HETATM    8  C7  UNL     1     -33.405   5.813   2.821  1.00 20.00     0.034 C 
BRANCH   8   9
HETATM    9  C9  UNL     1     -34.463   4.961   3.548  1.00 20.00    -0.021 C 
HETATM   10  C5  UNL     1     -35.385   5.869   4.366  1.00 20.00     0.009 C 
HETATM   11  C6  UNL     1     -33.837   3.906   4.461  1.00 20.00     0.009 C 
ENDBRANCH   8   9
ENDBRANCH   7   8
ENDBRANCH   5   7
TORSDOF 3
ENDMDL
MODEL 2
REMARK VINA RESULT:       0.3      2.637      5.156
REMARK  3 active torsions:
REMARK  status: ('A' for Active; 'I' for Inactive)
REMARK    1  A    between atoms: C7_7  and  C8_8 
REMARK    2  A    between atoms: C7_7  and  C9_9 
REMARK    3  A    between atoms: C8_8  and  N10_10 
ROOT
HETATM    1  C1  UNL     1     -33.821   5.077   2.515  1.00 20.00     0.052 C 
HETATM    2  C2  UNL     1     -32.639   5.923   2.045  1.00 20.00     0.274 C 
HETATM    3  C3  UNL     1     -33.811   7.241   3.567  1.00 20.00     0.292 C 
HETATM    4  C4  UNL     1     -34.708   6.044   3.294  1.00 20.00     0.112 C 
HETATM    5  N10 UNL     1     -33.042   7.302   2.323  1.00 20.00     0.089 N 
HETATM    6 CL11 UNL     1     -35.347   5.334   4.785  1.00 20.00    -0.123 Cl
ENDROOT
BRANCH   5   7
HETATM    7  C8  UNL     1     -31.907   8.209   2.413  1.00 20.00     0.272 C 
BRANCH   7   8
HETATM    8  C7  UNL     1     -31.579   8.869   1.076  1.00 20.00     0.034 C 
BRANCH   8   9
HETATM    9  C9  UNL     1     -32.676   9.796   0.520  1.00 20.00    -0.021 C 
HETATM   10  C5  UNL     1     -32.614   9.811  -1.011  1.00 20.00     0.009 C 
HETATM   11  C6  UNL     1     -32.562  11.225   1.053  1.00 20.00     0.009 C 
ENDBRANCH   8   9
ENDBRANCH   7   8
ENDBRANCH   5   7
TORSDOF 3
ENDMDL
MODEL 3
REMARK VINA RESULT:       0.3      2.491      5.160
REMARK  3 active torsions:
REMARK  status: ('A' for Active; 'I' for Inactive)
REMARK    1  A    between atoms: C7_7  and  C8_8 
REMARK    2  A    between atoms: C7_7  and  C9_9 
REMARK    3  A    between atoms: C8_8  and  N10_10 
ROOT
HETATM    1  C1  UNL     1     -33.880   7.670   4.353  1.00 20.00     0.052 C 
HETATM    2  C2  UNL     1     -32.918   8.218   3.299  1.00 20.00     0.274 C 
HETATM    3  C3  UNL     1     -33.620   6.139   2.514  1.00 20.00     0.292 C 
HETATM    4  C4  UNL     1     -34.112   6.216   3.950  1.00 20.00     0.112 C 
HETATM    5  N10 UNL     1     -32.462   7.034   2.569  1.00 20.00     0.089 N 
HETATM    6 CL11 UNL     1     -35.808   5.729   4.102  1.00 20.00    -0.123 Cl
ENDROOT
BRANCH   5   7
HETATM    7  C8  UNL     1     -31.945   7.358   1.247  1.00 20.00     0.272 C 
BRANCH   7   8
HETATM    8  C7  UNL     1     -31.589   8.836   1.105  1.00 20.00     0.034 C 
BRANCH   8   9
HETATM    9  C9  UNL     1     -32.663   9.702   0.419  1.00 20.00    -0.021 C 
HETATM   10  C5  UNL     1     -32.412   9.736  -1.092  1.00 20.00     0.009 C 
HETATM   11  C6  UNL     1     -32.701  11.130   0.966  1.00 20.00     0.009 C 
ENDBRANCH   8   9
ENDBRANCH   7   8
ENDBRANCH   5   7
TORSDOF 3
ENDMDL
MODEL 4
REMARK VINA RESULT:       0.4      0.404      1.117
REMARK  3 active torsions:
REMARK  status: ('A' for Active; 'I' for Inactive)
REMARK    1  A    between atoms: C7_7  and  C8_8 
REMARK    2  A    between atoms: C7_7  and  C9_9 
REMARK    3  A    between atoms: C8_8  and  N10_10 
ROOT
HETATM    1  C1  UNL     1     -31.462   8.136   0.379  1.00 20.00     0.052 C 
HETATM    2  C2  UNL     1     -31.856   7.259   1.566  1.00 20.00     0.274 C 
HETATM    3  C3  UNL     1     -33.099   9.220   1.773  1.00 20.00     0.292 C 
HETATM    4  C4  UNL     1     -32.080   9.500   0.680  1.00 20.00     0.112 C 
HETATM    5  N10 UNL     1     -32.397   8.198   2.552  1.00 20.00     0.089 N 
HETATM    6 CL11 UNL     1     -32.818  10.244  -0.747  1.00 20.00    -0.123 Cl
ENDROOT
BRANCH   5   7
HETATM    7  C8  UNL     1     -33.262   7.547   3.525  1.00 20.00     0.272 C 
BRANCH   7   8
HETATM    8  C7  UNL     1     -33.642   6.127   3.114  1.00 20.00     0.034 C 
BRANCH   8   9
HETATM    9  C9  UNL     1     -34.154   5.231   4.258  1.00 20.00    -0.021 C 
HETATM   10  C5  UNL     1     -33.781   3.772   3.978  1.00 20.00     0.009 C 
HETATM   11  C6  UNL     1     -35.665   5.346   4.460  1.00 20.00     0.009 C 
ENDBRANCH   8   9
ENDBRANCH   7   8
ENDBRANCH   5   7
TORSDOF 3
ENDMDL
MODEL 5
REMARK VINA RESULT:       0.5      2.745      5.080
REMARK  3 active torsions:
REMARK  status: ('A' for Active; 'I' for Inactive)
REMARK    1  A    between atoms: C7_7  and  C8_8 
REMARK    2  A    between atoms: C7_7  and  C9_9 
REMARK    3  A    between atoms: C8_8  and  N10_10 
ROOT
HETATM    1  C1  UNL     1     -32.887   4.768   1.871  1.00 20.00     0.052 C 
HETATM    2  C2  UNL     1     -32.262   6.116   1.513  1.00 20.00     0.274 C 
HETATM    3  C3  UNL     1     -33.549   6.487   3.421  1.00 20.00     0.292 C 
HETATM    4  C4  UNL     1     -33.920   5.091   2.948  1.00 20.00     0.112 C 
HETATM    5  N10 UNL     1     -33.127   7.104   2.161  1.00 20.00     0.089 N 
HETATM    6 CL11 UNL     1     -33.916   3.914   4.271  1.00 20.00    -0.123 Cl
ENDROOT
BRANCH   5   7
HETATM    7  C8  UNL     1     -32.461   8.382   2.363  1.00 20.00     0.272 C 
BRANCH   7   8
HETATM    8  C7  UNL     1     -31.506   8.730   1.223  1.00 20.00     0.034 C 
BRANCH   8   9
HETATM    9  C9  UNL     1     -31.985   9.863   0.295  1.00 20.00    -0.021 C 
HETATM   10  C5  UNL     1     -32.921  10.800   1.063  1.00 20.00     0.009 C 
HETATM   11  C6  UNL     1     -32.695   9.336  -0.953  1.00 20.00     0.009 C 
ENDBRANCH   8   9
ENDBRANCH   7   8
ENDBRANCH   5   7
TORSDOF 3
ENDMDL
MODEL 6
REMARK VINA RESULT:       0.6      1.991      3.139
REMARK  3 active torsions:
REMARK  status: ('A' for Active; 'I' for Inactive)
REMARK    1  A    between atoms: C7_7  and  C8_8 
REMARK    2  A    between atoms: C7_7  and  C9_9 
REMARK    3  A    between atoms: C8_8  and  N10_10 
ROOT
HETATM    1  C1  UNL     1     -33.187   8.293   3.493  1.00 20.00     0.052 C 
HETATM    2  C2  UNL     1     -33.983   7.345   4.389  1.00 20.00     0.274 C 
HETATM    3  C3  UNL     1     -33.341   6.091   2.534  1.00 20.00     0.292 C 
HETATM    4  C4  UNL     1     -33.011   7.532   2.181  1.00 20.00     0.112 C 
HETATM    5  N10 UNL     1     -34.433   6.282   3.490  1.00 20.00     0.089 N 
HETATM    6 CL11 UNL     1     -31.380   7.700   1.510  1.00 20.00    -0.123 Cl
ENDROOT
BRANCH   5   7
HETATM    7  C8  UNL     1     -34.773   5.057   4.200  1.00 20.00     0.272 C 
BRANCH   7   8
HETATM    8  C7  UNL     1     -33.831   3.904   3.861  1.00 20.00     0.034 C 
BRANCH   8   9
HETATM    9  C9  UNL     1     -33.569   2.916   5.013  1.00 20.00    -0.021 C 
HETATM   10  C5  UNL     1     -32.394   3.410   5.862  1.00 20.00     0.009 C 
HETATM   11  C6  UNL     1     -33.283   1.499   4.515  1.00 20.00     0.009 C 
ENDBRANCH   8   9
ENDBRANCH   7   8
ENDBRANCH   5   7
TORSDOF 3
ENDMDL
MODEL 7
REMARK VINA RESULT:       0.6      3.084      5.431
REMARK  3 active torsions:
REMARK  status: ('A' for Active; 'I' for Inactive)
REMARK    1  A    between atoms: C7_7  and  C8_8 
REMARK    2  A    between atoms: C7_7  and  C9_9 
REMARK    3  A    between atoms: C8_8  and  N10_10 
ROOT
HETATM    1  C1  UNL     1     -35.152   4.726   4.769  1.00 20.00     0.052 C 
HETATM    2  C2  UNL     1     -35.303   5.945   3.861  1.00 20.00     0.274 C 
HETATM    3  C3  UNL     1     -33.248   4.989   3.321  1.00 20.00     0.292 C 
HETATM    4  C4  UNL     1     -33.704   4.281   4.586  1.00 20.00     0.112 C 
HETATM    5  N10 UNL     1     -33.934   6.275   3.460  1.00 20.00     0.089 N 
HETATM    6 CL11 UNL     1     -33.541   2.521   4.463  1.00 20.00    -0.123 Cl
ENDROOT
BRANCH   5   7
HETATM    7  C8  UNL     1     -33.886   7.067   2.239  1.00 20.00     0.272 C 
BRANCH   7   8
HETATM    8  C7  UNL     1     -32.552   6.935   1.509  1.00 20.00     0.034 C 
BRANCH   8   9
HETATM    9  C9  UNL     1     -31.690   8.212   1.490  1.00 20.00    -0.021 C 
HETATM   10  C5  UNL     1     -31.523   8.744   2.916  1.00 20.00     0.009 C 
HETATM   11  C6  UNL     1     -32.284   9.305   0.600  1.00 20.00     0.009 C 
ENDBRANCH   8   9
ENDBRANCH   7   8
ENDBRANCH   5   7
TORSDOF 3
ENDMDL
MODEL 8
REMARK VINA RESULT:       0.8      1.585      2.535
REMARK  3 active torsions:
REMARK  status: ('A' for Active; 'I' for Inactive)
REMARK    1  A    between atoms: C7_7  and  C8_8 
REMARK    2  A    between atoms: C7_7  and  C9_9 
REMARK    3  A    between atoms: C8_8  and  N10_10 
ROOT
HETATM    1  C1  UNL     1     -32.428   6.271   1.136  1.00 20.00     0.052 C 
HETATM    2  C2  UNL     1     -33.402   5.431   1.961  1.00 20.00     0.274 C 
HETATM    3  C3  UNL     1     -33.269   7.498   3.028  1.00 20.00     0.292 C 
HETATM    4  C4  UNL     1     -32.157   7.506   1.992  1.00 20.00     0.112 C 
HETATM    5  N10 UNL     1     -33.403   6.063   3.282  1.00 20.00     0.089 N 
HETATM    6 CL11 UNL     1     -32.137   9.002   1.044  1.00 20.00    -0.123 Cl
ENDROOT
BRANCH   5   7
HETATM    7  C8  UNL     1     -34.595   5.741   4.053  1.00 20.00     0.272 C 
BRANCH   7   8
HETATM    8  C7  UNL     1     -34.612   4.290   4.526  1.00 20.00     0.034 C 
BRANCH   8   9
HETATM    9  C9  UNL     1     -33.227   3.623   4.636  1.00 20.00    -0.021 C 
HETATM   10  C5  UNL     1     -33.312   2.173   4.150  1.00 20.00     0.009 C 
HETATM   11  C6  UNL     1     -32.673   3.657   6.061  1.00 20.00     0.009 C 
ENDBRANCH   8   9
ENDBRANCH   7   8
ENDBRANCH   5   7
TORSDOF 3
ENDMDL
MODEL 9
REMARK VINA RESULT:       0.8      2.991      5.350
REMARK  3 active torsions:
REMARK  status: ('A' for Active; 'I' for Inactive)
REMARK    1  A    between atoms: C7_7  and  C8_8 
REMARK    2  A    between atoms: C7_7  and  C9_9 
REMARK    3  A    between atoms: C8_8  and  N10_10 
ROOT
HETATM    1  C1  UNL     1     -35.294   4.682   4.756  1.00 20.00     0.052 C 
HETATM    2  C2  UNL     1     -35.423   6.039   4.065  1.00 20.00     0.274 C 
HETATM    3  C3  UNL     1     -33.316   5.222   3.497  1.00 20.00     0.292 C 
HETATM    4  C4  UNL     1     -33.826   4.297   4.590  1.00 20.00     0.112 C 
HETATM    5  N10 UNL     1     -34.041   6.454   3.813  1.00 20.00     0.089 N 
HETATM    6 CL11 UNL     1     -33.612   2.589   4.174  1.00 20.00    -0.123 Cl
ENDROOT
BRANCH   5   7
HETATM    7  C8  UNL     1     -33.942   7.447   2.754  1.00 20.00     0.272 C 
BRANCH   7   8
HETATM    8  C7  UNL     1     -32.669   8.285   2.855  1.00 20.00     0.034 C 
BRANCH   8   9
HETATM    9  C9  UNL     1     -31.762   8.246   1.610  1.00 20.00    -0.021 C 
HETATM   10  C5  UNL     1     -32.191   9.338   0.625  1.00 20.00     0.009 C 
HETATM   11  C6  UNL     1     -31.785   6.886   0.912  1.00 20.00     0.009 C 
ENDBRANCH   8   9
ENDBRANCH   7   8
ENDBRANCH   5   7
TORSDOF 3
ENDMDL
