MODEL 1
REMARK VINA RESULT:       0.4      0.000      0.000
REMARK  3 active torsions:
REMARK  status: ('A' for Active; 'I' for Inactive)
REMARK    1  A    between atoms: C4_4  and  C7_7 
REMARK    2  A    between atoms: C8_8  and  C9_9 
REMARK    3  A    between atoms: C8_8  and  N10_10 
ROOT
HETATM    1  C1  UNL     1     -34.164   7.734   4.321  1.00 20.00     0.032 C 
HETATM    2  C2  UNL     1     -34.771   6.536   3.603  1.00 20.00     0.038 C 
HETATM    3  C3  UNL     1     -32.754   7.865   3.770  1.00 20.00     0.273 C 
HETATM    4  C4  UNL     1     -33.694   6.044   2.635  1.00 20.00     0.236 C 
HETATM    5  N10 UNL     1     -32.754   7.170   2.474  1.00 20.00     0.094 N 
ENDROOT
BRANCH   5   6
HETATM    6  C8  UNL     1     -33.180   8.067   1.399  1.00 20.00     0.277 C 
BRANCH   6   7
HETATM    7  C9  UNL     1     -32.085   9.076   1.030  1.00 20.00     0.006 C 
HETATM    8  C5  UNL     1     -31.060   8.490   0.057  1.00 20.00     0.011 C 
HETATM    9  C6  UNL     1     -32.665  10.379   0.481  1.00 20.00     0.011 C 
ENDBRANCH   6   7
ENDBRANCH   5   6
BRANCH   4  10
HETATM   10  C7  UNL     1     -32.953   4.822   3.185  1.00 20.00     0.150 C 
HETATM   11 CL11 UNL     1     -34.012   3.899   4.269  1.00 20.00    -0.128 Cl
ENDBRANCH   4  10
TORSDOF 3
ENDMDL
MODEL 2
REMARK VINA RESULT:       0.7      1.345      1.345
REMARK  3 active torsions:
REMARK  status: ('A' for Active; 'I' for Inactive)
REMARK    1  A    between atoms: C4_4  and  C7_7 
REMARK    2  A    between atoms: C8_8  and  C9_9 
REMARK    3  A    between atoms: C8_8  and  N10_10 
ROOT
HETATM    1  C1  UNL     1     -33.852   7.787   4.592  1.00 20.00     0.032 C 
HETATM    2  C2  UNL     1     -34.609   6.876   3.635  1.00 20.00     0.038 C 
HETATM    3  C3  UNL     1     -32.506   8.040   3.931  1.00 20.00     0.273 C 
HETATM    4  C4  UNL     1     -33.681   6.671   2.437  1.00 20.00     0.236 C 
HETATM    5  N10 UNL     1     -32.696   7.767   2.499  1.00 20.00     0.094 N 
ENDROOT
BRANCH   5   6
HETATM    6  C8  UNL     1     -33.183   8.958   1.799  1.00 20.00     0.277 C 
BRANCH   6   7
HETATM    7  C9  UNL     1     -32.143   9.505   0.813  1.00 20.00     0.006 C 
HETATM    8  C5  UNL     1     -31.209   8.413   0.289  1.00 20.00     0.011 C 
HETATM    9  C6  UNL     1     -32.792  10.261  -0.346  1.00 20.00     0.011 C 
ENDBRANCH   6   7
ENDBRANCH   5   6
BRANCH   4  10
HETATM   10  C7  UNL     1     -32.962   5.320   2.503  1.00 20.00     0.150 C 
HETATM   11 CL11 UNL     1     -31.931   5.104   1.076  1.00 20.00    -0.128 Cl
ENDBRANCH   4  10
TORSDOF 3
ENDMDL
MODEL 3
REMARK VINA RESULT:       0.8      1.656      2.360
REMARK  3 active torsions:
REMARK  status: ('A' for Active; 'I' for Inactive)
REMARK    1  A    between atoms: C4_4  and  C7_7 
REMARK    2  A    between atoms: C8_8  and  C9_9 
REMARK    3  A    between atoms: C8_8  and  N10_10 
ROOT
HETATM    1  C1  UNL     1     -34.774   7.444   4.155  1.00 20.00     0.032 C 
HETATM    2  C2  UNL     1     -35.564   6.146   4.053  1.00 20.00     0.038 C 
HETATM    3  C3  UNL     1     -33.332   7.065   3.864  1.00 20.00     0.273 C 
HETATM    4  C4  UNL     1     -34.547   5.072   3.668  1.00 20.00     0.236 C 
HETATM    5  N10 UNL     1     -33.384   5.797   3.121  1.00 20.00     0.094 N 
ENDROOT
BRANCH   5   6
HETATM    6  C8  UNL     1     -33.535   6.037   1.684  1.00 20.00     0.277 C 
BRANCH   6   7
HETATM    7  C9  UNL     1     -32.179   6.194   0.986  1.00 20.00     0.006 C 
HETATM    8  C5  UNL     1     -31.483   7.505   1.357  1.00 20.00     0.011 C 
HETATM    9  C6  UNL     1     -31.258   5.002   1.247  1.00 20.00     0.011 C 
ENDBRANCH   6   7
ENDBRANCH   5   6
BRANCH   4  10
HETATM   10  C7  UNL     1     -34.118   4.237   4.878  1.00 20.00     0.150 C 
HETATM   11 CL11 UNL     1     -33.144   2.851   4.353  1.00 20.00    -0.128 Cl
ENDBRANCH   4  10
TORSDOF 3
ENDMDL
MODEL 4
REMARK VINA RESULT:       0.8      2.751      4.957
REMARK  3 active torsions:
REMARK  status: ('A' for Active; 'I' for Inactive)
REMARK    1  A    between atoms: C4_4  and  C7_7 
REMARK    2  A    between atoms: C8_8  and  C9_9 
REMARK    3  A    between atoms: C8_8  and  N10_10 
ROOT
HETATM    1  C1  UNL     1     -34.651   7.445   4.268  1.00 20.00     0.032 C 
HETATM    2  C2  UNL     1     -33.178   7.177   3.988  1.00 20.00     0.038 C 
HETATM    3  C3  UNL     1     -35.401   6.289   3.627  1.00 20.00     0.273 C 
HETATM    4  C4  UNL     1     -33.134   5.852   3.227  1.00 20.00     0.236 C 
HETATM    5  N10 UNL     1     -34.428   5.194   3.492  1.00 20.00     0.094 N 
ENDROOT
BRANCH   5   6
HETATM    6  C8  UNL     1     -34.374   4.388   4.713  1.00 20.00     0.277 C 
BRANCH   6   7
HETATM    7  C9  UNL     1     -33.121   3.504   4.757  1.00 20.00     0.006 C 
HETATM    8  C5  UNL     1     -32.447   3.519   6.130  1.00 20.00     0.011 C 
HETATM    9  C6  UNL     1     -33.415   2.070   4.316  1.00 20.00     0.011 C 
ENDBRANCH   6   7
ENDBRANCH   5   6
BRANCH   4  10
HETATM   10  C7  UNL     1     -32.959   6.069   1.721  1.00 20.00     0.150 C 
HETATM   11 CL11 UNL     1     -32.023   7.545   1.419  1.00 20.00    -0.128 Cl
ENDBRANCH   4  10
TORSDOF 3
ENDMDL
MODEL 5
REMARK VINA RESULT:       1.2      1.034      2.280
REMARK  3 active torsions:
REMARK  status: ('A' for Active; 'I' for Inactive)
REMARK    1  A    between atoms: C4_4  and  C7_7 
REMARK    2  A    between atoms: C8_8  and  C9_9 
REMARK    3  A    between atoms: C8_8  and  N10_10 
ROOT
HETATM    1  C1  UNL     1     -32.827   5.231   1.497  1.00 20.00     0.032 C 
HETATM    2  C2  UNL     1     -32.761   5.400   3.009  1.00 20.00     0.038 C 
HETATM    3  C3  UNL     1     -33.581   6.448   0.986  1.00 20.00     0.273 C 
HETATM    4  C4  UNL     1     -33.449   6.732   3.308  1.00 20.00     0.236 C 
HETATM    5  N10 UNL     1     -33.459   7.474   2.033  1.00 20.00     0.094 N 
ENDROOT
BRANCH   5   6
HETATM    6  C8  UNL     1     -32.231   8.253   1.862  1.00 20.00     0.277 C 
BRANCH   6   7
HETATM    7  C9  UNL     1     -32.219   9.014   0.531  1.00 20.00     0.006 C 
HETATM    8  C5  UNL     1     -32.665  10.469   0.690  1.00 20.00     0.011 C 
HETATM    9  C6  UNL     1     -30.857   8.941  -0.160  1.00 20.00     0.011 C 
ENDBRANCH   6   7
ENDBRANCH   5   6
BRANCH   4  10
HETATM   10  C7  UNL     1     -34.884   6.529   3.804  1.00 20.00     0.150 C 
HETATM   11 CL11 UNL     1     -35.083   4.892   4.455  1.00 20.00    -0.128 Cl
ENDBRANCH   4  10
TORSDOF 3
ENDMDL
MODEL 6
REMARK VINA RESULT:       1.2      2.458      4.644
REMARK  3 active torsions:
REMARK  status: ('A' for Active; 'I' for Inactive)
REMARK    1  A    between atoms: C4_4  and  C7_7 
REMARK    2  A    between atoms: C8_8  and  C9_9 
REMARK    3  A    between atoms: C8_8  and  N10_10 
ROOT
HETATM    1  C1  UNL     1     -33.228   8.177   4.080  1.00 20.00     0.032 C 
HETATM    2  C2  UNL     1     -32.053   8.170   3.112  1.00 20.00     0.038 C 
HETATM    3  C3  UNL     1     -34.241   7.206   3.495  1.00 20.00     0.273 C 
HETATM    4  C4  UNL     1     -32.420   7.162   2.022  1.00 20.00     0.236 C 
HETATM    5  N10 UNL     1     -33.486   6.319   2.597  1.00 20.00     0.094 N 
ENDROOT
BRANCH   5   6
HETATM    6  C8  UNL     1     -32.926   5.182   3.331  1.00 20.00     0.277 C 
BRANCH   6   7
HETATM    7  C9  UNL     1     -34.016   4.201   3.779  1.00 20.00     0.006 C 
HETATM    8  C5  UNL     1     -33.444   3.013   4.555  1.00 20.00     0.011 C 
HETATM    9  C6  UNL     1     -35.116   4.893   4.585  1.00 20.00     0.011 C 
ENDBRANCH   6   7
ENDBRANCH   5   6
BRANCH   4  10
HETATM   10  C7  UNL     1     -32.931   7.857   0.756  1.00 20.00     0.150 C 
HETATM   11 CL11 UNL     1     -32.303   9.513   0.670  1.00 20.00    -0.128 Cl
ENDBRANCH   4  10
TORSDOF 3
ENDMDL
MODEL 7
REMARK VINA RESULT:       1.5      2.503      4.651
REMARK  3 active torsions:
REMARK  status: ('A' for Active; 'I' for Inactive)
REMARK    1  A    between atoms: C4_4  and  C7_7 
REMARK    2  A    between atoms: C8_8  and  C9_9 
REMARK    3  A    between atoms: C8_8  and  N10_10 
ROOT
HETATM    1  C1  UNL     1     -32.391   8.356   4.383  1.00 20.00     0.032 C 
HETATM    2  C2  UNL     1     -31.487   8.388   3.158  1.00 20.00     0.038 C 
HETATM    3  C3  UNL     1     -33.775   8.012   3.857  1.00 20.00     0.273 C 
HETATM    4  C4  UNL     1     -32.381   8.021   1.974  1.00 20.00     0.236 C 
HETATM    5  N10 UNL     1     -33.567   7.361   2.554  1.00 20.00     0.094 N 
ENDROOT
BRANCH   5   6
HETATM    6  C8  UNL     1     -33.348   5.922   2.716  1.00 20.00     0.277 C 
BRANCH   6   7
HETATM    7  C9  UNL     1     -34.041   5.378   3.971  1.00 20.00     0.006 C 
HETATM    8  C5  UNL     1     -35.528   5.733   4.013  1.00 20.00     0.011 C 
HETATM    9  C6  UNL     1     -33.842   3.870   4.127  1.00 20.00     0.011 C 
ENDBRANCH   6   7
ENDBRANCH   5   6
BRANCH   4  10
HETATM   10  C7  UNL     1     -32.810   9.260   1.182  1.00 20.00     0.150 C 
HETATM   11 CL11 UNL     1     -31.878   9.379  -0.322  1.00 20.00    -0.128 Cl
ENDBRANCH   4  10
TORSDOF 3
ENDMDL
MODEL 8
REMARK VINA RESULT:       1.5      2.538      4.462
REMARK  3 active torsions:
REMARK  status: ('A' for Active; 'I' for Inactive)
REMARK    1  A    between atoms: C4_4  and  C7_7 
REMARK    2  A    between atoms: C8_8  and  C9_9 
REMARK    3  A    between atoms: C8_8  and  N10_10 
ROOT
HETATM    1  C1  UNL     1     -32.866   5.154   0.337  1.00 20.00     0.032 C 
HETATM    2  C2  UNL     1     -33.496   6.540   0.342  1.00 20.00     0.038 C 
HETATM    3  C3  UNL     1     -31.884   5.151   1.497  1.00 20.00     0.273 C 
HETATM    4  C4  UNL     1     -32.878   7.272   1.534  1.00 20.00     0.236 C 
HETATM    5  N10 UNL     1     -32.322   6.220   2.407  1.00 20.00     0.094 N 
ENDROOT
BRANCH   5   6
HETATM    6  C8  UNL     1     -33.327   5.727   3.350  1.00 20.00     0.277 C 
BRANCH   6   7
HETATM    7  C9  UNL     1     -34.378   6.796   3.675  1.00 20.00     0.006 C 
HETATM    8  C5  UNL     1     -35.703   6.187   4.137  1.00 20.00     0.011 C 
HETATM    9  C6  UNL     1     -33.866   7.812   4.696  1.00 20.00     0.011 C 
ENDBRANCH   6   7
ENDBRANCH   5   6
BRANCH   4  10
HETATM   10  C7  UNL     1     -31.764   8.228   1.096  1.00 20.00     0.150 C 
HETATM   11 CL11 UNL     1     -32.457   9.650   0.294  1.00 20.00    -0.128 Cl
ENDBRANCH   4  10
TORSDOF 3
ENDMDL
MODEL 9
REMARK VINA RESULT:       1.6      2.651      4.776
REMARK  3 active torsions:
REMARK  status: ('A' for Active; 'I' for Inactive)
REMARK    1  A    between atoms: C4_4  and  C7_7 
REMARK    2  A    between atoms: C8_8  and  C9_9 
REMARK    3  A    between atoms: C8_8  and  N10_10 
ROOT
HETATM    1  C1  UNL     1     -30.931   8.145   3.067  1.00 20.00     0.032 C 
HETATM    2  C2  UNL     1     -31.024   8.196   1.548  1.00 20.00     0.038 C 
HETATM    3  C3  UNL     1     -32.363   8.259   3.564  1.00 20.00     0.273 C 
HETATM    4  C4  UNL     1     -32.515   8.300   1.227  1.00 20.00     0.236 C 
HETATM    5  N10 UNL     1     -33.220   7.849   2.442  1.00 20.00     0.094 N 
ENDROOT
BRANCH   5   6
HETATM    6  C8  UNL     1     -33.414   6.397   2.435  1.00 20.00     0.277 C 
BRANCH   6   7
HETATM    7  C9  UNL     1     -34.055   5.902   3.737  1.00 20.00     0.006 C 
HETATM    8  C5  UNL     1     -35.495   6.393   3.899  1.00 20.00     0.011 C 
HETATM    9  C6  UNL     1     -33.987   4.380   3.868  1.00 20.00     0.011 C 
ENDBRANCH   6   7
ENDBRANCH   5   6
BRANCH   4  10
HETATM   10  C7  UNL     1     -32.923   9.738   0.892  1.00 20.00     0.150 C 
HETATM   11 CL11 UNL     1     -32.735  10.039  -0.846  1.00 20.00    -0.128 Cl
ENDBRANCH   4  10
TORSDOF 3
ENDMDL
