MODEL 1
REMARK VINA RESULT:       1.7      0.000      0.000
REMARK  1 active torsions:
REMARK  status: ('A' for Active; 'I' for Inactive)
REMARK    1  A    between atoms: C3_3  and  N9_9 
ROOT
HETATM    1  C4  UNL     1     -31.298   8.146   1.016  1.00 20.00     0.041 C 
HETATM    2  C5  UNL     1     -31.747   6.770   1.509  1.00 20.00     0.126 C 
HETATM    3  C6  UNL     1     -33.458   8.408   2.011  1.00 20.00     0.145 C 
HETATM    4  C7  UNL     1     -32.617   8.880   0.826  1.00 20.00     0.102 C 
HETATM    5  N9  UNL     1     -32.987   7.041   2.234  1.00 20.00    -0.358 N 
HETATM    6 CL11 UNL     1     -32.414  10.637   0.795  1.00 20.00    -0.123 Cl
ENDROOT
BRANCH   5   7
HETATM    7  C3  UNL     1     -33.624   6.124   3.042  1.00 20.00     0.168 A 
HETATM    8  N8  UNL     1     -33.256   4.869   3.171  1.00 20.00    -0.236 NA
HETATM    9  C1  UNL     1     -34.113   4.239   4.052  1.00 20.00     0.126 A 
HETATM   10  C2  UNL     1     -35.118   5.024   4.578  1.00 20.00     0.072 A 
HETATM   11  S10 UNL     1     -34.993   6.616   3.952  1.00 20.00    -0.063 SA
ENDBRANCH   5   7
TORSDOF 1
ENDMDL
MODEL 2
REMARK VINA RESULT:       2.1      3.144      5.101
REMARK  1 active torsions:
REMARK  status: ('A' for Active; 'I' for Inactive)
REMARK    1  A    between atoms: C3_3  and  N9_9 
ROOT
HETATM    1  C4  UNL     1     -34.952   5.052   4.608  1.00 20.00     0.041 C 
HETATM    2  C5  UNL     1     -34.920   6.294   3.717  1.00 20.00     0.126 C 
HETATM    3  C6  UNL     1     -32.946   4.954   3.308  1.00 20.00     0.145 C 
HETATM    4  C7  UNL     1     -34.072   4.072   3.847  1.00 20.00     0.102 C 
HETATM    5  N9  UNL     1     -33.605   6.239   3.080  1.00 20.00    -0.358 N 
HETATM    6 CL11 UNL     1     -33.475   2.762   4.874  1.00 20.00    -0.123 Cl
ENDROOT
BRANCH   5   7
HETATM    7  C3  UNL     1     -33.050   7.279   2.366  1.00 20.00     0.168 A 
HETATM    8  N8  UNL     1     -33.331   8.548   2.566  1.00 20.00    -0.236 NA
HETATM    9  C1  UNL     1     -32.601   9.313   1.676  1.00 20.00     0.126 A 
HETATM   10  C2  UNL     1     -31.780   8.615   0.816  1.00 20.00     0.072 A 
HETATM   11  S10 UNL     1     -31.917   6.934   1.125  1.00 20.00    -0.063 SA
ENDBRANCH   5   7
TORSDOF 1
ENDMDL
MODEL 3
REMARK VINA RESULT:       2.2      1.165      1.294
REMARK  1 active torsions:
REMARK  status: ('A' for Active; 'I' for Inactive)
REMARK    1  A    between atoms: C3_3  and  N9_9 
ROOT
HETATM    1  C4  UNL     1     -31.215   8.341   1.162  1.00 20.00     0.041 C 
HETATM    2  C5  UNL     1     -31.719   7.013   1.726  1.00 20.00     0.126 C 
HETATM    3  C6  UNL     1     -33.477   8.672   1.866  1.00 20.00     0.145 C 
HETATM    4  C7  UNL     1     -32.502   9.040   0.749  1.00 20.00     0.102 C 
HETATM    5  N9  UNL     1     -33.036   7.338   2.272  1.00 20.00    -0.358 N 
HETATM    6 CL11 UNL     1     -32.295  10.787   0.575  1.00 20.00    -0.123 Cl
ENDROOT
BRANCH   5   7
HETATM    7  C3  UNL     1     -33.765   6.494   3.083  1.00 20.00     0.168 A 
HETATM    8  N8  UNL     1     -34.821   6.863   3.775  1.00 20.00    -0.236 NA
HETATM    9  C1  UNL     1     -35.299   5.772   4.475  1.00 20.00     0.126 A 
HETATM   10  C2  UNL     1     -34.600   4.595   4.306  1.00 20.00     0.072 A 
HETATM   11  S10 UNL     1     -33.291   4.852   3.227  1.00 20.00    -0.063 SA
ENDBRANCH   5   7
TORSDOF 1
ENDMDL
MODEL 4
REMARK VINA RESULT:       2.2      2.980      4.926
REMARK  1 active torsions:
REMARK  status: ('A' for Active; 'I' for Inactive)
REMARK    1  A    between atoms: C3_3  and  N9_9 
ROOT
HETATM    1  C4  UNL     1     -34.263   6.743   4.471  1.00 20.00     0.041 C 
HETATM    2  C5  UNL     1     -34.013   7.975   3.602  1.00 20.00     0.126 C 
HETATM    3  C6  UNL     1     -33.205   6.001   2.458  1.00 20.00     0.145 C 
HETATM    4  C7  UNL     1     -34.302   5.615   3.450  1.00 20.00     0.102 C 
HETATM    5  N9  UNL     1     -33.232   7.463   2.477  1.00 20.00    -0.358 N 
HETATM    6 CL11 UNL     1     -34.027   4.030   4.184  1.00 20.00    -0.123 Cl
ENDROOT
BRANCH   5   7
HETATM    7  C3  UNL     1     -32.588   8.262   1.557  1.00 20.00     0.168 A 
HETATM    8  N8  UNL     1     -31.505   7.909   0.900  1.00 20.00    -0.236 NA
HETATM    9  C1  UNL     1     -31.129   8.946   0.069  1.00 20.00     0.126 A 
HETATM   10  C2  UNL     1     -31.929  10.069   0.108  1.00 20.00     0.072 A 
HETATM   11  S10 UNL     1     -33.208   9.827   1.225  1.00 20.00    -0.063 SA
ENDBRANCH   5   7
TORSDOF 1
ENDMDL
MODEL 5
REMARK VINA RESULT:       2.3      2.973      4.929
REMARK  1 active torsions:
REMARK  status: ('A' for Active; 'I' for Inactive)
REMARK    1  A    between atoms: C3_3  and  N9_9 
ROOT
HETATM    1  C4  UNL     1     -34.869   5.278   4.529  1.00 20.00     0.041 C 
HETATM    2  C5  UNL     1     -34.792   6.503   3.617  1.00 20.00     0.126 C 
HETATM    3  C6  UNL     1     -32.928   5.030   3.152  1.00 20.00     0.145 C 
HETATM    4  C7  UNL     1     -34.086   4.232   3.750  1.00 20.00     0.102 C 
HETATM    5  N9  UNL     1     -33.511   6.353   2.929  1.00 20.00    -0.358 N 
HETATM    6 CL11 UNL     1     -33.535   2.899   4.774  1.00 20.00    -0.123 Cl
ENDROOT
BRANCH   5   7
HETATM    7  C3  UNL     1     -32.918   7.344   2.176  1.00 20.00     0.168 A 
HETATM    8  N8  UNL     1     -31.945   7.137   1.316  1.00 20.00    -0.236 NA
HETATM    9  C1  UNL     1     -31.591   8.344   0.745  1.00 20.00     0.126 A 
HETATM   10  C2  UNL     1     -32.297   9.446   1.180  1.00 20.00     0.072 A 
HETATM   11  S10 UNL     1     -33.456   8.963   2.349  1.00 20.00    -0.063 SA
ENDBRANCH   5   7
TORSDOF 1
ENDMDL
MODEL 6
REMARK VINA RESULT:       2.4      1.006      1.142
REMARK  1 active torsions:
REMARK  status: ('A' for Active; 'I' for Inactive)
REMARK    1  A    between atoms: C3_3  and  N9_9 
ROOT
HETATM    1  C4  UNL     1     -32.037   9.297   2.094  1.00 20.00     0.041 C 
HETATM    2  C5  UNL     1     -32.232   8.241   3.182  1.00 20.00     0.126 C 
HETATM    3  C6  UNL     1     -33.126   7.421   1.087  1.00 20.00     0.145 C 
HETATM    4  C7  UNL     1     -32.048   8.470   0.817  1.00 20.00     0.102 C 
HETATM    5  N9  UNL     1     -33.034   7.207   2.531  1.00 20.00    -0.358 N 
HETATM    6 CL11 UNL     1     -32.393   9.445  -0.617  1.00 20.00    -0.123 Cl
ENDROOT
BRANCH   5   7
HETATM    7  C3  UNL     1     -33.643   6.167   3.200  1.00 20.00     0.168 A 
HETATM    8  N8  UNL     1     -33.183   4.935   3.228  1.00 20.00    -0.236 NA
HETATM    9  C1  UNL     1     -34.038   4.156   3.984  1.00 20.00     0.126 A 
HETATM   10  C2  UNL     1     -35.131   4.806   4.516  1.00 20.00     0.072 A 
HETATM   11  S10 UNL     1     -35.097   6.459   4.061  1.00 20.00    -0.063 SA
ENDBRANCH   5   7
TORSDOF 1
ENDMDL
MODEL 7
REMARK VINA RESULT:       2.9      3.030      4.984
REMARK  1 active torsions:
REMARK  status: ('A' for Active; 'I' for Inactive)
REMARK    1  A    between atoms: C3_3  and  N9_9 
ROOT
HETATM    1  C4  UNL     1     -33.354   5.318   2.534  1.00 20.00     0.041 C 
HETATM    2  C5  UNL     1     -32.443   6.243   1.727  1.00 20.00     0.126 C 
HETATM    3  C6  UNL     1     -34.051   7.566   2.962  1.00 20.00     0.145 C 
HETATM    4  C7  UNL     1     -33.839   6.222   3.658  1.00 20.00     0.102 C 
HETATM    5  N9  UNL     1     -33.028   7.570   1.917  1.00 20.00    -0.358 N 
HETATM    6 CL11 UNL     1     -35.311   5.615   4.426  1.00 20.00    -0.123 Cl
ENDROOT
BRANCH   5   7
HETATM    7  C3  UNL     1     -32.669   8.683   1.188  1.00 20.00     0.168 A 
HETATM    8  N8  UNL     1     -33.137   9.893   1.406  1.00 20.00    -0.236 NA
HETATM    9  C1  UNL     1     -32.570  10.761   0.494  1.00 20.00     0.126 A 
HETATM   10  C2  UNL     1     -31.683  10.200  -0.402  1.00 20.00     0.072 A 
HETATM   11  S10 UNL     1     -31.544   8.518  -0.097  1.00 20.00    -0.063 SA
ENDBRANCH   5   7
TORSDOF 1
ENDMDL
MODEL 8
REMARK VINA RESULT:       3.0      1.507      1.718
REMARK  1 active torsions:
REMARK  status: ('A' for Active; 'I' for Inactive)
REMARK    1  A    between atoms: C3_3  and  N9_9 
ROOT
HETATM    1  C4  UNL     1     -31.981   9.387   2.266  1.00 20.00     0.041 C 
HETATM    2  C5  UNL     1     -32.284   8.355   3.352  1.00 20.00     0.126 C 
HETATM    3  C6  UNL     1     -33.127   7.563   1.226  1.00 20.00     0.145 C 
HETATM    4  C7  UNL     1     -31.981   8.548   0.997  1.00 20.00     0.102 C 
HETATM    5  N9  UNL     1     -33.113   7.360   2.674  1.00 20.00    -0.358 N 
HETATM    6 CL11 UNL     1     -32.206   9.526  -0.459  1.00 20.00    -0.123 Cl
ENDROOT
BRANCH   5   7
HETATM    7  C3  UNL     1     -33.808   6.362   3.323  1.00 20.00     0.168 A 
HETATM    8  N8  UNL     1     -34.948   6.544   3.953  1.00 20.00    -0.236 NA
HETATM    9  C1  UNL     1     -35.359   5.339   4.488  1.00 20.00     0.126 A 
HETATM   10  C2  UNL     1     -34.527   4.263   4.259  1.00 20.00     0.072 A 
HETATM   11  S10 UNL     1     -33.173   4.769   3.335  1.00 20.00    -0.063 SA
ENDBRANCH   5   7
TORSDOF 1
ENDMDL
MODEL 9
REMARK VINA RESULT:       3.1      2.844      4.813
REMARK  1 active torsions:
REMARK  status: ('A' for Active; 'I' for Inactive)
REMARK    1  A    between atoms: C3_3  and  N9_9 
ROOT
HETATM    1  C4  UNL     1     -33.447   5.259   2.573  1.00 20.00     0.041 C 
HETATM    2  C5  UNL     1     -32.452   6.079   1.751  1.00 20.00     0.126 C 
HETATM    3  C6  UNL     1     -33.961   7.570   2.918  1.00 20.00     0.145 C 
HETATM    4  C7  UNL     1     -33.870   6.236   3.659  1.00 20.00     0.102 C 
HETATM    5  N9  UNL     1     -32.927   7.454   1.890  1.00 20.00    -0.358 N 
HETATM    6 CL11 UNL     1     -35.398   5.778   4.422  1.00 20.00    -0.123 Cl
ENDROOT
BRANCH   5   7
HETATM    7  C3  UNL     1     -32.467   8.510   1.132  1.00 20.00     0.168 A 
HETATM    8  N8  UNL     1     -31.498   8.419   0.248  1.00 20.00    -0.236 NA
HETATM    9  C1  UNL     1     -31.295   9.661  -0.321  1.00 20.00     0.126 A 
HETATM   10  C2  UNL     1     -32.110  10.674   0.138  1.00 20.00     0.072 A 
HETATM   11  S10 UNL     1     -33.179  10.058   1.330  1.00 20.00    -0.063 SA
ENDBRANCH   5   7
TORSDOF 1
ENDMDL
