MODEL 1
REMARK VINA RESULT:      -2.2      0.000      0.000
REMARK  5 active torsions:
REMARK  status: ('A' for Active; 'I' for Inactive)
REMARK    1  A    between atoms: C2_2  and  C8_8 
REMARK    2  A    between atoms: C5_5  and  C9_9 
REMARK    3  A    between atoms: C7_7  and  C8_8 
REMARK    4  A    between atoms: C7_7  and  C9_9 
REMARK    5  A    between atoms: C9_9  and  O10_10 
ROOT
HETATM    1  C9  UNL     1     -32.234   8.056   1.998  1.00 20.00     0.122 C 
ENDROOT
BRANCH   1   2
HETATM    2  C5  UNL     1     -32.814   8.867   0.848  1.00 20.00     0.014 A 
HETATM    3  C3  UNL     1     -32.800  10.370   0.898  1.00 20.00     0.007 A 
HETATM    4  C4  UNL     1     -31.905   9.642  -0.066  1.00 20.00     0.007 A 
ENDBRANCH   1   2
BRANCH   1   5
HETATM    5  C7  UNL     1     -33.194   6.984   2.532  1.00 20.00     0.040 C 
BRANCH   5   6
HETATM    6  C8  UNL     1     -34.207   7.466   3.588  1.00 20.00     0.005 C 
HETATM    7  C6  UNL     1     -33.462   7.996   4.818  1.00 20.00     0.014 C 
BRANCH   6   8
HETATM    8  C2  UNL     1     -35.145   6.363   4.009  1.00 20.00    -0.033 C 
HETATM    9  C1  UNL     1     -34.771   5.092   4.195  1.00 20.00     0.007 C 
ENDBRANCH   6   8
ENDBRANCH   5   6
ENDBRANCH   1   5
BRANCH   1  10
HETATM   10  O10 UNL     1     -31.058   7.407   1.511  1.00 20.00    -0.395 OA
HETATM   11  H26 UNL     1     -31.112   6.487   1.807  1.00 20.00     0.210 HD
ENDBRANCH   1  10
TORSDOF 5
ENDMDL
MODEL 2
REMARK VINA RESULT:      -2.1      1.155      4.596
REMARK  5 active torsions:
REMARK  status: ('A' for Active; 'I' for Inactive)
REMARK    1  A    between atoms: C2_2  and  C8_8 
REMARK    2  A    between atoms: C5_5  and  C9_9 
REMARK    3  A    between atoms: C7_7  and  C8_8 
REMARK    4  A    between atoms: C7_7  and  C9_9 
REMARK    5  A    between atoms: C9_9  and  O10_10 
ROOT
HETATM    1  C9  UNL     1     -33.198   6.588   1.971  1.00 20.00     0.122 C 
ENDROOT
BRANCH   1   2
HETATM    2  C5  UNL     1     -33.676   6.365   3.399  1.00 20.00     0.014 A 
HETATM    3  C3  UNL     1     -34.203   7.516   4.211  1.00 20.00     0.007 A 
HETATM    4  C4  UNL     1     -35.141   6.445   3.729  1.00 20.00     0.007 A 
ENDBRANCH   1   2
BRANCH   1   5
HETATM    5  C7  UNL     1     -32.143   7.696   1.849  1.00 20.00     0.040 C 
BRANCH   5   6
HETATM    6  C8  UNL     1     -32.263   8.593   0.602  1.00 20.00     0.005 C 
HETATM    7  C6  UNL     1     -30.910   8.673  -0.112  1.00 20.00     0.014 C 
BRANCH   6   8
HETATM    8  C2  UNL     1     -32.725   9.984   0.956  1.00 20.00    -0.033 C 
HETATM    9  C1  UNL     1     -32.667  11.027   0.120  1.00 20.00     0.007 C 
ENDBRANCH   6   8
ENDBRANCH   5   6
ENDBRANCH   1   5
BRANCH   1  10
HETATM   10  O10 UNL     1     -32.621   5.361   1.519  1.00 20.00    -0.395 OA
HETATM   11  H26 UNL     1     -31.664   5.453   1.631  1.00 20.00     0.210 HD
ENDBRANCH   1  10
TORSDOF 5
ENDMDL
MODEL 3
REMARK VINA RESULT:      -2.1      1.081      1.429
REMARK  5 active torsions:
REMARK  status: ('A' for Active; 'I' for Inactive)
REMARK    1  A    between atoms: C2_2  and  C8_8 
REMARK    2  A    between atoms: C5_5  and  C9_9 
REMARK    3  A    between atoms: C7_7  and  C8_8 
REMARK    4  A    between atoms: C7_7  and  C9_9 
REMARK    5  A    between atoms: C9_9  and  O10_10 
ROOT
HETATM    1  C9  UNL     1     -32.346   8.350   2.029  1.00 20.00     0.122 C 
ENDROOT
BRANCH   1   2
HETATM    2  C5  UNL     1     -31.864   9.057   0.770  1.00 20.00     0.014 A 
HETATM    3  C3  UNL     1     -32.757   9.147  -0.437  1.00 20.00     0.007 A 
HETATM    4  C4  UNL     1     -32.459  10.379   0.370  1.00 20.00     0.007 A 
ENDBRANCH   1   2
BRANCH   1   5
HETATM    5  C7  UNL     1     -32.661   6.863   1.809  1.00 20.00     0.040 C 
BRANCH   5   6
HETATM    6  C8  UNL     1     -33.796   6.290   2.677  1.00 20.00     0.005 C 
HETATM    7  C6  UNL     1     -34.172   7.294   3.772  1.00 20.00     0.014 C 
BRANCH   6   8
HETATM    8  C2  UNL     1     -33.408   4.978   3.313  1.00 20.00    -0.033 C 
HETATM    9  C1  UNL     1     -34.193   4.291   4.151  1.00 20.00     0.007 C 
ENDBRANCH   6   8
ENDBRANCH   5   6
ENDBRANCH   1   5
BRANCH   1  10
HETATM   10  O10 UNL     1     -31.303   8.453   3.000  1.00 20.00    -0.395 OA
HETATM   11  H26 UNL     1     -31.376   7.668   3.562  1.00 20.00     0.210 HD
ENDBRANCH   1  10
TORSDOF 5
ENDMDL
MODEL 4
REMARK VINA RESULT:      -2.0      2.530      5.212
REMARK  5 active torsions:
REMARK  status: ('A' for Active; 'I' for Inactive)
REMARK    1  A    between atoms: C2_2  and  C8_8 
REMARK    2  A    between atoms: C5_5  and  C9_9 
REMARK    3  A    between atoms: C7_7  and  C8_8 
REMARK    4  A    between atoms: C7_7  and  C9_9 
REMARK    5  A    between atoms: C9_9  and  O10_10 
ROOT
HETATM    1  C9  UNL     1     -34.325   4.968   4.380  1.00 20.00     0.122 C 
ENDROOT
BRANCH   1   2
HETATM    2  C5  UNL     1     -33.832   3.541   4.190  1.00 20.00     0.014 A 
HETATM    3  C3  UNL     1     -32.367   3.265   3.988  1.00 20.00     0.007 A 
HETATM    4  C4  UNL     1     -33.037   2.864   5.273  1.00 20.00     0.007 A 
ENDBRANCH   1   2
BRANCH   1   5
HETATM    5  C7  UNL     1     -34.044   5.875   3.173  1.00 20.00     0.040 C 
BRANCH   5   6
HETATM    6  C8  UNL     1     -33.218   7.141   3.471  1.00 20.00     0.005 C 
HETATM    7  C6  UNL     1     -34.006   8.067   4.403  1.00 20.00     0.014 C 
BRANCH   6   8
HETATM    8  C2  UNL     1     -32.861   7.887   2.210  1.00 20.00    -0.033 C 
HETATM    9  C1  UNL     1     -31.714   7.721   1.541  1.00 20.00     0.007 C 
ENDBRANCH   6   8
ENDBRANCH   5   6
ENDBRANCH   1   5
BRANCH   1  10
HETATM   10  O10 UNL     1     -35.738   4.908   4.581  1.00 20.00    -0.395 OA
HETATM   11  H26 UNL     1     -35.980   5.714   5.058  1.00 20.00     0.210 HD
ENDBRANCH   1  10
TORSDOF 5
ENDMDL
MODEL 5
REMARK VINA RESULT:      -1.9      0.878      1.227
REMARK  5 active torsions:
REMARK  status: ('A' for Active; 'I' for Inactive)
REMARK    1  A    between atoms: C2_2  and  C8_8 
REMARK    2  A    between atoms: C5_5  and  C9_9 
REMARK    3  A    between atoms: C7_7  and  C8_8 
REMARK    4  A    between atoms: C7_7  and  C9_9 
REMARK    5  A    between atoms: C9_9  and  O10_10 
ROOT
HETATM    1  C9  UNL     1     -32.085   7.947   2.006  1.00 20.00     0.122 C 
ENDROOT
BRANCH   1   2
HETATM    2  C5  UNL     1     -32.825   8.792   0.978  1.00 20.00     0.014 A 
HETATM    3  C3  UNL     1     -32.768  10.293   1.048  1.00 20.00     0.007 A 
HETATM    4  C4  UNL     1     -32.059   9.565  -0.060  1.00 20.00     0.007 A 
ENDBRANCH   1   2
BRANCH   1   5
HETATM    5  C7  UNL     1     -32.939   7.591   3.230  1.00 20.00     0.040 C 
BRANCH   5   6
HETATM    6  C8  UNL     1     -33.989   6.487   3.009  1.00 20.00     0.005 C 
HETATM    7  C6  UNL     1     -35.206   6.739   3.906  1.00 20.00     0.014 C 
BRANCH   6   8
HETATM    8  C2  UNL     1     -33.431   5.116   3.298  1.00 20.00    -0.033 C 
HETATM    9  C1  UNL     1     -34.022   4.220   4.096  1.00 20.00     0.007 C 
ENDBRANCH   6   8
ENDBRANCH   5   6
ENDBRANCH   1   5
BRANCH   1  10
HETATM   10  O10 UNL     1     -31.694   6.735   1.359  1.00 20.00    -0.395 OA
HETATM   11  H26 UNL     1     -31.284   6.993   0.521  1.00 20.00     0.210 HD
ENDBRANCH   1  10
TORSDOF 5
ENDMDL
MODEL 6
REMARK VINA RESULT:      -1.9      1.674      4.203
REMARK  5 active torsions:
REMARK  status: ('A' for Active; 'I' for Inactive)
REMARK    1  A    between atoms: C2_2  and  C8_8 
REMARK    2  A    between atoms: C5_5  and  C9_9 
REMARK    3  A    between atoms: C7_7  and  C8_8 
REMARK    4  A    between atoms: C7_7  and  C9_9 
REMARK    5  A    between atoms: C9_9  and  O10_10 
ROOT
HETATM    1  C9  UNL     1     -33.209   7.421   4.052  1.00 20.00     0.122 C 
ENDROOT
BRANCH   1   2
HETATM    2  C5  UNL     1     -34.609   6.981   4.454  1.00 20.00     0.014 A 
HETATM    3  C3  UNL     1     -35.628   6.640   3.402  1.00 20.00     0.007 A 
HETATM    4  C4  UNL     1     -35.040   5.553   4.257  1.00 20.00     0.007 A 
ENDBRANCH   1   2
BRANCH   1   5
HETATM    5  C7  UNL     1     -33.170   8.186   2.722  1.00 20.00     0.040 C 
BRANCH   5   6
HETATM    6  C8  UNL     1     -31.929   7.931   1.845  1.00 20.00     0.005 C 
HETATM    7  C6  UNL     1     -31.995   8.803   0.587  1.00 20.00     0.014 C 
BRANCH   6   8
HETATM    8  C2  UNL     1     -31.815   6.482   1.443  1.00 20.00    -0.033 C 
HETATM    9  C1  UNL     1     -32.862   5.701   1.152  1.00 20.00     0.007 C 
ENDBRANCH   6   8
ENDBRANCH   5   6
ENDBRANCH   1   5
BRANCH   1  10
HETATM   10  O10 UNL     1     -32.720   8.281   5.083  1.00 20.00    -0.395 OA
HETATM   11  H26 UNL     1     -32.028   7.786   5.545  1.00 20.00     0.210 HD
ENDBRANCH   1  10
TORSDOF 5
ENDMDL
MODEL 7
REMARK VINA RESULT:      -1.8      1.695      4.693
REMARK  5 active torsions:
REMARK  status: ('A' for Active; 'I' for Inactive)
REMARK    1  A    between atoms: C2_2  and  C8_8 
REMARK    2  A    between atoms: C5_5  and  C9_9 
REMARK    3  A    between atoms: C7_7  and  C8_8 
REMARK    4  A    between atoms: C7_7  and  C9_9 
REMARK    5  A    between atoms: C9_9  and  O10_10 
ROOT
HETATM    1  C9  UNL     1     -33.185   7.442   4.075  1.00 20.00     0.122 C 
ENDROOT
BRANCH   1   2
HETATM    2  C5  UNL     1     -34.259   6.596   3.404  1.00 20.00     0.014 A 
HETATM    3  C3  UNL     1     -34.358   5.125   3.699  1.00 20.00     0.007 A 
HETATM    4  C4  UNL     1     -35.415   6.066   4.206  1.00 20.00     0.007 A 
ENDBRANCH   1   2
BRANCH   1   5
HETATM    5  C7  UNL     1     -32.354   8.268   3.084  1.00 20.00     0.040 C 
BRANCH   5   6
HETATM    6  C8  UNL     1     -32.522   7.892   1.600  1.00 20.00     0.005 C 
HETATM    7  C6  UNL     1     -31.861   6.536   1.330  1.00 20.00     0.014 C 
BRANCH   6   8
HETATM    8  C2  UNL     1     -31.922   8.931   0.687  1.00 20.00    -0.033 C 
HETATM    9  C1  UNL     1     -32.563  10.035   0.286  1.00 20.00     0.007 C 
ENDBRANCH   6   8
ENDBRANCH   5   6
ENDBRANCH   1   5
BRANCH   1  10
HETATM   10  O10 UNL     1     -33.847   8.339   4.969  1.00 20.00    -0.395 OA
HETATM   11  H26 UNL     1     -34.270   9.012   4.416  1.00 20.00     0.210 HD
ENDBRANCH   1  10
TORSDOF 5
ENDMDL
MODEL 8
REMARK VINA RESULT:      -1.8      1.572      2.360
REMARK  5 active torsions:
REMARK  status: ('A' for Active; 'I' for Inactive)
REMARK    1  A    between atoms: C2_2  and  C8_8 
REMARK    2  A    between atoms: C5_5  and  C9_9 
REMARK    3  A    between atoms: C7_7  and  C8_8 
REMARK    4  A    between atoms: C7_7  and  C9_9 
REMARK    5  A    between atoms: C9_9  and  O10_10 
ROOT
HETATM    1  C9  UNL     1     -33.249   7.530   3.165  1.00 20.00     0.122 C 
ENDROOT
BRANCH   1   2
HETATM    2  C5  UNL     1     -32.134   8.227   2.398  1.00 20.00     0.014 A 
HETATM    3  C3  UNL     1     -31.624   7.645   1.108  1.00 20.00     0.007 A 
HETATM    4  C4  UNL     1     -32.428   8.914   1.093  1.00 20.00     0.007 A 
ENDBRANCH   1   2
BRANCH   1   5
HETATM    5  C7  UNL     1     -33.211   6.001   3.040  1.00 20.00     0.040 C 
BRANCH   5   6
HETATM    6  C8  UNL     1     -34.485   5.265   3.496  1.00 20.00     0.005 C 
HETATM    7  C6  UNL     1     -35.512   6.277   4.014  1.00 20.00     0.014 C 
BRANCH   6   8
HETATM    8  C2  UNL     1     -34.192   4.254   4.577  1.00 20.00    -0.033 C 
HETATM    9  C1  UNL     1     -33.421   3.174   4.402  1.00 20.00     0.007 C 
ENDBRANCH   6   8
ENDBRANCH   5   6
ENDBRANCH   1   5
BRANCH   1  10
HETATM   10  O10 UNL     1     -33.097   7.875   4.543  1.00 20.00    -0.395 OA
HETATM   11  H26 UNL     1     -32.250   8.338   4.617  1.00 20.00     0.210 HD
ENDBRANCH   1  10
TORSDOF 5
ENDMDL
MODEL 9
REMARK VINA RESULT:      -1.7      2.247      4.634
REMARK  5 active torsions:
REMARK  status: ('A' for Active; 'I' for Inactive)
REMARK    1  A    between atoms: C2_2  and  C8_8 
REMARK    2  A    between atoms: C5_5  and  C9_9 
REMARK    3  A    between atoms: C7_7  and  C8_8 
REMARK    4  A    between atoms: C7_7  and  C9_9 
REMARK    5  A    between atoms: C9_9  and  O10_10 
ROOT
HETATM    1  C9  UNL     1     -34.158   4.740   3.446  1.00 20.00     0.122 C 
ENDROOT
BRANCH   1   2
HETATM    2  C5  UNL     1     -34.947   5.796   4.208  1.00 20.00     0.014 A 
HETATM    3  C3  UNL     1     -34.488   7.228   4.210  1.00 20.00     0.007 A 
HETATM    4  C4  UNL     1     -35.732   6.839   3.461  1.00 20.00     0.007 A 
ENDBRANCH   1   2
BRANCH   1   5
HETATM    5  C7  UNL     1     -32.778   5.227   2.983  1.00 20.00     0.040 C 
BRANCH   5   6
HETATM    6  C8  UNL     1     -32.734   5.862   1.580  1.00 20.00     0.005 C 
HETATM    7  C6  UNL     1     -32.274   4.821   0.553  1.00 20.00     0.014 C 
BRANCH   6   8
HETATM    8  C2  UNL     1     -31.810   7.053   1.533  1.00 20.00    -0.033 C 
HETATM    9  C1  UNL     1     -32.224   8.324   1.584  1.00 20.00     0.007 C 
ENDBRANCH   6   8
ENDBRANCH   5   6
ENDBRANCH   1   5
BRANCH   1  10
HETATM   10  O10 UNL     1     -33.974   3.629   4.326  1.00 20.00    -0.395 OA
HETATM   11  H26 UNL     1     -34.668   2.990   4.107  1.00 20.00     0.210 HD
ENDBRANCH   1  10
TORSDOF 5
ENDMDL
