MODEL 1
REMARK VINA RESULT:      -2.0      0.000      0.000
REMARK  2 active torsions:
REMARK  status: ('A' for Active; 'I' for Inactive)
REMARK    1  A    between atoms: C6_6  and  C7_7 
REMARK    2  A    between atoms: C6_6  and  N8_8 
ROOT
HETATM    1  C1  UNL     1     -33.308   5.500   2.398  1.00 20.00     0.050 C 
HETATM    2  C2  UNL     1     -33.880   7.421   3.905  1.00 20.00     0.050 C 
HETATM    3  C3  UNL     1     -32.723   6.506   1.404  1.00 20.00     0.274 C 
HETATM    4  C4  UNL     1     -33.277   8.365   2.862  1.00 20.00     0.274 C 
HETATM    5  C5  UNL     1     -34.401   6.146   3.246  1.00 20.00     0.085 C 
HETATM    6  N8  UNL     1     -32.215   7.699   2.094  1.00 20.00     0.093 N 
HETATM    7 CL11 UNL     1     -34.980   5.002   4.486  1.00 20.00    -0.125 Cl
ENDROOT
BRANCH   6   8
HETATM    8  C6  UNL     1     -31.616   8.628   1.136  1.00 20.00     0.343 C 
BRANCH   8   9
HETATM    9  C7  UNL     1     -32.671   9.545   0.553  1.00 20.00     0.381 C 
HETATM   10  F9  UNL     1     -32.738   9.377  -0.791  1.00 20.00    -0.213 F 
HETATM   11  F10 UNL     1     -32.304  10.836   0.762  1.00 20.00    -0.213 F 
ENDBRANCH   8   9
ENDBRANCH   6   8
TORSDOF 2
ENDMDL
MODEL 2
REMARK VINA RESULT:      -1.9      0.522      1.819
REMARK  2 active torsions:
REMARK  status: ('A' for Active; 'I' for Inactive)
REMARK    1  A    between atoms: C6_6  and  C7_7 
REMARK    2  A    between atoms: C6_6  and  N8_8 
ROOT
HETATM    1  C1  UNL     1     -33.930   7.471   3.742  1.00 20.00     0.050 C 
HETATM    2  C2  UNL     1     -33.488   5.644   2.083  1.00 20.00     0.050 C 
HETATM    3  C3  UNL     1     -32.812   8.283   3.084  1.00 20.00     0.274 C 
HETATM    4  C4  UNL     1     -32.384   6.515   1.479  1.00 20.00     0.274 C 
HETATM    5  C5  UNL     1     -33.694   5.974   3.559  1.00 20.00     0.085 C 
HETATM    6  N8  UNL     1     -32.676   7.944   1.661  1.00 20.00     0.093 N 
HETATM    7 CL11 UNL     1     -35.069   5.046   4.213  1.00 20.00    -0.125 Cl
ENDROOT
BRANCH   6   8
HETATM    8  C6  UNL     1     -31.637   8.763   1.037  1.00 20.00     0.343 C 
BRANCH   8   9
HETATM    9  C7  UNL     1     -32.256   9.829   0.157  1.00 20.00     0.381 C 
HETATM   10  F9  UNL     1     -33.108  10.591   0.887  1.00 20.00    -0.213 F 
HETATM   11  F10 UNL     1     -33.003   9.231  -0.807  1.00 20.00    -0.213 F 
ENDBRANCH   8   9
ENDBRANCH   6   8
TORSDOF 2
ENDMDL
MODEL 3
REMARK VINA RESULT:      -1.8      0.565      1.586
REMARK  2 active torsions:
REMARK  status: ('A' for Active; 'I' for Inactive)
REMARK    1  A    between atoms: C6_6  and  C7_7 
REMARK    2  A    between atoms: C6_6  and  N8_8 
ROOT
HETATM    1  C1  UNL     1     -33.944   7.237   3.706  1.00 20.00     0.050 C 
HETATM    2  C2  UNL     1     -33.233   5.530   2.012  1.00 20.00     0.050 C 
HETATM    3  C3  UNL     1     -32.959   8.220   3.068  1.00 20.00     0.274 C 
HETATM    4  C4  UNL     1     -32.272   6.569   1.429  1.00 20.00     0.274 C 
HETATM    5  C5  UNL     1     -33.486   5.795   3.494  1.00 20.00     0.085 C 
HETATM    6  N8  UNL     1     -32.774   7.934   1.639  1.00 20.00     0.093 N 
HETATM    7 CL11 UNL     1     -34.708   4.659   4.125  1.00 20.00    -0.125 Cl
ENDROOT
BRANCH   6   8
HETATM    8  C6  UNL     1     -31.869   8.911   1.035  1.00 20.00     0.343 C 
BRANCH   8   9
HETATM    9  C7  UNL     1     -32.652   9.980   0.302  1.00 20.00     0.381 C 
HETATM   10  F9  UNL     1     -32.843   9.610  -0.988  1.00 20.00    -0.213 F 
HETATM   11  F10 UNL     1     -31.922  11.125   0.272  1.00 20.00    -0.213 F 
ENDBRANCH   8   9
ENDBRANCH   6   8
TORSDOF 2
ENDMDL
MODEL 4
REMARK VINA RESULT:      -1.4      4.590      5.640
REMARK  2 active torsions:
REMARK  status: ('A' for Active; 'I' for Inactive)
REMARK    1  A    between atoms: C6_6  and  C7_7 
REMARK    2  A    between atoms: C6_6  and  N8_8 
ROOT
HETATM    1  C1  UNL     1     -33.492   7.635   3.222  1.00 20.00     0.050 C 
HETATM    2  C2  UNL     1     -32.221   6.200   1.605  1.00 20.00     0.050 C 
HETATM    3  C3  UNL     1     -34.208   6.375   3.714  1.00 20.00     0.274 C 
HETATM    4  C4  UNL     1     -32.978   4.987   2.149  1.00 20.00     0.274 C 
HETATM    5  C5  UNL     1     -33.046   7.475   1.770  1.00 20.00     0.085 C 
HETATM    6  N8  UNL     1     -33.360   5.186   3.554  1.00 20.00     0.093 N 
HETATM    7 CL11 UNL     1     -32.098   8.894   1.254  1.00 20.00    -0.125 Cl
ENDROOT
BRANCH   6   8
HETATM    8  C6  UNL     1     -34.040   3.999   4.074  1.00 20.00     0.343 C 
BRANCH   8   9
HETATM    9  C7  UNL     1     -33.032   2.955   4.505  1.00 20.00     0.381 C 
HETATM   10  F9  UNL     1     -33.603   1.725   4.484  1.00 20.00    -0.213 F 
HETATM   11  F10 UNL     1     -32.670   3.191   5.793  1.00 20.00    -0.213 F 
ENDBRANCH   8   9
ENDBRANCH   6   8
TORSDOF 2
ENDMDL
MODEL 5
REMARK VINA RESULT:      -1.3      4.433      5.301
REMARK  2 active torsions:
REMARK  status: ('A' for Active; 'I' for Inactive)
REMARK    1  A    between atoms: C6_6  and  C7_7 
REMARK    2  A    between atoms: C6_6  and  N8_8 
ROOT
HETATM    1  C1  UNL     1     -32.626   6.211   1.564  1.00 20.00     0.050 C 
HETATM    2  C2  UNL     1     -33.716   7.851   3.115  1.00 20.00     0.050 C 
HETATM    3  C3  UNL     1     -32.902   5.114   2.595  1.00 20.00     0.274 C 
HETATM    4  C4  UNL     1     -33.957   6.702   4.096  1.00 20.00     0.274 C 
HETATM    5  C5  UNL     1     -32.495   7.573   2.241  1.00 20.00     0.085 C 
HETATM    6  N8  UNL     1     -34.099   5.421   3.389  1.00 20.00     0.093 N 
HETATM    7 CL11 UNL     1     -32.307   8.856   1.017  1.00 20.00    -0.125 Cl
ENDROOT
BRANCH   6   8
HETATM    8  C6  UNL     1     -34.377   4.341   4.335  1.00 20.00     0.343 C 
BRANCH   8   9
HETATM    9  C7  UNL     1     -33.226   3.357   4.372  1.00 20.00     0.381 C 
HETATM   10  F9  UNL     1     -33.682   2.104   4.126  1.00 20.00    -0.213 F 
HETATM   11  F10 UNL     1     -32.698   3.337   5.623  1.00 20.00    -0.213 F 
ENDBRANCH   8   9
ENDBRANCH   6   8
TORSDOF 2
ENDMDL
MODEL 6
REMARK VINA RESULT:      -0.2      3.905      4.771
REMARK  2 active torsions:
REMARK  status: ('A' for Active; 'I' for Inactive)
REMARK    1  A    between atoms: C6_6  and  C7_7 
REMARK    2  A    between atoms: C6_6  and  N8_8 
ROOT
HETATM    1  C1  UNL     1     -32.056   6.624   0.803  1.00 20.00     0.050 C 
HETATM    2  C2  UNL     1     -32.750   8.486   2.333  1.00 20.00     0.050 C 
HETATM    3  C3  UNL     1     -32.550   5.629   1.857  1.00 20.00     0.274 C 
HETATM    4  C4  UNL     1     -33.222   7.431   3.336  1.00 20.00     0.274 C 
HETATM    5  C5  UNL     1     -31.628   7.937   1.454  1.00 20.00     0.085 C 
HETATM    6  N8  UNL     1     -33.644   6.200   2.654  1.00 20.00     0.093 N 
HETATM    7 CL11 UNL     1     -31.182   9.129   0.206  1.00 20.00    -0.125 Cl
ENDROOT
BRANCH   6   8
HETATM    8  C6  UNL     1     -34.137   5.221   3.622  1.00 20.00     0.343 C 
BRANCH   8   9
HETATM    9  C7  UNL     1     -35.278   5.800   4.432  1.00 20.00     0.381 C 
HETATM   10  F9  UNL     1     -35.895   4.816   5.131  1.00 20.00    -0.213 F 
HETATM   11  F10 UNL     1     -36.208   6.313   3.585  1.00 20.00    -0.213 F 
ENDBRANCH   8   9
ENDBRANCH   6   8
TORSDOF 2
ENDMDL
MODEL 7
REMARK VINA RESULT:       0.1      3.862      4.943
REMARK  2 active torsions:
REMARK  status: ('A' for Active; 'I' for Inactive)
REMARK    1  A    between atoms: C6_6  and  C7_7 
REMARK    2  A    between atoms: C6_6  and  N8_8 
ROOT
HETATM    1  C1  UNL     1     -32.465   8.254   2.764  1.00 20.00     0.050 C 
HETATM    2  C2  UNL     1     -32.068   6.567   0.953  1.00 20.00     0.050 C 
HETATM    3  C3  UNL     1     -33.513   7.310   3.358  1.00 20.00     0.274 C 
HETATM    4  C4  UNL     1     -33.128   5.677   1.605  1.00 20.00     0.274 C 
HETATM    5  C5  UNL     1     -32.331   8.039   1.259  1.00 20.00     0.085 C 
HETATM    6  N8  UNL     1     -33.196   5.907   3.055  1.00 20.00     0.093 N 
HETATM    7 CL11 UNL     1     -31.016   9.050   0.604  1.00 20.00    -0.125 Cl
ENDROOT
BRANCH   6   8
HETATM    8  C6  UNL     1     -34.179   5.016   3.670  1.00 20.00     0.343 C 
BRANCH   8   9
HETATM    9  C7  UNL     1     -35.249   5.816   4.384  1.00 20.00     0.381 C 
HETATM   10  F9  UNL     1     -35.943   5.010   5.226  1.00 20.00    -0.213 F 
HETATM   11  F10 UNL     1     -36.141   6.280   3.471  1.00 20.00    -0.213 F 
ENDBRANCH   8   9
ENDBRANCH   6   8
TORSDOF 2
ENDMDL
MODEL 8
REMARK VINA RESULT:       0.7      1.674      2.116
REMARK  2 active torsions:
REMARK  status: ('A' for Active; 'I' for Inactive)
REMARK    1  A    between atoms: C6_6  and  C7_7 
REMARK    2  A    between atoms: C6_6  and  N8_8 
ROOT
HETATM    1  C1  UNL     1     -32.620   4.467   2.861  1.00 20.00     0.050 C 
HETATM    2  C2  UNL     1     -34.381   5.250   4.464  1.00 20.00     0.050 C 
HETATM    3  C3  UNL     1     -32.840   5.749   2.055  1.00 20.00     0.274 C 
HETATM    4  C4  UNL     1     -34.544   6.508   3.607  1.00 20.00     0.274 C 
HETATM    5  C5  UNL     1     -33.885   4.078   3.621  1.00 20.00     0.085 C 
HETATM    6  N8  UNL     1     -33.291   6.848   2.919  1.00 20.00     0.093 N 
HETATM    7 CL11 UNL     1     -33.574   2.660   4.657  1.00 20.00    -0.125 Cl
ENDROOT
BRANCH   6   8
HETATM    8  C6  UNL     1     -33.450   8.078   2.143  1.00 20.00     0.343 C 
BRANCH   8   9
HETATM    9  C7  UNL     1     -32.193   8.375   1.353  1.00 20.00     0.381 C 
HETATM   10  F9  UNL     1     -31.112   8.330   2.171  1.00 20.00    -0.213 F 
HETATM   11  F10 UNL     1     -32.260   9.643   0.871  1.00 20.00    -0.213 F 
ENDBRANCH   8   9
ENDBRANCH   6   8
TORSDOF 2
ENDMDL
