MODEL 1
REMARK VINA RESULT:      -1.9      0.000      0.000
REMARK  2 active torsions:
REMARK  status: ('A' for Active; 'I' for Inactive)
REMARK    1  A    between atoms: C6_6  and  C8_8 
REMARK    2  A    between atoms: C8_8  and  N9_9 
ROOT
HETATM    1  C3  UNL     1     -33.489   5.436   2.284  1.00 20.00     0.052 C 
HETATM    2  C4  UNL     1     -32.533   6.209   1.376  1.00 20.00     0.274 C 
HETATM    3  C5  UNL     1     -33.299   7.739   2.958  1.00 20.00     0.292 C 
HETATM    4  C7  UNL     1     -33.767   6.380   3.452  1.00 20.00     0.112 C 
HETATM    5  N9  UNL     1     -32.118   7.361   2.179  1.00 20.00     0.090 N 
HETATM    6 CL10 UNL     1     -35.472   6.391   3.929  1.00 20.00    -0.123 Cl
ENDROOT
BRANCH   5   7
HETATM    7  C8  UNL     1     -31.615   8.456   1.362  1.00 20.00     0.277 C 
BRANCH   7   8
HETATM    8  C6  UNL     1     -32.733   9.254   0.783  1.00 20.00     0.014 A 
HETATM    9  C1  UNL     1     -32.581  10.736   0.579  1.00 20.00     0.007 A 
HETATM   10  C2  UNL     1     -32.622   9.814  -0.607  1.00 20.00     0.007 A 
ENDBRANCH   7   8
ENDBRANCH   5   7
TORSDOF 2
ENDMDL
MODEL 2
REMARK VINA RESULT:      -1.4      1.342      1.847
REMARK  2 active torsions:
REMARK  status: ('A' for Active; 'I' for Inactive)
REMARK    1  A    between atoms: C6_6  and  C8_8 
REMARK    2  A    between atoms: C8_8  and  N9_9 
ROOT
HETATM    1  C3  UNL     1     -34.593   6.469   4.199  1.00 20.00     0.052 C 
HETATM    2  C4  UNL     1     -33.844   7.679   3.641  1.00 20.00     0.274 C 
HETATM    3  C5  UNL     1     -32.964   5.816   2.552  1.00 20.00     0.292 C 
HETATM    4  C7  UNL     1     -34.190   5.308   3.293  1.00 20.00     0.112 C 
HETATM    5  N9  UNL     1     -33.321   7.221   2.351  1.00 20.00     0.090 N 
HETATM    6 CL10 UNL     1     -33.859   3.822   4.196  1.00 20.00    -0.123 Cl
ENDROOT
BRANCH   5   7
HETATM    7  C8  UNL     1     -32.197   8.022   1.890  1.00 20.00     0.277 C 
BRANCH   7   8
HETATM    8  C6  UNL     1     -32.526   8.735   0.624  1.00 20.00     0.014 A 
HETATM    9  C1  UNL     1     -32.597  10.236   0.595  1.00 20.00     0.007 A 
HETATM   10  C2  UNL     1     -31.470   9.524  -0.098  1.00 20.00     0.007 A 
ENDBRANCH   7   8
ENDBRANCH   5   7
TORSDOF 2
ENDMDL
MODEL 3
REMARK VINA RESULT:      -1.0      1.976      2.847
REMARK  2 active torsions:
REMARK  status: ('A' for Active; 'I' for Inactive)
REMARK    1  A    between atoms: C6_6  and  C8_8 
REMARK    2  A    between atoms: C8_8  and  N9_9 
ROOT
HETATM    1  C3  UNL     1     -35.171   4.904   4.612  1.00 20.00     0.052 C 
HETATM    2  C4  UNL     1     -34.976   6.375   4.245  1.00 20.00     0.274 C 
HETATM    3  C5  UNL     1     -33.133   5.244   3.377  1.00 20.00     0.292 C 
HETATM    4  C7  UNL     1     -34.102   4.158   3.816  1.00 20.00     0.112 C 
HETATM    5  N9  UNL     1     -34.054   6.349   3.107  1.00 20.00     0.090 N 
HETATM    6 CL10 UNL     1     -33.306   2.892   4.764  1.00 20.00    -0.123 Cl
ENDROOT
BRANCH   5   7
HETATM    7  C8  UNL     1     -33.365   7.617   2.919  1.00 20.00     0.277 C 
BRANCH   7   8
HETATM    8  C6  UNL     1     -32.546   7.606   1.675  1.00 20.00     0.014 A 
HETATM    9  C1  UNL     1     -32.263   8.887   0.941  1.00 20.00     0.007 A 
HETATM   10  C2  UNL     1     -31.157   8.183   1.677  1.00 20.00     0.007 A 
ENDBRANCH   7   8
ENDBRANCH   5   7
TORSDOF 2
ENDMDL
MODEL 4
REMARK VINA RESULT:      -0.3      1.904      2.747
REMARK  2 active torsions:
REMARK  status: ('A' for Active; 'I' for Inactive)
REMARK    1  A    between atoms: C6_6  and  C8_8 
REMARK    2  A    between atoms: C8_8  and  N9_9 
ROOT
HETATM    1  C3  UNL     1     -34.583   5.198   4.340  1.00 20.00     0.052 C 
HETATM    2  C4  UNL     1     -34.174   6.278   3.339  1.00 20.00     0.274 C 
HETATM    3  C5  UNL     1     -32.840   4.425   2.872  1.00 20.00     0.292 C 
HETATM    4  C7  UNL     1     -33.892   3.928   3.849  1.00 20.00     0.112 C 
HETATM    5  N9  UNL     1     -33.549   5.539   2.239  1.00 20.00     0.090 N 
HETATM    6 CL10 UNL     1     -33.188   2.982   5.169  1.00 20.00    -0.123 Cl
ENDROOT
BRANCH   5   7
HETATM    7  C8  UNL     1     -32.671   6.375   1.434  1.00 20.00     0.277 C 
BRANCH   7   8
HETATM    8  C6  UNL     1     -32.626   7.769   1.959  1.00 20.00     0.014 A 
HETATM    9  C1  UNL     1     -31.306   8.451   2.189  1.00 20.00     0.007 A 
HETATM   10  C2  UNL     1     -32.198   8.900   1.066  1.00 20.00     0.007 A 
ENDBRANCH   7   8
ENDBRANCH   5   7
TORSDOF 2
ENDMDL
MODEL 5
REMARK VINA RESULT:      -0.2      2.652      5.378
REMARK  2 active torsions:
REMARK  status: ('A' for Active; 'I' for Inactive)
REMARK    1  A    between atoms: C6_6  and  C8_8 
REMARK    2  A    between atoms: C8_8  and  N9_9 
ROOT
HETATM    1  C3  UNL     1     -33.750   8.058   3.357  1.00 20.00     0.052 C 
HETATM    2  C4  UNL     1     -34.351   6.713   3.763  1.00 20.00     0.274 C 
HETATM    3  C5  UNL     1     -32.770   6.243   2.118  1.00 20.00     0.292 C 
HETATM    4  C7  UNL     1     -32.550   7.701   2.484  1.00 20.00     0.112 C 
HETATM    5  N9  UNL     1     -33.346   5.727   3.361  1.00 20.00     0.090 N 
HETATM    6 CL10 UNL     1     -32.416   8.737   1.054  1.00 20.00    -0.123 Cl
ENDROOT
BRANCH   5   7
HETATM    7  C8  UNL     1     -33.905   4.392   3.206  1.00 20.00     0.277 C 
BRANCH   7   8
HETATM    8  C6  UNL     1     -33.856   3.635   4.488  1.00 20.00     0.014 A 
HETATM    9  C1  UNL     1     -33.379   2.210   4.510  1.00 20.00     0.007 A 
HETATM   10  C2  UNL     1     -32.533   3.294   5.116  1.00 20.00     0.007 A 
ENDBRANCH   7   8
ENDBRANCH   5   7
TORSDOF 2
ENDMDL
MODEL 6
REMARK VINA RESULT:       0.2      2.294      4.508
REMARK  2 active torsions:
REMARK  status: ('A' for Active; 'I' for Inactive)
REMARK    1  A    between atoms: C6_6  and  C8_8 
REMARK    2  A    between atoms: C8_8  and  N9_9 
ROOT
HETATM    1  C3  UNL     1     -31.832   9.080   2.046  1.00 20.00     0.052 C 
HETATM    2  C4  UNL     1     -32.332   7.876   2.843  1.00 20.00     0.274 C 
HETATM    3  C5  UNL     1     -32.951   7.488   0.630  1.00 20.00     0.292 C 
HETATM    4  C7  UNL     1     -32.013   8.683   0.583  1.00 20.00     0.112 C 
HETATM    5  N9  UNL     1     -32.486   6.815   1.844  1.00 20.00     0.090 N 
HETATM    6 CL10 UNL     1     -32.658  10.002  -0.406  1.00 20.00    -0.123 Cl
ENDROOT
BRANCH   5   7
HETATM    7  C8  UNL     1     -33.393   5.765   2.283  1.00 20.00     0.277 C 
BRANCH   7   8
HETATM    8  C6  UNL     1     -33.959   6.069   3.627  1.00 20.00     0.014 A 
HETATM    9  C1  UNL     1     -35.420   6.389   3.780  1.00 20.00     0.007 A 
HETATM   10  C2  UNL     1     -34.877   5.088   4.302  1.00 20.00     0.007 A 
ENDBRANCH   7   8
ENDBRANCH   5   7
TORSDOF 2
ENDMDL
MODEL 7
REMARK VINA RESULT:       0.3      2.646      5.226
REMARK  2 active torsions:
REMARK  status: ('A' for Active; 'I' for Inactive)
REMARK    1  A    between atoms: C6_6  and  C8_8 
REMARK    2  A    between atoms: C8_8  and  N9_9 
ROOT
HETATM    1  C3  UNL     1     -32.485   6.535   1.415  1.00 20.00     0.052 C 
HETATM    2  C4  UNL     1     -33.100   5.251   1.970  1.00 20.00     0.274 C 
HETATM    3  C5  UNL     1     -33.400   6.873   3.615  1.00 20.00     0.292 C 
HETATM    4  C7  UNL     1     -32.923   7.629   2.386  1.00 20.00     0.112 C 
HETATM    5  N9  UNL     1     -34.038   5.709   2.998  1.00 20.00     0.090 N 
HETATM    6 CL10 UNL     1     -31.621   8.767   2.762  1.00 20.00    -0.123 Cl
ENDROOT
BRANCH   5   7
HETATM    7  C8  UNL     1     -34.356   4.668   3.965  1.00 20.00     0.277 C 
BRANCH   7   8
HETATM    8  C6  UNL     1     -33.214   3.727   4.138  1.00 20.00     0.014 A 
HETATM    9  C1  UNL     1     -32.868   3.197   5.501  1.00 20.00     0.007 A 
HETATM   10  C2  UNL     1     -33.466   2.283   4.470  1.00 20.00     0.007 A 
ENDBRANCH   7   8
ENDBRANCH   5   7
TORSDOF 2
ENDMDL
MODEL 8
REMARK VINA RESULT:       0.6      2.392      4.604
REMARK  2 active torsions:
REMARK  status: ('A' for Active; 'I' for Inactive)
REMARK    1  A    between atoms: C6_6  and  C8_8 
REMARK    2  A    between atoms: C8_8  and  N9_9 
ROOT
HETATM    1  C3  UNL     1     -31.204   8.503   0.606  1.00 20.00     0.052 C 
HETATM    2  C4  UNL     1     -31.469   7.525   1.749  1.00 20.00     0.274 C 
HETATM    3  C5  UNL     1     -33.256   9.020   1.752  1.00 20.00     0.292 C 
HETATM    4  C7  UNL     1     -32.500   9.297   0.463  1.00 20.00     0.112 C 
HETATM    5  N9  UNL     1     -32.912   7.615   1.980  1.00 20.00     0.090 N 
HETATM    6 CL10 UNL     1     -32.215  11.027   0.212  1.00 20.00    -0.123 Cl
ENDROOT
BRANCH   5   7
HETATM    7  C8  UNL     1     -33.294   7.156   3.308  1.00 20.00     0.277 C 
BRANCH   7   8
HETATM    8  C6  UNL     1     -34.374   6.132   3.233  1.00 20.00     0.014 A 
HETATM    9  C1  UNL     1     -34.355   4.942   4.152  1.00 20.00     0.007 A 
HETATM   10  C2  UNL     1     -35.387   6.019   4.339  1.00 20.00     0.007 A 
ENDBRANCH   7   8
ENDBRANCH   5   7
TORSDOF 2
ENDMDL
