MODEL 1
REMARK VINA RESULT:      -0.6      0.000      0.000
REMARK  5 active torsions:
REMARK  status: ('A' for Active; 'I' for Inactive)
REMARK    1  A    between atoms: C5_5  and  C9_9 
REMARK    2  A    between atoms: C6_6  and  C7_7 
REMARK    3  A    between atoms: C6_6  and  C8_8 
REMARK    4  A    between atoms: C7_7  and  C9_9 
REMARK    5  A    between atoms: C8_8  and  C10_10 
ROOT
HETATM    1  C6  UNL     1     -33.303   6.251   1.589  1.00 20.00     0.002 C 
ENDROOT
BRANCH   1   2
HETATM    2  C7  UNL     1     -31.828   6.670   1.505  1.00 20.00     0.020 C 
BRANCH   2   3
HETATM    3  C9  UNL     1     -31.626   8.191   1.584  1.00 20.00     0.082 C 
HETATM    4 CL11 UNL     1     -31.364   8.703   3.281  1.00 20.00    -0.125 Cl
BRANCH   3   5
HETATM    5  C5  UNL     1     -32.784   8.984   0.958  1.00 20.00     0.016 C 
HETATM    6  C1  UNL     1     -32.378  10.053  -0.048  1.00 20.00     0.006 C 
ENDBRANCH   3   5
ENDBRANCH   2   3
ENDBRANCH   1   2
BRANCH   1   7
HETATM    7  C8  UNL     1     -33.615   5.622   2.954  1.00 20.00     0.008 C 
BRANCH   7   8
HETATM    8  C10 UNL     1     -34.725   6.324   3.782  1.00 20.00    -0.051 C 
HETATM    9  C2  UNL     1     -35.841   6.865   2.873  1.00 20.00     0.014 C 
HETATM   10  C3  UNL     1     -35.338   5.284   4.741  1.00 20.00     0.014 C 
HETATM   11  C4  UNL     1     -34.150   7.478   4.619  1.00 20.00     0.014 C 
ENDBRANCH   7   8
ENDBRANCH   1   7
TORSDOF 5
ENDMDL
MODEL 2
REMARK VINA RESULT:      -0.5      0.054      1.313
REMARK  5 active torsions:
REMARK  status: ('A' for Active; 'I' for Inactive)
REMARK    1  A    between atoms: C5_5  and  C9_9 
REMARK    2  A    between atoms: C6_6  and  C7_7 
REMARK    3  A    between atoms: C6_6  and  C8_8 
REMARK    4  A    between atoms: C7_7  and  C9_9 
REMARK    5  A    between atoms: C8_8  and  C10_10 
ROOT
HETATM    1  C6  UNL     1     -33.327   6.321   1.586  1.00 20.00     0.002 C 
ENDROOT
BRANCH   1   2
HETATM    2  C7  UNL     1     -31.845   6.715   1.497  1.00 20.00     0.020 C 
BRANCH   2   3
HETATM    3  C9  UNL     1     -31.617   8.231   1.586  1.00 20.00     0.082 C 
HETATM    4 CL11 UNL     1     -31.335   8.726   3.285  1.00 20.00    -0.125 Cl
BRANCH   3   5
HETATM    5  C5  UNL     1     -32.765   9.049   0.974  1.00 20.00     0.016 C 
HETATM    6  C1  UNL     1     -32.361  10.028  -0.121  1.00 20.00     0.006 C 
ENDBRANCH   3   5
ENDBRANCH   2   3
ENDBRANCH   1   2
BRANCH   1   7
HETATM    7  C8  UNL     1     -33.632   5.636   2.925  1.00 20.00     0.008 C 
BRANCH   7   8
HETATM    8  C10 UNL     1     -34.757   6.286   3.775  1.00 20.00    -0.051 C 
HETATM    9  C2  UNL     1     -35.355   5.279   4.771  1.00 20.00     0.014 C 
HETATM   10  C3  UNL     1     -34.142   7.454   4.571  1.00 20.00     0.014 C 
HETATM   11  C4  UNL     1     -35.878   6.842   2.882  1.00 20.00     0.014 C 
ENDBRANCH   7   8
ENDBRANCH   1   7
TORSDOF 5
ENDMDL
MODEL 3
REMARK VINA RESULT:      -0.5      0.060      1.316
REMARK  5 active torsions:
REMARK  status: ('A' for Active; 'I' for Inactive)
REMARK    1  A    between atoms: C5_5  and  C9_9 
REMARK    2  A    between atoms: C6_6  and  C7_7 
REMARK    3  A    between atoms: C6_6  and  C8_8 
REMARK    4  A    between atoms: C7_7  and  C9_9 
REMARK    5  A    between atoms: C8_8  and  C10_10 
ROOT
HETATM    1  C6  UNL     1     -33.260   6.241   1.602  1.00 20.00     0.002 C 
ENDROOT
BRANCH   1   2
HETATM    2  C7  UNL     1     -31.795   6.687   1.488  1.00 20.00     0.020 C 
BRANCH   2   3
HETATM    3  C9  UNL     1     -31.617   8.209   1.589  1.00 20.00     0.082 C 
HETATM    4 CL11 UNL     1     -31.369   8.701   3.295  1.00 20.00    -0.125 Cl
BRANCH   3   5
HETATM    5  C5  UNL     1     -32.786   8.994   0.971  1.00 20.00     0.016 C 
HETATM    6  C1  UNL     1     -32.397  10.037  -0.069  1.00 20.00     0.006 C 
ENDBRANCH   3   5
ENDBRANCH   2   3
ENDBRANCH   1   2
BRANCH   1   7
HETATM    7  C8  UNL     1     -33.544   5.639   2.985  1.00 20.00     0.008 C 
BRANCH   7   8
HETATM    8  C10 UNL     1     -34.674   6.323   3.800  1.00 20.00    -0.051 C 
HETATM    9  C2  UNL     1     -34.128   7.492   4.638  1.00 20.00     0.014 C 
HETATM   10  C3  UNL     1     -35.713   6.879   2.806  1.00 20.00     0.014 C 
HETATM   11  C4  UNL     1     -35.376   5.320   4.729  1.00 20.00     0.014 C 
ENDBRANCH   7   8
ENDBRANCH   1   7
TORSDOF 5
ENDMDL
MODEL 4
REMARK VINA RESULT:      -0.1      1.955      4.458
REMARK  5 active torsions:
REMARK  status: ('A' for Active; 'I' for Inactive)
REMARK    1  A    between atoms: C5_5  and  C9_9 
REMARK    2  A    between atoms: C6_6  and  C7_7 
REMARK    3  A    between atoms: C6_6  and  C8_8 
REMARK    4  A    between atoms: C7_7  and  C9_9 
REMARK    5  A    between atoms: C8_8  and  C10_10 
ROOT
HETATM    1  C6  UNL     1     -32.359   6.173   1.352  1.00 20.00     0.002 C 
ENDROOT
BRANCH   1   2
HETATM    2  C7  UNL     1     -33.460   5.268   1.925  1.00 20.00     0.020 C 
BRANCH   2   3
HETATM    3  C9  UNL     1     -33.632   5.413   3.444  1.00 20.00     0.082 C 
HETATM    4 CL11 UNL     1     -33.919   3.813   4.199  1.00 20.00    -0.125 Cl
BRANCH   3   5
HETATM    5  C5  UNL     1     -34.747   6.396   3.832  1.00 20.00     0.016 C 
HETATM    6  C1  UNL     1     -34.278   7.770   4.295  1.00 20.00     0.006 C 
ENDBRANCH   3   5
ENDBRANCH   2   3
ENDBRANCH   1   2
BRANCH   1   7
HETATM    7  C8  UNL     1     -32.945   7.503   0.858  1.00 20.00     0.008 C 
BRANCH   7   8
HETATM    8  C10 UNL     1     -32.018   8.740   0.993  1.00 20.00    -0.051 C 
HETATM    9  C2  UNL     1     -32.824  10.049   0.943  1.00 20.00     0.014 C 
HETATM   10  C3  UNL     1     -31.304   8.658   2.356  1.00 20.00     0.014 C 
HETATM   11  C4  UNL     1     -30.952   8.760  -0.115  1.00 20.00     0.014 C 
ENDBRANCH   7   8
ENDBRANCH   1   7
TORSDOF 5
ENDMDL
MODEL 5
REMARK VINA RESULT:      -0.1      1.958      4.561
REMARK  5 active torsions:
REMARK  status: ('A' for Active; 'I' for Inactive)
REMARK    1  A    between atoms: C5_5  and  C9_9 
REMARK    2  A    between atoms: C6_6  and  C7_7 
REMARK    3  A    between atoms: C6_6  and  C8_8 
REMARK    4  A    between atoms: C7_7  and  C9_9 
REMARK    5  A    between atoms: C8_8  and  C10_10 
ROOT
HETATM    1  C6  UNL     1     -32.346   6.168   1.377  1.00 20.00     0.002 C 
ENDROOT
BRANCH   1   2
HETATM    2  C7  UNL     1     -33.465   5.278   1.937  1.00 20.00     0.020 C 
BRANCH   2   3
HETATM    3  C9  UNL     1     -33.637   5.407   3.457  1.00 20.00     0.082 C 
HETATM    4 CL11 UNL     1     -33.922   3.799   4.196  1.00 20.00    -0.125 Cl
BRANCH   3   5
HETATM    5  C5  UNL     1     -34.755   6.384   3.855  1.00 20.00     0.016 C 
HETATM    6  C1  UNL     1     -34.292   7.772   4.278  1.00 20.00     0.006 C 
ENDBRANCH   3   5
ENDBRANCH   2   3
ENDBRANCH   1   2
BRANCH   1   7
HETATM    7  C8  UNL     1     -32.914   7.491   0.845  1.00 20.00     0.008 C 
BRANCH   7   8
HETATM    8  C10 UNL     1     -32.012   8.739   1.039  1.00 20.00    -0.051 C 
HETATM    9  C2  UNL     1     -31.300   8.706   2.402  1.00 20.00     0.014 C 
HETATM   10  C3  UNL     1     -30.942   8.736  -0.070  1.00 20.00     0.014 C 
HETATM   11  C4  UNL     1     -32.826  10.038   0.926  1.00 20.00     0.014 C 
ENDBRANCH   7   8
ENDBRANCH   1   7
TORSDOF 5
ENDMDL
MODEL 6
REMARK VINA RESULT:      -0.0      1.283      4.914
REMARK  5 active torsions:
REMARK  status: ('A' for Active; 'I' for Inactive)
REMARK    1  A    between atoms: C5_5  and  C9_9 
REMARK    2  A    between atoms: C6_6  and  C7_7 
REMARK    3  A    between atoms: C6_6  and  C8_8 
REMARK    4  A    between atoms: C7_7  and  C9_9 
REMARK    5  A    between atoms: C8_8  and  C10_10 
ROOT
HETATM    1  C6  UNL     1     -32.200   7.453   1.753  1.00 20.00     0.002 C 
ENDROOT
BRANCH   1   2
HETATM    2  C7  UNL     1     -33.060   6.474   2.566  1.00 20.00     0.020 C 
BRANCH   2   3
HETATM    3  C9  UNL     1     -34.097   7.177   3.455  1.00 20.00     0.082 C 
HETATM    4 CL11 UNL     1     -33.292   7.997   4.831  1.00 20.00    -0.125 Cl
BRANCH   3   5
HETATM    5  C5  UNL     1     -35.193   6.227   3.965  1.00 20.00     0.016 C 
HETATM    6  C1  UNL     1     -34.741   4.803   4.261  1.00 20.00     0.006 C 
ENDBRANCH   3   5
ENDBRANCH   2   3
ENDBRANCH   1   2
BRANCH   1   7
HETATM    7  C8  UNL     1     -32.985   8.730   1.424  1.00 20.00     0.008 C 
BRANCH   7   8
HETATM    8  C10 UNL     1     -32.303   9.705   0.428  1.00 20.00    -0.051 C 
HETATM    9  C2  UNL     1     -32.253  11.134   0.992  1.00 20.00     0.014 C 
HETATM   10  C3  UNL     1     -30.858   9.221   0.197  1.00 20.00     0.014 C 
HETATM   11  C4  UNL     1     -33.033   9.720  -0.925  1.00 20.00     0.014 C 
ENDBRANCH   7   8
ENDBRANCH   1   7
TORSDOF 5
ENDMDL
MODEL 7
REMARK VINA RESULT:      -0.0      1.289      4.856
REMARK  5 active torsions:
REMARK  status: ('A' for Active; 'I' for Inactive)
REMARK    1  A    between atoms: C5_5  and  C9_9 
REMARK    2  A    between atoms: C6_6  and  C7_7 
REMARK    3  A    between atoms: C6_6  and  C8_8 
REMARK    4  A    between atoms: C7_7  and  C9_9 
REMARK    5  A    between atoms: C8_8  and  C10_10 
ROOT
HETATM    1  C6  UNL     1     -32.199   7.429   1.789  1.00 20.00     0.002 C 
ENDROOT
BRANCH   1   2
HETATM    2  C7  UNL     1     -33.070   6.463   2.605  1.00 20.00     0.020 C 
BRANCH   2   3
HETATM    3  C9  UNL     1     -34.116   7.177   3.474  1.00 20.00     0.082 C 
HETATM    4 CL11 UNL     1     -33.326   8.000   4.857  1.00 20.00    -0.125 Cl
BRANCH   3   5
HETATM    5  C5  UNL     1     -35.226   6.239   3.972  1.00 20.00     0.016 C 
HETATM    6  C1  UNL     1     -34.782   4.824   4.319  1.00 20.00     0.006 C 
ENDBRANCH   3   5
ENDBRANCH   2   3
ENDBRANCH   1   2
BRANCH   1   7
HETATM    7  C8  UNL     1     -33.001   8.673   1.377  1.00 20.00     0.008 C 
BRANCH   7   8
HETATM    8  C10 UNL     1     -32.285   9.643   0.399  1.00 20.00    -0.051 C 
HETATM    9  C2  UNL     1     -33.027   9.728  -0.945  1.00 20.00     0.014 C 
HETATM   10  C3  UNL     1     -32.272  11.045   1.039  1.00 20.00     0.014 C 
HETATM   11  C4  UNL     1     -30.832   9.209   0.148  1.00 20.00     0.014 C 
ENDBRANCH   7   8
ENDBRANCH   1   7
TORSDOF 5
ENDMDL
MODEL 8
REMARK VINA RESULT:      -0.0      1.349      4.934
REMARK  5 active torsions:
REMARK  status: ('A' for Active; 'I' for Inactive)
REMARK    1  A    between atoms: C5_5  and  C9_9 
REMARK    2  A    between atoms: C6_6  and  C7_7 
REMARK    3  A    between atoms: C6_6  and  C8_8 
REMARK    4  A    between atoms: C7_7  and  C9_9 
REMARK    5  A    between atoms: C8_8  and  C10_10 
ROOT
HETATM    1  C6  UNL     1     -32.226   7.551   1.975  1.00 20.00     0.002 C 
ENDROOT
BRANCH   1   2
HETATM    2  C7  UNL     1     -33.106   6.412   2.509  1.00 20.00     0.020 C 
BRANCH   2   3
HETATM    3  C9  UNL     1     -34.222   6.898   3.445  1.00 20.00     0.082 C 
HETATM    4 CL11 UNL     1     -33.555   7.981   4.709  1.00 20.00    -0.125 Cl
BRANCH   3   5
HETATM    5  C5  UNL     1     -35.012   5.747   4.089  1.00 20.00     0.016 C 
HETATM    6  C1  UNL     1     -34.292   4.406   4.136  1.00 20.00     0.006 C 
ENDBRANCH   3   5
ENDBRANCH   2   3
ENDBRANCH   1   2
BRANCH   1   7
HETATM    7  C8  UNL     1     -33.078   8.618   1.274  1.00 20.00     0.008 C 
BRANCH   7   8
HETATM    8  C10 UNL     1     -32.296   9.651   0.418  1.00 20.00    -0.051 C 
HETATM    9  C2  UNL     1     -30.850   9.190   0.172  1.00 20.00     0.014 C 
HETATM   10  C3  UNL     1     -33.006   9.781  -0.944  1.00 20.00     0.014 C 
HETATM   11  C4  UNL     1     -32.279  11.033   1.092  1.00 20.00     0.014 C 
ENDBRANCH   7   8
ENDBRANCH   1   7
TORSDOF 5
ENDMDL
MODEL 9
REMARK VINA RESULT:       0.1      2.130      4.860
REMARK  5 active torsions:
REMARK  status: ('A' for Active; 'I' for Inactive)
REMARK    1  A    between atoms: C5_5  and  C9_9 
REMARK    2  A    between atoms: C6_6  and  C7_7 
REMARK    3  A    between atoms: C6_6  and  C8_8 
REMARK    4  A    between atoms: C7_7  and  C9_9 
REMARK    5  A    between atoms: C8_8  and  C10_10 
ROOT
HETATM    1  C6  UNL     1     -33.148   5.716   1.625  1.00 20.00     0.002 C 
ENDROOT
BRANCH   1   2
HETATM    2  C7  UNL     1     -32.979   5.232   3.073  1.00 20.00     0.020 C 
BRANCH   2   3
HETATM    3  C9  UNL     1     -34.273   4.666   3.676  1.00 20.00     0.082 C 
HETATM    4 CL11 UNL     1     -35.391   5.993   4.124  1.00 20.00    -0.125 Cl
BRANCH   3   5
HETATM    5  C5  UNL     1     -34.021   3.748   4.883  1.00 20.00     0.016 C 
HETATM    6  C1  UNL     1     -32.988   2.650   4.667  1.00 20.00     0.006 C 
ENDBRANCH   3   5
ENDBRANCH   2   3
ENDBRANCH   1   2
BRANCH   1   7
HETATM    7  C8  UNL     1     -32.037   6.704   1.244  1.00 20.00     0.008 C 
BRANCH   7   8
HETATM    8  C10 UNL     1     -32.187   8.140   1.815  1.00 20.00    -0.051 C 
HETATM    9  C2  UNL     1     -33.411   8.248   2.738  1.00 20.00     0.014 C 
HETATM   10  C3  UNL     1     -30.925   8.463   2.638  1.00 20.00     0.014 C 
HETATM   11  C4  UNL     1     -32.311   9.177   0.687  1.00 20.00     0.014 C 
ENDBRANCH   7   8
ENDBRANCH   1   7
TORSDOF 5
ENDMDL
