MODEL 1
REMARK VINA RESULT:       0.3      0.000      0.000
REMARK  2 active torsions:
REMARK  status: ('A' for Active; 'I' for Inactive)
REMARK    1  A    between atoms: C3_3  and  C10_10 
REMARK    2  A    between atoms: C4_4  and  C10_10 
ROOT
HETATM    1  C5  UNL     1     -34.970   5.068   4.595  1.00 20.00     0.000 C 
HETATM    2  C6  UNL     1     -35.451   6.294   3.828  1.00 20.00     0.001 C 
HETATM    3  C7  UNL     1     -33.998   4.237   3.767  1.00 20.00     0.001 C 
HETATM    4  C8  UNL     1     -34.282   7.149   3.339  1.00 20.00     0.017 C 
HETATM    5  C9  UNL     1     -32.816   5.073   3.274  1.00 20.00     0.017 C 
HETATM    6  C10 UNL     1     -33.250   6.346   2.526  1.00 20.00    -0.006 C 
ENDROOT
BRANCH   6   7
HETATM    7  C3  UNL     1     -33.832   5.981   1.183  1.00 20.00    -0.023 C 
HETATM    8  C1  UNL     1     -33.285   5.093   0.346  1.00 20.00     0.008 C 
ENDBRANCH   6   7
BRANCH   6   9
HETATM    9  C4  UNL     1     -32.022   7.197   2.331  1.00 20.00    -0.023 C 
HETATM   10  C2  UNL     1     -31.992   8.307   1.583  1.00 20.00     0.008 C 
ENDBRANCH   6   9
TORSDOF 2
ENDMDL
MODEL 2
REMARK VINA RESULT:       0.4      1.601      2.427
REMARK  2 active torsions:
REMARK  status: ('A' for Active; 'I' for Inactive)
REMARK    1  A    between atoms: C3_3  and  C10_10 
REMARK    2  A    between atoms: C4_4  and  C10_10 
ROOT
HETATM    1  C5  UNL     1     -34.037   7.684   4.488  1.00 20.00     0.000 C 
HETATM    2  C6  UNL     1     -34.425   6.718   3.375  1.00 20.00     0.001 C 
HETATM    3  C7  UNL     1     -32.553   8.026   4.438  1.00 20.00     0.001 C 
HETATM    4  C8  UNL     1     -34.036   7.257   1.998  1.00 20.00     0.017 C 
HETATM    5  C9  UNL     1     -32.144   8.574   3.070  1.00 20.00     0.017 C 
HETATM    6  C10 UNL     1     -32.551   7.652   1.907  1.00 20.00    -0.006 C 
ENDROOT
BRANCH   6   7
HETATM    7  C3  UNL     1     -31.692   6.412   1.908  1.00 20.00    -0.023 C 
HETATM    8  C1  UNL     1     -31.969   5.309   1.204  1.00 20.00     0.008 C 
ENDBRANCH   6   7
BRANCH   6   9
HETATM    9  C4  UNL     1     -32.333   8.417   0.626  1.00 20.00    -0.023 C 
HETATM   10  C2  UNL     1     -32.425   9.747   0.525  1.00 20.00     0.008 C 
ENDBRANCH   6   9
TORSDOF 2
ENDMDL
MODEL 3
REMARK VINA RESULT:       0.5      1.756      3.138
REMARK  2 active torsions:
REMARK  status: ('A' for Active; 'I' for Inactive)
REMARK    1  A    between atoms: C3_3  and  C10_10 
REMARK    2  A    between atoms: C4_4  and  C10_10 
ROOT
HETATM    1  C5  UNL     1     -33.145   8.097   4.873  1.00 20.00     0.000 C 
HETATM    2  C6  UNL     1     -32.032   8.872   4.178  1.00 20.00     0.001 C 
HETATM    3  C7  UNL     1     -34.215   7.650   3.886  1.00 20.00     0.001 C 
HETATM    4  C8  UNL     1     -31.416   8.069   3.032  1.00 20.00     0.017 C 
HETATM    5  C9  UNL     1     -33.620   6.839   2.734  1.00 20.00     0.017 C 
HETATM    6  C10 UNL     1     -32.462   7.562   2.024  1.00 20.00    -0.006 C 
ENDROOT
BRANCH   6   7
HETATM    7  C3  UNL     1     -32.996   8.720   1.218  1.00 20.00    -0.023 C 
HETATM    8  C1  UNL     1     -32.243   9.495   0.430  1.00 20.00     0.008 C 
ENDBRANCH   6   7
BRANCH   6   9
HETATM    9  C4  UNL     1     -31.803   6.567   1.104  1.00 20.00    -0.023 C 
HETATM   10  C2  UNL     1     -32.057   5.254   1.118  1.00 20.00     0.008 C 
ENDBRANCH   6   9
TORSDOF 2
ENDMDL
MODEL 4
REMARK VINA RESULT:       0.7      1.050      3.497
REMARK  2 active torsions:
REMARK  status: ('A' for Active; 'I' for Inactive)
REMARK    1  A    between atoms: C3_3  and  C10_10 
REMARK    2  A    between atoms: C4_4  and  C10_10 
ROOT
HETATM    1  C5  UNL     1     -32.073   7.842   1.984  1.00 20.00     0.000 C 
HETATM    2  C6  UNL     1     -32.254   7.974   3.492  1.00 20.00     0.001 C 
HETATM    3  C7  UNL     1     -32.468   6.455   1.493  1.00 20.00     0.001 C 
HETATM    4  C8  UNL     1     -33.681   7.628   3.921  1.00 20.00     0.017 C 
HETATM    5  C9  UNL     1     -33.895   6.093   1.907  1.00 20.00     0.017 C 
HETATM    6  C10 UNL     1     -34.142   6.249   3.418  1.00 20.00    -0.006 C 
ENDROOT
BRANCH   6   7
HETATM    7  C3  UNL     1     -33.416   5.162   4.172  1.00 20.00    -0.023 C 
HETATM    8  C1  UNL     1     -33.809   3.884   4.207  1.00 20.00     0.008 C 
ENDBRANCH   6   7
BRANCH   6   9
HETATM    9  C4  UNL     1     -35.625   6.121   3.650  1.00 20.00    -0.023 C 
HETATM   10  C2  UNL     1     -36.549   6.836   2.997  1.00 20.00     0.008 C 
ENDBRANCH   6   9
TORSDOF 2
ENDMDL
MODEL 5
REMARK VINA RESULT:       0.9      1.396      3.124
REMARK  2 active torsions:
REMARK  status: ('A' for Active; 'I' for Inactive)
REMARK    1  A    between atoms: C3_3  and  C10_10 
REMARK    2  A    between atoms: C4_4  and  C10_10 
ROOT
HETATM    1  C5  UNL     1     -34.281   6.011   3.346  1.00 20.00     0.000 C 
HETATM    2  C6  UNL     1     -33.021   5.519   2.644  1.00 20.00     0.001 C 
HETATM    3  C7  UNL     1     -34.143   7.463   3.788  1.00 20.00     0.001 C 
HETATM    4  C8  UNL     1     -32.646   6.416   1.464  1.00 20.00     0.017 C 
HETATM    5  C9  UNL     1     -33.775   8.378   2.620  1.00 20.00     0.017 C 
HETATM    6  C10 UNL     1     -32.530   7.901   1.851  1.00 20.00    -0.006 C 
ENDROOT
BRANCH   6   7
HETATM    7  C3  UNL     1     -31.294   8.114   2.690  1.00 20.00    -0.023 C 
HETATM    8  C1  UNL     1     -31.220   8.976   3.710  1.00 20.00     0.008 C 
ENDBRANCH   6   7
BRANCH   6   9
HETATM    9  C4  UNL     1     -32.433   8.723   0.592  1.00 20.00    -0.023 C 
HETATM   10  C2  UNL     1     -32.639  10.044   0.543  1.00 20.00     0.008 C 
ENDBRANCH   6   9
TORSDOF 2
ENDMDL
MODEL 6
REMARK VINA RESULT:       1.0      1.187      2.716
REMARK  2 active torsions:
REMARK  status: ('A' for Active; 'I' for Inactive)
REMARK    1  A    between atoms: C3_3  and  C10_10 
REMARK    2  A    between atoms: C4_4  and  C10_10 
ROOT
HETATM    1  C5  UNL     1     -35.041   4.596   4.190  1.00 20.00     0.000 C 
HETATM    2  C6  UNL     1     -33.526   4.488   4.064  1.00 20.00     0.001 C 
HETATM    3  C7  UNL     1     -35.485   6.042   4.364  1.00 20.00     0.001 C 
HETATM    4  C8  UNL     1     -32.990   5.363   2.931  1.00 20.00     0.017 C 
HETATM    5  C9  UNL     1     -34.964   6.935   3.236  1.00 20.00     0.017 C 
HETATM    6  C10 UNL     1     -33.441   6.830   3.041  1.00 20.00    -0.006 C 
ENDROOT
BRANCH   6   7
HETATM    7  C3  UNL     1     -32.728   7.498   4.191  1.00 20.00    -0.023 C 
HETATM    8  C1  UNL     1     -33.303   8.375   5.021  1.00 20.00     0.008 C 
ENDBRANCH   6   7
BRANCH   6   9
HETATM    9  C4  UNL     1     -33.100   7.538   1.756  1.00 20.00    -0.023 C 
HETATM   10  C2  UNL     1     -31.901   8.069   1.490  1.00 20.00     0.008 C 
ENDBRANCH   6   9
TORSDOF 2
ENDMDL
MODEL 7
REMARK VINA RESULT:       1.0      1.074      3.746
REMARK  2 active torsions:
REMARK  status: ('A' for Active; 'I' for Inactive)
REMARK    1  A    between atoms: C3_3  and  C10_10 
REMARK    2  A    between atoms: C4_4  and  C10_10 
ROOT
HETATM    1  C5  UNL     1     -31.725   7.691   1.886  1.00 20.00     0.000 C 
HETATM    2  C6  UNL     1     -32.588   6.670   1.155  1.00 20.00     0.001 C 
HETATM    3  C7  UNL     1     -32.498   8.375   3.007  1.00 20.00     0.001 C 
HETATM    4  C8  UNL     1     -33.180   5.640   2.117  1.00 20.00     0.017 C 
HETATM    5  C9  UNL     1     -33.094   7.361   3.985  1.00 20.00     0.017 C 
HETATM    6  C10 UNL     1     -33.943   6.282   3.290  1.00 20.00    -0.006 C 
ENDROOT
BRANCH   6   7
HETATM    7  C3  UNL     1     -35.233   6.884   2.791  1.00 20.00    -0.023 C 
HETATM    8  C1  UNL     1     -36.441   6.568   3.269  1.00 20.00     0.008 C 
ENDBRANCH   6   7
BRANCH   6   9
HETATM    9  C4  UNL     1     -34.244   5.216   4.311  1.00 20.00    -0.023 C 
HETATM   10  C2  UNL     1     -33.891   3.933   4.180  1.00 20.00     0.008 C 
ENDBRANCH   6   9
TORSDOF 2
ENDMDL
MODEL 8
REMARK VINA RESULT:       1.2      1.345      3.930
REMARK  2 active torsions:
REMARK  status: ('A' for Active; 'I' for Inactive)
REMARK    1  A    between atoms: C3_3  and  C10_10 
REMARK    2  A    between atoms: C4_4  and  C10_10 
ROOT
HETATM    1  C5  UNL     1     -31.916   7.371   0.854  1.00 20.00     0.000 C 
HETATM    2  C6  UNL     1     -32.366   8.634   1.579  1.00 20.00     0.001 C 
HETATM    3  C7  UNL     1     -31.841   6.180   1.801  1.00 20.00     0.001 C 
HETATM    4  C8  UNL     1     -33.698   8.425   2.301  1.00 20.00     0.017 C 
HETATM    5  C9  UNL     1     -33.166   5.950   2.529  1.00 20.00     0.017 C 
HETATM    6  C10 UNL     1     -33.685   7.210   3.245  1.00 20.00    -0.006 C 
ENDROOT
BRANCH   6   7
HETATM    7  C3  UNL     1     -32.827   7.508   4.449  1.00 20.00    -0.023 C 
HETATM    8  C1  UNL     1     -33.178   8.346   5.430  1.00 20.00     0.008 C 
ENDBRANCH   6   7
BRANCH   6   9
HETATM    9  C4  UNL     1     -35.098   6.928   3.688  1.00 20.00    -0.023 C 
HETATM   10  C2  UNL     1     -35.490   5.780   4.251  1.00 20.00     0.008 C 
ENDBRANCH   6   9
TORSDOF 2
ENDMDL
MODEL 9
REMARK VINA RESULT:       1.4      1.063      2.676
REMARK  2 active torsions:
REMARK  status: ('A' for Active; 'I' for Inactive)
REMARK    1  A    between atoms: C3_3  and  C10_10 
REMARK    2  A    between atoms: C4_4  and  C10_10 
ROOT
HETATM    1  C5  UNL     1     -34.424   8.038   4.365  1.00 20.00     0.000 C 
HETATM    2  C6  UNL     1     -35.215   6.744   4.212  1.00 20.00     0.001 C 
HETATM    3  C7  UNL     1     -32.932   7.808   4.161  1.00 20.00     0.001 C 
HETATM    4  C8  UNL     1     -34.946   6.074   2.864  1.00 20.00     0.017 C 
HETATM    5  C9  UNL     1     -32.640   7.144   2.814  1.00 20.00     0.017 C 
HETATM    6  C10 UNL     1     -33.447   5.852   2.593  1.00 20.00    -0.006 C 
ENDROOT
BRANCH   6   7
HETATM    7  C3  UNL     1     -32.923   4.758   3.491  1.00 20.00    -0.023 C 
HETATM    8  C1  UNL     1     -33.691   3.817   4.051  1.00 20.00     0.008 C 
ENDBRANCH   6   7
BRANCH   6   9
HETATM    9  C4  UNL     1     -33.271   5.450   1.152  1.00 20.00    -0.023 C 
HETATM   10  C2  UNL     1     -32.139   4.946   0.648  1.00 20.00     0.008 C 
ENDBRANCH   6   9
TORSDOF 2
ENDMDL
