MODEL 1
REMARK VINA RESULT:      -1.3      0.000      0.000
REMARK  1 active torsions:
REMARK  status: ('A' for Active; 'I' for Inactive)
REMARK    1  A    between atoms: C4_4  and  C9_9 
ROOT
HETATM    1  C1  UNL     1     -32.001   6.080   1.001  1.00 20.00    -0.003 A 
HETATM    2  C2  UNL     1     -33.069   5.606   1.842  1.00 20.00     0.004 A 
HETATM    3  C3  UNL     1     -31.709   7.349   1.320  1.00 20.00    -0.022 A 
HETATM    4  C4  UNL     1     -33.443   6.581   2.684  1.00 20.00    -0.069 A 
HETATM    5  C5  UNL     1     -32.605   7.806   2.435  1.00 20.00     0.062 A 
ENDROOT
BRANCH   4   6
HETATM    6  C9  UNL     1     -34.516   6.540   3.740  1.00 20.00    -0.028 C 
HETATM    7  C6  UNL     1     -34.176   7.555   4.840  1.00 20.00     0.019 C 
HETATM    8  C7  UNL     1     -34.592   5.131   4.343  1.00 20.00     0.019 C 
HETATM    9  C8  UNL     1     -35.870   6.897   3.110  1.00 20.00     0.019 C 
ENDBRANCH   4   6
TORSDOF 1
ENDMDL
MODEL 2
REMARK VINA RESULT:      -1.2      0.023      1.450
REMARK  1 active torsions:
REMARK  status: ('A' for Active; 'I' for Inactive)
REMARK    1  A    between atoms: C4_4  and  C9_9 
ROOT
HETATM    1  C1  UNL     1     -32.007   6.045   1.001  1.00 20.00    -0.003 A 
HETATM    2  C2  UNL     1     -33.075   5.585   1.850  1.00 20.00     0.004 A 
HETATM    3  C3  UNL     1     -31.711   7.316   1.302  1.00 20.00    -0.022 A 
HETATM    4  C4  UNL     1     -33.445   6.572   2.680  1.00 20.00    -0.069 A 
HETATM    5  C5  UNL     1     -32.604   7.791   2.413  1.00 20.00     0.062 A 
ENDROOT
BRANCH   4   6
HETATM    6  C9  UNL     1     -34.516   6.548   3.738  1.00 20.00    -0.028 C 
HETATM    7  C6  UNL     1     -34.594   5.139   4.341  1.00 20.00     0.019 C 
HETATM    8  C7  UNL     1     -35.867   6.917   3.111  1.00 20.00     0.019 C 
HETATM    9  C8  UNL     1     -34.173   7.562   4.839  1.00 20.00     0.019 C 
ENDBRANCH   4   6
TORSDOF 1
ENDMDL
MODEL 3
REMARK VINA RESULT:      -1.2      0.026      1.443
REMARK  1 active torsions:
REMARK  status: ('A' for Active; 'I' for Inactive)
REMARK    1  A    between atoms: C4_4  and  C9_9 
ROOT
HETATM    1  C1  UNL     1     -32.014   6.050   1.002  1.00 20.00    -0.003 A 
HETATM    2  C2  UNL     1     -33.086   5.593   1.848  1.00 20.00     0.004 A 
HETATM    3  C3  UNL     1     -31.710   7.318   1.310  1.00 20.00    -0.022 A 
HETATM    4  C4  UNL     1     -33.449   6.578   2.684  1.00 20.00    -0.069 A 
HETATM    5  C5  UNL     1     -32.600   7.793   2.423  1.00 20.00     0.062 A 
ENDROOT
BRANCH   4   6
HETATM    6  C9  UNL     1     -34.521   6.557   3.741  1.00 20.00    -0.028 C 
HETATM    7  C6  UNL     1     -35.863   6.938   3.102  1.00 20.00     0.019 C 
HETATM    8  C7  UNL     1     -34.172   7.560   4.848  1.00 20.00     0.019 C 
HETATM    9  C8  UNL     1     -34.619   5.148   4.345  1.00 20.00     0.019 C 
ENDBRANCH   4   6
TORSDOF 1
ENDMDL
MODEL 4
REMARK VINA RESULT:      -1.0      0.984      3.803
REMARK  1 active torsions:
REMARK  status: ('A' for Active; 'I' for Inactive)
REMARK    1  A    between atoms: C4_4  and  C9_9 
ROOT
HETATM    1  C1  UNL     1     -35.269   6.208   4.409  1.00 20.00    -0.003 A 
HETATM    2  C2  UNL     1     -34.527   6.874   3.370  1.00 20.00     0.004 A 
HETATM    3  C3  UNL     1     -34.907   4.920   4.464  1.00 20.00    -0.022 A 
HETATM    4  C4  UNL     1     -33.701   5.997   2.777  1.00 20.00    -0.069 A 
HETATM    5  C5  UNL     1     -33.861   4.647   3.421  1.00 20.00     0.062 A 
ENDROOT
BRANCH   4   6
HETATM    6  C9  UNL     1     -32.738   6.242   1.647  1.00 20.00    -0.028 C 
HETATM    7  C6  UNL     1     -33.504   6.191   0.317  1.00 20.00     0.019 C 
HETATM    8  C7  UNL     1     -31.648   5.162   1.656  1.00 20.00     0.019 C 
HETATM    9  C8  UNL     1     -32.088   7.623   1.815  1.00 20.00     0.019 C 
ENDBRANCH   4   6
TORSDOF 1
ENDMDL
MODEL 5
REMARK VINA RESULT:      -1.0      0.985      3.805
REMARK  1 active torsions:
REMARK  status: ('A' for Active; 'I' for Inactive)
REMARK    1  A    between atoms: C4_4  and  C9_9 
ROOT
HETATM    1  C1  UNL     1     -35.276   6.224   4.407  1.00 20.00    -0.003 A 
HETATM    2  C2  UNL     1     -34.530   6.871   3.359  1.00 20.00     0.004 A 
HETATM    3  C3  UNL     1     -34.927   4.932   4.473  1.00 20.00    -0.022 A 
HETATM    4  C4  UNL     1     -33.715   5.980   2.772  1.00 20.00    -0.069 A 
HETATM    5  C5  UNL     1     -33.887   4.638   3.430  1.00 20.00     0.062 A 
ENDROOT
BRANCH   4   6
HETATM    6  C9  UNL     1     -32.753   6.204   1.636  1.00 20.00    -0.028 C 
HETATM    7  C6  UNL     1     -32.117   7.593   1.784  1.00 20.00     0.019 C 
HETATM    8  C7  UNL     1     -33.505   6.120   0.301  1.00 20.00     0.019 C 
HETATM    9  C8  UNL     1     -31.658   5.128   1.671  1.00 20.00     0.019 C 
ENDBRANCH   4   6
TORSDOF 1
ENDMDL
MODEL 6
REMARK VINA RESULT:      -1.0      0.985      3.801
REMARK  1 active torsions:
REMARK  status: ('A' for Active; 'I' for Inactive)
REMARK    1  A    between atoms: C4_4  and  C9_9 
ROOT
HETATM    1  C1  UNL     1     -35.273   6.204   4.413  1.00 20.00    -0.003 A 
HETATM    2  C2  UNL     1     -34.533   6.869   3.372  1.00 20.00     0.004 A 
HETATM    3  C3  UNL     1     -34.906   4.916   4.472  1.00 20.00    -0.022 A 
HETATM    4  C4  UNL     1     -33.704   5.994   2.783  1.00 20.00    -0.069 A 
HETATM    5  C5  UNL     1     -33.859   4.644   3.430  1.00 20.00     0.062 A 
ENDROOT
BRANCH   4   6
HETATM    6  C9  UNL     1     -32.742   6.239   1.651  1.00 20.00    -0.028 C 
HETATM    7  C6  UNL     1     -31.654   5.156   1.675  1.00 20.00     0.019 C 
HETATM    8  C7  UNL     1     -32.097   7.622   1.814  1.00 20.00     0.019 C 
HETATM    9  C8  UNL     1     -33.495   6.183   0.314  1.00 20.00     0.019 C 
ENDBRANCH   4   6
TORSDOF 1
ENDMDL
MODEL 7
REMARK VINA RESULT:      -0.9      0.999      3.632
REMARK  1 active torsions:
REMARK  status: ('A' for Active; 'I' for Inactive)
REMARK    1  A    between atoms: C4_4  and  C9_9 
ROOT
HETATM    1  C1  UNL     1     -34.856   4.871   4.457  1.00 20.00    -0.003 A 
HETATM    2  C2  UNL     1     -33.856   4.693   3.437  1.00 20.00     0.004 A 
HETATM    3  C3  UNL     1     -35.295   6.137   4.440  1.00 20.00    -0.022 A 
HETATM    4  C4  UNL     1     -33.671   5.851   2.784  1.00 20.00    -0.069 A 
HETATM    5  C5  UNL     1     -34.579   6.902   3.363  1.00 20.00     0.062 A 
ENDROOT
BRANCH   4   6
HETATM    6  C9  UNL     1     -32.730   6.139   1.645  1.00 20.00    -0.028 C 
HETATM    7  C6  UNL     1     -32.130   7.539   1.832  1.00 20.00     0.019 C 
HETATM    8  C7  UNL     1     -33.496   6.079   0.316  1.00 20.00     0.019 C 
HETATM    9  C8  UNL     1     -31.605   5.093   1.631  1.00 20.00     0.019 C 
ENDBRANCH   4   6
TORSDOF 1
ENDMDL
MODEL 8
REMARK VINA RESULT:      -0.8      1.112      3.812
REMARK  1 active torsions:
REMARK  status: ('A' for Active; 'I' for Inactive)
REMARK    1  A    between atoms: C4_4  and  C9_9 
ROOT
HETATM    1  C1  UNL     1     -34.819   7.004   4.375  1.00 20.00    -0.003 A 
HETATM    2  C2  UNL     1     -33.851   7.921   3.833  1.00 20.00     0.004 A 
HETATM    3  C3  UNL     1     -34.769   5.848   3.701  1.00 20.00    -0.022 A 
HETATM    4  C4  UNL     1     -33.197   7.334   2.818  1.00 20.00    -0.069 A 
HETATM    5  C5  UNL     1     -33.721   5.937   2.628  1.00 20.00     0.062 A 
ENDROOT
BRANCH   4   6
HETATM    6  C9  UNL     1     -32.103   7.908   1.959  1.00 20.00    -0.028 C 
HETATM    7  C6  UNL     1     -31.489   6.784   1.112  1.00 20.00     0.019 C 
HETATM    8  C7  UNL     1     -31.021   8.532   2.850  1.00 20.00     0.019 C 
HETATM    9  C8  UNL     1     -32.687   8.988   1.036  1.00 20.00     0.019 C 
ENDBRANCH   4   6
TORSDOF 1
ENDMDL
MODEL 9
REMARK VINA RESULT:      -0.8      1.111      3.818
REMARK  1 active torsions:
REMARK  status: ('A' for Active; 'I' for Inactive)
REMARK    1  A    between atoms: C4_4  and  C9_9 
ROOT
HETATM    1  C1  UNL     1     -34.817   7.005   4.375  1.00 20.00    -0.003 A 
HETATM    2  C2  UNL     1     -33.848   7.921   3.832  1.00 20.00     0.004 A 
HETATM    3  C3  UNL     1     -34.769   5.849   3.698  1.00 20.00    -0.022 A 
HETATM    4  C4  UNL     1     -33.197   7.335   2.816  1.00 20.00    -0.069 A 
HETATM    5  C5  UNL     1     -33.724   5.939   2.624  1.00 20.00     0.062 A 
ENDROOT
BRANCH   4   6
HETATM    6  C9  UNL     1     -32.103   7.909   1.955  1.00 20.00    -0.028 C 
HETATM    7  C6  UNL     1     -31.028   8.529   2.858  1.00 20.00     0.019 C 
HETATM    8  C7  UNL     1     -32.687   8.987   1.032  1.00 20.00     0.019 C 
HETATM    9  C8  UNL     1     -31.481   6.793   1.103  1.00 20.00     0.019 C 
ENDBRANCH   4   6
TORSDOF 1
ENDMDL
