MODEL 1
REMARK VINA RESULT:      -1.4      0.000      0.000
REMARK  0 active torsions:
REMARK  status: ('A' for Active; 'I' for Inactive)
ROOT
HETATM    1  C1  UNL     1     -32.706   5.264   2.024  1.00 20.00     0.009 A 
HETATM    2  C2  UNL     1     -32.185   6.403   1.404  1.00 20.00     0.019 A 
HETATM    3  C3  UNL     1     -33.596   7.851   2.768  1.00 20.00     0.026 A 
HETATM    4  C4  UNL     1     -33.658   5.458   2.997  1.00 20.00    -0.051 A 
HETATM    5  C5  UNL     1     -34.089   6.711   3.358  1.00 20.00    -0.050 A 
HETATM    6  C6  UNL     1     -32.627   7.689   1.774  1.00 20.00     0.011 A 
HETATM    7  C7  UNL     1     -34.555   4.762   3.976  1.00 20.00     0.043 A 
HETATM    8  C8  UNL     1     -35.047   6.190   4.387  1.00 20.00     0.043 A 
HETATM    9 BR9  UNL     1     -31.899   9.209   0.916  1.00 20.00    -0.051 Br
ENDROOT
TORSDOF 0
ENDMDL
MODEL 2
REMARK VINA RESULT:      -1.1      0.757      2.004
REMARK  0 active torsions:
REMARK  status: ('A' for Active; 'I' for Inactive)
ROOT
HETATM    1  C1  UNL     1     -34.455   7.436   4.095  1.00 20.00     0.009 A 
HETATM    2  C2  UNL     1     -33.662   8.162   3.202  1.00 20.00     0.019 A 
HETATM    3  C3  UNL     1     -32.817   6.105   2.201  1.00 20.00     0.026 A 
HETATM    4  C4  UNL     1     -34.400   6.064   4.011  1.00 20.00    -0.051 A 
HETATM    5  C5  UNL     1     -33.607   5.420   3.093  1.00 20.00    -0.050 A 
HETATM    6  C6  UNL     1     -32.849   7.501   2.261  1.00 20.00     0.011 A 
HETATM    7  C7  UNL     1     -34.929   4.787   4.593  1.00 20.00     0.043 A 
HETATM    8  C8  UNL     1     -34.024   4.053   3.548  1.00 20.00     0.043 A 
HETATM    9 BR9  UNL     1     -31.790   8.516   1.066  1.00 20.00    -0.051 Br
ENDROOT
TORSDOF 0
ENDMDL
MODEL 3
REMARK VINA RESULT:      -1.1      1.813      2.528
REMARK  0 active torsions:
REMARK  status: ('A' for Active; 'I' for Inactive)
ROOT
HETATM    1  C1  UNL     1     -32.370   7.939   2.396  1.00 20.00     0.009 A 
HETATM    2  C2  UNL     1     -31.822   6.992   1.526  1.00 20.00     0.019 A 
HETATM    3  C3  UNL     1     -33.401   5.299   2.294  1.00 20.00     0.026 A 
HETATM    4  C4  UNL     1     -33.418   7.532   3.189  1.00 20.00    -0.051 A 
HETATM    5  C5  UNL     1     -33.918   6.253   3.139  1.00 20.00    -0.050 A 
HETATM    6  C6  UNL     1     -32.335   5.681   1.475  1.00 20.00     0.011 A 
HETATM    7  C7  UNL     1     -34.389   7.972   4.243  1.00 20.00     0.043 A 
HETATM    8  C8  UNL     1     -34.957   6.515   4.187  1.00 20.00     0.043 A 
HETATM    9 BR9  UNL     1     -31.570   4.426   0.284  1.00 20.00    -0.051 Br
ENDROOT
TORSDOF 0
ENDMDL
MODEL 4
REMARK VINA RESULT:      -0.8      2.295      3.595
REMARK  0 active torsions:
REMARK  status: ('A' for Active; 'I' for Inactive)
ROOT
HETATM    1  C1  UNL     1     -32.489   5.733   1.464  1.00 20.00     0.009 A 
HETATM    2  C2  UNL     1     -33.405   5.218   2.385  1.00 20.00     0.019 A 
HETATM    3  C3  UNL     1     -33.761   7.432   3.345  1.00 20.00     0.026 A 
HETATM    4  C4  UNL     1     -32.238   7.084   1.515  1.00 20.00    -0.051 A 
HETATM    5  C5  UNL     1     -32.855   7.907   2.426  1.00 20.00    -0.050 A 
HETATM    6  C6  UNL     1     -34.037   6.062   3.320  1.00 20.00     0.011 A 
HETATM    7  C7  UNL     1     -31.453   8.200   0.894  1.00 20.00     0.043 A 
HETATM    8  C8  UNL     1     -32.155   9.138   1.932  1.00 20.00     0.043 A 
HETATM    9 BR9  UNL     1     -35.274   5.332   4.551  1.00 20.00    -0.051 Br
ENDROOT
TORSDOF 0
ENDMDL
MODEL 5
REMARK VINA RESULT:      -0.6      2.347      4.033
REMARK  0 active torsions:
REMARK  status: ('A' for Active; 'I' for Inactive)
ROOT
HETATM    1  C1  UNL     1     -33.919   7.932   3.461  1.00 20.00     0.009 A 
HETATM    2  C2  UNL     1     -34.208   6.655   3.950  1.00 20.00     0.019 A 
HETATM    3  C3  UNL     1     -32.707   5.638   2.319  1.00 20.00     0.026 A 
HETATM    4  C4  UNL     1     -33.031   8.019   2.414  1.00 20.00    -0.051 A 
HETATM    5  C5  UNL     1     -32.444   6.907   1.861  1.00 20.00    -0.050 A 
HETATM    6  C6  UNL     1     -33.606   5.515   3.382  1.00 20.00     0.011 A 
HETATM    7  C7  UNL     1     -32.332   8.967   1.487  1.00 20.00     0.043 A 
HETATM    8  C8  UNL     1     -31.664   7.701   0.856  1.00 20.00     0.043 A 
HETATM    9 BR9  UNL     1     -34.018   3.801   4.069  1.00 20.00    -0.051 Br
ENDROOT
TORSDOF 0
ENDMDL
MODEL 6
REMARK VINA RESULT:       1.5      1.912      3.138
REMARK  0 active torsions:
REMARK  status: ('A' for Active; 'I' for Inactive)
ROOT
HETATM    1  C1  UNL     1     -31.694   7.669   1.695  1.00 20.00     0.009 A 
HETATM    2  C2  UNL     1     -32.281   8.244   2.826  1.00 20.00     0.019 A 
HETATM    3  C3  UNL     1     -33.674   6.271   3.166  1.00 20.00     0.026 A 
HETATM    4  C4  UNL     1     -32.119   6.412   1.337  1.00 20.00    -0.051 A 
HETATM    5  C5  UNL     1     -33.078   5.734   2.049  1.00 20.00    -0.050 A 
HETATM    6  C6  UNL     1     -33.265   7.549   3.556  1.00 20.00     0.011 A 
HETATM    7  C7  UNL     1     -31.941   5.305   0.340  1.00 20.00     0.043 A 
HETATM    8  C8  UNL     1     -33.035   4.534   1.151  1.00 20.00     0.043 A 
HETATM    9 BR9  UNL     1     -34.038   8.355   5.083  1.00 20.00    -0.051 Br
ENDROOT
TORSDOF 0
ENDMDL
MODEL 7
REMARK VINA RESULT:       1.6      1.937      2.972
REMARK  0 active torsions:
REMARK  status: ('A' for Active; 'I' for Inactive)
ROOT
HETATM    1  C1  UNL     1     -34.337   6.126   3.587  1.00 20.00     0.009 A 
HETATM    2  C2  UNL     1     -33.969   5.328   2.501  1.00 20.00     0.019 A 
HETATM    3  C3  UNL     1     -32.152   6.851   1.933  1.00 20.00     0.026 A 
HETATM    4  C4  UNL     1     -33.598   7.264   3.810  1.00 20.00    -0.051 A 
HETATM    5  C5  UNL     1     -32.539   7.615   3.008  1.00 20.00    -0.050 A 
HETATM    6  C6  UNL     1     -32.884   5.688   1.679  1.00 20.00     0.011 A 
HETATM    7  C7  UNL     1     -33.444   8.460   4.701  1.00 20.00     0.043 A 
HETATM    8  C8  UNL     1     -32.239   8.861   3.787  1.00 20.00     0.043 A 
HETATM    9 BR9  UNL     1     -32.412   4.584   0.217  1.00 20.00    -0.051 Br
ENDROOT
TORSDOF 0
ENDMDL
