MODEL 1
REMARK VINA RESULT:      -0.5      0.000      0.000
REMARK  0 active torsions:
REMARK  status: ('A' for Active; 'I' for Inactive)
ROOT
HETATM    1  C1  UNL     1     -33.889   4.618   3.830  1.00 20.00     0.119 C 
HETATM    2  C2  UNL     1     -32.869   6.272   2.283  1.00 20.00     0.063 A 
HETATM    3  C3  UNL     1     -33.697   8.079   3.232  1.00 20.00     0.137 A 
HETATM    4  C4  UNL     1     -33.647   5.950   3.373  1.00 20.00     0.137 A 
HETATM    5  C5  UNL     1     -32.902   7.654   2.192  1.00 20.00     0.031 A 
HETATM    6  N6  UNL     1     -34.085   3.536   4.201  1.00 20.00    -0.190 NA
HETATM    7  N7  UNL     1     -34.152   7.046   3.950  1.00 20.00    -0.249 NA
HETATM    8 BR8  UNL     1     -32.041   8.722   0.913  1.00 20.00    -0.050 Br
ENDROOT
TORSDOF 0
ENDMDL
MODEL 2
REMARK VINA RESULT:      -0.4      1.389      1.745
REMARK  0 active torsions:
REMARK  status: ('A' for Active; 'I' for Inactive)
ROOT
HETATM    1  C1  UNL     1     -34.677   5.471   3.921  1.00 20.00     0.119 C 
HETATM    2  C2  UNL     1     -33.539   7.395   2.836  1.00 20.00     0.063 A 
HETATM    3  C3  UNL     1     -32.329   6.227   1.414  1.00 20.00     0.137 A 
HETATM    4  C4  UNL     1     -33.771   6.044   2.976  1.00 20.00     0.137 A 
HETATM    5  C5  UNL     1     -32.603   7.513   1.822  1.00 20.00     0.031 A 
HETATM    6  N6  UNL     1     -35.412   5.007   4.690  1.00 20.00    -0.190 NA
HETATM    7  N7  UNL     1     -33.036   5.333   2.114  1.00 20.00    -0.249 NA
HETATM    8 BR8  UNL     1     -31.864   9.100   1.148  1.00 20.00    -0.050 Br
ENDROOT
TORSDOF 0
ENDMDL
MODEL 3
REMARK VINA RESULT:      -0.4      2.757      3.862
REMARK  0 active torsions:
REMARK  status: ('A' for Active; 'I' for Inactive)
ROOT
HETATM    1  C1  UNL     1     -32.425   8.355   1.493  1.00 20.00     0.119 C 
HETATM    2  C2  UNL     1     -32.957   6.123   2.444  1.00 20.00     0.063 A 
HETATM    3  C3  UNL     1     -34.314   6.820   4.032  1.00 20.00     0.137 A 
HETATM    4  C4  UNL     1     -33.086   7.494   2.423  1.00 20.00     0.137 A 
HETATM    5  C5  UNL     1     -33.754   5.686   3.489  1.00 20.00     0.031 A 
HETATM    6  N6  UNL     1     -31.888   9.054   0.738  1.00 20.00    -0.190 NA
HETATM    7  N7  UNL     1     -33.909   7.919   3.388  1.00 20.00    -0.249 NA
HETATM    8 BR8  UNL     1     -34.014   3.914   4.047  1.00 20.00    -0.050 Br
ENDROOT
TORSDOF 0
ENDMDL
MODEL 4
REMARK VINA RESULT:      -0.2      2.927      4.225
REMARK  0 active torsions:
REMARK  status: ('A' for Active; 'I' for Inactive)
ROOT
HETATM    1  C1  UNL     1     -32.326   8.675   1.208  1.00 20.00     0.119 C 
HETATM    2  C2  UNL     1     -33.736   7.463   2.855  1.00 20.00     0.063 A 
HETATM    3  C3  UNL     1     -33.109   5.426   2.302  1.00 20.00     0.137 A 
HETATM    4  C4  UNL     1     -32.814   7.486   1.832  1.00 20.00     0.137 A 
HETATM    5  C5  UNL     1     -33.927   6.126   3.160  1.00 20.00     0.031 A 
HETATM    6  N6  UNL     1     -31.931   9.641   0.700  1.00 20.00    -0.190 NA
HETATM    7  N7  UNL     1     -32.433   6.249   1.494  1.00 20.00    -0.249 NA
HETATM    8 BR8  UNL     1     -35.068   5.419   4.471  1.00 20.00    -0.050 Br
ENDROOT
TORSDOF 0
ENDMDL
MODEL 5
REMARK VINA RESULT:       0.9      2.922      3.253
REMARK  0 active torsions:
REMARK  status: ('A' for Active; 'I' for Inactive)
ROOT
HETATM    1  C1  UNL     1     -31.649   4.806   0.558  1.00 20.00     0.119 C 
HETATM    2  C2  UNL     1     -33.155   5.718   2.311  1.00 20.00     0.063 A 
HETATM    3  C3  UNL     1     -32.404   7.788   2.264  1.00 20.00     0.137 A 
HETATM    4  C4  UNL     1     -32.147   5.861   1.384  1.00 20.00     0.137 A 
HETATM    5  C5  UNL     1     -33.321   6.969   2.882  1.00 20.00     0.031 A 
HETATM    6  N6  UNL     1     -31.245   3.948  -0.111  1.00 20.00    -0.190 NA
HETATM    7  N7  UNL     1     -31.688   7.117   1.354  1.00 20.00    -0.249 NA
HETATM    8 BR8  UNL     1     -34.545   7.444   4.222  1.00 20.00    -0.050 Br
ENDROOT
TORSDOF 0
ENDMDL
MODEL 6
REMARK VINA RESULT:       1.1      2.526      3.014
REMARK  0 active torsions:
REMARK  status: ('A' for Active; 'I' for Inactive)
ROOT
HETATM    1  C1  UNL     1     -33.729   7.809   4.236  1.00 20.00     0.119 C 
HETATM    2  C2  UNL     1     -33.218   6.029   2.581  1.00 20.00     0.063 A 
HETATM    3  C3  UNL     1     -31.894   7.227   1.293  1.00 20.00     0.137 A 
HETATM    4  C4  UNL     1     -33.088   7.314   3.058  1.00 20.00     0.137 A 
HETATM    5  C5  UNL     1     -32.443   5.973   1.434  1.00 20.00     0.031 A 
HETATM    6  N6  UNL     1     -34.251   8.211   5.192  1.00 20.00    -0.190 NA
HETATM    7  N7  UNL     1     -32.285   8.044   2.277  1.00 20.00    -0.249 NA
HETATM    8 BR8  UNL     1     -32.196   4.492   0.310  1.00 20.00    -0.050 Br
ENDROOT
TORSDOF 0
ENDMDL
MODEL 7
REMARK VINA RESULT:       1.4      2.371      2.718
REMARK  0 active torsions:
REMARK  status: ('A' for Active; 'I' for Inactive)
ROOT
HETATM    1  C1  UNL     1     -34.506   6.696   3.704  1.00 20.00     0.119 C 
HETATM    2  C2  UNL     1     -33.148   5.289   2.173  1.00 20.00     0.063 A 
HETATM    3  C3  UNL     1     -31.847   6.894   1.410  1.00 20.00     0.137 A 
HETATM    4  C4  UNL     1     -33.466   6.501   2.743  1.00 20.00     0.137 A 
HETATM    5  C5  UNL     1     -32.096   5.544   1.308  1.00 20.00     0.031 A 
HETATM    6  N6  UNL     1     -35.351   6.854   4.484  1.00 20.00    -0.190 NA
HETATM    7  N7  UNL     1     -32.678   7.478   2.280  1.00 20.00    -0.249 NA
HETATM    8 BR8  UNL     1     -31.201   4.303   0.222  1.00 20.00    -0.050 Br
ENDROOT
TORSDOF 0
ENDMDL
MODEL 8
REMARK VINA RESULT:       1.6      2.929      4.444
REMARK  0 active torsions:
REMARK  status: ('A' for Active; 'I' for Inactive)
ROOT
HETATM    1  C1  UNL     1     -32.407   9.913   0.727  1.00 20.00     0.119 C 
HETATM    2  C2  UNL     1     -32.016   7.461   0.681  1.00 20.00     0.063 A 
HETATM    3  C3  UNL     1     -32.794   7.024   2.695  1.00 20.00     0.137 A 
HETATM    4  C4  UNL     1     -32.453   8.608   1.306  1.00 20.00     0.137 A 
HETATM    5  C5  UNL     1     -32.238   6.433   1.584  1.00 20.00     0.031 A 
HETATM    6  N6  UNL     1     -32.369  10.973   0.256  1.00 20.00    -0.190 NA
HETATM    7  N7  UNL     1     -32.924   8.345   2.530  1.00 20.00    -0.249 NA
HETATM    8 BR8  UNL     1     -31.857   4.613   1.337  1.00 20.00    -0.050 Br
ENDROOT
TORSDOF 0
ENDMDL
MODEL 9
REMARK VINA RESULT:       2.0      2.455      2.631
REMARK  0 active torsions:
REMARK  status: ('A' for Active; 'I' for Inactive)
ROOT
HETATM    1  C1  UNL     1     -31.866   5.609   1.403  1.00 20.00     0.119 C 
HETATM    2  C2  UNL     1     -32.086   7.912   0.499  1.00 20.00     0.063 A 
HETATM    3  C3  UNL     1     -32.661   8.891   2.386  1.00 20.00     0.137 A 
HETATM    4  C4  UNL     1     -32.143   7.005   1.534  1.00 20.00     0.137 A 
HETATM    5  C5  UNL     1     -32.423   9.136   1.053  1.00 20.00     0.031 A 
HETATM    6  N6  UNL     1     -31.642   4.475   1.297  1.00 20.00    -0.190 NA
HETATM    7  N7  UNL     1     -32.493   7.597   2.681  1.00 20.00    -0.249 NA
HETATM    8 BR8  UNL     1     -32.531  10.785   0.165  1.00 20.00    -0.050 Br
ENDROOT
TORSDOF 0
ENDMDL
