MODEL 1
REMARK VINA RESULT:       0.7      0.000      0.000
REMARK  0 active torsions:
REMARK  status: ('A' for Active; 'I' for Inactive)
ROOT
HETATM    1  C1  UNL     1     -32.195   5.218   2.345  1.00 20.00     0.017 A 
HETATM    2  C2  UNL     1     -31.666   6.245   1.563  1.00 20.00     0.025 A 
HETATM    3  C3  UNL     1     -35.136   6.892   3.855  1.00 20.00     0.031 A 
HETATM    4  C4  UNL     1     -33.436   7.719   2.293  1.00 20.00     0.036 A 
HETATM    5  C5  UNL     1     -35.614   5.832   4.611  1.00 20.00     0.119 A 
HETATM    6  C6  UNL     1     -33.353   5.435   3.109  1.00 20.00     0.010 A 
HETATM    7  C7  UNL     1     -33.982   6.697   3.086  1.00 20.00    -0.020 A 
HETATM    8  C8  UNL     1     -32.285   7.492   1.538  1.00 20.00     0.034 A 
HETATM    9  C9  UNL     1     -33.926   4.443   3.908  1.00 20.00     0.113 A 
HETATM   10  N10 UNL     1     -35.038   4.612   4.658  1.00 20.00    -0.253 NA
HETATM   11 CL11 UNL     1     -31.629   8.757   0.572  1.00 20.00    -0.084 Cl
HETATM   12 BR12 UNL     1     -33.191   2.679   4.047  1.00 20.00    -0.028 Br
ENDROOT
TORSDOF 0
ENDMDL
MODEL 2
REMARK VINA RESULT:       3.2      3.665      4.893
REMARK  0 active torsions:
REMARK  status: ('A' for Active; 'I' for Inactive)
ROOT
HETATM    1  C1  UNL     1     -34.111   8.031   3.248  1.00 20.00     0.017 A 
HETATM    2  C2  UNL     1     -34.860   7.194   4.075  1.00 20.00     0.025 A 
HETATM    3  C3  UNL     1     -32.020   5.576   1.422  1.00 20.00     0.031 A 
HETATM    4  C4  UNL     1     -33.732   5.266   3.152  1.00 20.00     0.036 A 
HETATM    5  C5  UNL     1     -31.307   6.459   0.626  1.00 20.00     0.119 A 
HETATM    6  C6  UNL     1     -33.164   7.490   2.363  1.00 20.00     0.010 A 
HETATM    7  C7  UNL     1     -32.969   6.094   2.312  1.00 20.00    -0.020 A 
HETATM    8  C8  UNL     1     -34.670   5.815   4.027  1.00 20.00     0.034 A 
HETATM    9  C9  UNL     1     -32.388   8.281   1.513  1.00 20.00     0.113 A 
HETATM   10  N10 UNL     1     -31.467   7.800   0.649  1.00 20.00    -0.253 NA
HETATM   11 CL11 UNL     1     -35.595   4.784   5.049  1.00 20.00    -0.084 Cl
HETATM   12 BR12 UNL     1     -32.534  10.191   1.464  1.00 20.00    -0.028 Br
ENDROOT
TORSDOF 0
ENDMDL
MODEL 3
REMARK VINA RESULT:       3.6      1.945      2.511
REMARK  0 active torsions:
REMARK  status: ('A' for Active; 'I' for Inactive)
ROOT
HETATM    1  C1  UNL     1     -31.738   7.588   0.607  1.00 20.00     0.017 A 
HETATM    2  C2  UNL     1     -31.700   8.964   0.384  1.00 20.00     0.025 A 
HETATM    3  C3  UNL     1     -34.070   7.376   3.480  1.00 20.00     0.031 A 
HETATM    4  C4  UNL     1     -33.238   9.307   2.217  1.00 20.00     0.036 A 
HETATM    5  C5  UNL     1     -34.067   6.000   3.651  1.00 20.00     0.119 A 
HETATM    6  C6  UNL     1     -32.530   7.059   1.640  1.00 20.00     0.010 A 
HETATM    7  C7  UNL     1     -33.288   7.924   2.456  1.00 20.00    -0.020 A 
HETATM    8  C8  UNL     1     -32.448   9.821   1.188  1.00 20.00     0.034 A 
HETATM    9  C9  UNL     1     -32.605   5.691   1.907  1.00 20.00     0.113 A 
HETATM   10  N10 UNL     1     -33.354   5.142   2.890  1.00 20.00    -0.253 NA
HETATM   11 CL11 UNL     1     -32.398  11.520   0.911  1.00 20.00    -0.084 Cl
HETATM   12 BR12 UNL     1     -31.636   4.387   0.890  1.00 20.00    -0.028 Br
ENDROOT
TORSDOF 0
ENDMDL
