MODEL 1
REMARK VINA RESULT:      -1.1      0.000      0.000
REMARK  1 active torsions:
REMARK  status: ('A' for Active; 'I' for Inactive)
REMARK    1  A    between atoms: C6_6  and  C7_7 
ROOT
HETATM    1  C3  UNL     1     -33.809   7.341   3.388  1.00 20.00     0.296 C 
HETATM    2  C4  UNL     1     -33.543   5.921   2.910  1.00 20.00     0.197 C 
HETATM    3  C5  UNL     1     -31.860   6.664   1.444  1.00 20.00     0.203 C 
HETATM    4  C7  UNL     1     -32.030   8.112   1.917  1.00 20.00     0.248 C 
HETATM    5  N8  UNL     1     -32.605   8.170   3.271  1.00 20.00     0.092 N 
HETATM    6  O9  UNL     1     -33.084   5.935   1.560  1.00 20.00    -0.387 OA
HETATM    7  H22 UNL     1     -32.859   9.141   3.483  1.00 20.00     0.316 HD
ENDROOT
BRANCH   4   8
HETATM    8  C6  UNL     1     -32.829   8.938   0.943  1.00 20.00     0.021 A 
HETATM    9  C1  UNL     1     -32.512  10.394   0.744  1.00 20.00     0.007 A 
HETATM   10  C2  UNL     1     -32.208   9.403  -0.345  1.00 20.00     0.007 A 
ENDBRANCH   4   8
TORSDOF 1
ENDMDL
MODEL 2
REMARK VINA RESULT:       0.2      1.759      4.178
REMARK  1 active torsions:
REMARK  status: ('A' for Active; 'I' for Inactive)
REMARK    1  A    between atoms: C6_6  and  C7_7 
ROOT
HETATM    1  C3  UNL     1     -32.649   7.970   3.179  1.00 20.00     0.296 C 
HETATM    2  C4  UNL     1     -31.884   7.722   1.888  1.00 20.00     0.197 C 
HETATM    3  C5  UNL     1     -33.107   5.756   1.471  1.00 20.00     0.203 C 
HETATM    4  C7  UNL     1     -33.958   5.970   2.727  1.00 20.00     0.248 C 
HETATM    5  N8  UNL     1     -33.994   7.389   3.116  1.00 20.00     0.092 N 
HETATM    6  O9  UNL     1     -31.804   6.322   1.626  1.00 20.00    -0.387 OA
HETATM    7  H22 UNL     1     -34.425   7.469   4.043  1.00 20.00     0.316 HD
ENDROOT
BRANCH   4   8
HETATM    8  C6  UNL     1     -33.513   5.097   3.871  1.00 20.00     0.021 A 
HETATM    9  C1  UNL     1     -34.526   4.362   4.705  1.00 20.00     0.007 A 
HETATM   10  C2  UNL     1     -33.626   3.601   3.772  1.00 20.00     0.007 A 
ENDBRANCH   4   8
TORSDOF 1
ENDMDL
MODEL 3
REMARK VINA RESULT:       0.6      2.189      3.008
REMARK  1 active torsions:
REMARK  status: ('A' for Active; 'I' for Inactive)
REMARK    1  A    between atoms: C6_6  and  C7_7 
ROOT
HETATM    1  C3  UNL     1     -35.543   6.467   3.897  1.00 20.00     0.296 C 
HETATM    2  C4  UNL     1     -35.489   5.073   4.503  1.00 20.00     0.197 C 
HETATM    3  C5  UNL     1     -33.198   4.879   4.003  1.00 20.00     0.203 C 
HETATM    4  C7  UNL     1     -33.162   6.300   3.429  1.00 20.00     0.248 C 
HETATM    5  N8  UNL     1     -34.239   7.132   3.986  1.00 20.00     0.092 N 
HETATM    6  O9  UNL     1     -34.492   4.292   3.848  1.00 20.00    -0.387 OA
HETATM    7  H22 UNL     1     -34.287   8.011   3.459  1.00 20.00     0.316 HD
ENDROOT
BRANCH   4   8
HETATM    8  C6  UNL     1     -33.186   6.304   1.922  1.00 20.00     0.021 A 
HETATM    9  C1  UNL     1     -32.081   6.967   1.147  1.00 20.00     0.007 A 
HETATM   10  C2  UNL     1     -32.205   5.469   1.146  1.00 20.00     0.007 A 
ENDBRANCH   4   8
TORSDOF 1
ENDMDL
MODEL 4
REMARK VINA RESULT:       1.0      1.707      3.475
REMARK  1 active torsions:
REMARK  status: ('A' for Active; 'I' for Inactive)
REMARK    1  A    between atoms: C6_6  and  C7_7 
ROOT
HETATM    1  C3  UNL     1     -31.727   8.053   2.074  1.00 20.00     0.296 C 
HETATM    2  C4  UNL     1     -31.040   6.961   1.267  1.00 20.00     0.197 C 
HETATM    3  C5  UNL     1     -32.993   5.650   1.265  1.00 20.00     0.203 C 
HETATM    4  C7  UNL     1     -33.769   6.730   2.027  1.00 20.00     0.248 C 
HETATM    5  N8  UNL     1     -33.173   8.060   1.827  1.00 20.00     0.092 N 
HETATM    6  O9  UNL     1     -31.601   5.689   1.585  1.00 20.00    -0.387 OA
HETATM    7  H22 UNL     1     -33.609   8.722   2.479  1.00 20.00     0.316 HD
ENDROOT
BRANCH   4   8
HETATM    8  C6  UNL     1     -33.907   6.403   3.492  1.00 20.00     0.021 A 
HETATM    9  C1  UNL     1     -34.494   7.409   4.442  1.00 20.00     0.007 A 
HETATM   10  C2  UNL     1     -35.266   6.168   4.091  1.00 20.00     0.007 A 
ENDBRANCH   4   8
TORSDOF 1
ENDMDL
MODEL 5
REMARK VINA RESULT:       1.3      1.899      3.787
REMARK  1 active torsions:
REMARK  status: ('A' for Active; 'I' for Inactive)
REMARK    1  A    between atoms: C6_6  and  C7_7 
ROOT
HETATM    1  C3  UNL     1     -32.220   9.368  -0.334  1.00 20.00     0.296 C 
HETATM    2  C4  UNL     1     -32.718  10.356   0.710  1.00 20.00     0.197 C 
HETATM    3  C5  UNL     1     -32.254   8.843   2.451  1.00 20.00     0.203 C 
HETATM    4  C7  UNL     1     -31.683   7.819   1.464  1.00 20.00     0.248 C 
HETATM    5  N8  UNL     1     -31.209   8.468   0.231  1.00 20.00     0.092 N 
HETATM    6  O9  UNL     1     -33.253   9.656   1.832  1.00 20.00    -0.387 OA
HETATM    7  H22 UNL     1     -30.995   7.745  -0.464  1.00 20.00     0.316 HD
ENDROOT
BRANCH   4   8
HETATM    8  C6  UNL     1     -32.661   6.713   1.163  1.00 20.00     0.021 A 
HETATM    9  C1  UNL     1     -32.270   5.276   1.372  1.00 20.00     0.007 A 
HETATM   10  C2  UNL     1     -33.278   5.921   2.282  1.00 20.00     0.007 A 
ENDBRANCH   4   8
TORSDOF 1
ENDMDL
MODEL 6
REMARK VINA RESULT:       1.4      2.236      2.999
REMARK  1 active torsions:
REMARK  status: ('A' for Active; 'I' for Inactive)
REMARK    1  A    between atoms: C6_6  and  C7_7 
ROOT
HETATM    1  C3  UNL     1     -33.708   4.483   3.837  1.00 20.00     0.296 C 
HETATM    2  C4  UNL     1     -34.960   5.051   4.488  1.00 20.00     0.197 C 
HETATM    3  C5  UNL     1     -34.989   6.865   2.990  1.00 20.00     0.203 C 
HETATM    4  C7  UNL     1     -33.763   6.324   2.247  1.00 20.00     0.248 C 
HETATM    5  N8  UNL     1     -33.627   4.870   2.424  1.00 20.00     0.092 N 
HETATM    6  O9  UNL     1     -34.976   6.472   4.364  1.00 20.00    -0.387 OA
HETATM    7  H22 UNL     1     -32.714   4.574   2.060  1.00 20.00     0.316 HD
ENDROOT
BRANCH   4   8
HETATM    8  C6  UNL     1     -32.499   7.047   2.633  1.00 20.00     0.021 A 
HETATM    9  C1  UNL     1     -31.666   7.732   1.586  1.00 20.00     0.007 A 
HETATM   10  C2  UNL     1     -32.440   8.549   2.584  1.00 20.00     0.007 A 
ENDBRANCH   4   8
TORSDOF 1
ENDMDL
MODEL 7
REMARK VINA RESULT:       1.4      1.834      3.763
REMARK  1 active torsions:
REMARK  status: ('A' for Active; 'I' for Inactive)
REMARK    1  A    between atoms: C6_6  and  C7_7 
ROOT
HETATM    1  C3  UNL     1     -32.858   7.022   0.359  1.00 20.00     0.296 C 
HETATM    2  C4  UNL     1     -31.994   8.262   0.536  1.00 20.00     0.197 C 
HETATM    3  C5  UNL     1     -31.986   7.994   2.874  1.00 20.00     0.203 C 
HETATM    4  C7  UNL     1     -32.807   6.704   2.770  1.00 20.00     0.248 C 
HETATM    5  N8  UNL     1     -32.645   6.069   1.453  1.00 20.00     0.092 N 
HETATM    6  O9  UNL     1     -32.275   8.880   1.791  1.00 20.00    -0.387 OA
HETATM    7  H22 UNL     1     -33.331   5.313   1.361  1.00 20.00     0.316 HD
ENDROOT
BRANCH   4   8
HETATM    8  C6  UNL     1     -34.260   6.928   3.099  1.00 20.00     0.021 A 
HETATM    9  C1  UNL     1     -34.957   6.045   4.098  1.00 20.00     0.007 A 
HETATM   10  C2  UNL     1     -34.658   7.478   4.440  1.00 20.00     0.007 A 
ENDBRANCH   4   8
TORSDOF 1
ENDMDL
MODEL 8
REMARK VINA RESULT:       1.7      2.162      3.225
REMARK  1 active torsions:
REMARK  status: ('A' for Active; 'I' for Inactive)
REMARK    1  A    between atoms: C6_6  and  C7_7 
ROOT
HETATM    1  C3  UNL     1     -34.396   6.940   4.315  1.00 20.00     0.296 C 
HETATM    2  C4  UNL     1     -33.473   8.107   4.635  1.00 20.00     0.197 C 
HETATM    3  C5  UNL     1     -32.617   8.109   2.444  1.00 20.00     0.203 C 
HETATM    4  C7  UNL     1     -33.559   6.973   2.030  1.00 20.00     0.248 C 
HETATM    5  N8  UNL     1     -34.751   6.924   2.892  1.00 20.00     0.092 N 
HETATM    6  O9  UNL     1     -32.295   8.034   3.834  1.00 20.00    -0.387 OA
HETATM    7  H22 UNL     1     -35.267   6.060   2.697  1.00 20.00     0.316 HD
ENDROOT
BRANCH   4   8
HETATM    8  C6  UNL     1     -32.857   5.641   1.985  1.00 20.00     0.021 A 
HETATM    9  C1  UNL     1     -32.739   4.888   0.689  1.00 20.00     0.007 A 
HETATM   10  C2  UNL     1     -31.520   5.511   1.310  1.00 20.00     0.007 A 
ENDBRANCH   4   8
TORSDOF 1
ENDMDL
