MODEL 1
REMARK VINA RESULT:      -1.8      0.000      0.000
REMARK  0 active torsions:
REMARK  status: ('A' for Active; 'I' for Inactive)
ROOT
HETATM    1  C1  UNL     1     -33.701   7.670   3.701  1.00 20.00     0.036 A 
HETATM    2  C2  UNL     1     -34.477   6.624   4.005  1.00 20.00     0.007 A 
HETATM    3  C3  UNL     1     -32.815   7.388   2.563  1.00 20.00     0.086 A 
HETATM    4  C4  UNL     1     -34.342   5.385   3.185  1.00 20.00     0.172 A 
HETATM    5  N5  UNL     1     -31.957   8.193   2.049  1.00 20.00    -0.293 NA
HETATM    6  S6  UNL     1     -33.062   5.766   1.954  1.00 20.00    -0.086 SA
HETATM    7 CL7  UNL     1     -33.859   4.017   4.204  1.00 20.00    -0.109 Cl
HETATM    8  H11 UNL     1     -31.481   7.733   1.265  1.00 20.00     0.187 HD
ENDROOT
TORSDOF 0
ENDMDL
MODEL 2
REMARK VINA RESULT:      -1.3      2.869      3.270
REMARK  0 active torsions:
REMARK  status: ('A' for Active; 'I' for Inactive)
ROOT
HETATM    1  C1  UNL     1     -33.878   7.799   4.313  1.00 20.00     0.036 A 
HETATM    2  C2  UNL     1     -32.788   8.271   3.698  1.00 20.00     0.007 A 
HETATM    3  C3  UNL     1     -34.419   6.609   3.643  1.00 20.00     0.086 A 
HETATM    4  C4  UNL     1     -32.298   7.555   2.485  1.00 20.00     0.172 A 
HETATM    5  N5  UNL     1     -35.458   5.942   3.996  1.00 20.00    -0.293 NA
HETATM    6  S6  UNL     1     -33.454   6.174   2.249  1.00 20.00    -0.086 SA
HETATM    7 CL7  UNL     1     -32.305   8.638   1.081  1.00 20.00    -0.109 Cl
HETATM    8  H11 UNL     1     -35.599   5.158   3.349  1.00 20.00     0.187 HD
ENDROOT
TORSDOF 0
ENDMDL
MODEL 3
REMARK VINA RESULT:      -1.3      1.733      2.079
REMARK  0 active torsions:
REMARK  status: ('A' for Active; 'I' for Inactive)
ROOT
HETATM    1  C1  UNL     1     -32.748   6.214   1.505  1.00 20.00     0.036 A 
HETATM    2  C2  UNL     1     -33.455   5.525   2.408  1.00 20.00     0.007 A 
HETATM    3  C3  UNL     1     -32.480   7.590   1.946  1.00 20.00     0.086 A 
HETATM    4  C4  UNL     1     -33.848   6.215   3.670  1.00 20.00     0.172 A 
HETATM    5  N5  UNL     1     -31.834   8.486   1.293  1.00 20.00    -0.293 NA
HETATM    6  S6  UNL     1     -33.166   7.892   3.527  1.00 20.00    -0.086 SA
HETATM    7 CL7  UNL     1     -35.612   6.256   3.832  1.00 20.00    -0.109 Cl
HETATM    8  H11 UNL     1     -31.797   9.352   1.843  1.00 20.00     0.187 HD
ENDROOT
TORSDOF 0
ENDMDL
MODEL 4
REMARK VINA RESULT:      -0.7      2.371      2.803
REMARK  0 active torsions:
REMARK  status: ('A' for Active; 'I' for Inactive)
ROOT
HETATM    1  C1  UNL     1     -32.045   7.431   1.702  1.00 20.00     0.036 A 
HETATM    2  C2  UNL     1     -32.562   8.318   2.559  1.00 20.00     0.007 A 
HETATM    3  C3  UNL     1     -32.667   6.107   1.835  1.00 20.00     0.086 A 
HETATM    4  C4  UNL     1     -33.644   7.862   3.478  1.00 20.00     0.172 A 
HETATM    5  N5  UNL     1     -32.375   5.057   1.156  1.00 20.00    -0.293 NA
HETATM    6  S6  UNL     1     -33.903   6.110   3.074  1.00 20.00    -0.086 SA
HETATM    7 CL7  UNL     1     -33.147   8.059   5.168  1.00 20.00    -0.109 Cl
HETATM    8  H11 UNL     1     -32.970   4.277   1.458  1.00 20.00     0.187 HD
ENDROOT
TORSDOF 0
ENDMDL
MODEL 5
REMARK VINA RESULT:      -0.5      2.290      2.686
REMARK  0 active torsions:
REMARK  status: ('A' for Active; 'I' for Inactive)
ROOT
HETATM    1  C1  UNL     1     -32.581   7.946   2.520  1.00 20.00     0.036 A 
HETATM    2  C2  UNL     1     -32.143   7.067   1.612  1.00 20.00     0.007 A 
HETATM    3  C3  UNL     1     -33.518   7.334   3.473  1.00 20.00     0.086 A 
HETATM    4  C4  UNL     1     -32.637   5.663   1.694  1.00 20.00     0.172 A 
HETATM    5  N5  UNL     1     -34.107   7.927   4.448  1.00 20.00    -0.293 NA
HETATM    6  S6  UNL     1     -33.757   5.636   3.124  1.00 20.00    -0.086 SA
HETATM    7 CL7  UNL     1     -33.493   5.218   0.207  1.00 20.00    -0.109 Cl
HETATM    8  H11 UNL     1     -34.701   7.255   4.949  1.00 20.00     0.187 HD
ENDROOT
TORSDOF 0
ENDMDL
MODEL 6
REMARK VINA RESULT:      -0.5      2.979      3.516
REMARK  0 active torsions:
REMARK  status: ('A' for Active; 'I' for Inactive)
ROOT
HETATM    1  C1  UNL     1     -33.604   5.209   2.524  1.00 20.00     0.036 A 
HETATM    2  C2  UNL     1     -32.951   6.194   1.900  1.00 20.00     0.007 A 
HETATM    3  C3  UNL     1     -34.410   5.706   3.648  1.00 20.00     0.086 A 
HETATM    4  C4  UNL     1     -33.127   7.587   2.403  1.00 20.00     0.172 A 
HETATM    5  N5  UNL     1     -35.138   4.998   4.435  1.00 20.00    -0.293 NA
HETATM    6  S6  UNL     1     -34.269   7.443   3.809  1.00 20.00    -0.086 SA
HETATM    7 CL7  UNL     1     -31.571   8.264   2.913  1.00 20.00    -0.109 Cl
HETATM    8  H11 UNL     1     -35.590   5.609   5.125  1.00 20.00     0.187 HD
ENDROOT
TORSDOF 0
ENDMDL
MODEL 7
REMARK VINA RESULT:      -0.5      2.173      2.470
REMARK  0 active torsions:
REMARK  status: ('A' for Active; 'I' for Inactive)
ROOT
HETATM    1  C1  UNL     1     -34.242   6.301   3.637  1.00 20.00     0.036 A 
HETATM    2  C2  UNL     1     -33.979   5.693   2.476  1.00 20.00     0.007 A 
HETATM    3  C3  UNL     1     -33.444   7.522   3.815  1.00 20.00     0.086 A 
HETATM    4  C4  UNL     1     -32.968   6.312   1.570  1.00 20.00     0.172 A 
HETATM    5  N5  UNL     1     -33.473   8.310   4.829  1.00 20.00    -0.293 NA
HETATM    6  S6  UNL     1     -32.403   7.804   2.437  1.00 20.00    -0.086 SA
HETATM    7 CL7  UNL     1     -31.624   5.193   1.284  1.00 20.00    -0.109 Cl
HETATM    8  H11 UNL     1     -32.815   9.084   4.680  1.00 20.00     0.187 HD
ENDROOT
TORSDOF 0
ENDMDL
MODEL 8
REMARK VINA RESULT:      -0.4      2.873      3.178
REMARK  0 active torsions:
REMARK  status: ('A' for Active; 'I' for Inactive)
ROOT
HETATM    1  C1  UNL     1     -34.817   6.816   3.829  1.00 20.00     0.036 A 
HETATM    2  C2  UNL     1     -33.780   7.079   3.027  1.00 20.00     0.007 A 
HETATM    3  C3  UNL     1     -34.894   5.392   4.183  1.00 20.00     0.086 A 
HETATM    4  C4  UNL     1     -32.892   5.949   2.629  1.00 20.00     0.172 A 
HETATM    5  N5  UNL     1     -35.781   4.840   4.929  1.00 20.00    -0.293 NA
HETATM    6  S6  UNL     1     -33.591   4.485   3.447  1.00 20.00    -0.086 SA
HETATM    7 CL7  UNL     1     -32.888   5.753   0.867  1.00 20.00    -0.109 Cl
HETATM    8  H11 UNL     1     -35.587   3.835   5.006  1.00 20.00     0.187 HD
ENDROOT
TORSDOF 0
ENDMDL
MODEL 9
REMARK VINA RESULT:       0.8      2.451      2.766
REMARK  0 active torsions:
REMARK  status: ('A' for Active; 'I' for Inactive)
ROOT
HETATM    1  C1  UNL     1     -33.823   5.409   2.778  1.00 20.00     0.036 A 
HETATM    2  C2  UNL     1     -34.214   6.297   3.699  1.00 20.00     0.007 A 
HETATM    3  C3  UNL     1     -32.786   5.954   1.891  1.00 20.00     0.086 A 
HETATM    4  C4  UNL     1     -33.572   7.643   3.697  1.00 20.00     0.172 A 
HETATM    5  N5  UNL     1     -32.223   5.342   0.913  1.00 20.00    -0.293 NA
HETATM    6  S6  UNL     1     -32.379   7.599   2.329  1.00 20.00    -0.086 SA
HETATM    7 CL7  UNL     1     -34.786   8.909   3.444  1.00 20.00    -0.109 Cl
HETATM    8  H11 UNL     1     -31.534   5.963   0.472  1.00 20.00     0.187 HD
ENDROOT
TORSDOF 0
ENDMDL
