MODEL 1
REMARK VINA RESULT:      -1.5      0.000      0.000
REMARK  1 active torsions:
REMARK  status: ('A' for Active; 'I' for Inactive)
REMARK    1  A    between atoms: C1_1  and  C4_4 
ROOT
HETATM    1  C2  UNL     1     -33.212   5.488   2.066  1.00 20.00     0.013 C 
HETATM    2  C3  UNL     1     -33.341   7.021   2.125  1.00 20.00     0.010 C 
HETATM    3  C4  UNL     1     -33.329   5.464   3.610  1.00 20.00     0.062 C 
HETATM    4  C5  UNL     1     -34.039   6.861   3.507  1.00 20.00    -0.037 C 
HETATM    5  C7  UNL     1     -33.568   7.867   4.555  1.00 20.00     0.015 C 
HETATM    6  C8  UNL     1     -35.566   6.837   3.413  1.00 20.00     0.015 C 
ENDROOT
BRANCH   3   7
HETATM    7  C1  UNL     1     -34.088   4.302   4.257  1.00 20.00     0.128 C 
HETATM    8  C6  UNL     1     -33.319   3.026   4.470  1.00 20.00     0.091 C 
HETATM    9  O9  UNL     1     -35.268   4.407   4.588  1.00 20.00    -0.298 OA
ENDBRANCH   3   7
TORSDOF 1
ENDMDL
MODEL 2
REMARK VINA RESULT:      -0.9      1.857      3.054
REMARK  1 active torsions:
REMARK  status: ('A' for Active; 'I' for Inactive)
REMARK    1  A    between atoms: C1_1  and  C4_4 
ROOT
HETATM    1  C2  UNL     1     -33.698   4.573   3.745  1.00 20.00     0.013 C 
HETATM    2  C3  UNL     1     -34.946   5.110   4.469  1.00 20.00     0.010 C 
HETATM    3  C4  UNL     1     -33.973   5.592   2.611  1.00 20.00     0.062 C 
HETATM    4  C5  UNL     1     -34.789   6.430   3.660  1.00 20.00    -0.037 C 
HETATM    5  C7  UNL     1     -36.105   6.979   3.115  1.00 20.00     0.015 C 
HETATM    6  C8  UNL     1     -34.010   7.512   4.412  1.00 20.00     0.015 C 
ENDROOT
BRANCH   3   7
HETATM    7  C1  UNL     1     -32.771   6.248   1.924  1.00 20.00     0.128 C 
HETATM    8  C6  UNL     1     -31.888   5.348   1.103  1.00 20.00     0.091 C 
HETATM    9  O9  UNL     1     -32.541   7.450   2.036  1.00 20.00    -0.298 OA
ENDBRANCH   3   7
TORSDOF 1
ENDMDL
MODEL 3
REMARK VINA RESULT:      -0.9      1.941      3.251
REMARK  1 active torsions:
REMARK  status: ('A' for Active; 'I' for Inactive)
REMARK    1  A    between atoms: C1_1  and  C4_4 
ROOT
HETATM    1  C2  UNL     1     -32.072   8.103   2.371  1.00 20.00     0.013 C 
HETATM    2  C3  UNL     1     -31.747   7.188   1.175  1.00 20.00     0.010 C 
HETATM    3  C4  UNL     1     -33.480   7.458   2.424  1.00 20.00     0.062 C 
HETATM    4  C5  UNL     1     -32.864   6.224   1.671  1.00 20.00    -0.037 C 
HETATM    5  C7  UNL     1     -33.752   5.683   0.553  1.00 20.00     0.015 C 
HETATM    6  C8  UNL     1     -32.336   5.090   2.553  1.00 20.00     0.015 C 
ENDROOT
BRANCH   3   7
HETATM    7  C1  UNL     1     -34.119   7.234   3.798  1.00 20.00     0.128 C 
HETATM    8  C6  UNL     1     -35.301   6.304   3.850  1.00 20.00     0.091 C 
HETATM    9  O9  UNL     1     -33.687   7.786   4.808  1.00 20.00    -0.298 OA
ENDBRANCH   3   7
TORSDOF 1
ENDMDL
MODEL 4
REMARK VINA RESULT:      -0.5      2.322      3.904
REMARK  1 active torsions:
REMARK  status: ('A' for Active; 'I' for Inactive)
REMARK    1  A    between atoms: C1_1  and  C4_4 
ROOT
HETATM    1  C2  UNL     1     -32.533   5.599   2.174  1.00 20.00     0.013 C 
HETATM    2  C3  UNL     1     -33.709   5.303   3.123  1.00 20.00     0.010 C 
HETATM    3  C4  UNL     1     -33.161   6.990   1.903  1.00 20.00     0.062 C 
HETATM    4  C5  UNL     1     -33.909   6.839   3.276  1.00 20.00    -0.037 C 
HETATM    5  C7  UNL     1     -35.372   7.277   3.227  1.00 20.00     0.015 C 
HETATM    6  C8  UNL     1     -33.200   7.423   4.500  1.00 20.00     0.015 C 
ENDROOT
BRANCH   3   7
HETATM    7  C1  UNL     1     -32.218   8.181   1.709  1.00 20.00     0.128 C 
HETATM    8  C6  UNL     1     -32.615   9.195   0.671  1.00 20.00     0.091 C 
HETATM    9  O9  UNL     1     -31.188   8.303   2.370  1.00 20.00    -0.298 OA
ENDBRANCH   3   7
TORSDOF 1
ENDMDL
MODEL 5
REMARK VINA RESULT:      -0.5      1.874      3.305
REMARK  1 active torsions:
REMARK  status: ('A' for Active; 'I' for Inactive)
REMARK    1  A    between atoms: C1_1  and  C4_4 
ROOT
HETATM    1  C2  UNL     1     -33.140   8.085   4.100  1.00 20.00     0.013 C 
HETATM    2  C3  UNL     1     -34.314   7.564   4.948  1.00 20.00     0.010 C 
HETATM    3  C4  UNL     1     -33.100   6.708   3.391  1.00 20.00     0.062 C 
HETATM    4  C5  UNL     1     -34.596   6.520   3.830  1.00 20.00    -0.037 C 
HETATM    5  C7  UNL     1     -34.909   5.121   4.357  1.00 20.00     0.015 C 
HETATM    6  C8  UNL     1     -35.657   6.980   2.826  1.00 20.00     0.015 C 
ENDROOT
BRANCH   3   7
HETATM    7  C1  UNL     1     -32.764   6.676   1.897  1.00 20.00     0.128 C 
HETATM    8  C6  UNL     1     -32.106   7.902   1.326  1.00 20.00     0.091 C 
HETATM    9  O9  UNL     1     -33.019   5.696   1.200  1.00 20.00    -0.298 OA
ENDBRANCH   3   7
TORSDOF 1
ENDMDL
MODEL 6
REMARK VINA RESULT:      -0.4      2.166      2.932
REMARK  1 active torsions:
REMARK  status: ('A' for Active; 'I' for Inactive)
REMARK    1  A    between atoms: C1_1  and  C4_4 
ROOT
HETATM    1  C2  UNL     1     -33.155   5.799   1.806  1.00 20.00     0.013 C 
HETATM    2  C3  UNL     1     -32.001   6.508   1.072  1.00 20.00     0.010 C 
HETATM    3  C4  UNL     1     -32.889   6.722   3.021  1.00 20.00     0.062 C 
HETATM    4  C5  UNL     1     -32.210   7.725   2.020  1.00 20.00    -0.037 C 
HETATM    5  C7  UNL     1     -30.909   8.327   2.545  1.00 20.00     0.015 C 
HETATM    6  C8  UNL     1     -33.117   8.805   1.427  1.00 20.00     0.015 C 
ENDROOT
BRANCH   3   7
HETATM    7  C1  UNL     1     -34.093   7.204   3.837  1.00 20.00     0.128 C 
HETATM    8  C6  UNL     1     -35.347   6.377   3.744  1.00 20.00     0.091 C 
HETATM    9  O9  UNL     1     -34.037   8.215   4.534  1.00 20.00    -0.298 OA
ENDBRANCH   3   7
TORSDOF 1
ENDMDL
MODEL 7
REMARK VINA RESULT:      -0.3      3.149      4.836
REMARK  1 active torsions:
REMARK  status: ('A' for Active; 'I' for Inactive)
REMARK    1  A    between atoms: C1_1  and  C4_4 
ROOT
HETATM    1  C2  UNL     1     -33.277   7.963   2.940  1.00 20.00     0.013 C 
HETATM    2  C3  UNL     1     -33.478   6.437   2.970  1.00 20.00     0.010 C 
HETATM    3  C4  UNL     1     -32.102   7.744   1.954  1.00 20.00     0.062 C 
HETATM    4  C5  UNL     1     -32.759   6.363   1.592  1.00 20.00    -0.037 C 
HETATM    5  C7  UNL     1     -31.756   5.218   1.481  1.00 20.00     0.015 C 
HETATM    6  C8  UNL     1     -33.726   6.366   0.405  1.00 20.00     0.015 C 
ENDROOT
BRANCH   3   7
HETATM    7  C1  UNL     1     -31.896   8.772   0.838  1.00 20.00     0.128 C 
HETATM    8  C6  UNL     1     -32.786   9.986   0.865  1.00 20.00     0.091 C 
HETATM    9  O9  UNL     1     -31.046   8.615  -0.036  1.00 20.00    -0.298 OA
ENDBRANCH   3   7
TORSDOF 1
ENDMDL
MODEL 8
REMARK VINA RESULT:      -0.2      1.988      2.960
REMARK  1 active torsions:
REMARK  status: ('A' for Active; 'I' for Inactive)
REMARK    1  A    between atoms: C1_1  and  C4_4 
ROOT
HETATM    1  C2  UNL     1     -33.122   5.719   1.722  1.00 20.00     0.013 C 
HETATM    2  C3  UNL     1     -31.957   6.433   1.011  1.00 20.00     0.010 C 
HETATM    3  C4  UNL     1     -32.891   6.650   2.939  1.00 20.00     0.062 C 
HETATM    4  C5  UNL     1     -32.197   7.652   1.948  1.00 20.00    -0.037 C 
HETATM    5  C7  UNL     1     -30.912   8.267   2.499  1.00 20.00     0.015 C 
HETATM    6  C8  UNL     1     -33.098   8.723   1.329  1.00 20.00     0.015 C 
ENDROOT
BRANCH   3   7
HETATM    7  C1  UNL     1     -34.115   7.127   3.725  1.00 20.00     0.128 C 
HETATM    8  C6  UNL     1     -33.866   8.118   4.829  1.00 20.00     0.091 C 
HETATM    9  O9  UNL     1     -35.247   6.721   3.466  1.00 20.00    -0.298 OA
ENDBRANCH   3   7
TORSDOF 1
ENDMDL
MODEL 9
REMARK VINA RESULT:       0.3      2.018      3.272
REMARK  1 active torsions:
REMARK  status: ('A' for Active; 'I' for Inactive)
REMARK    1  A    between atoms: C1_1  and  C4_4 
ROOT
HETATM    1  C2  UNL     1     -32.469   8.130   4.313  1.00 20.00     0.013 C 
HETATM    2  C3  UNL     1     -31.623   8.927   3.303  1.00 20.00     0.010 C 
HETATM    3  C4  UNL     1     -33.462   7.816   3.166  1.00 20.00     0.062 C 
HETATM    4  C5  UNL     1     -32.282   8.093   2.166  1.00 20.00    -0.037 C 
HETATM    5  C7  UNL     1     -32.690   8.922   0.950  1.00 20.00     0.015 C 
HETATM    6  C8  UNL     1     -31.451   6.877   1.749  1.00 20.00     0.015 C 
ENDROOT
BRANCH   3   7
HETATM    7  C1  UNL     1     -34.130   6.439   3.148  1.00 20.00     0.128 C 
HETATM    8  C6  UNL     1     -35.379   6.282   3.972  1.00 20.00     0.091 C 
HETATM    9  O9  UNL     1     -33.669   5.506   2.491  1.00 20.00    -0.298 OA
ENDBRANCH   3   7
TORSDOF 1
ENDMDL
