MODEL 1
REMARK VINA RESULT:       5.8      0.000      0.000
REMARK  0 active torsions:
REMARK  status: ('A' for Active; 'I' for Inactive)
ROOT
HETATM    1  C1  UNL     1     -33.114   7.976   0.968  1.00 20.00     0.009 C 
HETATM    2  C2  UNL     1     -32.763   7.848   3.449  1.00 20.00     0.012 C 
HETATM    3  C3  UNL     1     -31.286   6.533   1.898  1.00 20.00     0.012 C 
HETATM    4  C4  UNL     1     -34.787   6.789   2.413  1.00 20.00     0.012 C 
HETATM    5  C5  UNL     1     -33.313   5.478   0.866  1.00 20.00     0.012 C 
HETATM    6  C6  UNL     1     -32.057   7.854   2.080  1.00 20.00    -0.013 C 
HETATM    7  C7  UNL     1     -34.095   6.792   1.039  1.00 20.00    -0.013 C 
HETATM    8  C8  UNL     1     -33.739   6.661   3.533  1.00 20.00     0.021 C 
HETATM    9  C9  UNL     1     -32.256   5.342   1.977  1.00 20.00     0.021 C 
HETATM   10  C10 UNL     1     -32.949   5.358   3.348  1.00 20.00     0.178 C 
HETATM   11  F11 UNL     1     -33.801   4.301   3.432  1.00 20.00    -0.249 F 
ENDROOT
TORSDOF 0
ENDMDL
MODEL 2
REMARK VINA RESULT:       6.1      1.769      3.180
REMARK  0 active torsions:
REMARK  status: ('A' for Active; 'I' for Inactive)
ROOT
HETATM    1  C1  UNL     1     -35.316   6.063   3.880  1.00 20.00     0.009 C 
HETATM    2  C2  UNL     1     -33.085   5.140   3.197  1.00 20.00     0.012 C 
HETATM    3  C3  UNL     1     -33.212   7.092   4.776  1.00 20.00     0.012 C 
HETATM    4  C4  UNL     1     -34.484   6.397   1.538  1.00 20.00     0.012 C 
HETATM    5  C5  UNL     1     -34.610   8.343   3.112  1.00 20.00     0.012 C 
HETATM    6  C6  UNL     1     -33.882   5.770   4.356  1.00 20.00    -0.013 C 
HETATM    7  C7  UNL     1     -35.290   7.031   2.684  1.00 20.00    -0.013 C 
HETATM    8  C8  UNL     1     -33.045   6.106   2.000  1.00 20.00     0.021 C 
HETATM    9  C9  UNL     1     -33.172   8.064   3.584  1.00 20.00     0.021 C 
HETATM   10  C10 UNL     1     -32.375   7.414   2.443  1.00 20.00     0.178 C 
HETATM   11  F11 UNL     1     -32.324   8.271   1.388  1.00 20.00    -0.249 F 
ENDROOT
TORSDOF 0
ENDMDL
MODEL 3
REMARK VINA RESULT:       6.2      1.719      3.120
REMARK  0 active torsions:
REMARK  status: ('A' for Active; 'I' for Inactive)
ROOT
HETATM    1  C1  UNL     1     -33.024   5.259   3.104  1.00 20.00     0.009 C 
HETATM    2  C2  UNL     1     -32.841   7.667   3.786  1.00 20.00     0.012 C 
HETATM    3  C3  UNL     1     -34.790   6.894   2.399  1.00 20.00     0.012 C 
HETATM    4  C4  UNL     1     -31.260   6.722   2.083  1.00 20.00     0.012 C 
HETATM    5  C5  UNL     1     -33.203   5.952   0.700  1.00 20.00     0.012 C 
HETATM    6  C6  UNL     1     -33.820   6.505   3.531  1.00 20.00    -0.013 C 
HETATM    7  C7  UNL     1     -32.226   5.555   1.821  1.00 20.00    -0.013 C 
HETATM    8  C8  UNL     1     -32.047   7.976   2.505  1.00 20.00     0.021 C 
HETATM    9  C9  UNL     1     -34.002   7.201   1.113  1.00 20.00     0.021 C 
HETATM   10  C10 UNL     1     -33.033   8.360   1.393  1.00 20.00     0.178 C 
HETATM   11  F11 UNL     1     -32.339   8.647   0.258  1.00 20.00    -0.249 F 
ENDROOT
TORSDOF 0
ENDMDL
MODEL 4
REMARK VINA RESULT:       6.3      2.006      3.246
REMARK  0 active torsions:
REMARK  status: ('A' for Active; 'I' for Inactive)
ROOT
HETATM    1  C1  UNL     1     -33.380   5.942   3.228  1.00 20.00     0.009 C 
HETATM    2  C2  UNL     1     -33.756   6.408   0.792  1.00 20.00     0.012 C 
HETATM    3  C3  UNL     1     -31.418   6.194   1.687  1.00 20.00     0.012 C 
HETATM    4  C4  UNL     1     -34.243   8.182   2.497  1.00 20.00     0.012 C 
HETATM    5  C5  UNL     1     -31.910   7.968   3.390  1.00 20.00     0.012 C 
HETATM    6  C6  UNL     1     -32.861   5.670   1.805  1.00 20.00    -0.013 C 
HETATM    7  C7  UNL     1     -33.355   7.453   3.520  1.00 20.00    -0.013 C 
HETATM    8  C8  UNL     1     -33.728   7.921   1.070  1.00 20.00     0.021 C 
HETATM    9  C9  UNL     1     -31.382   7.706   1.969  1.00 20.00     0.021 C 
HETATM   10  C10 UNL     1     -32.281   8.420   0.948  1.00 20.00     0.178 C 
HETATM   11  F11 UNL     1     -32.248   9.760   1.181  1.00 20.00    -0.249 F 
ENDROOT
TORSDOF 0
ENDMDL
MODEL 5
REMARK VINA RESULT:       6.4      1.249      2.643
REMARK  0 active torsions:
REMARK  status: ('A' for Active; 'I' for Inactive)
ROOT
HETATM    1  C1  UNL     1     -32.892   5.519   0.752  1.00 20.00     0.009 C 
HETATM    2  C2  UNL     1     -34.800   6.590   1.980  1.00 20.00     0.012 C 
HETATM    3  C3  UNL     1     -33.057   8.018   0.868  1.00 20.00     0.012 C 
HETATM    4  C4  UNL     1     -33.002   5.394   3.255  1.00 20.00     0.012 C 
HETATM    5  C5  UNL     1     -31.263   6.819   2.147  1.00 20.00     0.012 C 
HETATM    6  C6  UNL     1     -33.864   6.712   0.762  1.00 20.00    -0.013 C 
HETATM    7  C7  UNL     1     -32.058   5.506   2.045  1.00 20.00    -0.013 C 
HETATM    8  C8  UNL     1     -33.975   6.586   3.279  1.00 20.00     0.021 C 
HETATM    9  C9  UNL     1     -32.226   8.020   2.163  1.00 20.00     0.021 C 
HETATM   10  C10 UNL     1     -33.179   7.896   3.362  1.00 20.00     0.178 C 
HETATM   11  F11 UNL     1     -32.454   7.908   4.513  1.00 20.00    -0.249 F 
ENDROOT
TORSDOF 0
ENDMDL
MODEL 6
REMARK VINA RESULT:       6.5      1.491      2.229
REMARK  0 active torsions:
REMARK  status: ('A' for Active; 'I' for Inactive)
ROOT
HETATM    1  C1  UNL     1     -33.185   9.199   1.701  1.00 20.00     0.009 C 
HETATM    2  C2  UNL     1     -33.656   7.126   3.034  1.00 20.00     0.012 C 
HETATM    3  C3  UNL     1     -31.347   8.119   3.022  1.00 20.00     0.012 C 
HETATM    4  C4  UNL     1     -33.621   7.025   0.528  1.00 20.00     0.012 C 
HETATM    5  C5  UNL     1     -31.319   8.015   0.516  1.00 20.00     0.012 C 
HETATM    6  C6  UNL     1     -32.853   8.441   2.998  1.00 20.00    -0.013 C 
HETATM    7  C7  UNL     1     -32.822   8.339   0.478  1.00 20.00    -0.013 C 
HETATM    8  C8  UNL     1     -33.292   6.254   1.819  1.00 20.00     0.021 C 
HETATM    9  C9  UNL     1     -30.975   7.251   1.807  1.00 20.00     0.021 C 
HETATM   10  C10 UNL     1     -31.788   5.949   1.863  1.00 20.00     0.178 C 
HETATM   11  F11 UNL     1     -31.457   5.168   0.799  1.00 20.00    -0.249 F 
ENDROOT
TORSDOF 0
ENDMDL
MODEL 7
REMARK VINA RESULT:       6.5      1.315      2.464
REMARK  0 active torsions:
REMARK  status: ('A' for Active; 'I' for Inactive)
ROOT
HETATM    1  C1  UNL     1     -33.108   5.643   0.611  1.00 20.00     0.009 C 
HETATM    2  C2  UNL     1     -31.293   6.629   2.036  1.00 20.00     0.012 C 
HETATM    3  C3  UNL     1     -32.936   5.008   3.031  1.00 20.00     0.012 C 
HETATM    4  C4  UNL     1     -33.192   8.067   1.251  1.00 20.00     0.012 C 
HETATM    5  C5  UNL     1     -34.831   6.452   2.245  1.00 20.00     0.012 C 
HETATM    6  C6  UNL     1     -32.132   5.364   1.768  1.00 20.00    -0.013 C 
HETATM    7  C7  UNL     1     -34.039   6.813   0.976  1.00 20.00    -0.013 C 
HETATM    8  C8  UNL     1     -32.215   7.801   2.411  1.00 20.00     0.021 C 
HETATM    9  C9  UNL     1     -33.865   6.176   3.410  1.00 20.00     0.021 C 
HETATM   10  C10 UNL     1     -33.007   7.424   3.671  1.00 20.00     0.178 C 
HETATM   11  F11 UNL     1     -33.818   8.460   4.018  1.00 20.00    -0.249 F 
ENDROOT
TORSDOF 0
ENDMDL
MODEL 8
REMARK VINA RESULT:       6.5      1.038      2.459
REMARK  0 active torsions:
REMARK  status: ('A' for Active; 'I' for Inactive)
ROOT
HETATM    1  C1  UNL     1     -33.003   7.752   3.471  1.00 20.00     0.009 C 
HETATM    2  C2  UNL     1     -31.125   6.910   2.036  1.00 20.00     0.012 C 
HETATM    3  C3  UNL     1     -33.008   8.219   1.008  1.00 20.00     0.012 C 
HETATM    4  C4  UNL     1     -32.782   5.296   3.006  1.00 20.00     0.012 C 
HETATM    5  C5  UNL     1     -34.660   6.602   1.980  1.00 20.00     0.012 C 
HETATM    6  C6  UNL     1     -32.116   8.069   2.254  1.00 20.00    -0.013 C 
HETATM    7  C7  UNL     1     -33.780   6.445   3.233  1.00 20.00    -0.013 C 
HETATM    8  C8  UNL     1     -31.894   5.600   1.786  1.00 20.00     0.021 C 
HETATM    9  C9  UNL     1     -33.783   6.914   0.754  1.00 20.00     0.021 C 
HETATM   10  C10 UNL     1     -32.775   5.775   0.541  1.00 20.00     0.178 C 
HETATM   11  F11 UNL     1     -33.451   4.618   0.305  1.00 20.00    -0.249 F 
ENDROOT
TORSDOF 0
ENDMDL
MODEL 9
REMARK VINA RESULT:       6.6      0.997      2.721
REMARK  0 active torsions:
REMARK  status: ('A' for Active; 'I' for Inactive)
ROOT
HETATM    1  C1  UNL     1     -31.543   8.507   1.245  1.00 20.00     0.009 C 
HETATM    2  C2  UNL     1     -33.485   7.132   0.449  1.00 20.00     0.012 C 
HETATM    3  C3  UNL     1     -33.822   8.880   2.224  1.00 20.00     0.012 C 
HETATM    4  C4  UNL     1     -31.685   6.073   1.838  1.00 20.00     0.012 C 
HETATM    5  C5  UNL     1     -32.021   7.816   3.608  1.00 20.00     0.012 C 
HETATM    6  C6  UNL     1     -33.051   8.527   0.938  1.00 20.00    -0.013 C 
HETATM    7  C7  UNL     1     -31.239   7.460   2.332  1.00 20.00    -0.013 C 
HETATM    8  C8  UNL     1     -33.194   6.080   1.534  1.00 20.00     0.021 C 
HETATM    9  C9  UNL     1     -33.532   7.833   3.315  1.00 20.00     0.021 C 
HETATM   10  C10 UNL     1     -33.971   6.453   2.804  1.00 20.00     0.178 C 
HETATM   11  F11 UNL     1     -33.729   5.522   3.766  1.00 20.00    -0.249 F 
ENDROOT
TORSDOF 0
ENDMDL
