MODEL 1
REMARK VINA RESULT:      -2.8      0.000      0.000
REMARK  0 active torsions:
REMARK  status: ('A' for Active; 'I' for Inactive)
ROOT
HETATM    1  C1  UNL     1     -33.139   8.216   3.122  1.00 20.00     0.105 C 
HETATM    2  C2  UNL     1     -33.194   6.570   1.764  1.00 20.00     0.260 C 
HETATM    3  C3  UNL     1     -33.492   6.722   3.276  1.00 20.00     0.128 C 
HETATM    4  C4  UNL     1     -32.278   7.815   1.902  1.00 20.00     0.276 C 
HETATM    5  F5  UNL     1     -32.578   5.424   1.397  1.00 20.00    -0.241 F 
HETATM    6  F6  UNL     1     -30.979   7.551   2.170  1.00 20.00    -0.203 F 
HETATM    7  F7  UNL     1     -32.297   8.675   0.860  1.00 20.00    -0.203 F 
HETATM    8 CL8  UNL     1     -35.115   6.287   3.879  1.00 20.00    -0.122 Cl
ENDROOT
TORSDOF 0
ENDMDL
MODEL 2
REMARK VINA RESULT:      -2.5      1.261      2.513
REMARK  0 active torsions:
REMARK  status: ('A' for Active; 'I' for Inactive)
ROOT
HETATM    1  C1  UNL     1     -33.499   5.774   2.925  1.00 20.00     0.105 C 
HETATM    2  C2  UNL     1     -32.383   7.439   2.188  1.00 20.00     0.260 C 
HETATM    3  C3  UNL     1     -33.653   7.304   3.064  1.00 20.00     0.128 C 
HETATM    4  C4  UNL     1     -32.732   6.042   1.609  1.00 20.00     0.276 C 
HETATM    5  F5  UNL     1     -32.385   8.460   1.302  1.00 20.00    -0.241 F 
HETATM    6  F6  UNL     1     -33.489   6.052   0.488  1.00 20.00    -0.203 F 
HETATM    7  F7  UNL     1     -31.681   5.229   1.365  1.00 20.00    -0.203 F 
HETATM    8 CL8  UNL     1     -33.648   8.016   4.700  1.00 20.00    -0.122 Cl
ENDROOT
TORSDOF 0
ENDMDL
MODEL 3
REMARK VINA RESULT:      -2.5      2.928      3.667
REMARK  0 active torsions:
REMARK  status: ('A' for Active; 'I' for Inactive)
ROOT
HETATM    1  C1  UNL     1     -33.866   6.240   2.213  1.00 20.00     0.105 C 
HETATM    2  C2  UNL     1     -33.843   7.693   3.778  1.00 20.00     0.260 C 
HETATM    3  C3  UNL     1     -32.778   7.178   2.779  1.00 20.00     0.128 C 
HETATM    4  C4  UNL     1     -34.560   6.329   3.592  1.00 20.00     0.276 C 
HETATM    5  F5  UNL     1     -33.400   7.960   5.027  1.00 20.00    -0.241 F 
HETATM    6  F6  UNL     1     -34.213   5.368   4.479  1.00 20.00    -0.203 F 
HETATM    7  F7  UNL     1     -35.910   6.374   3.570  1.00 20.00    -0.203 F 
HETATM    8 CL8  UNL     1     -32.001   8.345   1.675  1.00 20.00    -0.122 Cl
ENDROOT
TORSDOF 0
ENDMDL
MODEL 4
REMARK VINA RESULT:      -2.2      3.025      3.400
REMARK  0 active torsions:
REMARK  status: ('A' for Active; 'I' for Inactive)
ROOT
HETATM    1  C1  UNL     1     -33.637   7.284   2.496  1.00 20.00     0.105 C 
HETATM    2  C2  UNL     1     -33.567   5.497   3.661  1.00 20.00     0.260 C 
HETATM    3  C3  UNL     1     -33.382   5.801   2.154  1.00 20.00     0.128 C 
HETATM    4  C4  UNL     1     -34.420   6.792   3.735  1.00 20.00     0.276 C 
HETATM    5  F5  UNL     1     -34.216   4.348   3.954  1.00 20.00    -0.241 F 
HETATM    6  F6  UNL     1     -35.750   6.620   3.551  1.00 20.00    -0.203 F 
HETATM    7  F7  UNL     1     -34.271   7.529   4.857  1.00 20.00    -0.203 F 
HETATM    8 CL8  UNL     1     -31.839   5.360   1.373  1.00 20.00    -0.122 Cl
ENDROOT
TORSDOF 0
ENDMDL
MODEL 5
REMARK VINA RESULT:      -2.2      2.684      3.079
REMARK  0 active torsions:
REMARK  status: ('A' for Active; 'I' for Inactive)
ROOT
HETATM    1  C1  UNL     1     -32.704   7.748   2.705  1.00 20.00     0.105 C 
HETATM    2  C2  UNL     1     -33.838   6.195   3.632  1.00 20.00     0.260 C 
HETATM    3  C3  UNL     1     -33.434   6.498   2.168  1.00 20.00     0.128 C 
HETATM    4  C4  UNL     1     -33.677   7.714   3.906  1.00 20.00     0.276 C 
HETATM    5  F5  UNL     1     -35.082   5.694   3.808  1.00 20.00    -0.241 F 
HETATM    6  F6  UNL     1     -34.802   8.451   3.763  1.00 20.00    -0.203 F 
HETATM    7  F7  UNL     1     -33.144   8.040   5.104  1.00 20.00    -0.203 F 
HETATM    8 CL8  UNL     1     -32.491   5.280   1.268  1.00 20.00    -0.122 Cl
ENDROOT
TORSDOF 0
ENDMDL
MODEL 6
REMARK VINA RESULT:      -2.0      2.952      3.501
REMARK  0 active torsions:
REMARK  status: ('A' for Active; 'I' for Inactive)
ROOT
HETATM    1  C1  UNL     1     -35.287   5.144   4.725  1.00 20.00     0.105 C 
HETATM    2  C2  UNL     1     -34.138   5.560   2.974  1.00 20.00     0.260 C 
HETATM    3  C3  UNL     1     -33.871   4.741   4.261  1.00 20.00     0.128 C 
HETATM    4  C4  UNL     1     -35.161   6.381   3.806  1.00 20.00     0.276 C 
HETATM    5  F5  UNL     1     -33.085   6.254   2.488  1.00 20.00    -0.241 F 
HETATM    6  F6  UNL     1     -34.667   7.494   4.395  1.00 20.00    -0.203 F 
HETATM    7  F7  UNL     1     -36.286   6.747   3.155  1.00 20.00    -0.203 F 
HETATM    8 CL8  UNL     1     -33.485   3.006   4.109  1.00 20.00    -0.122 Cl
ENDROOT
TORSDOF 0
ENDMDL
MODEL 7
REMARK VINA RESULT:      -1.9      1.571      2.256
REMARK  0 active torsions:
REMARK  status: ('A' for Active; 'I' for Inactive)
ROOT
HETATM    1  C1  UNL     1     -32.556   6.014   1.836  1.00 20.00     0.105 C 
HETATM    2  C2  UNL     1     -33.208   7.247   3.453  1.00 20.00     0.260 C 
HETATM    3  C3  UNL     1     -33.796   5.996   2.755  1.00 20.00     0.128 C 
HETATM    4  C4  UNL     1     -32.449   7.529   2.128  1.00 20.00     0.276 C 
HETATM    5  F5  UNL     1     -34.103   8.188   3.829  1.00 20.00    -0.241 F 
HETATM    6  F6  UNL     1     -33.091   8.336   1.253  1.00 20.00    -0.203 F 
HETATM    7  F7  UNL     1     -31.195   8.015   2.263  1.00 20.00    -0.203 F 
HETATM    8 CL8  UNL     1     -34.111   4.537   3.733  1.00 20.00    -0.122 Cl
ENDROOT
TORSDOF 0
ENDMDL
MODEL 8
REMARK VINA RESULT:      -1.9      1.780      2.129
REMARK  0 active torsions:
REMARK  status: ('A' for Active; 'I' for Inactive)
ROOT
HETATM    1  C1  UNL     1     -32.800   7.403   1.897  1.00 20.00     0.105 C 
HETATM    2  C2  UNL     1     -33.748   5.702   2.773  1.00 20.00     0.260 C 
HETATM    3  C3  UNL     1     -33.081   6.973   3.353  1.00 20.00     0.128 C 
HETATM    4  C4  UNL     1     -32.856   5.905   1.518  1.00 20.00     0.276 C 
HETATM    5  F5  UNL     1     -33.538   4.559   3.464  1.00 20.00    -0.241 F 
HETATM    6  F6  UNL     1     -31.669   5.255   1.540  1.00 20.00    -0.203 F 
HETATM    7  F7  UNL     1     -33.439   5.619   0.333  1.00 20.00    -0.203 F 
HETATM    8 CL8  UNL     1     -34.051   8.055   4.389  1.00 20.00    -0.122 Cl
ENDROOT
TORSDOF 0
ENDMDL
MODEL 9
REMARK VINA RESULT:      -1.9      2.608      3.392
REMARK  0 active torsions:
REMARK  status: ('A' for Active; 'I' for Inactive)
ROOT
HETATM    1  C1  UNL     1     -33.956   7.621   4.166  1.00 20.00     0.105 C 
HETATM    2  C2  UNL     1     -33.497   6.165   2.674  1.00 20.00     0.260 C 
HETATM    3  C3  UNL     1     -33.265   7.691   2.788  1.00 20.00     0.128 C 
HETATM    4  C4  UNL     1     -34.682   6.354   3.659  1.00 20.00     0.276 C 
HETATM    5  F5  UNL     1     -33.822   5.708   1.444  1.00 20.00    -0.241 F 
HETATM    6  F6  UNL     1     -35.887   6.566   3.081  1.00 20.00    -0.203 F 
HETATM    7  F7  UNL     1     -34.851   5.369   4.568  1.00 20.00    -0.203 F 
HETATM    8 CL8  UNL     1     -31.594   8.314   2.703  1.00 20.00    -0.122 Cl
ENDROOT
TORSDOF 0
ENDMDL
