MODEL 1
REMARK VINA RESULT:      -1.1      0.000      0.000
REMARK  1 active torsions:
REMARK  status: ('A' for Active; 'I' for Inactive)
REMARK    1  A    between atoms: C2_2  and  C3_3 
ROOT
HETATM    1  C1  UNL     1     -35.392   6.739   3.064  1.00 20.00     0.058 C 
HETATM    2  C2  UNL     1     -33.922   6.390   3.290  1.00 20.00     0.189 C 
HETATM    3 CL6  UNL     1     -33.223   7.529   4.492  1.00 20.00    -0.094 Cl
HETATM    4 CL7  UNL     1     -33.847   4.740   4.015  1.00 20.00    -0.094 Cl
ENDROOT
BRANCH   2   5
HETATM    5  C3  UNL     1     -33.094   6.393   1.998  1.00 20.00     0.354 C 
HETATM    6  F4  UNL     1     -33.924   6.290   0.925  1.00 20.00    -0.184 F 
HETATM    7  F5  UNL     1     -32.286   5.300   1.959  1.00 20.00    -0.184 F 
HETATM    8 CL8  UNL     1     -32.089   7.846   1.785  1.00 20.00    -0.045 Cl
ENDBRANCH   2   5
TORSDOF 1
ENDMDL
MODEL 2
REMARK VINA RESULT:      -1.0      1.170      1.686
REMARK  1 active torsions:
REMARK  status: ('A' for Active; 'I' for Inactive)
REMARK    1  A    between atoms: C2_2  and  C3_3 
ROOT
HETATM    1  C1  UNL     1     -33.500   7.410   4.317  1.00 20.00     0.058 C 
HETATM    2  C2  UNL     1     -33.968   6.375   3.296  1.00 20.00     0.189 C 
HETATM    3 CL6  UNL     1     -33.941   4.745   4.052  1.00 20.00    -0.094 Cl
HETATM    4 CL7  UNL     1     -35.685   6.740   2.881  1.00 20.00    -0.094 Cl
ENDROOT
BRANCH   2   5
HETATM    5  C3  UNL     1     -33.141   6.384   2.003  1.00 20.00     0.354 C 
HETATM    6  F4  UNL     1     -33.973   6.310   0.929  1.00 20.00    -0.184 F 
HETATM    7  F5  UNL     1     -32.352   5.278   1.947  1.00 20.00    -0.184 F 
HETATM    8 CL8  UNL     1     -32.112   7.823   1.812  1.00 20.00    -0.045 Cl
ENDBRANCH   2   5
TORSDOF 1
ENDMDL
MODEL 3
REMARK VINA RESULT:      -0.9      1.172      1.719
REMARK  1 active torsions:
REMARK  status: ('A' for Active; 'I' for Inactive)
REMARK    1  A    between atoms: C2_2  and  C3_3 
ROOT
HETATM    1  C1  UNL     1     -33.891   4.967   3.982  1.00 20.00     0.058 C 
HETATM    2  C2  UNL     1     -33.950   6.323   3.282  1.00 20.00     0.189 C 
HETATM    3 CL6  UNL     1     -35.666   6.744   2.952  1.00 20.00    -0.094 Cl
HETATM    4 CL7  UNL     1     -33.307   7.565   4.420  1.00 20.00    -0.094 Cl
ENDROOT
BRANCH   2   5
HETATM    5  C3  UNL     1     -33.123   6.372   1.989  1.00 20.00     0.354 C 
HETATM    6  F4  UNL     1     -33.954   6.305   0.914  1.00 20.00    -0.184 F 
HETATM    7  F5  UNL     1     -32.314   5.282   1.912  1.00 20.00    -0.184 F 
HETATM    8 CL8  UNL     1     -32.120   7.833   1.826  1.00 20.00    -0.045 Cl
ENDBRANCH   2   5
TORSDOF 1
ENDMDL
MODEL 4
REMARK VINA RESULT:      -0.8      2.260      2.975
REMARK  1 active torsions:
REMARK  status: ('A' for Active; 'I' for Inactive)
REMARK    1  A    between atoms: C2_2  and  C3_3 
ROOT
HETATM    1  C1  UNL     1     -31.952   5.246   1.671  1.00 20.00     0.058 C 
HETATM    2  C2  UNL     1     -32.864   6.471   1.723  1.00 20.00     0.189 C 
HETATM    3 CL6  UNL     1     -33.884   6.511   0.244  1.00 20.00    -0.094 Cl
HETATM    4 CL7  UNL     1     -33.974   6.278   3.131  1.00 20.00    -0.094 Cl
ENDROOT
BRANCH   2   5
HETATM    5  C3  UNL     1     -32.095   7.790   1.885  1.00 20.00     0.354 C 
HETATM    6  F4  UNL     1     -30.759   7.552   1.802  1.00 20.00    -0.184 F 
HETATM    7  F5  UNL     1     -32.312   8.306   3.124  1.00 20.00    -0.184 F 
HETATM    8 CL8  UNL     1     -32.516   9.027   0.676  1.00 20.00    -0.045 Cl
ENDBRANCH   2   5
TORSDOF 1
ENDMDL
MODEL 5
REMARK VINA RESULT:      -0.7      2.261      2.668
REMARK  1 active torsions:
REMARK  status: ('A' for Active; 'I' for Inactive)
REMARK    1  A    between atoms: C2_2  and  C3_3 
ROOT
HETATM    1  C1  UNL     1     -33.736   6.487   0.459  1.00 20.00     0.058 C 
HETATM    2  C2  UNL     1     -32.858   6.494   1.709  1.00 20.00     0.189 C 
HETATM    3 CL6  UNL     1     -33.878   6.156   3.150  1.00 20.00    -0.094 Cl
HETATM    4 CL7  UNL     1     -31.675   5.140   1.566  1.00 20.00    -0.094 Cl
ENDROOT
BRANCH   2   5
HETATM    5  C3  UNL     1     -32.079   7.804   1.894  1.00 20.00     0.354 C 
HETATM    6  F4  UNL     1     -30.745   7.557   1.805  1.00 20.00    -0.184 F 
HETATM    7  F5  UNL     1     -32.291   8.300   3.142  1.00 20.00    -0.184 F 
HETATM    8 CL8  UNL     1     -32.492   9.065   0.707  1.00 20.00    -0.045 Cl
ENDBRANCH   2   5
TORSDOF 1
ENDMDL
MODEL 6
REMARK VINA RESULT:      -0.7      1.645      3.011
REMARK  1 active torsions:
REMARK  status: ('A' for Active; 'I' for Inactive)
REMARK    1  A    between atoms: C2_2  and  C3_3 
ROOT
HETATM    1  C1  UNL     1     -31.970   5.266   1.818  1.00 20.00     0.058 C 
HETATM    2  C2  UNL     1     -33.001   6.393   1.850  1.00 20.00     0.189 C 
HETATM    3 CL6  UNL     1     -32.154   7.972   1.713  1.00 20.00    -0.094 Cl
HETATM    4 CL7  UNL     1     -34.054   6.226   0.396  1.00 20.00    -0.094 Cl
ENDROOT
BRANCH   2   5
HETATM    5  C3  UNL     1     -33.890   6.364   3.102  1.00 20.00     0.354 C 
HETATM    6  F4  UNL     1     -33.738   5.172   3.740  1.00 20.00    -0.184 F 
HETATM    7  F5  UNL     1     -35.200   6.438   2.745  1.00 20.00    -0.184 F 
HETATM    8 CL8  UNL     1     -33.546   7.666   4.265  1.00 20.00    -0.045 Cl
ENDBRANCH   2   5
TORSDOF 1
ENDMDL
MODEL 7
REMARK VINA RESULT:      -0.7      2.343      3.424
REMARK  1 active torsions:
REMARK  status: ('A' for Active; 'I' for Inactive)
REMARK    1  A    between atoms: C2_2  and  C3_3 
ROOT
HETATM    1  C1  UNL     1     -32.765   8.759   1.167  1.00 20.00     0.058 C 
HETATM    2  C2  UNL     1     -32.385   7.783   2.279  1.00 20.00     0.189 C 
HETATM    3 CL6  UNL     1     -32.027   6.177   1.557  1.00 20.00    -0.094 Cl
HETATM    4 CL7  UNL     1     -30.862   8.375   3.042  1.00 20.00    -0.094 Cl
ENDROOT
BRANCH   2   5
HETATM    5  C3  UNL     1     -33.460   7.658   3.368  1.00 20.00     0.354 C 
HETATM    6  F4  UNL     1     -34.433   8.585   3.156  1.00 20.00    -0.184 F 
HETATM    7  F5  UNL     1     -32.925   7.942   4.585  1.00 20.00    -0.184 F 
HETATM    8 CL8  UNL     1     -34.227   6.054   3.447  1.00 20.00    -0.045 Cl
ENDBRANCH   2   5
TORSDOF 1
ENDMDL
MODEL 8
REMARK VINA RESULT:      -0.6      2.601      2.964
REMARK  1 active torsions:
REMARK  status: ('A' for Active; 'I' for Inactive)
REMARK    1  A    between atoms: C2_2  and  C3_3 
ROOT
HETATM    1  C1  UNL     1     -33.706   6.084   2.923  1.00 20.00     0.058 C 
HETATM    2  C2  UNL     1     -32.809   6.430   1.736  1.00 20.00     0.189 C 
HETATM    3 CL6  UNL     1     -31.626   5.101   1.483  1.00 20.00    -0.094 Cl
HETATM    4 CL7  UNL     1     -33.843   6.510   0.261  1.00 20.00    -0.094 Cl
ENDROOT
BRANCH   2   5
HETATM    5  C3  UNL     1     -32.085   7.774   1.897  1.00 20.00     0.354 C 
HETATM    6  F4  UNL     1     -30.740   7.579   1.826  1.00 20.00    -0.184 F 
HETATM    7  F5  UNL     1     -32.329   8.291   3.131  1.00 20.00    -0.184 F 
HETATM    8 CL8  UNL     1     -32.535   8.990   0.677  1.00 20.00    -0.045 Cl
ENDBRANCH   2   5
TORSDOF 1
ENDMDL
MODEL 9
REMARK VINA RESULT:      -0.5      2.065      3.115
REMARK  1 active torsions:
REMARK  status: ('A' for Active; 'I' for Inactive)
REMARK    1  A    between atoms: C2_2  and  C3_3 
ROOT
HETATM    1  C1  UNL     1     -32.299   7.770   1.780  1.00 20.00     0.058 C 
HETATM    2  C2  UNL     1     -33.013   6.421   1.859  1.00 20.00     0.189 C 
HETATM    3 CL6  UNL     1     -34.035   6.208   0.396  1.00 20.00    -0.094 Cl
HETATM    4 CL7  UNL     1     -31.758   5.126   1.825  1.00 20.00    -0.094 Cl
ENDROOT
BRANCH   2   5
HETATM    5  C3  UNL     1     -33.852   6.255   3.133  1.00 20.00     0.354 C 
HETATM    6  F4  UNL     1     -35.147   6.579   2.871  1.00 20.00    -0.184 F 
HETATM    7  F5  UNL     1     -33.429   7.126   4.087  1.00 20.00    -0.184 F 
HETATM    8 CL8  UNL     1     -33.817   4.610   3.813  1.00 20.00    -0.045 Cl
ENDBRANCH   2   5
TORSDOF 1
ENDMDL
