MODEL 1
REMARK VINA RESULT:      -2.8      0.000      0.000
REMARK  1 active torsions:
REMARK  status: ('A' for Active; 'I' for Inactive)
REMARK    1  A    between atoms: C1_1  and  C2_2 
ROOT
HETATM    1  C2  UNL     1     -32.095   7.965   1.996  1.00 20.00     0.357 C 
HETATM    2  F5  UNL     1     -31.349   8.471   3.008  1.00 20.00    -0.187 F 
HETATM    3  F6  UNL     1     -31.385   6.945   1.453  1.00 20.00    -0.187 F 
HETATM    4 BR7  UNL     1     -32.412   9.329   0.655  1.00 20.00    -0.005 Br
ENDROOT
BRANCH   1   5
HETATM    5  C1  UNL     1     -33.399   7.440   2.537  1.00 20.00     0.436 C 
HETATM    6  F3  UNL     1     -33.476   7.660   3.872  1.00 20.00    -0.207 F 
HETATM    7  F4  UNL     1     -33.440   6.094   2.364  1.00 20.00    -0.207 F 
ENDBRANCH   1   5
TORSDOF 1
ENDMDL
MODEL 2
REMARK VINA RESULT:      -2.6      2.293      2.897
REMARK  1 active torsions:
REMARK  status: ('A' for Active; 'I' for Inactive)
REMARK    1  A    between atoms: C1_1  and  C2_2 
ROOT
HETATM    1  C2  UNL     1     -33.825   7.611   3.815  1.00 20.00     0.357 C 
HETATM    2  F5  UNL     1     -34.755   8.575   3.602  1.00 20.00    -0.187 F 
HETATM    3  F6  UNL     1     -33.145   7.958   4.935  1.00 20.00    -0.187 F 
HETATM    4 BR7  UNL     1     -32.605   7.518   2.310  1.00 20.00    -0.005 Br
ENDROOT
BRANCH   1   5
HETATM    5  C1  UNL     1     -34.505   6.285   4.029  1.00 20.00     0.436 C 
HETATM    6  F3  UNL     1     -33.934   5.333   3.252  1.00 20.00    -0.207 F 
HETATM    7  F4  UNL     1     -35.800   6.382   3.633  1.00 20.00    -0.207 F 
ENDBRANCH   1   5
TORSDOF 1
ENDMDL
MODEL 3
REMARK VINA RESULT:      -2.6      1.011      1.395
REMARK  1 active torsions:
REMARK  status: ('A' for Active; 'I' for Inactive)
REMARK    1  A    between atoms: C1_1  and  C2_2 
ROOT
HETATM    1  C2  UNL     1     -32.086   7.832   1.897  1.00 20.00     0.357 C 
HETATM    2  F5  UNL     1     -32.551   8.214   3.112  1.00 20.00    -0.187 F 
HETATM    3  F6  UNL     1     -30.752   7.633   2.030  1.00 20.00    -0.187 F 
HETATM    4 BR7  UNL     1     -32.415   9.224   0.589  1.00 20.00    -0.005 Br
ENDROOT
BRANCH   1   5
HETATM    5  C1  UNL     1     -32.748   6.545   1.480  1.00 20.00     0.436 C 
HETATM    6  F3  UNL     1     -33.564   6.096   2.465  1.00 20.00    -0.207 F 
HETATM    7  F4  UNL     1     -31.796   5.594   1.303  1.00 20.00    -0.207 F 
ENDBRANCH   1   5
TORSDOF 1
ENDMDL
MODEL 4
REMARK VINA RESULT:      -2.6      2.872      3.639
REMARK  1 active torsions:
REMARK  status: ('A' for Active; 'I' for Inactive)
REMARK    1  A    between atoms: C1_1  and  C2_2 
ROOT
HETATM    1  C2  UNL     1     -34.446   6.521   3.620  1.00 20.00     0.357 C 
HETATM    2  F5  UNL     1     -35.714   6.710   3.179  1.00 20.00    -0.187 F 
HETATM    3  F6  UNL     1     -34.161   7.551   4.455  1.00 20.00    -0.187 F 
HETATM    4 BR7  UNL     1     -33.211   6.528   2.125  1.00 20.00    -0.005 Br
ENDROOT
BRANCH   1   5
HETATM    5  C1  UNL     1     -34.357   5.221   4.375  1.00 20.00     0.436 C 
HETATM    6  F3  UNL     1     -33.770   4.271   3.607  1.00 20.00    -0.207 F 
HETATM    7  F4  UNL     1     -35.612   4.779   4.645  1.00 20.00    -0.207 F 
ENDBRANCH   1   5
TORSDOF 1
ENDMDL
MODEL 5
REMARK VINA RESULT:      -2.6      1.830      2.102
REMARK  1 active torsions:
REMARK  status: ('A' for Active; 'I' for Inactive)
REMARK    1  A    between atoms: C1_1  and  C2_2 
ROOT
HETATM    1  C2  UNL     1     -32.977   6.252   1.829  1.00 20.00     0.357 C 
HETATM    2  F5  UNL     1     -32.124   5.207   1.964  1.00 20.00    -0.187 F 
HETATM    3  F6  UNL     1     -33.633   6.077   0.655  1.00 20.00    -0.187 F 
HETATM    4 BR7  UNL     1     -31.987   7.919   1.784  1.00 20.00    -0.005 Br
ENDROOT
BRANCH   1   5
HETATM    5  C1  UNL     1     -33.967   6.253   2.964  1.00 20.00     0.436 C 
HETATM    6  F3  UNL     1     -33.708   7.277   3.812  1.00 20.00    -0.207 F 
HETATM    7  F4  UNL     1     -33.819   5.110   3.681  1.00 20.00    -0.207 F 
ENDBRANCH   1   5
TORSDOF 1
ENDMDL
MODEL 6
REMARK VINA RESULT:      -2.6      2.802      3.816
REMARK  1 active torsions:
REMARK  status: ('A' for Active; 'I' for Inactive)
REMARK    1  A    between atoms: C1_1  and  C2_2 
ROOT
HETATM    1  C2  UNL     1     -34.700   6.449   3.773  1.00 20.00     0.357 C 
HETATM    2  F5  UNL     1     -34.497   7.285   4.820  1.00 20.00    -0.187 F 
HETATM    3  F6  UNL     1     -36.003   6.570   3.417  1.00 20.00    -0.187 F 
HETATM    4 BR7  UNL     1     -34.331   4.619   4.299  1.00 20.00    -0.005 Br
ENDROOT
BRANCH   1   5
HETATM    5  C1  UNL     1     -33.823   6.856   2.618  1.00 20.00     0.436 C 
HETATM    6  F3  UNL     1     -33.136   5.786   2.150  1.00 20.00    -0.207 F 
HETATM    7  F4  UNL     1     -32.898   7.747   3.057  1.00 20.00    -0.207 F 
ENDBRANCH   1   5
TORSDOF 1
ENDMDL
MODEL 7
REMARK VINA RESULT:      -2.5      2.042      2.785
REMARK  1 active torsions:
REMARK  status: ('A' for Active; 'I' for Inactive)
REMARK    1  A    between atoms: C1_1  and  C2_2 
ROOT
HETATM    1  C2  UNL     1     -32.833   6.488   1.793  1.00 20.00     0.357 C 
HETATM    2  F5  UNL     1     -33.585   6.424   0.666  1.00 20.00    -0.187 F 
HETATM    3  F6  UNL     1     -32.114   5.340   1.854  1.00 20.00    -0.187 F 
HETATM    4 BR7  UNL     1     -33.978   6.629   3.351  1.00 20.00    -0.005 Br
ENDROOT
BRANCH   1   5
HETATM    5  C1  UNL     1     -31.896   7.665   1.714  1.00 20.00     0.436 C 
HETATM    6  F3  UNL     1     -31.801   8.270   2.923  1.00 20.00    -0.207 F 
HETATM    7  F4  UNL     1     -32.412   8.585   0.860  1.00 20.00    -0.207 F 
ENDBRANCH   1   5
TORSDOF 1
ENDMDL
MODEL 8
REMARK VINA RESULT:      -2.4      2.351      3.063
REMARK  1 active torsions:
REMARK  status: ('A' for Active; 'I' for Inactive)
REMARK    1  A    between atoms: C1_1  and  C2_2 
ROOT
HETATM    1  C2  UNL     1     -33.881   7.544   3.768  1.00 20.00     0.357 C 
HETATM    2  F5  UNL     1     -33.316   7.904   4.946  1.00 20.00    -0.187 F 
HETATM    3  F6  UNL     1     -34.563   8.623   3.310  1.00 20.00    -0.187 F 
HETATM    4 BR7  UNL     1     -35.102   6.062   4.039  1.00 20.00    -0.005 Br
ENDROOT
BRANCH   1   5
HETATM    5  C1  UNL     1     -32.807   7.172   2.780  1.00 20.00     0.436 C 
HETATM    6  F3  UNL     1     -32.511   8.230   1.986  1.00 20.00    -0.207 F 
HETATM    7  F4  UNL     1     -33.275   6.195   1.962  1.00 20.00    -0.207 F 
ENDBRANCH   1   5
TORSDOF 1
ENDMDL
MODEL 9
REMARK VINA RESULT:      -2.4      2.283      3.392
REMARK  1 active torsions:
REMARK  status: ('A' for Active; 'I' for Inactive)
REMARK    1  A    between atoms: C1_1  and  C2_2 
ROOT
HETATM    1  C2  UNL     1     -34.258   6.461   3.475  1.00 20.00     0.357 C 
HETATM    2  F5  UNL     1     -35.594   6.571   3.272  1.00 20.00    -0.187 F 
HETATM    3  F6  UNL     1     -34.041   5.240   4.024  1.00 20.00    -0.187 F 
HETATM    4 BR7  UNL     1     -33.651   7.844   4.690  1.00 20.00    -0.005 Br
ENDROOT
BRANCH   1   5
HETATM    5  C1  UNL     1     -33.534   6.556   2.158  1.00 20.00     0.436 C 
HETATM    6  F3  UNL     1     -32.881   5.397   1.896  1.00 20.00    -0.207 F 
HETATM    7  F4  UNL     1     -32.585   7.523   2.242  1.00 20.00    -0.207 F 
ENDBRANCH   1   5
TORSDOF 1
ENDMDL
