MODEL 1
REMARK VINA RESULT:       0.6      0.000      0.000
REMARK  0 active torsions:
REMARK  status: ('A' for Active; 'I' for Inactive)
ROOT
HETATM    1  C1  UNL     1     -35.019   7.802   3.484  1.00 20.00    -0.020 A 
HETATM    2  C2  UNL     1     -35.402   6.558   3.144  1.00 20.00    -0.020 A 
HETATM    3  C3  UNL     1     -32.835   6.947   1.488  1.00 20.00     0.002 C 
HETATM    4  C4  UNL     1     -32.540   7.820   2.702  1.00 20.00     0.014 C 
HETATM    5  C5  UNL     1     -33.223   5.604   2.097  1.00 20.00     0.014 C 
HETATM    6  C6  UNL     1     -33.573   7.400   3.764  1.00 20.00    -0.016 A 
HETATM    7  C7  UNL     1     -34.018   5.950   3.369  1.00 20.00    -0.016 A 
HETATM    8  C8  UNL     1     -33.104   7.692   5.183  1.00 20.00     0.020 C 
HETATM    9  C9  UNL     1     -33.983   4.834   4.403  1.00 20.00     0.020 C 
ENDROOT
TORSDOF 0
ENDMDL
MODEL 2
REMARK VINA RESULT:       0.9      0.993      2.921
REMARK  0 active torsions:
REMARK  status: ('A' for Active; 'I' for Inactive)
ROOT
HETATM    1  C1  UNL     1     -34.246   7.444   4.490  1.00 20.00    -0.020 A 
HETATM    2  C2  UNL     1     -33.086   7.195   3.857  1.00 20.00    -0.020 A 
HETATM    3  C3  UNL     1     -34.060   4.372   4.612  1.00 20.00     0.002 C 
HETATM    4  C4  UNL     1     -35.384   5.108   4.441  1.00 20.00     0.014 C 
HETATM    5  C5  UNL     1     -33.317   4.663   3.313  1.00 20.00     0.014 C 
HETATM    6  C6  UNL     1     -35.034   6.406   3.692  1.00 20.00    -0.016 A 
HETATM    7  C7  UNL     1     -33.682   6.115   2.954  1.00 20.00    -0.016 A 
HETATM    8  C8  UNL     1     -36.216   6.974   2.919  1.00 20.00     0.020 C 
HETATM    9  C9  UNL     1     -33.551   6.401   1.465  1.00 20.00     0.020 C 
ENDROOT
TORSDOF 0
ENDMDL
MODEL 3
REMARK VINA RESULT:       1.3      1.140      3.376
REMARK  0 active torsions:
REMARK  status: ('A' for Active; 'I' for Inactive)
ROOT
HETATM    1  C1  UNL     1     -33.545   5.536   0.676  1.00 20.00    -0.020 A 
HETATM    2  C2  UNL     1     -33.661   6.876   0.673  1.00 20.00    -0.020 A 
HETATM    3  C3  UNL     1     -34.413   6.143   3.568  1.00 20.00     0.002 C 
HETATM    4  C4  UNL     1     -33.437   5.024   3.222  1.00 20.00     0.014 C 
HETATM    5  C5  UNL     1     -33.645   7.412   3.217  1.00 20.00     0.014 C 
HETATM    6  C6  UNL     1     -32.707   5.501   1.953  1.00 20.00    -0.016 A 
HETATM    7  C7  UNL     1     -32.843   7.062   1.950  1.00 20.00    -0.016 A 
HETATM    8  C8  UNL     1     -31.339   4.855   1.788  1.00 20.00     0.020 C 
HETATM    9  C9  UNL     1     -31.606   7.933   1.781  1.00 20.00     0.020 C 
ENDROOT
TORSDOF 0
ENDMDL
MODEL 4
REMARK VINA RESULT:       1.4      0.924      2.740
REMARK  0 active torsions:
REMARK  status: ('A' for Active; 'I' for Inactive)
ROOT
HETATM    1  C1  UNL     1     -33.256   4.988   3.311  1.00 20.00    -0.020 A 
HETATM    2  C2  UNL     1     -34.239   5.220   4.200  1.00 20.00    -0.020 A 
HETATM    3  C3  UNL     1     -32.751   7.916   4.119  1.00 20.00     0.002 C 
HETATM    4  C4  UNL     1     -32.514   7.403   2.704  1.00 20.00     0.014 C 
HETATM    5  C5  UNL     1     -34.263   7.818   4.288  1.00 20.00     0.014 C 
HETATM    6  C6  UNL     1     -33.527   6.260   2.511  1.00 20.00    -0.016 A 
HETATM    7  C7  UNL     1     -34.672   6.532   3.547  1.00 20.00    -0.016 A 
HETATM    8  C8  UNL     1     -33.867   6.020   1.047  1.00 20.00     0.020 C 
HETATM    9  C9  UNL     1     -36.123   6.556   3.089  1.00 20.00     0.020 C 
ENDROOT
TORSDOF 0
ENDMDL
MODEL 5
REMARK VINA RESULT:       1.4      1.304      3.211
REMARK  0 active torsions:
REMARK  status: ('A' for Active; 'I' for Inactive)
ROOT
HETATM    1  C1  UNL     1     -31.167   7.035   1.871  1.00 20.00    -0.020 A 
HETATM    2  C2  UNL     1     -31.787   5.850   1.727  1.00 20.00    -0.020 A 
HETATM    3  C3  UNL     1     -33.473   7.233   3.903  1.00 20.00     0.002 C 
HETATM    4  C4  UNL     1     -32.981   8.432   3.102  1.00 20.00     0.014 C 
HETATM    5  C5  UNL     1     -34.086   6.321   2.846  1.00 20.00     0.014 C 
HETATM    6  C6  UNL     1     -32.457   7.848   1.777  1.00 20.00    -0.016 A 
HETATM    7  C7  UNL     1     -33.180   6.467   1.609  1.00 20.00    -0.016 A 
HETATM    8  C8  UNL     1     -32.478   8.861   0.641  1.00 20.00     0.020 C 
HETATM    9  C9  UNL     1     -33.904   6.140   0.311  1.00 20.00     0.020 C 
ENDROOT
TORSDOF 0
ENDMDL
MODEL 6
REMARK VINA RESULT:       2.0      1.227      3.079
REMARK  0 active torsions:
REMARK  status: ('A' for Active; 'I' for Inactive)
ROOT
HETATM    1  C1  UNL     1     -32.338   7.934   3.992  1.00 20.00    -0.020 A 
HETATM    2  C2  UNL     1     -31.462   8.316   3.046  1.00 20.00    -0.020 A 
HETATM    3  C3  UNL     1     -32.410   5.570   2.020  1.00 20.00     0.002 C 
HETATM    4  C4  UNL     1     -33.647   6.050   2.771  1.00 20.00     0.014 C 
HETATM    5  C5  UNL     1     -32.086   6.728   1.083  1.00 20.00     0.014 C 
HETATM    6  C6  UNL     1     -33.428   7.558   2.991  1.00 20.00    -0.016 A 
HETATM    7  C7  UNL     1     -32.408   8.002   1.887  1.00 20.00    -0.016 A 
HETATM    8  C8  UNL     1     -34.735   8.318   3.170  1.00 20.00     0.020 C 
HETATM    9  C9  UNL     1     -32.723   9.193   0.994  1.00 20.00     0.020 C 
ENDROOT
TORSDOF 0
ENDMDL
MODEL 7
REMARK VINA RESULT:       2.2      1.325      2.693
REMARK  0 active torsions:
REMARK  status: ('A' for Active; 'I' for Inactive)
ROOT
HETATM    1  C1  UNL     1     -34.364   6.093   1.334  1.00 20.00    -0.020 A 
HETATM    2  C2  UNL     1     -33.358   6.020   0.445  1.00 20.00    -0.020 A 
HETATM    3  C3  UNL     1     -32.453   8.305   2.301  1.00 20.00     0.002 C 
HETATM    4  C4  UNL     1     -33.267   7.447   3.262  1.00 20.00     0.014 C 
HETATM    5  C5  UNL     1     -31.473   7.318   1.678  1.00 20.00     0.014 C 
HETATM    6  C6  UNL     1     -33.439   6.093   2.549  1.00 20.00    -0.016 A 
HETATM    7  C7  UNL     1     -32.266   6.008   1.514  1.00 20.00    -0.016 A 
HETATM    8  C8  UNL     1     -33.681   4.946   3.521  1.00 20.00     0.020 C 
HETATM    9  C9  UNL     1     -31.368   4.780   1.480  1.00 20.00     0.020 C 
ENDROOT
TORSDOF 0
ENDMDL
MODEL 8
REMARK VINA RESULT:       2.6      1.217      2.482
REMARK  0 active torsions:
REMARK  status: ('A' for Active; 'I' for Inactive)
ROOT
HETATM    1  C1  UNL     1     -32.836   8.793   1.449  1.00 20.00    -0.020 A 
HETATM    2  C2  UNL     1     -33.916   8.671   2.241  1.00 20.00    -0.020 A 
HETATM    3  C3  UNL     1     -33.195   5.739   1.630  1.00 20.00     0.002 C 
HETATM    4  C4  UNL     1     -31.824   6.402   1.568  1.00 20.00     0.014 C 
HETATM    5  C5  UNL     1     -33.748   6.184   2.979  1.00 20.00     0.014 C 
HETATM    6  C6  UNL     1     -32.007   7.778   2.233  1.00 20.00    -0.016 A 
HETATM    7  C7  UNL     1     -33.266   7.635   3.157  1.00 20.00    -0.016 A 
HETATM    8  C8  UNL     1     -30.707   8.333   2.798  1.00 20.00     0.020 C 
HETATM    9  C9  UNL     1     -33.188   8.051   4.619  1.00 20.00     0.020 C 
ENDROOT
TORSDOF 0
ENDMDL
MODEL 9
REMARK VINA RESULT:       2.7      1.716      3.569
REMARK  0 active torsions:
REMARK  status: ('A' for Active; 'I' for Inactive)
ROOT
HETATM    1  C1  UNL     1     -30.765   8.005   2.423  1.00 20.00    -0.020 A 
HETATM    2  C2  UNL     1     -31.545   8.650   3.309  1.00 20.00    -0.020 A 
HETATM    3  C3  UNL     1     -32.446   9.850   0.619  1.00 20.00     0.002 C 
HETATM    4  C4  UNL     1     -32.023   8.450   0.192  1.00 20.00     0.014 C 
HETATM    5  C5  UNL     1     -33.413   9.599   1.770  1.00 20.00     0.014 C 
HETATM    6  C6  UNL     1     -31.925   7.640   1.498  1.00 20.00    -0.016 A 
HETATM    7  C7  UNL     1     -32.834   8.392   2.530  1.00 20.00    -0.016 A 
HETATM    8  C8  UNL     1     -32.102   6.145   1.274  1.00 20.00     0.020 C 
HETATM    9  C9  UNL     1     -33.895   7.626   3.308  1.00 20.00     0.020 C 
ENDROOT
TORSDOF 0
ENDMDL
