MODEL 1
REMARK VINA RESULT:      -0.0      0.000      0.000
REMARK  0 active torsions:
REMARK  status: ('A' for Active; 'I' for Inactive)
ROOT
HETATM    1  C1  UNL     1     -33.533   5.230   2.957  1.00 20.00     0.014 C 
HETATM    2  C2  UNL     1     -32.389   7.334   2.135  1.00 20.00     0.014 C 
HETATM    3  C3  UNL     1     -34.381   6.183   3.757  1.00 20.00    -0.004 A 
HETATM    4  C4  UNL     1     -33.371   8.039   3.031  1.00 20.00    -0.004 A 
HETATM    5  C5  UNL     1     -34.758   7.519   3.211  1.00 20.00    -0.001 A 
HETATM    6  C6  UNL     1     -33.733   7.399   4.330  1.00 20.00    -0.001 A 
HETATM    7  C7  UNL     1     -32.852   5.910   1.744  1.00 20.00    -0.046 C 
HETATM    8  C8  UNL     1     -33.828   5.974   0.550  1.00 20.00     0.015 C 
HETATM    9  C9  UNL     1     -31.634   5.077   1.309  1.00 20.00     0.015 C 
ENDROOT
TORSDOF 0
ENDMDL
MODEL 2
REMARK VINA RESULT:       0.1      1.090      2.786
REMARK  0 active torsions:
REMARK  status: ('A' for Active; 'I' for Inactive)
ROOT
HETATM    1  C1  UNL     1     -33.358   7.402   4.057  1.00 20.00     0.014 C 
HETATM    2  C2  UNL     1     -33.422   5.697   2.188  1.00 20.00     0.014 C 
HETATM    3  C3  UNL     1     -32.591   8.238   3.068  1.00 20.00    -0.004 A 
HETATM    4  C4  UNL     1     -32.648   6.732   1.418  1.00 20.00    -0.004 A 
HETATM    5  C5  UNL     1     -32.909   8.188   1.611  1.00 20.00    -0.001 A 
HETATM    6  C6  UNL     1     -31.636   7.550   2.149  1.00 20.00    -0.001 A 
HETATM    7  C7  UNL     1     -34.206   6.300   3.378  1.00 20.00    -0.046 C 
HETATM    8  C8  UNL     1     -35.551   6.881   2.894  1.00 20.00     0.015 C 
HETATM    9  C9  UNL     1     -34.517   5.191   4.400  1.00 20.00     0.015 C 
ENDROOT
TORSDOF 0
ENDMDL
MODEL 3
REMARK VINA RESULT:       0.4      1.176      2.960
REMARK  0 active torsions:
REMARK  status: ('A' for Active; 'I' for Inactive)
ROOT
HETATM    1  C1  UNL     1     -34.048   6.321   1.729  1.00 20.00     0.014 C 
HETATM    2  C2  UNL     1     -33.352   7.638   3.776  1.00 20.00     0.014 C 
HETATM    3  C3  UNL     1     -32.784   6.873   1.127  1.00 20.00    -0.004 A 
HETATM    4  C4  UNL     1     -32.170   8.035   2.934  1.00 20.00    -0.004 A 
HETATM    5  C5  UNL     1     -31.564   7.081   1.960  1.00 20.00    -0.001 A 
HETATM    6  C6  UNL     1     -32.384   8.268   1.476  1.00 20.00    -0.001 A 
HETATM    7  C7  UNL     1     -34.032   6.340   3.276  1.00 20.00    -0.046 C 
HETATM    8  C8  UNL     1     -33.286   5.103   3.819  1.00 20.00     0.015 C 
HETATM    9  C9  UNL     1     -35.476   6.284   3.804  1.00 20.00     0.015 C 
ENDROOT
TORSDOF 0
ENDMDL
MODEL 4
REMARK VINA RESULT:       0.5      1.010      1.933
REMARK  0 active torsions:
REMARK  status: ('A' for Active; 'I' for Inactive)
ROOT
HETATM    1  C1  UNL     1     -32.739   6.334   1.854  1.00 20.00     0.014 C 
HETATM    2  C2  UNL     1     -32.653   8.160   3.605  1.00 20.00     0.014 C 
HETATM    3  C3  UNL     1     -34.041   5.967   2.514  1.00 20.00    -0.004 A 
HETATM    4  C4  UNL     1     -33.965   7.579   4.060  1.00 20.00    -0.004 A 
HETATM    5  C5  UNL     1     -34.939   7.018   3.077  1.00 20.00    -0.001 A 
HETATM    6  C6  UNL     1     -34.146   6.099   3.997  1.00 20.00    -0.001 A 
HETATM    7  C7  UNL     1     -32.313   7.794   2.141  1.00 20.00    -0.046 C 
HETATM    8  C8  UNL     1     -33.025   8.759   1.170  1.00 20.00     0.015 C 
HETATM    9  C9  UNL     1     -30.798   7.939   1.916  1.00 20.00     0.015 C 
ENDROOT
TORSDOF 0
ENDMDL
MODEL 5
REMARK VINA RESULT:       0.6      0.777      3.294
REMARK  0 active torsions:
REMARK  status: ('A' for Active; 'I' for Inactive)
ROOT
HETATM    1  C1  UNL     1     -32.823   7.858   2.640  1.00 20.00     0.014 C 
HETATM    2  C2  UNL     1     -33.500   5.632   3.638  1.00 20.00     0.014 C 
HETATM    3  C3  UNL     1     -32.462   7.037   1.430  1.00 20.00    -0.004 A 
HETATM    4  C4  UNL     1     -33.060   5.073   2.311  1.00 20.00    -0.004 A 
HETATM    5  C5  UNL     1     -33.266   5.840   1.048  1.00 20.00    -0.001 A 
HETATM    6  C6  UNL     1     -31.874   5.683   1.643  1.00 20.00    -0.001 A 
HETATM    7  C7  UNL     1     -33.832   7.142   3.569  1.00 20.00    -0.046 C 
HETATM    8  C8  UNL     1     -35.273   7.349   3.055  1.00 20.00     0.015 C 
HETATM    9  C9  UNL     1     -33.748   7.749   4.980  1.00 20.00     0.015 C 
ENDROOT
TORSDOF 0
ENDMDL
MODEL 6
REMARK VINA RESULT:       0.8      1.044      2.645
REMARK  0 active torsions:
REMARK  status: ('A' for Active; 'I' for Inactive)
ROOT
HETATM    1  C1  UNL     1     -33.660   8.559   2.995  1.00 20.00     0.014 C 
HETATM    2  C2  UNL     1     -32.957   6.572   1.592  1.00 20.00     0.014 C 
HETATM    3  C3  UNL     1     -34.200   7.514   3.935  1.00 20.00    -0.004 A 
HETATM    4  C4  UNL     1     -33.578   5.761   2.697  1.00 20.00    -0.004 A 
HETATM    5  C5  UNL     1     -33.499   6.210   4.118  1.00 20.00    -0.001 A 
HETATM    6  C6  UNL     1     -34.813   6.285   3.352  1.00 20.00    -0.001 A 
HETATM    7  C7  UNL     1     -32.574   8.002   2.043  1.00 20.00    -0.046 C 
HETATM    8  C8  UNL     1     -31.201   7.991   2.747  1.00 20.00     0.015 C 
HETATM    9  C9  UNL     1     -32.459   8.914   0.809  1.00 20.00     0.015 C 
ENDROOT
TORSDOF 0
ENDMDL
MODEL 7
REMARK VINA RESULT:       1.0      1.257      3.208
REMARK  0 active torsions:
REMARK  status: ('A' for Active; 'I' for Inactive)
ROOT
HETATM    1  C1  UNL     1     -33.117   6.137   2.673  1.00 20.00     0.014 C 
HETATM    2  C2  UNL     1     -34.004   8.509   2.677  1.00 20.00     0.014 C 
HETATM    3  C3  UNL     1     -31.985   6.721   1.870  1.00 20.00    -0.004 A 
HETATM    4  C4  UNL     1     -32.768   8.813   1.874  1.00 20.00    -0.004 A 
HETATM    5  C5  UNL     1     -31.484   8.100   2.139  1.00 20.00    -0.001 A 
HETATM    6  C6  UNL     1     -32.296   7.799   0.886  1.00 20.00    -0.001 A 
HETATM    7  C7  UNL     1     -33.876   7.204   3.499  1.00 20.00    -0.046 C 
HETATM    8  C8  UNL     1     -33.136   7.478   4.825  1.00 20.00     0.015 C 
HETATM    9  C9  UNL     1     -35.280   6.678   3.847  1.00 20.00     0.015 C 
ENDROOT
TORSDOF 0
ENDMDL
MODEL 8
REMARK VINA RESULT:       1.5      0.763      2.150
REMARK  0 active torsions:
REMARK  status: ('A' for Active; 'I' for Inactive)
ROOT
HETATM    1  C1  UNL     1     -32.644   7.466   1.587  1.00 20.00     0.014 C 
HETATM    2  C2  UNL     1     -34.154   5.766   2.701  1.00 20.00     0.014 C 
HETATM    3  C3  UNL     1     -32.773   8.212   2.888  1.00 20.00    -0.004 A 
HETATM    4  C4  UNL     1     -34.105   6.712   3.871  1.00 20.00    -0.004 A 
HETATM    5  C5  UNL     1     -32.867   7.482   4.186  1.00 20.00    -0.001 A 
HETATM    6  C6  UNL     1     -34.086   8.178   3.597  1.00 20.00    -0.001 A 
HETATM    7  C7  UNL     1     -32.966   5.959   1.728  1.00 20.00    -0.046 C 
HETATM    8  C8  UNL     1     -31.727   5.193   2.238  1.00 20.00     0.015 C 
HETATM    9  C9  UNL     1     -33.336   5.384   0.349  1.00 20.00     0.015 C 
ENDROOT
TORSDOF 0
ENDMDL
MODEL 9
REMARK VINA RESULT:       1.6      0.989      1.260
REMARK  0 active torsions:
REMARK  status: ('A' for Active; 'I' for Inactive)
ROOT
HETATM    1  C1  UNL     1     -33.046   5.460   2.677  1.00 20.00     0.014 C 
HETATM    2  C2  UNL     1     -33.282   7.960   3.001  1.00 20.00     0.014 C 
HETATM    3  C3  UNL     1     -34.287   5.383   3.525  1.00 20.00    -0.004 A 
HETATM    4  C4  UNL     1     -34.496   7.589   3.811  1.00 20.00    -0.004 A 
HETATM    5  C5  UNL     1     -35.349   6.426   3.428  1.00 20.00    -0.001 A 
HETATM    6  C6  UNL     1     -34.440   6.354   4.647  1.00 20.00    -0.001 A 
HETATM    7  C7  UNL     1     -32.860   6.846   2.013  1.00 20.00    -0.046 C 
HETATM    8  C8  UNL     1     -33.696   6.935   0.719  1.00 20.00     0.015 C 
HETATM    9  C9  UNL     1     -31.382   7.036   1.630  1.00 20.00     0.015 C 
ENDROOT
TORSDOF 0
ENDMDL
