MODEL 1
REMARK VINA RESULT:      -0.1      0.000      0.000
REMARK  0 active torsions:
REMARK  status: ('A' for Active; 'I' for Inactive)
ROOT
HETATM    1  C1  UNL     1     -31.558   6.669   1.728  1.00 20.00    -0.025 C 
HETATM    2  C2  UNL     1     -32.118   7.802   2.174  1.00 20.00    -0.025 C 
HETATM    3  C3  UNL     1     -33.785   6.607   1.114  1.00 20.00     0.017 C 
HETATM    4  C4  UNL     1     -33.168   5.247   2.960  1.00 20.00     0.013 C 
HETATM    5  C5  UNL     1     -32.668   5.659   1.558  1.00 20.00     0.009 C 
HETATM    6  C6  UNL     1     -33.603   7.542   2.316  1.00 20.00     0.012 C 
HETATM    7  C7  UNL     1     -33.781   6.573   3.514  1.00 20.00    -0.010 C 
HETATM    8  C8  UNL     1     -35.236   6.406   3.936  1.00 20.00     0.010 C 
ENDROOT
TORSDOF 0
ENDMDL
MODEL 2
REMARK VINA RESULT:      -0.1      1.159      3.036
REMARK  0 active torsions:
REMARK  status: ('A' for Active; 'I' for Inactive)
ROOT
HETATM    1  C1  UNL     1     -34.680   5.381   4.361  1.00 20.00    -0.025 C 
HETATM    2  C2  UNL     1     -33.817   4.896   3.456  1.00 20.00    -0.025 C 
HETATM    3  C3  UNL     1     -35.025   6.558   2.403  1.00 20.00     0.017 C 
HETATM    4  C4  UNL     1     -33.827   7.692   4.111  1.00 20.00     0.013 C 
HETATM    5  C5  UNL     1     -35.055   6.775   3.918  1.00 20.00     0.009 C 
HETATM    6  C6  UNL     1     -33.606   5.975   2.416  1.00 20.00     0.012 C 
HETATM    7  C7  UNL     1     -32.793   7.108   3.096  1.00 20.00    -0.010 C 
HETATM    8  C8  UNL     1     -32.292   8.157   2.111  1.00 20.00     0.010 C 
ENDROOT
TORSDOF 0
ENDMDL
MODEL 3
REMARK VINA RESULT:       0.2      0.895      2.986
REMARK  0 active torsions:
REMARK  status: ('A' for Active; 'I' for Inactive)
ROOT
HETATM    1  C1  UNL     1     -35.285   6.086   3.749  1.00 20.00    -0.025 C 
HETATM    2  C2  UNL     1     -35.297   7.408   3.525  1.00 20.00    -0.025 C 
HETATM    3  C3  UNL     1     -33.261   6.915   4.496  1.00 20.00     0.017 C 
HETATM    4  C4  UNL     1     -33.220   5.760   2.422  1.00 20.00     0.013 C 
HETATM    5  C5  UNL     1     -33.838   5.661   3.834  1.00 20.00     0.009 C 
HETATM    6  C6  UNL     1     -33.855   7.862   3.445  1.00 20.00     0.012 C 
HETATM    7  C7  UNL     1     -33.273   7.293   2.125  1.00 20.00    -0.010 C 
HETATM    8  C8  UNL     1     -31.902   7.864   1.782  1.00 20.00     0.010 C 
ENDROOT
TORSDOF 0
ENDMDL
MODEL 4
REMARK VINA RESULT:       0.7      1.026      1.943
REMARK  0 active torsions:
REMARK  status: ('A' for Active; 'I' for Inactive)
ROOT
HETATM    1  C1  UNL     1     -32.014   8.634   1.197  1.00 20.00    -0.025 C 
HETATM    2  C2  UNL     1     -33.024   7.944   0.644  1.00 20.00    -0.025 C 
HETATM    3  C3  UNL     1     -31.822   6.451   1.930  1.00 20.00     0.017 C 
HETATM    4  C4  UNL     1     -32.690   8.011   3.496  1.00 20.00     0.013 C 
HETATM    5  C5  UNL     1     -31.580   7.877   2.430  1.00 20.00     0.009 C 
HETATM    6  C6  UNL     1     -33.272   6.735   1.520  1.00 20.00     0.012 C 
HETATM    7  C7  UNL     1     -33.891   7.254   2.844  1.00 20.00    -0.010 C 
HETATM    8  C8  UNL     1     -34.422   6.135   3.733  1.00 20.00     0.010 C 
ENDROOT
TORSDOF 0
ENDMDL
MODEL 5
REMARK VINA RESULT:       0.8      1.277      2.991
REMARK  0 active torsions:
REMARK  status: ('A' for Active; 'I' for Inactive)
ROOT
HETATM    1  C1  UNL     1     -33.516   6.419   2.792  1.00 20.00    -0.025 C 
HETATM    2  C2  UNL     1     -33.168   7.600   3.325  1.00 20.00    -0.025 C 
HETATM    3  C3  UNL     1     -31.431   6.952   1.949  1.00 20.00     0.017 C 
HETATM    4  C4  UNL     1     -33.268   7.256   0.475  1.00 20.00     0.013 C 
HETATM    5  C5  UNL     1     -32.724   6.254   1.517  1.00 20.00     0.009 C 
HETATM    6  C6  UNL     1     -32.154   8.229   2.394  1.00 20.00     0.012 C 
HETATM    7  C7  UNL     1     -32.914   8.641   1.106  1.00 20.00    -0.010 C 
HETATM    8  C8  UNL     1     -32.079   9.507   0.171  1.00 20.00     0.010 C 
ENDROOT
TORSDOF 0
ENDMDL
MODEL 6
REMARK VINA RESULT:       0.8      1.260      2.278
REMARK  0 active torsions:
REMARK  status: ('A' for Active; 'I' for Inactive)
ROOT
HETATM    1  C1  UNL     1     -33.362   8.012   3.319  1.00 20.00    -0.025 C 
HETATM    2  C2  UNL     1     -33.840   7.670   4.524  1.00 20.00    -0.025 C 
HETATM    3  C3  UNL     1     -35.213   6.677   2.956  1.00 20.00     0.017 C 
HETATM    4  C4  UNL     1     -33.099   5.650   2.622  1.00 20.00     0.013 C 
HETATM    5  C5  UNL     1     -33.845   6.972   2.336  1.00 20.00     0.009 C 
HETATM    6  C6  UNL     1     -34.631   6.392   4.346  1.00 20.00     0.012 C 
HETATM    7  C7  UNL     1     -33.609   5.264   4.048  1.00 20.00    -0.010 C 
HETATM    8  C8  UNL     1     -34.229   3.872   4.084  1.00 20.00     0.010 C 
ENDROOT
TORSDOF 0
ENDMDL
MODEL 7
REMARK VINA RESULT:       0.8      1.694      3.356
REMARK  0 active torsions:
REMARK  status: ('A' for Active; 'I' for Inactive)
ROOT
HETATM    1  C1  UNL     1     -32.081   6.402   1.529  1.00 20.00    -0.025 C 
HETATM    2  C2  UNL     1     -33.267   6.948   1.838  1.00 20.00    -0.025 C 
HETATM    3  C3  UNL     1     -31.644   8.355   2.685  1.00 20.00     0.017 C 
HETATM    4  C4  UNL     1     -31.322   8.433   0.333  1.00 20.00     0.013 C 
HETATM    5  C5  UNL     1     -31.060   7.514   1.547  1.00 20.00     0.009 C 
HETATM    6  C6  UNL     1     -33.036   8.430   2.046  1.00 20.00     0.012 C 
HETATM    7  C7  UNL     1     -32.726   9.040   0.654  1.00 20.00    -0.010 C 
HETATM    8  C8  UNL     1     -32.710  10.564   0.661  1.00 20.00     0.010 C 
ENDROOT
TORSDOF 0
ENDMDL
MODEL 8
REMARK VINA RESULT:       0.8      1.333      2.863
REMARK  0 active torsions:
REMARK  status: ('A' for Active; 'I' for Inactive)
ROOT
HETATM    1  C1  UNL     1     -32.812   9.489   1.649  1.00 20.00    -0.025 C 
HETATM    2  C2  UNL     1     -32.266   8.933   0.558  1.00 20.00    -0.025 C 
HETATM    3  C3  UNL     1     -31.145   8.066   2.380  1.00 20.00     0.017 C 
HETATM    4  C4  UNL     1     -33.374   7.289   2.636  1.00 20.00     0.013 C 
HETATM    5  C5  UNL     1     -32.525   8.568   2.811  1.00 20.00     0.009 C 
HETATM    6  C6  UNL     1     -31.628   7.630   0.991  1.00 20.00     0.012 C 
HETATM    7  C7  UNL     1     -32.782   6.653   1.337  1.00 20.00    -0.010 C 
HETATM    8  C8  UNL     1     -32.306   5.222   1.558  1.00 20.00     0.010 C 
ENDROOT
TORSDOF 0
ENDMDL
MODEL 9
REMARK VINA RESULT:       1.2      1.233      2.684
REMARK  0 active torsions:
REMARK  status: ('A' for Active; 'I' for Inactive)
ROOT
HETATM    1  C1  UNL     1     -34.347   7.763   2.615  1.00 20.00    -0.025 C 
HETATM    2  C2  UNL     1     -33.417   6.924   2.137  1.00 20.00    -0.025 C 
HETATM    3  C3  UNL     1     -33.150   6.979   4.429  1.00 20.00     0.017 C 
HETATM    4  C4  UNL     1     -35.307   6.039   4.109  1.00 20.00     0.013 C 
HETATM    5  C5  UNL     1     -34.576   7.399   4.062  1.00 20.00     0.009 C 
HETATM    6  C6  UNL     1     -33.037   5.988   3.264  1.00 20.00     0.012 C 
HETATM    7  C7  UNL     1     -34.252   5.056   3.508  1.00 20.00    -0.010 C 
HETATM    8  C8  UNL     1     -33.937   3.898   4.449  1.00 20.00     0.010 C 
ENDROOT
TORSDOF 0
ENDMDL
