MODEL 1
REMARK VINA RESULT:       0.3      0.000      0.000
REMARK  2 active torsions:
REMARK  status: ('A' for Active; 'I' for Inactive)
REMARK    1  A    between atoms: C7_7  and  C9_9 
REMARK    2  A    between atoms: C8_8  and  C10_10 
ROOT
HETATM    1  C1  UNL     1     -33.645   6.422   2.756  1.00 20.00    -0.030 C 
HETATM    2  C2  UNL     1     -33.407   7.750   2.855  1.00 20.00    -0.025 C 
HETATM    3  C5  UNL     1     -32.826   5.779   1.632  1.00 20.00     0.032 C 
HETATM    4  C9  UNL     1     -32.591   8.143   1.676  1.00 20.00     0.020 C 
HETATM    5  C10 UNL     1     -31.754   6.836   1.603  1.00 20.00     0.005 C 
ENDROOT
BRANCH   4   6
HETATM    6  C7  UNL     1     -31.507   9.186   1.305  1.00 20.00     0.016 C 
HETATM    7  C3  UNL     1     -32.342  10.445   1.068  1.00 20.00    -0.025 C 
HETATM    8  C4  UNL     1     -33.092  10.229  -0.029  1.00 20.00    -0.025 C 
HETATM    9  C8  UNL     1     -32.684   8.898  -0.612  1.00 20.00     0.013 C 
HETATM   10  C6  UNL     1     -31.186   8.950  -0.178  1.00 20.00     0.018 C 
ENDBRANCH   4   6
TORSDOF 2
ENDMDL
MODEL 2
REMARK VINA RESULT:       0.3      0.764      3.829
REMARK  2 active torsions:
REMARK  status: ('A' for Active; 'I' for Inactive)
REMARK    1  A    between atoms: C7_7  and  C9_9 
REMARK    2  A    between atoms: C8_8  and  C10_10 
ROOT
HETATM    1  C1  UNL     1     -32.716  10.054  -0.701  1.00 20.00    -0.030 C 
HETATM    2  C2  UNL     1     -32.176   8.843  -0.434  1.00 20.00    -0.025 C 
HETATM    3  C5  UNL     1     -33.150  10.779   0.576  1.00 20.00     0.032 C 
HETATM    4  C9  UNL     1     -32.406   8.564   1.008  1.00 20.00     0.020 C 
HETATM    5  C10 UNL     1     -32.225  10.027   1.497  1.00 20.00     0.005 C 
ENDROOT
BRANCH   4   6
HETATM    6  C7  UNL     1     -31.725   7.797   2.170  1.00 20.00     0.016 C 
HETATM    7  C3  UNL     1     -31.726   6.360   1.649  1.00 20.00    -0.025 C 
HETATM    8  C4  UNL     1     -33.009   5.955   1.591  1.00 20.00    -0.025 C 
HETATM    9  C8  UNL     1     -33.865   7.047   2.185  1.00 20.00     0.013 C 
HETATM   10  C6  UNL     1     -32.821   7.566   3.221  1.00 20.00     0.018 C 
ENDBRANCH   4   6
TORSDOF 2
ENDMDL
MODEL 3
REMARK VINA RESULT:       0.4      1.616      2.874
REMARK  2 active torsions:
REMARK  status: ('A' for Active; 'I' for Inactive)
REMARK    1  A    between atoms: C7_7  and  C9_9 
REMARK    2  A    between atoms: C8_8  and  C10_10 
ROOT
HETATM    1  C1  UNL     1     -35.126   6.840   4.436  1.00 20.00    -0.030 C 
HETATM    2  C2  UNL     1     -34.057   7.421   3.844  1.00 20.00    -0.025 C 
HETATM    3  C5  UNL     1     -35.254   5.363   4.055  1.00 20.00     0.032 C 
HETATM    4  C9  UNL     1     -33.518   6.452   2.854  1.00 20.00     0.020 C 
HETATM    5  C10 UNL     1     -33.805   5.175   3.690  1.00 20.00     0.005 C 
ENDROOT
BRANCH   4   6
HETATM    6  C7  UNL     1     -32.157   6.069   2.221  1.00 20.00     0.016 C 
HETATM    7  C3  UNL     1     -31.602   7.431   1.806  1.00 20.00    -0.025 C 
HETATM    8  C4  UNL     1     -32.390   7.904   0.821  1.00 20.00    -0.025 C 
HETATM    9  C8  UNL     1     -33.390   6.827   0.475  1.00 20.00     0.013 C 
HETATM   10  C6  UNL     1     -32.473   5.605   0.792  1.00 20.00     0.018 C 
ENDBRANCH   4   6
TORSDOF 2
ENDMDL
MODEL 4
REMARK VINA RESULT:       0.5      1.544      4.221
REMARK  2 active torsions:
REMARK  status: ('A' for Active; 'I' for Inactive)
REMARK    1  A    between atoms: C7_7  and  C9_9 
REMARK    2  A    between atoms: C8_8  and  C10_10 
ROOT
HETATM    1  C1  UNL     1     -32.052   6.742   0.640  1.00 20.00    -0.030 C 
HETATM    2  C2  UNL     1     -32.540   5.854   1.536  1.00 20.00    -0.025 C 
HETATM    3  C5  UNL     1     -32.102   8.176   1.175  1.00 20.00     0.032 C 
HETATM    4  C9  UNL     1     -33.157   6.633   2.641  1.00 20.00     0.020 C 
HETATM    5  C10 UNL     1     -32.124   7.792   2.631  1.00 20.00     0.005 C 
ENDROOT
BRANCH   4   6
HETATM    6  C7  UNL     1     -33.406   6.497   4.164  1.00 20.00     0.016 C 
HETATM    7  C3  UNL     1     -34.579   5.518   4.211  1.00 20.00    -0.025 C 
HETATM    8  C4  UNL     1     -35.646   6.143   3.679  1.00 20.00    -0.025 C 
HETATM    9  C8  UNL     1     -35.248   7.571   3.392  1.00 20.00     0.013 C 
HETATM   10  C6  UNL     1     -34.233   7.726   4.567  1.00 20.00     0.018 C 
ENDBRANCH   4   6
TORSDOF 2
ENDMDL
MODEL 5
REMARK VINA RESULT:       1.2      2.104      3.496
REMARK  2 active torsions:
REMARK  status: ('A' for Active; 'I' for Inactive)
REMARK    1  A    between atoms: C7_7  and  C9_9 
REMARK    2  A    between atoms: C8_8  and  C10_10 
ROOT
HETATM    1  C1  UNL     1     -34.874   6.563   4.660  1.00 20.00    -0.030 C 
HETATM    2  C2  UNL     1     -34.814   6.075   3.399  1.00 20.00    -0.025 C 
HETATM    3  C5  UNL     1     -33.881   7.710   4.874  1.00 20.00     0.032 C 
HETATM    4  C9  UNL     1     -33.635   6.696   2.740  1.00 20.00     0.020 C 
HETATM    5  C10 UNL     1     -33.769   8.085   3.420  1.00 20.00     0.005 C 
ENDROOT
BRANCH   4   6
HETATM    6  C7  UNL     1     -33.187   7.124   1.320  1.00 20.00     0.016 C 
HETATM    7  C3  UNL     1     -33.340   5.825   0.530  1.00 20.00    -0.025 C 
HETATM    8  C4  UNL     1     -32.425   4.956   1.001  1.00 20.00    -0.025 C 
HETATM    9  C8  UNL     1     -31.570   5.689   2.007  1.00 20.00     0.013 C 
HETATM   10  C6  UNL     1     -31.651   7.096   1.338  1.00 20.00     0.018 C 
ENDBRANCH   4   6
TORSDOF 2
ENDMDL
MODEL 6
REMARK VINA RESULT:       1.2      2.246      3.901
REMARK  2 active torsions:
REMARK  status: ('A' for Active; 'I' for Inactive)
REMARK    1  A    between atoms: C7_7  and  C9_9 
REMARK    2  A    between atoms: C8_8  and  C10_10 
ROOT
HETATM    1  C1  UNL     1     -33.926   3.896   4.088  1.00 20.00    -0.030 C 
HETATM    2  C2  UNL     1     -33.350   4.717   3.180  1.00 20.00    -0.025 C 
HETATM    3  C5  UNL     1     -34.977   4.626   4.929  1.00 20.00     0.032 C 
HETATM    4  C9  UNL     1     -33.800   6.101   3.485  1.00 20.00     0.020 C 
HETATM    5  C10 UNL     1     -35.239   5.719   3.927  1.00 20.00     0.005 C 
ENDROOT
BRANCH   4   6
HETATM    6  C7  UNL     1     -34.083   7.426   2.734  1.00 20.00     0.016 C 
HETATM    7  C3  UNL     1     -32.685   7.838   2.273  1.00 20.00    -0.025 C 
HETATM    8  C4  UNL     1     -31.971   8.139   3.374  1.00 20.00    -0.025 C 
HETATM    9  C8  UNL     1     -32.901   8.062   4.562  1.00 20.00     0.013 C 
HETATM   10  C6  UNL     1     -34.197   8.508   3.818  1.00 20.00     0.018 C 
ENDBRANCH   4   6
TORSDOF 2
ENDMDL
MODEL 7
REMARK VINA RESULT:       1.6      1.807      3.349
REMARK  2 active torsions:
REMARK  status: ('A' for Active; 'I' for Inactive)
REMARK    1  A    between atoms: C7_7  and  C9_9 
REMARK    2  A    between atoms: C8_8  and  C10_10 
ROOT
HETATM    1  C1  UNL     1     -34.571   4.912   4.438  1.00 20.00    -0.030 C 
HETATM    2  C2  UNL     1     -33.738   4.800   3.378  1.00 20.00    -0.025 C 
HETATM    3  C5  UNL     1     -35.261   6.278   4.477  1.00 20.00     0.032 C 
HETATM    4  C9  UNL     1     -33.631   6.145   2.754  1.00 20.00     0.020 C 
HETATM    5  C10 UNL     1     -35.103   6.569   3.008  1.00 20.00     0.005 C 
ENDROOT
BRANCH   4   6
HETATM    6  C7  UNL     1     -33.402   6.764   1.353  1.00 20.00     0.016 C 
HETATM    7  C3  UNL     1     -31.947   6.389   1.070  1.00 20.00    -0.025 C 
HETATM    8  C4  UNL     1     -31.180   7.067   1.945  1.00 20.00    -0.025 C 
HETATM    9  C8  UNL     1     -32.081   7.992   2.728  1.00 20.00     0.013 C 
HETATM   10  C6  UNL     1     -33.118   8.255   1.592  1.00 20.00     0.018 C 
ENDBRANCH   4   6
TORSDOF 2
ENDMDL
MODEL 8
REMARK VINA RESULT:       1.7      1.895      3.957
REMARK  2 active torsions:
REMARK  status: ('A' for Active; 'I' for Inactive)
REMARK    1  A    between atoms: C7_7  and  C9_9 
REMARK    2  A    between atoms: C8_8  and  C10_10 
ROOT
HETATM    1  C1  UNL     1     -31.281   6.875   1.142  1.00 20.00    -0.030 C 
HETATM    2  C2  UNL     1     -32.063   7.792   1.755  1.00 20.00    -0.025 C 
HETATM    3  C5  UNL     1     -31.898   5.474   1.192  1.00 20.00     0.032 C 
HETATM    4  C9  UNL     1     -33.147   7.053   2.454  1.00 20.00     0.020 C 
HETATM    5  C10 UNL     1     -33.317   5.943   1.381  1.00 20.00     0.005 C 
ENDROOT
BRANCH   4   6
HETATM    6  C7  UNL     1     -34.625   7.268   2.867  1.00 20.00     0.016 C 
HETATM    7  C3  UNL     1     -34.506   8.361   3.928  1.00 20.00    -0.025 C 
HETATM    8  C4  UNL     1     -33.862   7.828   4.984  1.00 20.00    -0.025 C 
HETATM    9  C8  UNL     1     -33.659   6.358   4.706  1.00 20.00     0.013 C 
HETATM   10  C6  UNL     1     -34.953   6.143   3.860  1.00 20.00     0.018 C 
ENDBRANCH   4   6
TORSDOF 2
ENDMDL
MODEL 9
REMARK VINA RESULT:       2.2      2.313      4.570
REMARK  2 active torsions:
REMARK  status: ('A' for Active; 'I' for Inactive)
REMARK    1  A    between atoms: C7_7  and  C9_9 
REMARK    2  A    between atoms: C8_8  and  C10_10 
ROOT
HETATM    1  C1  UNL     1     -32.093   8.834   4.489  1.00 20.00    -0.030 C 
HETATM    2  C2  UNL     1     -33.288   8.249   4.731  1.00 20.00    -0.025 C 
HETATM    3  C5  UNL     1     -31.505   8.395   3.144  1.00 20.00     0.032 C 
HETATM    4  C9  UNL     1     -33.491   7.210   3.687  1.00 20.00     0.020 C 
HETATM    5  C10 UNL     1     -32.820   7.997   2.528  1.00 20.00     0.005 C 
ENDROOT
BRANCH   4   6
HETATM    6  C7  UNL     1     -34.661   6.539   2.925  1.00 20.00     0.016 C 
HETATM    7  C3  UNL     1     -35.392   5.800   4.045  1.00 20.00    -0.025 C 
HETATM    8  C4  UNL     1     -34.576   4.822   4.482  1.00 20.00    -0.025 C 
HETATM    9  C8  UNL     1     -33.359   4.804   3.588  1.00 20.00     0.013 C 
HETATM   10  C6  UNL     1     -34.074   5.273   2.283  1.00 20.00     0.018 C 
ENDBRANCH   4   6
TORSDOF 2
ENDMDL
