MODEL 1
REMARK VINA RESULT:      -3.7      0.000      0.000
REMARK  3 active torsions:
REMARK  status: ('A' for Active; 'I' for Inactive)
REMARK    1  A    between atoms: C2_2  and  C5_5 
REMARK    2  A    between atoms: C4_4  and  C5_5 
REMARK    3  A    between atoms: C4_4  and  C6_6 
ROOT
HETATM    1  C4  UNL     1     -33.481   6.711   2.159  1.00 20.00     0.353 C 
HETATM    2  F7  UNL     1     -32.933   5.484   1.905  1.00 20.00    -0.233 F 
ENDROOT
BRANCH   1   3
HETATM    3  C5  UNL     1     -32.342   7.727   2.136  1.00 20.00     0.300 C 
HETATM    4  F8  UNL     1     -31.248   7.137   1.579  1.00 20.00    -0.198 F 
HETATM    5  F9  UNL     1     -31.999   7.990   3.430  1.00 20.00    -0.198 F 
BRANCH   3   6
HETATM    6  C2  UNL     1     -32.692   9.015   1.452  1.00 20.00     0.050 C 
HETATM    7  C1  UNL     1     -32.261   9.368   0.233  1.00 20.00    -0.029 C 
HETATM    8  C3  UNL     1     -32.617  10.656  -0.433  1.00 20.00     0.036 C 
ENDBRANCH   3   6
ENDBRANCH   1   3
BRANCH   1   9
HETATM    9  C6  UNL     1     -34.218   6.606   3.476  1.00 20.00     0.424 C 
HETATM   10  F10 UNL     1     -33.861   7.586   4.332  1.00 20.00    -0.168 F 
HETATM   11  F11 UNL     1     -35.554   6.672   3.299  1.00 20.00    -0.168 F 
HETATM   12  F12 UNL     1     -33.940   5.427   4.076  1.00 20.00    -0.168 F 
ENDBRANCH   1   9
TORSDOF 3
ENDMDL
MODEL 2
REMARK VINA RESULT:      -3.7      0.012      1.091
REMARK  3 active torsions:
REMARK  status: ('A' for Active; 'I' for Inactive)
REMARK    1  A    between atoms: C2_2  and  C5_5 
REMARK    2  A    between atoms: C4_4  and  C5_5 
REMARK    3  A    between atoms: C4_4  and  C6_6 
ROOT
HETATM    1  C4  UNL     1     -33.478   6.709   2.162  1.00 20.00     0.353 C 
HETATM    2  F7  UNL     1     -32.929   5.485   1.896  1.00 20.00    -0.233 F 
ENDROOT
BRANCH   1   3
HETATM    3  C5  UNL     1     -32.342   7.727   2.140  1.00 20.00     0.300 C 
HETATM    4  F8  UNL     1     -31.246   7.141   1.584  1.00 20.00    -0.198 F 
HETATM    5  F9  UNL     1     -32.001   7.992   3.434  1.00 20.00    -0.198 F 
BRANCH   3   6
HETATM    6  C2  UNL     1     -32.695   9.015   1.456  1.00 20.00     0.050 C 
HETATM    7  C1  UNL     1     -32.264   9.370   0.238  1.00 20.00    -0.029 C 
HETATM    8  C3  UNL     1     -32.623  10.657  -0.428  1.00 20.00     0.036 C 
ENDBRANCH   3   6
ENDBRANCH   1   3
BRANCH   1   9
HETATM    9  C6  UNL     1     -34.208   6.591   3.482  1.00 20.00     0.424 C 
HETATM   10  F10 UNL     1     -33.958   5.414   4.091  1.00 20.00    -0.168 F 
HETATM   11  F11 UNL     1     -33.857   7.582   4.329  1.00 20.00    -0.168 F 
HETATM   12  F12 UNL     1     -35.543   6.669   3.289  1.00 20.00    -0.168 F 
ENDBRANCH   1   9
TORSDOF 3
ENDMDL
MODEL 3
REMARK VINA RESULT:      -3.3      1.764      4.580
REMARK  3 active torsions:
REMARK  status: ('A' for Active; 'I' for Inactive)
REMARK    1  A    between atoms: C2_2  and  C5_5 
REMARK    2  A    between atoms: C4_4  and  C5_5 
REMARK    3  A    between atoms: C4_4  and  C6_6 
ROOT
HETATM    1  C4  UNL     1     -33.515   7.715   3.311  1.00 20.00     0.353 C 
HETATM    2  F7  UNL     1     -33.042   7.808   4.591  1.00 20.00    -0.233 F 
ENDROOT
BRANCH   1   3
HETATM    3  C5  UNL     1     -34.186   6.351   3.177  1.00 20.00     0.300 C 
HETATM    4  F8  UNL     1     -34.271   6.040   1.854  1.00 20.00    -0.198 F 
HETATM    5  F9  UNL     1     -35.474   6.481   3.608  1.00 20.00    -0.198 F 
BRANCH   3   6
HETATM    6  C2  UNL     1     -33.515   5.265   3.964  1.00 20.00     0.050 C 
HETATM    7  C1  UNL     1     -33.928   3.990   4.003  1.00 20.00    -0.029 C 
HETATM    8  C3  UNL     1     -33.249   2.922   4.796  1.00 20.00     0.036 C 
ENDBRANCH   3   6
ENDBRANCH   1   3
BRANCH   1   9
HETATM    9  C6  UNL     1     -32.341   7.945   2.386  1.00 20.00     0.424 C 
HETATM   10  F10 UNL     1     -31.933   6.801   1.798  1.00 20.00    -0.168 F 
HETATM   11  F11 UNL     1     -32.646   8.828   1.412  1.00 20.00    -0.168 F 
HETATM   12  F12 UNL     1     -31.289   8.439   3.075  1.00 20.00    -0.168 F 
ENDBRANCH   1   9
TORSDOF 3
ENDMDL
MODEL 4
REMARK VINA RESULT:      -3.3      1.984      4.316
REMARK  3 active torsions:
REMARK  status: ('A' for Active; 'I' for Inactive)
REMARK    1  A    between atoms: C2_2  and  C5_5 
REMARK    2  A    between atoms: C4_4  and  C5_5 
REMARK    3  A    between atoms: C4_4  and  C6_6 
ROOT
HETATM    1  C4  UNL     1     -32.500   8.264   1.841  1.00 20.00     0.353 C 
HETATM    2  F7  UNL     1     -31.471   8.438   2.725  1.00 20.00    -0.233 F 
ENDROOT
BRANCH   1   3
HETATM    3  C5  UNL     1     -32.651   6.763   1.614  1.00 20.00     0.300 C 
HETATM    4  F8  UNL     1     -31.409   6.213   1.519  1.00 20.00    -0.198 F 
HETATM    5  F9  UNL     1     -33.226   6.588   0.389  1.00 20.00    -0.198 F 
BRANCH   3   6
HETATM    6  C2  UNL     1     -33.489   6.075   2.649  1.00 20.00     0.050 C 
HETATM    7  C1  UNL     1     -34.446   6.673   3.372  1.00 20.00    -0.029 C 
HETATM    8  C3  UNL     1     -35.269   5.973   4.402  1.00 20.00     0.036 C 
ENDBRANCH   3   6
ENDBRANCH   1   3
BRANCH   1   9
HETATM    9  C6  UNL     1     -32.163   9.069   0.604  1.00 20.00     0.424 C 
HETATM   10  F10 UNL     1     -30.939   8.765   0.125  1.00 20.00    -0.168 F 
HETATM   11  F11 UNL     1     -33.061   8.857  -0.381  1.00 20.00    -0.168 F 
HETATM   12  F12 UNL     1     -32.167  10.390   0.888  1.00 20.00    -0.168 F 
ENDBRANCH   1   9
TORSDOF 3
ENDMDL
MODEL 5
REMARK VINA RESULT:      -3.2      1.681      4.450
REMARK  3 active torsions:
REMARK  status: ('A' for Active; 'I' for Inactive)
REMARK    1  A    between atoms: C2_2  and  C5_5 
REMARK    2  A    between atoms: C4_4  and  C5_5 
REMARK    3  A    between atoms: C4_4  and  C6_6 
ROOT
HETATM    1  C4  UNL     1     -32.871   6.497   2.356  1.00 20.00     0.353 C 
HETATM    2  F7  UNL     1     -33.365   6.055   1.160  1.00 20.00    -0.233 F 
ENDROOT
BRANCH   1   3
HETATM    3  C5  UNL     1     -34.021   6.466   3.359  1.00 20.00     0.300 C 
HETATM    4  F8  UNL     1     -35.166   6.826   2.714  1.00 20.00    -0.198 F 
HETATM    5  F9  UNL     1     -33.793   7.448   4.278  1.00 20.00    -0.198 F 
BRANCH   3   6
HETATM    6  C2  UNL     1     -34.170   5.155   4.071  1.00 20.00     0.050 C 
HETATM    7  C1  UNL     1     -33.318   4.127   3.953  1.00 20.00    -0.029 C 
HETATM    8  C3  UNL     1     -33.483   2.826   4.668  1.00 20.00     0.036 C 
ENDBRANCH   3   6
ENDBRANCH   1   3
BRANCH   1   9
HETATM    9  C6  UNL     1     -32.272   7.865   2.112  1.00 20.00     0.424 C 
HETATM   10  F10 UNL     1     -33.205   8.762   1.732  1.00 20.00    -0.168 F 
HETATM   11  F11 UNL     1     -31.661   8.340   3.218  1.00 20.00    -0.168 F 
HETATM   12  F12 UNL     1     -31.348   7.803   1.127  1.00 20.00    -0.168 F 
ENDBRANCH   1   9
TORSDOF 3
ENDMDL
MODEL 6
REMARK VINA RESULT:      -3.1      0.724      1.752
REMARK  3 active torsions:
REMARK  status: ('A' for Active; 'I' for Inactive)
REMARK    1  A    between atoms: C2_2  and  C5_5 
REMARK    2  A    between atoms: C4_4  and  C5_5 
REMARK    3  A    between atoms: C4_4  and  C6_6 
ROOT
HETATM    1  C4  UNL     1     -33.139   7.288   3.480  1.00 20.00     0.353 C 
HETATM    2  F7  UNL     1     -33.977   8.326   3.780  1.00 20.00    -0.233 F 
ENDROOT
BRANCH   1   3
HETATM    3  C5  UNL     1     -32.175   7.783   2.406  1.00 20.00     0.300 C 
HETATM    4  F8  UNL     1     -31.563   6.704   1.843  1.00 20.00    -0.198 F 
HETATM    5  F9  UNL     1     -31.185   8.482   3.032  1.00 20.00    -0.198 F 
BRANCH   3   6
HETATM    6  C2  UNL     1     -32.816   8.662   1.374  1.00 20.00     0.050 C 
HETATM    7  C1  UNL     1     -32.143   9.458   0.531  1.00 20.00    -0.029 C 
HETATM    8  C3  UNL     1     -32.799  10.330  -0.489  1.00 20.00     0.036 C 
ENDBRANCH   3   6
ENDBRANCH   1   3
BRANCH   1   9
HETATM    9  C6  UNL     1     -34.009   6.119   3.070  1.00 20.00     0.424 C 
HETATM   10  F10 UNL     1     -33.862   5.817   1.763  1.00 20.00    -0.168 F 
HETATM   11  F11 UNL     1     -33.720   5.014   3.788  1.00 20.00    -0.168 F 
HETATM   12  F12 UNL     1     -35.313   6.412   3.271  1.00 20.00    -0.168 F 
ENDBRANCH   1   9
TORSDOF 3
ENDMDL
MODEL 7
REMARK VINA RESULT:      -3.1      1.032      1.878
REMARK  3 active torsions:
REMARK  status: ('A' for Active; 'I' for Inactive)
REMARK    1  A    between atoms: C2_2  and  C5_5 
REMARK    2  A    between atoms: C4_4  and  C5_5 
REMARK    3  A    between atoms: C4_4  and  C6_6 
ROOT
HETATM    1  C4  UNL     1     -32.564   7.311   3.347  1.00 20.00     0.353 C 
HETATM    2  F7  UNL     1     -31.904   8.450   3.716  1.00 20.00    -0.233 F 
ENDROOT
BRANCH   1   3
HETATM    3  C5  UNL     1     -32.387   7.153   1.840  1.00 20.00     0.300 C 
HETATM    4  F8  UNL     1     -33.546   6.668   1.316  1.00 20.00    -0.198 F 
HETATM    5  F9  UNL     1     -31.454   6.180   1.634  1.00 20.00    -0.198 F 
BRANCH   3   6
HETATM    6  C2  UNL     1     -31.943   8.408   1.148  1.00 20.00     0.050 C 
HETATM    7  C1  UNL     1     -32.772   9.293   0.576  1.00 20.00    -0.029 C 
HETATM    8  C3  UNL     1     -32.313  10.536  -0.112  1.00 20.00     0.036 C 
ENDBRANCH   3   6
ENDBRANCH   1   3
BRANCH   1   9
HETATM    9  C6  UNL     1     -33.997   7.457   3.811  1.00 20.00     0.424 C 
HETATM   10  F10 UNL     1     -34.684   8.336   3.052  1.00 20.00    -0.168 F 
HETATM   11  F11 UNL     1     -34.650   6.276   3.776  1.00 20.00    -0.168 F 
HETATM   12  F12 UNL     1     -34.034   7.910   5.084  1.00 20.00    -0.168 F 
ENDBRANCH   1   9
TORSDOF 3
ENDMDL
MODEL 8
REMARK VINA RESULT:      -2.8      2.269      4.323
REMARK  3 active torsions:
REMARK  status: ('A' for Active; 'I' for Inactive)
REMARK    1  A    between atoms: C2_2  and  C5_5 
REMARK    2  A    between atoms: C4_4  and  C5_5 
REMARK    3  A    between atoms: C4_4  and  C6_6 
ROOT
HETATM    1  C4  UNL     1     -31.577   9.014   0.954  1.00 20.00     0.353 C 
HETATM    2  F7  UNL     1     -30.629   8.692   0.023  1.00 20.00    -0.233 F 
ENDROOT
BRANCH   1   3
HETATM    3  C5  UNL     1     -32.209   7.707   1.425  1.00 20.00     0.300 C 
HETATM    4  F8  UNL     1     -31.237   6.756   1.491  1.00 20.00    -0.198 F 
HETATM    5  F9  UNL     1     -33.067   7.289   0.450  1.00 20.00    -0.198 F 
BRANCH   3   6
HETATM    6  C2  UNL     1     -32.961   7.829   2.717  1.00 20.00     0.050 C 
HETATM    7  C1  UNL     1     -33.885   6.956   3.142  1.00 20.00    -0.029 C 
HETATM    8  C3  UNL     1     -34.627   7.095   4.430  1.00 20.00     0.036 C 
ENDBRANCH   3   6
ENDBRANCH   1   3
BRANCH   1   9
HETATM    9  C6  UNL     1     -32.532   9.987   0.297  1.00 20.00     0.424 C 
HETATM   10  F10 UNL     1     -31.932  11.157  -0.001  1.00 20.00    -0.168 F 
HETATM   11  F11 UNL     1     -33.047   9.479  -0.842  1.00 20.00    -0.168 F 
HETATM   12  F12 UNL     1     -33.563  10.264   1.127  1.00 20.00    -0.168 F 
ENDBRANCH   1   9
TORSDOF 3
ENDMDL
MODEL 9
REMARK VINA RESULT:      -2.8      1.424      2.004
REMARK  3 active torsions:
REMARK  status: ('A' for Active; 'I' for Inactive)
REMARK    1  A    between atoms: C2_2  and  C5_5 
REMARK    2  A    between atoms: C4_4  and  C5_5 
REMARK    3  A    between atoms: C4_4  and  C6_6 
ROOT
HETATM    1  C4  UNL     1     -34.083   6.244   3.038  1.00 20.00     0.353 C 
HETATM    2  F7  UNL     1     -33.220   5.236   3.368  1.00 20.00    -0.233 F 
ENDROOT
BRANCH   1   3
HETATM    3  C5  UNL     1     -33.305   7.553   3.131  1.00 20.00     0.300 C 
HETATM    4  F8  UNL     1     -32.692   7.607   4.346  1.00 20.00    -0.198 F 
HETATM    5  F9  UNL     1     -34.211   8.572   3.131  1.00 20.00    -0.198 F 
BRANCH   3   6
HETATM    6  C2  UNL     1     -32.334   7.763   2.006  1.00 20.00     0.050 C 
HETATM    7  C1  UNL     1     -32.339   8.825   1.188  1.00 20.00    -0.029 C 
HETATM    8  C3  UNL     1     -31.367   9.016   0.071  1.00 20.00     0.036 C 
ENDBRANCH   3   6
ENDBRANCH   1   3
BRANCH   1   9
HETATM    9  C6  UNL     1     -35.269   6.137   3.970  1.00 20.00     0.424 C 
HETATM   10  F10 UNL     1     -36.425   6.460   3.353  1.00 20.00    -0.168 F 
HETATM   11  F11 UNL     1     -35.397   4.888   4.465  1.00 20.00    -0.168 F 
HETATM   12  F12 UNL     1     -35.123   6.981   5.016  1.00 20.00    -0.168 F 
ENDBRANCH   1   9
TORSDOF 3
ENDMDL
