MODEL 1
REMARK VINA RESULT:       2.1      0.000      0.000
REMARK  0 active torsions:
REMARK  status: ('A' for Active; 'I' for Inactive)
ROOT
HETATM    1  C1  UNL     1     -34.260   5.115   3.741  1.00 20.00     0.132 C 
HETATM    2  C2  UNL     1     -35.386   5.980   4.234  1.00 20.00     0.079 C 
HETATM    3  C3  UNL     1     -35.052   7.323   3.604  1.00 20.00     0.017 C 
HETATM    4  C4  UNL     1     -33.023   8.178   2.317  1.00 20.00     0.011 C 
HETATM    5  C5  UNL     1     -33.150   7.205   1.153  1.00 20.00     0.010 C 
HETATM    6  C6  UNL     1     -33.071   5.920   3.247  1.00 20.00     0.071 C 
HETATM    7  C7  UNL     1     -33.514   7.379   3.528  1.00 20.00    -0.033 C 
HETATM    8  C8  UNL     1     -32.734   5.837   1.733  1.00 20.00    -0.037 C 
HETATM    9  C9  UNL     1     -32.924   7.927   4.831  1.00 20.00     0.016 C 
HETATM   10  C10 UNL     1     -33.433   4.705   0.970  1.00 20.00     0.015 C 
HETATM   11  C11 UNL     1     -31.211   5.650   1.572  1.00 20.00     0.015 C 
HETATM   12  O12 UNL     1     -34.286   3.891   3.789  1.00 20.00    -0.298 OA
ENDROOT
TORSDOF 0
ENDMDL
MODEL 2
REMARK VINA RESULT:       2.3      1.474      3.211
REMARK  0 active torsions:
REMARK  status: ('A' for Active; 'I' for Inactive)
ROOT
HETATM    1  C1  UNL     1     -34.156   6.641   3.387  1.00 20.00     0.132 C 
HETATM    2  C2  UNL     1     -34.036   5.172   3.679  1.00 20.00     0.079 C 
HETATM    3  C3  UNL     1     -32.908   4.755   2.749  1.00 20.00     0.017 C 
HETATM    4  C4  UNL     1     -31.658   5.970   0.887  1.00 20.00     0.011 C 
HETATM    5  C5  UNL     1     -31.071   7.061   1.774  1.00 20.00     0.010 C 
HETATM    6  C6  UNL     1     -33.511   7.035   2.070  1.00 20.00     0.071 C 
HETATM    7  C7  UNL     1     -33.022   5.672   1.515  1.00 20.00    -0.033 C 
HETATM    8  C8  UNL     1     -32.268   7.965   2.136  1.00 20.00    -0.037 C 
HETATM    9  C9  UNL     1     -33.990   5.081   0.486  1.00 20.00     0.016 C 
HETATM   10  C10 UNL     1     -32.030   8.641   3.491  1.00 20.00     0.015 C 
HETATM   11  C11 UNL     1     -32.419   9.072   1.071  1.00 20.00     0.015 C 
HETATM   12  O12 UNL     1     -34.762   7.421   4.113  1.00 20.00    -0.298 OA
ENDROOT
TORSDOF 0
ENDMDL
MODEL 3
REMARK VINA RESULT:       2.5      1.360      3.338
REMARK  0 active torsions:
REMARK  status: ('A' for Active; 'I' for Inactive)
ROOT
HETATM    1  C1  UNL     1     -32.754   5.727   1.261  1.00 20.00     0.132 C 
HETATM    2  C2  UNL     1     -31.331   6.167   1.060  1.00 20.00     0.079 C 
HETATM    3  C3  UNL     1     -31.207   7.304   2.061  1.00 20.00     0.017 C 
HETATM    4  C4  UNL     1     -32.905   8.514   3.530  1.00 20.00     0.011 C 
HETATM    5  C5  UNL     1     -33.307   7.295   4.349  1.00 20.00     0.010 C 
HETATM    6  C6  UNL     1     -33.601   6.772   1.965  1.00 20.00     0.071 C 
HETATM    7  C7  UNL     1     -32.605   7.948   2.139  1.00 20.00    -0.033 C 
HETATM    8  C8  UNL     1     -34.134   6.422   3.381  1.00 20.00    -0.037 C 
HETATM    9  C9  UNL     1     -32.772   9.018   1.056  1.00 20.00     0.016 C 
HETATM   10  C10 UNL     1     -34.021   4.944   3.774  1.00 20.00     0.015 C 
HETATM   11  C11 UNL     1     -35.621   6.826   3.467  1.00 20.00     0.015 C 
HETATM   12  O12 UNL     1     -33.190   4.658   0.847  1.00 20.00    -0.298 OA
ENDROOT
TORSDOF 0
ENDMDL
MODEL 4
REMARK VINA RESULT:       2.7      1.830      3.054
REMARK  0 active torsions:
REMARK  status: ('A' for Active; 'I' for Inactive)
ROOT
HETATM    1  C1  UNL     1     -32.684   7.941   2.291  1.00 20.00     0.132 C 
HETATM    2  C2  UNL     1     -32.760   8.425   3.712  1.00 20.00     0.079 C 
HETATM    3  C3  UNL     1     -33.300   7.201   4.435  1.00 20.00     0.017 C 
HETATM    4  C4  UNL     1     -34.210   4.964   3.613  1.00 20.00     0.011 C 
HETATM    5  C5  UNL     1     -32.922   4.504   2.943  1.00 20.00     0.010 C 
HETATM    6  C6  UNL     1     -33.533   6.708   2.042  1.00 20.00     0.071 C 
HETATM    7  C7  UNL     1     -34.210   6.483   3.418  1.00 20.00    -0.033 C 
HETATM    8  C8  UNL     1     -32.790   5.390   1.687  1.00 20.00    -0.037 C 
HETATM    9  C9  UNL     1     -35.633   7.048   3.468  1.00 20.00     0.016 C 
HETATM   10  C10 UNL     1     -31.313   5.556   1.309  1.00 20.00     0.015 C 
HETATM   11  C11 UNL     1     -33.512   4.716   0.502  1.00 20.00     0.015 C 
HETATM   12  O12 UNL     1     -32.046   8.520   1.420  1.00 20.00    -0.298 OA
ENDROOT
TORSDOF 0
ENDMDL
MODEL 5
REMARK VINA RESULT:       3.1      1.738      3.727
REMARK  0 active torsions:
REMARK  status: ('A' for Active; 'I' for Inactive)
ROOT
HETATM    1  C1  UNL     1     -32.337   6.709   2.005  1.00 20.00     0.132 C 
HETATM    2  C2  UNL     1     -32.691   5.586   1.071  1.00 20.00     0.079 C 
HETATM    3  C3  UNL     1     -33.908   4.980   1.751  1.00 20.00     0.017 C 
HETATM    4  C4  UNL     1     -35.006   5.382   4.018  1.00 20.00     0.011 C 
HETATM    5  C5  UNL     1     -35.367   6.840   3.765  1.00 20.00     0.010 C 
HETATM    6  C6  UNL     1     -32.956   6.549   3.381  1.00 20.00     0.071 C 
HETATM    7  C7  UNL     1     -33.688   5.187   3.263  1.00 20.00    -0.033 C 
HETATM    8  C8  UNL     1     -34.022   7.594   3.810  1.00 20.00    -0.037 C 
HETATM    9  C9  UNL     1     -32.874   4.034   3.857  1.00 20.00     0.016 C 
HETATM   10  C10 UNL     1     -34.091   8.851   2.934  1.00 20.00     0.015 C 
HETATM   11  C11 UNL     1     -33.728   8.039   5.258  1.00 20.00     0.015 C 
HETATM   12  O12 UNL     1     -31.582   7.624   1.696  1.00 20.00    -0.298 OA
ENDROOT
TORSDOF 0
ENDMDL
