MODEL 1
REMARK VINA RESULT:      -0.5      0.000      0.000
REMARK  1 active torsions:
REMARK  status: ('A' for Active; 'I' for Inactive)
REMARK    1  A    between atoms: C7_7  and  O9_9 
ROOT
HETATM    1  C1  UNL     1     -34.900   5.252   4.784  1.00 20.00    -0.019 A 
HETATM    2  C2  UNL     1     -34.174   4.511   3.925  1.00 20.00    -0.080 A 
HETATM    3  C3  UNL     1     -34.478   7.663   3.898  1.00 20.00     0.012 C 
HETATM    4  C4  UNL     1     -33.051   7.371   3.453  1.00 20.00     0.033 C 
HETATM    5  C5  UNL     1     -35.213   6.327   3.764  1.00 20.00     0.019 A 
HETATM    6  C6  UNL     1     -34.396   5.474   2.764  1.00 20.00     0.050 A 
HETATM    7  C7  UNL     1     -33.237   6.369   2.317  1.00 20.00     0.127 C 
HETATM    8  C8  UNL     1     -33.411   3.179   4.053  1.00 20.00     0.043 C 
ENDROOT
BRANCH   7   9
HETATM    9  O9  UNL     1     -32.068   5.601   2.096  1.00 20.00    -0.395 OA
HETATM   10  H21 UNL     1     -32.292   4.926   1.433  1.00 20.00     0.210 HD
ENDBRANCH   7   9
TORSDOF 1
ENDMDL
MODEL 2
REMARK VINA RESULT:      -0.4      1.509      2.047
REMARK  1 active torsions:
REMARK  status: ('A' for Active; 'I' for Inactive)
REMARK    1  A    between atoms: C7_7  and  O9_9 
ROOT
HETATM    1  C1  UNL     1     -33.792   5.277   3.295  1.00 20.00    -0.019 A 
HETATM    2  C2  UNL     1     -33.086   5.637   2.207  1.00 20.00    -0.080 A 
HETATM    3  C3  UNL     1     -34.011   7.539   4.564  1.00 20.00     0.012 C 
HETATM    4  C4  UNL     1     -32.647   8.051   4.117  1.00 20.00     0.033 C 
HETATM    5  C5  UNL     1     -34.477   6.621   3.431  1.00 20.00     0.019 A 
HETATM    6  C6  UNL     1     -33.683   7.040   2.170  1.00 20.00     0.050 A 
HETATM    7  C7  UNL     1     -32.816   8.221   2.610  1.00 20.00     0.127 C 
HETATM    8  C8  UNL     1     -32.063   4.909   1.315  1.00 20.00     0.043 C 
ENDROOT
BRANCH   7   9
HETATM    9  O9  UNL     1     -31.570   8.206   1.936  1.00 20.00    -0.395 OA
HETATM   10  H21 UNL     1     -31.498   7.345   1.491  1.00 20.00     0.210 HD
ENDBRANCH   7   9
TORSDOF 1
ENDMDL
MODEL 3
REMARK VINA RESULT:      -0.3      1.167      1.891
REMARK  1 active torsions:
REMARK  status: ('A' for Active; 'I' for Inactive)
REMARK    1  A    between atoms: C7_7  and  O9_9 
ROOT
HETATM    1  C1  UNL     1     -33.860   7.184   4.082  1.00 20.00    -0.019 A 
HETATM    2  C2  UNL     1     -34.027   5.973   3.516  1.00 20.00    -0.080 A 
HETATM    3  C3  UNL     1     -32.355   8.388   2.333  1.00 20.00     0.012 C 
HETATM    4  C4  UNL     1     -31.609   7.121   1.936  1.00 20.00     0.033 C 
HETATM    5  C5  UNL     1     -33.746   7.909   2.757  1.00 20.00     0.019 A 
HETATM    6  C6  UNL     1     -33.954   6.525   2.097  1.00 20.00     0.050 A 
HETATM    7  C7  UNL     1     -32.690   6.272   1.272  1.00 20.00     0.127 C 
HETATM    8  C8  UNL     1     -34.230   4.555   4.082  1.00 20.00     0.043 C 
ENDROOT
BRANCH   7   9
HETATM    9  O9  UNL     1     -32.355   4.896   1.277  1.00 20.00    -0.395 OA
HETATM   10  H21 UNL     1     -31.551   4.797   0.739  1.00 20.00     0.210 HD
ENDBRANCH   7   9
TORSDOF 1
ENDMDL
MODEL 4
REMARK VINA RESULT:      -0.0      1.461      2.731
REMARK  1 active torsions:
REMARK  status: ('A' for Active; 'I' for Inactive)
REMARK    1  A    between atoms: C7_7  and  O9_9 
ROOT
HETATM    1  C1  UNL     1     -33.151   7.228   1.854  1.00 20.00    -0.019 A 
HETATM    2  C2  UNL     1     -32.867   5.913   1.915  1.00 20.00    -0.080 A 
HETATM    3  C3  UNL     1     -34.644   7.549   3.963  1.00 20.00     0.012 C 
HETATM    4  C4  UNL     1     -35.274   6.165   3.866  1.00 20.00     0.033 C 
HETATM    5  C5  UNL     1     -33.247   7.388   3.358  1.00 20.00     0.019 A 
HETATM    6  C6  UNL     1     -32.903   5.881   3.439  1.00 20.00     0.050 A 
HETATM    7  C7  UNL     1     -34.100   5.228   4.134  1.00 20.00     0.127 C 
HETATM    8  C8  UNL     1     -32.593   4.836   0.849  1.00 20.00     0.043 C 
ENDROOT
BRANCH   7   9
HETATM    9  O9  UNL     1     -34.333   3.931   3.615  1.00 20.00    -0.395 OA
HETATM   10  H21 UNL     1     -33.486   3.455   3.646  1.00 20.00     0.210 HD
ENDBRANCH   7   9
TORSDOF 1
ENDMDL
MODEL 5
REMARK VINA RESULT:       0.3      2.103      4.037
REMARK  1 active torsions:
REMARK  status: ('A' for Active; 'I' for Inactive)
REMARK    1  A    between atoms: C7_7  and  O9_9 
ROOT
HETATM    1  C1  UNL     1     -32.625   9.411   2.094  1.00 20.00    -0.019 A 
HETATM    2  C2  UNL     1     -32.333   8.691   0.994  1.00 20.00    -0.080 A 
HETATM    3  C3  UNL     1     -33.338   7.554   3.773  1.00 20.00     0.012 C 
HETATM    4  C4  UNL     1     -33.961   6.668   2.703  1.00 20.00     0.033 C 
HETATM    5  C5  UNL     1     -32.219   8.312   3.054  1.00 20.00     0.019 A 
HETATM    6  C6  UNL     1     -31.864   7.483   1.796  1.00 20.00     0.050 A 
HETATM    7  C7  UNL     1     -32.763   6.245   1.858  1.00 20.00     0.127 C 
HETATM    8  C8  UNL     1     -32.424   8.977  -0.517  1.00 20.00     0.043 C 
ENDROOT
BRANCH   7   9
HETATM    9  O9  UNL     1     -33.151   5.843   0.557  1.00 20.00    -0.395 OA
HETATM   10  H21 UNL     1     -33.306   6.654   0.043  1.00 20.00     0.210 HD
ENDBRANCH   7   9
TORSDOF 1
ENDMDL
MODEL 6
REMARK VINA RESULT:       0.3      1.749      3.513
REMARK  1 active torsions:
REMARK  status: ('A' for Active; 'I' for Inactive)
REMARK    1  A    between atoms: C7_7  and  O9_9 
ROOT
HETATM    1  C1  UNL     1     -32.010   5.815   1.616  1.00 20.00    -0.019 A 
HETATM    2  C2  UNL     1     -32.360   7.075   1.940  1.00 20.00    -0.080 A 
HETATM    3  C3  UNL     1     -33.727   4.416   2.984  1.00 20.00     0.012 C 
HETATM    4  C4  UNL     1     -33.776   5.402   4.144  1.00 20.00     0.033 C 
HETATM    5  C5  UNL     1     -33.418   5.273   1.753  1.00 20.00     0.019 A 
HETATM    6  C6  UNL     1     -33.833   6.720   2.109  1.00 20.00     0.050 A 
HETATM    7  C7  UNL     1     -34.413   6.641   3.523  1.00 20.00     0.127 C 
HETATM    8  C8  UNL     1     -31.574   8.392   2.078  1.00 20.00     0.043 C 
ENDROOT
BRANCH   7   9
HETATM    9  O9  UNL     1     -34.108   7.814   4.257  1.00 20.00    -0.395 OA
HETATM   10  H21 UNL     1     -34.786   7.902   4.948  1.00 20.00     0.210 HD
ENDBRANCH   7   9
TORSDOF 1
ENDMDL
MODEL 7
REMARK VINA RESULT:       0.5      1.798      3.400
REMARK  1 active torsions:
REMARK  status: ('A' for Active; 'I' for Inactive)
REMARK    1  A    between atoms: C7_7  and  O9_9 
ROOT
HETATM    1  C1  UNL     1     -32.184   8.012   2.695  1.00 20.00    -0.019 A 
HETATM    2  C2  UNL     1     -33.150   7.744   3.595  1.00 20.00    -0.080 A 
HETATM    3  C3  UNL     1     -32.177   5.842   1.256  1.00 20.00     0.012 C 
HETATM    4  C4  UNL     1     -32.528   4.931   2.426  1.00 20.00     0.033 C 
HETATM    5  C5  UNL     1     -32.824   7.187   1.598  1.00 20.00     0.019 A 
HETATM    6  C6  UNL     1     -33.949   6.888   2.619  1.00 20.00     0.050 A 
HETATM    7  C7  UNL     1     -33.943   5.367   2.797  1.00 20.00     0.127 C 
HETATM    8  C8  UNL     1     -33.379   8.155   5.061  1.00 20.00     0.043 C 
ENDROOT
BRANCH   7   9
HETATM    9  O9  UNL     1     -34.269   5.018   4.130  1.00 20.00    -0.395 OA
HETATM   10  H21 UNL     1     -34.596   5.824   4.563  1.00 20.00     0.210 HD
ENDBRANCH   7   9
TORSDOF 1
ENDMDL
MODEL 8
REMARK VINA RESULT:       1.3      1.784      3.153
REMARK  1 active torsions:
REMARK  status: ('A' for Active; 'I' for Inactive)
REMARK    1  A    between atoms: C7_7  and  O9_9 
ROOT
HETATM    1  C1  UNL     1     -34.244   5.946   3.302  1.00 20.00    -0.019 A 
HETATM    2  C2  UNL     1     -33.722   7.153   3.595  1.00 20.00    -0.080 A 
HETATM    3  C3  UNL     1     -33.117   5.416   1.017  1.00 20.00     0.012 C 
HETATM    4  C4  UNL     1     -33.093   6.871   0.563  1.00 20.00     0.033 C 
HETATM    5  C5  UNL     1     -33.019   5.479   2.543  1.00 20.00     0.019 A 
HETATM    6  C6  UNL     1     -32.404   6.856   2.889  1.00 20.00     0.050 A 
HETATM    7  C7  UNL     1     -32.123   7.526   1.542  1.00 20.00     0.127 C 
HETATM    8  C8  UNL     1     -34.248   8.379   4.365  1.00 20.00     0.043 C 
ENDROOT
BRANCH   7   9
HETATM    9  O9  UNL     1     -32.325   8.925   1.626  1.00 20.00    -0.395 OA
HETATM   10  H21 UNL     1     -33.122   9.129   1.108  1.00 20.00     0.210 HD
ENDBRANCH   7   9
TORSDOF 1
ENDMDL
MODEL 9
REMARK VINA RESULT:       1.4      3.087      4.522
REMARK  1 active torsions:
REMARK  status: ('A' for Active; 'I' for Inactive)
REMARK    1  A    between atoms: C7_7  and  O9_9 
ROOT
HETATM    1  C1  UNL     1     -32.217   6.836   1.589  1.00 20.00    -0.019 A 
HETATM    2  C2  UNL     1     -32.893   7.684   2.387  1.00 20.00    -0.080 A 
HETATM    3  C3  UNL     1     -31.335   8.437  -0.265  1.00 20.00     0.012 C 
HETATM    4  C4  UNL     1     -32.557   9.346  -0.218  1.00 20.00     0.033 C 
HETATM    5  C5  UNL     1     -31.207   7.879   1.154  1.00 20.00     0.019 A 
HETATM    6  C6  UNL     1     -31.967   8.856   2.083  1.00 20.00     0.050 A 
HETATM    7  C7  UNL     1     -32.471   9.976   1.169  1.00 20.00     0.127 C 
HETATM    8  C8  UNL     1     -34.134   7.533   3.287  1.00 20.00     0.043 C 
ENDROOT
BRANCH   7   9
HETATM    9  O9  UNL     1     -33.730  10.453   1.610  1.00 20.00    -0.395 OA
HETATM   10  H21 UNL     1     -34.009   9.882   2.345  1.00 20.00     0.210 HD
ENDBRANCH   7   9
TORSDOF 1
ENDMDL
