MODEL 1
REMARK VINA RESULT:      -1.2      0.000      0.000
REMARK  1 active torsions:
REMARK  status: ('A' for Active; 'I' for Inactive)
REMARK    1  A    between atoms: C4_4  and  C5_5 
ROOT
HETATM    1  C1  UNL     1     -34.162   5.039   3.998  1.00 20.00     0.069 C 
HETATM    2  C2  UNL     1     -35.712   6.759   3.193  1.00 20.00     0.032 C 
HETATM    3  C3  UNL     1     -33.715   7.400   4.551  1.00 20.00     0.032 C 
HETATM    4  C5  UNL     1     -34.236   6.425   3.482  1.00 20.00     0.054 C 
HETATM    5  N6  UNL     1     -34.105   3.952   4.404  1.00 20.00    -0.196 NA
ENDROOT
BRANCH   4   6
HETATM    6  C4  UNL     1     -33.446   6.551   2.162  1.00 20.00     0.138 C 
HETATM    7 CL7  UNL     1     -32.263   7.889   2.156  1.00 20.00    -0.129 Cl
ENDBRANCH   4   6
TORSDOF 1
ENDMDL
MODEL 2
REMARK VINA RESULT:      -1.0      2.302      2.960
REMARK  1 active torsions:
REMARK  status: ('A' for Active; 'I' for Inactive)
REMARK    1  A    between atoms: C4_4  and  C5_5 
ROOT
HETATM    1  C1  UNL     1     -33.652   6.079   2.570  1.00 20.00     0.069 C 
HETATM    2  C2  UNL     1     -34.024   7.454   4.565  1.00 20.00     0.032 C 
HETATM    3  C3  UNL     1     -35.924   6.919   3.031  1.00 20.00     0.032 C 
HETATM    4  C5  UNL     1     -34.625   6.372   3.648  1.00 20.00     0.054 C 
HETATM    5  N6  UNL     1     -32.890   5.850   1.725  1.00 20.00    -0.196 NA
ENDROOT
BRANCH   4   6
HETATM    6  C4  UNL     1     -34.886   5.110   4.496  1.00 20.00     0.138 C 
HETATM    7 CL7  UNL     1     -33.772   3.760   4.141  1.00 20.00    -0.129 Cl
ENDBRANCH   4   6
TORSDOF 1
ENDMDL
MODEL 3
REMARK VINA RESULT:      -0.6      2.787      3.627
REMARK  1 active torsions:
REMARK  status: ('A' for Active; 'I' for Inactive)
REMARK    1  A    between atoms: C4_4  and  C5_5 
ROOT
HETATM    1  C1  UNL     1     -32.342   7.404   1.652  1.00 20.00     0.069 C 
HETATM    2  C2  UNL     1     -33.767   5.806   0.458  1.00 20.00     0.032 C 
HETATM    3  C3  UNL     1     -31.645   5.042   1.534  1.00 20.00     0.032 C 
HETATM    4  C5  UNL     1     -32.835   6.007   1.667  1.00 20.00     0.054 C 
HETATM    5  N6  UNL     1     -31.956   8.499   1.639  1.00 20.00    -0.196 NA
ENDROOT
BRANCH   4   6
HETATM    6  C4  UNL     1     -33.646   5.736   2.953  1.00 20.00     0.138 C 
HETATM    7 CL7  UNL     1     -34.209   7.218   3.775  1.00 20.00    -0.129 Cl
ENDBRANCH   4   6
TORSDOF 1
ENDMDL
MODEL 4
REMARK VINA RESULT:      -0.6      3.555      4.278
REMARK  1 active torsions:
REMARK  status: ('A' for Active; 'I' for Inactive)
REMARK    1  A    between atoms: C4_4  and  C5_5 
ROOT
HETATM    1  C1  UNL     1     -32.412   8.980   0.946  1.00 20.00     0.069 C 
HETATM    2  C2  UNL     1     -32.145   6.591   1.422  1.00 20.00     0.032 C 
HETATM    3  C3  UNL     1     -30.991   8.294   2.841  1.00 20.00     0.032 C 
HETATM    4  C5  UNL     1     -32.272   7.995   2.043  1.00 20.00     0.054 C 
HETATM    5  N6  UNL     1     -32.521   9.753   0.086  1.00 20.00    -0.196 NA
ENDROOT
BRANCH   4   6
HETATM    6  C4  UNL     1     -33.523   8.013   2.946  1.00 20.00     0.138 C 
HETATM    7 CL7  UNL     1     -34.090   6.389   3.425  1.00 20.00    -0.129 Cl
ENDBRANCH   4   6
TORSDOF 1
ENDMDL
MODEL 5
REMARK VINA RESULT:      -0.4      1.820      2.938
REMARK  1 active torsions:
REMARK  status: ('A' for Active; 'I' for Inactive)
REMARK    1  A    between atoms: C4_4  and  C5_5 
ROOT
HETATM    1  C1  UNL     1     -33.705   6.504   2.865  1.00 20.00     0.069 C 
HETATM    2  C2  UNL     1     -31.870   5.336   1.734  1.00 20.00     0.032 C 
HETATM    3  C3  UNL     1     -33.595   6.560   0.403  1.00 20.00     0.032 C 
HETATM    4  C5  UNL     1     -32.782   6.577   1.708  1.00 20.00     0.054 C 
HETATM    5  N6  UNL     1     -34.427   6.446   3.772  1.00 20.00    -0.196 NA
ENDROOT
BRANCH   4   6
HETATM    6  C4  UNL     1     -31.892   7.834   1.809  1.00 20.00     0.138 C 
HETATM    7 CL7  UNL     1     -32.352   9.136   0.677  1.00 20.00    -0.129 Cl
ENDBRANCH   4   6
TORSDOF 1
ENDMDL
MODEL 6
REMARK VINA RESULT:      -0.4      2.528      3.057
REMARK  1 active torsions:
REMARK  status: ('A' for Active; 'I' for Inactive)
REMARK    1  A    between atoms: C4_4  and  C5_5 
ROOT
HETATM    1  C1  UNL     1     -33.940   7.372   4.408  1.00 20.00     0.069 C 
HETATM    2  C2  UNL     1     -35.900   6.807   3.047  1.00 20.00     0.032 C 
HETATM    3  C3  UNL     1     -33.643   5.928   2.432  1.00 20.00     0.032 C 
HETATM    4  C5  UNL     1     -34.562   6.290   3.610  1.00 20.00     0.054 C 
HETATM    5  N6  UNL     1     -33.453   8.220   5.033  1.00 20.00    -0.196 NA
ENDROOT
BRANCH   4   6
HETATM    6  C4  UNL     1     -34.855   5.064   4.501  1.00 20.00     0.138 C 
HETATM    7 CL7  UNL     1     -33.773   3.677   4.197  1.00 20.00    -0.129 Cl
ENDBRANCH   4   6
TORSDOF 1
ENDMDL
MODEL 7
REMARK VINA RESULT:      -0.4      1.678      2.343
REMARK  1 active torsions:
REMARK  status: ('A' for Active; 'I' for Inactive)
REMARK    1  A    between atoms: C4_4  and  C5_5 
ROOT
HETATM    1  C1  UNL     1     -33.709   7.425   4.363  1.00 20.00     0.069 C 
HETATM    2  C2  UNL     1     -34.188   5.029   4.169  1.00 20.00     0.032 C 
HETATM    3  C3  UNL     1     -35.751   6.709   3.182  1.00 20.00     0.032 C 
HETATM    4  C5  UNL     1     -34.272   6.394   3.461  1.00 20.00     0.054 C 
HETATM    5  N6  UNL     1     -33.267   8.233   5.070  1.00 20.00    -0.196 NA
ENDROOT
BRANCH   4   6
HETATM    6  C4  UNL     1     -33.451   6.313   2.156  1.00 20.00     0.138 C 
HETATM    7 CL7  UNL     1     -32.297   7.659   1.946  1.00 20.00    -0.129 Cl
ENDBRANCH   4   6
TORSDOF 1
ENDMDL
MODEL 8
REMARK VINA RESULT:      -0.4      3.613      4.339
REMARK  1 active torsions:
REMARK  status: ('A' for Active; 'I' for Inactive)
REMARK    1  A    between atoms: C4_4  and  C5_5 
ROOT
HETATM    1  C1  UNL     1     -32.409   9.084   0.972  1.00 20.00     0.069 C 
HETATM    2  C2  UNL     1     -31.092   8.530   2.965  1.00 20.00     0.032 C 
HETATM    3  C3  UNL     1     -33.493   7.853   2.813  1.00 20.00     0.032 C 
HETATM    4  C5  UNL     1     -32.197   8.046   2.007  1.00 20.00     0.054 C 
HETATM    5  N6  UNL     1     -32.575   9.899   0.161  1.00 20.00    -0.196 NA
ENDROOT
BRANCH   4   6
HETATM    6  C4  UNL     1     -31.730   6.726   1.358  1.00 20.00     0.138 C 
HETATM    7 CL7  UNL     1     -32.934   5.411   1.449  1.00 20.00    -0.129 Cl
ENDBRANCH   4   6
TORSDOF 1
ENDMDL
MODEL 9
REMARK VINA RESULT:      -0.3      2.600      3.500
REMARK  1 active torsions:
REMARK  status: ('A' for Active; 'I' for Inactive)
REMARK    1  A    between atoms: C4_4  and  C5_5 
ROOT
HETATM    1  C1  UNL     1     -32.377   6.510   1.636  1.00 20.00     0.069 C 
HETATM    2  C2  UNL     1     -31.004   8.218   2.736  1.00 20.00     0.032 C 
HETATM    3  C3  UNL     1     -32.665   8.871   0.986  1.00 20.00     0.032 C 
HETATM    4  C5  UNL     1     -32.392   7.900   2.147  1.00 20.00     0.054 C 
HETATM    5  N6  UNL     1     -32.364   5.420   1.235  1.00 20.00    -0.196 NA
ENDROOT
BRANCH   4   6
HETATM    6  C4  UNL     1     -33.439   8.049   3.272  1.00 20.00     0.138 C 
HETATM    7 CL7  UNL     1     -34.355   6.553   3.607  1.00 20.00    -0.129 Cl
ENDBRANCH   4   6
TORSDOF 1
ENDMDL
