MODEL 1
REMARK VINA RESULT:      -0.8      0.000      0.000
REMARK  1 active torsions:
REMARK  status: ('A' for Active; 'I' for Inactive)
REMARK    1  A    between atoms: C1_1  and  C4_4 
ROOT
HETATM    1  C3  UNL     1     -31.856   8.570   2.940  1.00 20.00     0.018 A 
HETATM    2  C4  UNL     1     -33.093   7.808   2.543  1.00 20.00     0.017 A 
HETATM    3  C5  UNL     1     -32.124   8.293   1.481  1.00 20.00    -0.040 A 
HETATM    4  C8  UNL     1     -32.569   9.444   0.616  1.00 20.00     0.015 C 
HETATM    5  C9  UNL     1     -31.212   7.320   0.775  1.00 20.00     0.015 C 
ENDROOT
BRANCH   2   6
HETATM    6  C1  UNL     1     -33.192   6.395   2.882  1.00 20.00    -0.019 C 
HETATM    7  C2  UNL     1     -34.186   5.775   3.546  1.00 20.00    -0.091 C 
HETATM    8  C6  UNL     1     -34.136   4.296   3.816  1.00 20.00     0.042 C 
HETATM    9  C7  UNL     1     -35.408   6.476   4.068  1.00 20.00     0.042 C 
ENDBRANCH   2   6
TORSDOF 1
ENDMDL
MODEL 2
REMARK VINA RESULT:      -0.8      1.138      4.244
REMARK  1 active torsions:
REMARK  status: ('A' for Active; 'I' for Inactive)
REMARK    1  A    between atoms: C1_1  and  C4_4 
ROOT
HETATM    1  C3  UNL     1     -34.262   7.594   4.919  1.00 20.00     0.018 A 
HETATM    2  C4  UNL     1     -33.357   7.091   3.826  1.00 20.00     0.017 A 
HETATM    3  C5  UNL     1     -34.784   6.585   3.925  1.00 20.00    -0.040 A 
HETATM    4  C8  UNL     1     -34.982   5.168   4.398  1.00 20.00     0.015 C 
HETATM    5  C9  UNL     1     -35.830   7.049   2.943  1.00 20.00     0.015 C 
ENDROOT
BRANCH   2   6
HETATM    6  C1  UNL     1     -32.955   8.004   2.765  1.00 20.00    -0.019 C 
HETATM    7  C2  UNL     1     -32.329   7.702   1.611  1.00 20.00    -0.091 C 
HETATM    8  C6  UNL     1     -31.982   8.770   0.612  1.00 20.00     0.042 C 
HETATM    9  C7  UNL     1     -31.927   6.309   1.218  1.00 20.00     0.042 C 
ENDBRANCH   2   6
TORSDOF 1
ENDMDL
MODEL 3
REMARK VINA RESULT:       0.0      1.046      1.496
REMARK  1 active torsions:
REMARK  status: ('A' for Active; 'I' for Inactive)
REMARK    1  A    between atoms: C1_1  and  C4_4 
ROOT
HETATM    1  C3  UNL     1     -31.021   8.810   1.301  1.00 20.00     0.018 A 
HETATM    2  C4  UNL     1     -32.316   8.544   2.022  1.00 20.00     0.017 A 
HETATM    3  C5  UNL     1     -32.325   9.239   0.673  1.00 20.00    -0.040 A 
HETATM    4  C8  UNL     1     -32.648  10.711   0.659  1.00 20.00     0.015 C 
HETATM    5  C9  UNL     1     -32.779   8.505  -0.564  1.00 20.00     0.015 C 
ENDROOT
BRANCH   2   6
HETATM    6  C1  UNL     1     -32.777   7.169   2.161  1.00 20.00    -0.019 C 
HETATM    7  C2  UNL     1     -33.620   6.673   3.087  1.00 20.00    -0.091 C 
HETATM    8  C6  UNL     1     -34.000   5.218   3.094  1.00 20.00     0.042 C 
HETATM    9  C7  UNL     1     -34.247   7.499   4.175  1.00 20.00     0.042 C 
ENDBRANCH   2   6
TORSDOF 1
ENDMDL
MODEL 4
REMARK VINA RESULT:       0.1      1.621      4.437
REMARK  1 active torsions:
REMARK  status: ('A' for Active; 'I' for Inactive)
REMARK    1  A    between atoms: C1_1  and  C4_4 
ROOT
HETATM    1  C3  UNL     1     -33.174   6.424   2.785  1.00 20.00     0.018 A 
HETATM    2  C4  UNL     1     -32.223   7.285   1.997  1.00 20.00     0.017 A 
HETATM    3  C5  UNL     1     -32.761   5.999   1.397  1.00 20.00    -0.040 A 
HETATM    4  C8  UNL     1     -31.802   4.843   1.271  1.00 20.00     0.015 C 
HETATM    5  C9  UNL     1     -33.809   6.040   0.313  1.00 20.00     0.015 C 
ENDROOT
BRANCH   2   6
HETATM    6  C1  UNL     1     -32.675   8.584   1.519  1.00 20.00    -0.019 C 
HETATM    7  C2  UNL     1     -32.168   9.310   0.505  1.00 20.00    -0.091 C 
HETATM    8  C6  UNL     1     -32.756  10.644   0.134  1.00 20.00     0.042 C 
HETATM    9  C7  UNL     1     -31.000   8.875  -0.333  1.00 20.00     0.042 C 
ENDBRANCH   2   6
TORSDOF 1
ENDMDL
MODEL 5
REMARK VINA RESULT:       0.2      1.446      4.516
REMARK  1 active torsions:
REMARK  status: ('A' for Active; 'I' for Inactive)
REMARK    1  A    between atoms: C1_1  and  C4_4 
ROOT
HETATM    1  C3  UNL     1     -31.376   6.568   1.974  1.00 20.00     0.018 A 
HETATM    2  C4  UNL     1     -32.125   7.490   1.048  1.00 20.00     0.017 A 
HETATM    3  C5  UNL     1     -32.869   6.411   1.815  1.00 20.00    -0.040 A 
HETATM    4  C8  UNL     1     -33.373   5.230   1.027  1.00 20.00     0.015 C 
HETATM    5  C9  UNL     1     -33.739   6.772   2.993  1.00 20.00     0.015 C 
ENDROOT
BRANCH   2   6
HETATM    6  C1  UNL     1     -32.260   8.895   1.407  1.00 20.00    -0.019 C 
HETATM    7  C2  UNL     1     -32.494   9.936   0.586  1.00 20.00    -0.091 C 
HETATM    8  C6  UNL     1     -32.607  11.337   1.119  1.00 20.00     0.042 C 
HETATM    9  C7  UNL     1     -32.662   9.806  -0.902  1.00 20.00     0.042 C 
ENDBRANCH   2   6
TORSDOF 1
ENDMDL
MODEL 6
REMARK VINA RESULT:       0.4      2.234      3.722
REMARK  1 active torsions:
REMARK  status: ('A' for Active; 'I' for Inactive)
REMARK    1  A    between atoms: C1_1  and  C4_4 
ROOT
HETATM    1  C3  UNL     1     -33.683   6.142   2.321  1.00 20.00     0.018 A 
HETATM    2  C4  UNL     1     -33.178   5.383   3.519  1.00 20.00     0.017 A 
HETATM    3  C5  UNL     1     -34.281   6.414   3.680  1.00 20.00    -0.040 A 
HETATM    4  C8  UNL     1     -33.920   7.708   4.362  1.00 20.00     0.015 C 
HETATM    5  C9  UNL     1     -35.706   5.979   3.915  1.00 20.00     0.015 C 
ENDROOT
BRANCH   2   6
HETATM    6  C1  UNL     1     -33.460   3.959   3.623  1.00 20.00    -0.019 C 
HETATM    7  C2  UNL     1     -33.143   3.128   4.635  1.00 20.00    -0.091 C 
HETATM    8  C6  UNL     1     -33.510   1.670   4.589  1.00 20.00     0.042 C 
HETATM    9  C7  UNL     1     -32.412   3.561   5.874  1.00 20.00     0.042 C 
ENDBRANCH   2   6
TORSDOF 1
ENDMDL
MODEL 7
REMARK VINA RESULT:       0.4      1.315      2.397
REMARK  1 active torsions:
REMARK  status: ('A' for Active; 'I' for Inactive)
REMARK    1  A    between atoms: C1_1  and  C4_4 
ROOT
HETATM    1  C3  UNL     1     -32.909   7.669   0.550  1.00 20.00     0.018 A 
HETATM    2  C4  UNL     1     -31.974   7.919   1.704  1.00 20.00     0.017 A 
HETATM    3  C5  UNL     1     -32.037   8.901   0.548  1.00 20.00    -0.040 A 
HETATM    4  C8  UNL     1     -30.863   8.930  -0.396  1.00 20.00     0.015 C 
HETATM    5  C9  UNL     1     -32.716  10.237   0.716  1.00 20.00     0.015 C 
ENDROOT
BRANCH   2   6
HETATM    6  C1  UNL     1     -32.532   8.255   3.006  1.00 20.00    -0.019 C 
HETATM    7  C2  UNL     1     -33.433   7.555   3.722  1.00 20.00    -0.091 C 
HETATM    8  C6  UNL     1     -33.911   8.043   5.061  1.00 20.00     0.042 C 
HETATM    9  C7  UNL     1     -34.034   6.255   3.267  1.00 20.00     0.042 C 
ENDBRANCH   2   6
TORSDOF 1
ENDMDL
MODEL 8
REMARK VINA RESULT:       0.6      1.723      2.735
REMARK  1 active torsions:
REMARK  status: ('A' for Active; 'I' for Inactive)
REMARK    1  A    between atoms: C1_1  and  C4_4 
ROOT
HETATM    1  C3  UNL     1     -31.710   6.830   1.067  1.00 20.00     0.018 A 
HETATM    2  C4  UNL     1     -33.022   7.214   1.698  1.00 20.00     0.017 A 
HETATM    3  C5  UNL     1     -32.711   5.756   1.412  1.00 20.00    -0.040 A 
HETATM    4  C8  UNL     1     -33.460   5.102   0.280  1.00 20.00     0.015 C 
HETATM    5  C9  UNL     1     -32.364   4.812   2.536  1.00 20.00     0.015 C 
ENDROOT
BRANCH   2   6
HETATM    6  C1  UNL     1     -33.027   7.727   3.061  1.00 20.00    -0.019 C 
HETATM    7  C2  UNL     1     -33.945   7.506   4.021  1.00 20.00    -0.091 C 
HETATM    8  C6  UNL     1     -33.803   8.115   5.389  1.00 20.00     0.042 C 
HETATM    9  C7  UNL     1     -35.169   6.656   3.828  1.00 20.00     0.042 C 
ENDBRANCH   2   6
TORSDOF 1
ENDMDL
MODEL 9
REMARK VINA RESULT:       0.7      0.878      4.169
REMARK  1 active torsions:
REMARK  status: ('A' for Active; 'I' for Inactive)
REMARK    1  A    between atoms: C1_1  and  C4_4 
ROOT
HETATM    1  C3  UNL     1     -35.023   6.541   3.716  1.00 20.00     0.018 A 
HETATM    2  C4  UNL     1     -33.632   7.105   3.599  1.00 20.00     0.017 A 
HETATM    3  C5  UNL     1     -33.920   5.687   3.142  1.00 20.00    -0.040 A 
HETATM    4  C8  UNL     1     -33.381   4.566   3.993  1.00 20.00     0.015 C 
HETATM    5  C9  UNL     1     -33.986   5.355   1.672  1.00 20.00     0.015 C 
ENDROOT
BRANCH   2   6
HETATM    6  C1  UNL     1     -33.379   8.167   2.636  1.00 20.00    -0.019 C 
HETATM    7  C2  UNL     1     -32.343   8.275   1.781  1.00 20.00    -0.091 C 
HETATM    8  C6  UNL     1     -32.228   9.445   0.842  1.00 20.00     0.042 C 
HETATM    9  C7  UNL     1     -31.232   7.269   1.682  1.00 20.00     0.042 C 
ENDBRANCH   2   6
TORSDOF 1
ENDMDL
