MODEL 1
REMARK VINA RESULT:      -2.9      0.000      0.000
REMARK  1 active torsions:
REMARK  status: ('A' for Active; 'I' for Inactive)
REMARK    1  A    between atoms: C1_1  and  C3_3 
ROOT
HETATM    1  C1  UNL     1     -33.246   7.175   2.405  1.00 20.00     0.043 C 
HETATM    2  C2  UNL     1     -33.835   7.225   3.606  1.00 20.00     0.183 C 
HETATM    3  F4  UNL     1     -33.291   7.967   4.595  1.00 20.00    -0.193 F 
HETATM    4 CL5  UNL     1     -35.284   6.351   3.926  1.00 20.00    -0.052 Cl
ENDROOT
BRANCH   1   5
HETATM    5  C3  UNL     1     -31.995   7.914   2.058  1.00 20.00     0.145 C 
HETATM    6 CL6  UNL     1     -32.340   9.138   0.818  1.00 20.00    -0.126 Cl
ENDBRANCH   1   5
TORSDOF 1
ENDMDL
MODEL 2
REMARK VINA RESULT:      -2.7      1.928      3.799
REMARK  1 active torsions:
REMARK  status: ('A' for Active; 'I' for Inactive)
REMARK    1  A    between atoms: C1_1  and  C3_3 
ROOT
HETATM    1  C1  UNL     1     -33.988   7.150   3.555  1.00 20.00     0.043 C 
HETATM    2  C2  UNL     1     -33.189   6.972   2.496  1.00 20.00     0.183 C 
HETATM    3  F4  UNL     1     -33.352   5.891   1.701  1.00 20.00    -0.193 F 
HETATM    4 CL5  UNL     1     -31.943   8.099   2.119  1.00 20.00    -0.052 Cl
ENDROOT
BRANCH   1   5
HETATM    5  C3  UNL     1     -35.093   6.218   3.933  1.00 20.00     0.145 C 
HETATM    6 CL6  UNL     1     -34.436   4.601   4.260  1.00 20.00    -0.126 Cl
ENDBRANCH   1   5
TORSDOF 1
ENDMDL
MODEL 3
REMARK VINA RESULT:      -2.7      3.199      3.761
REMARK  1 active torsions:
REMARK  status: ('A' for Active; 'I' for Inactive)
REMARK    1  A    between atoms: C1_1  and  C3_3 
ROOT
HETATM    1  C1  UNL     1     -34.896   4.993   4.470  1.00 20.00     0.043 C 
HETATM    2  C2  UNL     1     -33.877   4.292   3.960  1.00 20.00     0.183 C 
HETATM    3  F4  UNL     1     -33.245   4.730   2.849  1.00 20.00    -0.193 F 
HETATM    4 CL5  UNL     1     -33.347   2.825   4.692  1.00 20.00    -0.052 Cl
ENDROOT
BRANCH   1   5
HETATM    5  C3  UNL     1     -35.400   6.275   3.892  1.00 20.00     0.145 C 
HETATM    6 CL6  UNL     1     -34.167   7.542   4.067  1.00 20.00    -0.126 Cl
ENDBRANCH   1   5
TORSDOF 1
ENDMDL
MODEL 4
REMARK VINA RESULT:      -2.7      1.504      1.504
REMARK  1 active torsions:
REMARK  status: ('A' for Active; 'I' for Inactive)
REMARK    1  A    between atoms: C1_1  and  C3_3 
ROOT
HETATM    1  C1  UNL     1     -33.063   7.743   2.698  1.00 20.00     0.043 C 
HETATM    2  C2  UNL     1     -33.668   6.563   2.880  1.00 20.00     0.183 C 
HETATM    3  F4  UNL     1     -33.235   5.473   2.210  1.00 20.00    -0.193 F 
HETATM    4 CL5  UNL     1     -35.002   6.401   3.957  1.00 20.00    -0.052 Cl
ENDROOT
BRANCH   1   5
HETATM    5  C3  UNL     1     -31.896   7.952   1.788  1.00 20.00     0.145 C 
HETATM    6 CL6  UNL     1     -32.247   9.268   0.648  1.00 20.00    -0.126 Cl
ENDBRANCH   1   5
TORSDOF 1
ENDMDL
MODEL 5
REMARK VINA RESULT:      -2.4      1.691      3.715
REMARK  1 active torsions:
REMARK  status: ('A' for Active; 'I' for Inactive)
REMARK    1  A    between atoms: C1_1  and  C3_3 
ROOT
HETATM    1  C1  UNL     1     -33.381   7.376   2.684  1.00 20.00     0.043 C 
HETATM    2  C2  UNL     1     -32.393   7.473   1.786  1.00 20.00     0.183 C 
HETATM    3  F4  UNL     1     -31.681   6.376   1.446  1.00 20.00    -0.193 F 
HETATM    4 CL5  UNL     1     -32.002   8.979   1.048  1.00 20.00    -0.052 Cl
ENDROOT
BRANCH   1   5
HETATM    5  C3  UNL     1     -33.779   6.102   3.354  1.00 20.00     0.145 C 
HETATM    6 CL6  UNL     1     -35.415   6.258   4.028  1.00 20.00    -0.126 Cl
ENDBRANCH   1   5
TORSDOF 1
ENDMDL
MODEL 6
REMARK VINA RESULT:      -2.3      1.877      3.689
REMARK  1 active torsions:
REMARK  status: ('A' for Active; 'I' for Inactive)
REMARK    1  A    between atoms: C1_1  and  C3_3 
ROOT
HETATM    1  C1  UNL     1     -33.768   5.940   3.156  1.00 20.00     0.043 C 
HETATM    2  C2  UNL     1     -33.487   7.232   3.361  1.00 20.00     0.183 C 
HETATM    3  F4  UNL     1     -33.999   7.873   4.434  1.00 20.00    -0.193 F 
HETATM    4 CL5  UNL     1     -32.478   8.109   2.274  1.00 20.00    -0.052 Cl
ENDROOT
BRANCH   1   5
HETATM    5  C3  UNL     1     -34.627   5.118   4.061  1.00 20.00     0.145 C 
HETATM    6 CL6  UNL     1     -33.830   3.569   4.409  1.00 20.00    -0.126 Cl
ENDBRANCH   1   5
TORSDOF 1
ENDMDL
MODEL 7
REMARK VINA RESULT:      -2.2      2.908      3.468
REMARK  1 active torsions:
REMARK  status: ('A' for Active; 'I' for Inactive)
REMARK    1  A    between atoms: C1_1  and  C3_3 
ROOT
HETATM    1  C1  UNL     1     -33.475   5.136   3.392  1.00 20.00     0.043 C 
HETATM    2  C2  UNL     1     -34.075   4.272   4.219  1.00 20.00     0.183 C 
HETATM    3  F4  UNL     1     -35.311   4.540   4.693  1.00 20.00    -0.193 F 
HETATM    4 CL5  UNL     1     -33.299   2.812   4.701  1.00 20.00    -0.052 Cl
ENDROOT
BRANCH   1   5
HETATM    5  C3  UNL     1     -34.093   6.414   2.927  1.00 20.00     0.145 C 
HETATM    6 CL6  UNL     1     -34.139   7.586   4.262  1.00 20.00    -0.126 Cl
ENDBRANCH   1   5
TORSDOF 1
ENDMDL
MODEL 8
REMARK VINA RESULT:      -2.1      2.365      3.175
REMARK  1 active torsions:
REMARK  status: ('A' for Active; 'I' for Inactive)
REMARK    1  A    between atoms: C1_1  and  C3_3 
ROOT
HETATM    1  C1  UNL     1     -33.792   6.307   3.073  1.00 20.00     0.043 C 
HETATM    2  C2  UNL     1     -32.871   6.613   2.151  1.00 20.00     0.183 C 
HETATM    3  F4  UNL     1     -32.521   7.902   1.949  1.00 20.00    -0.193 F 
HETATM    4 CL5  UNL     1     -32.118   5.389   1.202  1.00 20.00    -0.052 Cl
ENDROOT
BRANCH   1   5
HETATM    5  C3  UNL     1     -34.477   7.316   3.936  1.00 20.00     0.145 C 
HETATM    6 CL6  UNL     1     -33.295   8.099   5.006  1.00 20.00    -0.126 Cl
ENDBRANCH   1   5
TORSDOF 1
ENDMDL
MODEL 9
REMARK VINA RESULT:      -2.0      2.121      2.350
REMARK  1 active torsions:
REMARK  status: ('A' for Active; 'I' for Inactive)
REMARK    1  A    between atoms: C1_1  and  C3_3 
ROOT
HETATM    1  C1  UNL     1     -31.995   7.999   0.946  1.00 20.00     0.043 C 
HETATM    2  C2  UNL     1     -32.516   7.149   1.839  1.00 20.00     0.183 C 
HETATM    3  F4  UNL     1     -33.179   7.624   2.916  1.00 20.00    -0.193 F 
HETATM    4 CL5  UNL     1     -32.356   5.445   1.648  1.00 20.00    -0.052 Cl
ENDROOT
BRANCH   1   5
HETATM    5  C3  UNL     1     -32.106   9.486   1.045  1.00 20.00     0.145 C 
HETATM    6 CL6  UNL     1     -32.785  10.143  -0.459  1.00 20.00    -0.126 Cl
ENDBRANCH   1   5
TORSDOF 1
ENDMDL
