MODEL 1
REMARK VINA RESULT:       0.8      0.000      0.000
REMARK  0 active torsions:
REMARK  status: ('A' for Active; 'I' for Inactive)
ROOT
HETATM    1  C1  UNL     1     -32.215   8.023   2.695  1.00 20.00     0.006 C 
HETATM    2  C2  UNL     1     -33.403   7.697   3.625  1.00 20.00     0.009 C 
HETATM    3  C3  UNL     1     -34.555   6.492   1.743  1.00 20.00     0.014 C 
HETATM    4  C4  UNL     1     -33.075   5.241   3.193  1.00 20.00     0.014 C 
HETATM    5  C5  UNL     1     -32.024   6.997   1.614  1.00 20.00    -0.006 A 
HETATM    6  C6  UNL     1     -33.241   6.327   1.032  1.00 20.00    -0.005 A 
HETATM    7  C7  UNL     1     -32.326   5.556   1.927  1.00 20.00    -0.005 A 
HETATM    8  C8  UNL     1     -34.127   6.384   3.234  1.00 20.00    -0.043 C 
HETATM    9  C9  UNL     1     -35.292   6.082   4.163  1.00 20.00     0.015 C 
ENDROOT
TORSDOF 0
ENDMDL
MODEL 2
REMARK VINA RESULT:       0.8      0.944      3.198
REMARK  0 active torsions:
REMARK  status: ('A' for Active; 'I' for Inactive)
ROOT
HETATM    1  C1  UNL     1     -34.190   4.579   4.027  1.00 20.00     0.006 C 
HETATM    2  C2  UNL     1     -33.108   5.025   3.020  1.00 20.00     0.009 C 
HETATM    3  C3  UNL     1     -34.704   6.699   2.036  1.00 20.00     0.014 C 
HETATM    4  C4  UNL     1     -33.284   7.386   3.871  1.00 20.00     0.014 C 
HETATM    5  C5  UNL     1     -35.158   5.677   4.366  1.00 20.00    -0.006 A 
HETATM    6  C6  UNL     1     -35.527   6.669   3.295  1.00 20.00    -0.005 A 
HETATM    7  C7  UNL     1     -34.649   7.092   4.428  1.00 20.00    -0.005 A 
HETATM    8  C8  UNL     1     -33.265   6.505   2.590  1.00 20.00    -0.043 C 
HETATM    9  C9  UNL     1     -32.190   6.924   1.601  1.00 20.00     0.015 C 
ENDROOT
TORSDOF 0
ENDMDL
MODEL 3
REMARK VINA RESULT:       1.1      0.904      2.883
REMARK  0 active torsions:
REMARK  status: ('A' for Active; 'I' for Inactive)
ROOT
HETATM    1  C1  UNL     1     -33.384   7.995   4.106  1.00 20.00     0.006 C 
HETATM    2  C2  UNL     1     -32.589   7.424   2.913  1.00 20.00     0.009 C 
HETATM    3  C3  UNL     1     -33.439   5.118   3.441  1.00 20.00     0.014 C 
HETATM    4  C4  UNL     1     -34.716   6.510   1.928  1.00 20.00     0.014 C 
HETATM    5  C5  UNL     1     -34.620   7.199   4.418  1.00 20.00    -0.006 A 
HETATM    6  C6  UNL     1     -34.587   5.707   4.213  1.00 20.00    -0.005 A 
HETATM    7  C7  UNL     1     -35.375   6.568   3.279  1.00 20.00    -0.005 A 
HETATM    8  C8  UNL     1     -33.249   6.161   2.304  1.00 20.00    -0.043 C 
HETATM    9  C9  UNL     1     -32.452   5.616   1.130  1.00 20.00     0.015 C 
ENDROOT
TORSDOF 0
ENDMDL
MODEL 4
REMARK VINA RESULT:       1.2      0.931      2.355
REMARK  0 active torsions:
REMARK  status: ('A' for Active; 'I' for Inactive)
ROOT
HETATM    1  C1  UNL     1     -32.052   6.060   1.549  1.00 20.00     0.006 C 
HETATM    2  C2  UNL     1     -33.275   5.709   2.423  1.00 20.00     0.009 C 
HETATM    3  C3  UNL     1     -32.681   7.565   4.012  1.00 20.00     0.014 C 
HETATM    4  C4  UNL     1     -34.147   8.052   2.149  1.00 20.00     0.014 C 
HETATM    5  C5  UNL     1     -31.674   7.512   1.632  1.00 20.00    -0.006 A 
HETATM    6  C6  UNL     1     -31.863   8.232   2.941  1.00 20.00    -0.005 A 
HETATM    7  C7  UNL     1     -32.768   8.533   1.791  1.00 20.00    -0.005 A 
HETATM    8  C8  UNL     1     -33.837   6.936   3.185  1.00 20.00    -0.043 C 
HETATM    9  C9  UNL     1     -35.041   6.569   4.037  1.00 20.00     0.015 C 
ENDROOT
TORSDOF 0
ENDMDL
MODEL 5
REMARK VINA RESULT:       1.4      1.076      2.846
REMARK  0 active torsions:
REMARK  status: ('A' for Active; 'I' for Inactive)
ROOT
HETATM    1  C1  UNL     1     -33.744   6.538   3.387  1.00 20.00     0.006 C 
HETATM    2  C2  UNL     1     -33.412   7.937   2.828  1.00 20.00     0.009 C 
HETATM    3  C3  UNL     1     -31.330   7.022   1.755  1.00 20.00     0.014 C 
HETATM    4  C4  UNL     1     -33.394   7.004   0.492  1.00 20.00     0.014 C 
HETATM    5  C5  UNL     1     -33.209   5.426   2.530  1.00 20.00    -0.006 A 
HETATM    6  C6  UNL     1     -31.898   5.632   1.817  1.00 20.00    -0.005 A 
HETATM    7  C7  UNL     1     -33.173   5.620   1.038  1.00 20.00    -0.005 A 
HETATM    8  C8  UNL     1     -32.604   7.877   1.507  1.00 20.00    -0.043 C 
HETATM    9  C9  UNL     1     -32.290   9.265   0.973  1.00 20.00     0.015 C 
ENDROOT
TORSDOF 0
ENDMDL
MODEL 6
REMARK VINA RESULT:       1.7      1.099      3.148
REMARK  0 active torsions:
REMARK  status: ('A' for Active; 'I' for Inactive)
ROOT
HETATM    1  C1  UNL     1     -33.592   5.464   2.695  1.00 20.00     0.006 C 
HETATM    2  C2  UNL     1     -32.773   6.364   1.746  1.00 20.00     0.009 C 
HETATM    3  C3  UNL     1     -34.223   8.328   2.345  1.00 20.00     0.014 C 
HETATM    4  C4  UNL     1     -32.238   7.904   3.661  1.00 20.00     0.014 C 
HETATM    5  C5  UNL     1     -34.192   6.223   3.844  1.00 20.00    -0.006 A 
HETATM    6  C6  UNL     1     -34.647   7.641   3.613  1.00 20.00    -0.005 A 
HETATM    7  C7  UNL     1     -33.421   7.378   4.426  1.00 20.00    -0.005 A 
HETATM    8  C8  UNL     1     -32.753   7.846   2.196  1.00 20.00    -0.043 C 
HETATM    9  C9  UNL     1     -31.940   8.714   1.249  1.00 20.00     0.015 C 
ENDROOT
TORSDOF 0
ENDMDL
MODEL 7
REMARK VINA RESULT:       1.7      1.083      2.431
REMARK  0 active torsions:
REMARK  status: ('A' for Active; 'I' for Inactive)
ROOT
HETATM    1  C1  UNL     1     -33.456   7.444   3.546  1.00 20.00     0.006 C 
HETATM    2  C2  UNL     1     -33.742   6.164   2.733  1.00 20.00     0.009 C 
HETATM    3  C3  UNL     1     -33.250   7.400   0.599  1.00 20.00     0.014 C 
HETATM    4  C4  UNL     1     -31.435   6.274   1.738  1.00 20.00     0.014 C 
HETATM    5  C5  UNL     1     -32.469   8.354   2.871  1.00 20.00    -0.006 A 
HETATM    6  C6  UNL     1     -32.473   8.434   1.367  1.00 20.00    -0.005 A 
HETATM    7  C7  UNL     1     -31.353   7.739   2.070  1.00 20.00    -0.005 A 
HETATM    8  C8  UNL     1     -32.944   6.107   1.406  1.00 20.00    -0.043 C 
HETATM    9  C9  UNL     1     -33.239   4.838   0.622  1.00 20.00     0.015 C 
ENDROOT
TORSDOF 0
ENDMDL
MODEL 8
REMARK VINA RESULT:       2.3      0.775      2.734
REMARK  0 active torsions:
REMARK  status: ('A' for Active; 'I' for Inactive)
ROOT
HETATM    1  C1  UNL     1     -32.201   8.216   2.493  1.00 20.00     0.006 C 
HETATM    2  C2  UNL     1     -31.874   7.096   1.482  1.00 20.00     0.009 C 
HETATM    3  C3  UNL     1     -32.810   5.383   3.066  1.00 20.00     0.014 C 
HETATM    4  C4  UNL     1     -34.293   6.409   1.453  1.00 20.00     0.014 C 
HETATM    5  C5  UNL     1     -33.378   7.886   3.366  1.00 20.00    -0.006 A 
HETATM    6  C6  UNL     1     -33.595   6.453   3.774  1.00 20.00    -0.005 A 
HETATM    7  C7  UNL     1     -34.510   7.087   2.778  1.00 20.00    -0.005 A 
HETATM    8  C8  UNL     1     -32.837   5.887   1.596  1.00 20.00    -0.043 C 
HETATM    9  C9  UNL     1     -32.498   4.798   0.591  1.00 20.00     0.015 C 
ENDROOT
TORSDOF 0
ENDMDL
MODEL 9
REMARK VINA RESULT:       2.3      1.402      2.178
REMARK  0 active torsions:
REMARK  status: ('A' for Active; 'I' for Inactive)
ROOT
HETATM    1  C1  UNL     1     -32.756   9.425   0.835  1.00 20.00     0.006 C 
HETATM    2  C2  UNL     1     -33.662   9.137   2.050  1.00 20.00     0.009 C 
HETATM    3  C3  UNL     1     -33.095   6.692   1.901  1.00 20.00     0.014 C 
HETATM    4  C4  UNL     1     -31.709   8.127   3.272  1.00 20.00     0.014 C 
HETATM    5  C5  UNL     1     -31.622   8.449   0.709  1.00 20.00    -0.006 A 
HETATM    6  C6  UNL     1     -31.852   7.018   1.120  1.00 20.00    -0.005 A 
HETATM    7  C7  UNL     1     -30.997   7.905   1.966  1.00 20.00    -0.005 A 
HETATM    8  C8  UNL     1     -33.194   7.906   2.867  1.00 20.00    -0.043 C 
HETATM    9  C9  UNL     1     -34.098   7.641   4.059  1.00 20.00     0.015 C 
ENDROOT
TORSDOF 0
ENDMDL
