MODEL 1
REMARK VINA RESULT:       3.0      0.000      0.000
REMARK  0 active torsions:
REMARK  status: ('A' for Active; 'I' for Inactive)
ROOT
HETATM    1  C1  UNL     1     -30.651   8.013   1.893  1.00 20.00    -0.019 A 
HETATM    2  C2  UNL     1     -31.113   8.778   2.898  1.00 20.00    -0.019 A 
HETATM    3  C3  UNL     1     -33.620   5.785   2.227  1.00 20.00    -0.023 C 
HETATM    4  C4  UNL     1     -34.091   6.541   3.235  1.00 20.00    -0.086 C 
HETATM    5  C5  UNL     1     -32.260   6.023   1.640  1.00 20.00     0.042 C 
HETATM    6  C6  UNL     1     -33.241   7.651   3.800  1.00 20.00     0.048 C 
HETATM    7  C7  UNL     1     -32.351   9.511  -0.137  1.00 20.00     0.001 C 
HETATM    8  C8  UNL     1     -32.881  10.375   1.009  1.00 20.00     0.001 C 
HETATM    9  C9  UNL     1     -32.510   8.006   0.071  1.00 20.00     0.015 C 
HETATM   10  C10 UNL     1     -33.478   9.593   2.176  1.00 20.00     0.015 C 
HETATM   11  C11 UNL     1     -32.039   7.539   1.462  1.00 20.00    -0.009 A 
HETATM   12  C12 UNL     1     -32.580   8.431   2.644  1.00 20.00    -0.008 A 
HETATM   13  C13 UNL     1     -35.433   6.315   3.859  1.00 20.00     0.043 C 
ENDROOT
TORSDOF 0
ENDMDL
MODEL 2
REMARK VINA RESULT:       4.9      1.670      3.555
REMARK  0 active torsions:
REMARK  status: ('A' for Active; 'I' for Inactive)
ROOT
HETATM    1  C1  UNL     1     -34.635   6.724   1.253  1.00 20.00    -0.019 A 
HETATM    2  C2  UNL     1     -33.867   5.759   0.715  1.00 20.00    -0.019 A 
HETATM    3  C3  UNL     1     -34.486   4.999   4.554  1.00 20.00    -0.023 C 
HETATM    4  C4  UNL     1     -33.719   4.027   4.027  1.00 20.00    -0.086 C 
HETATM    5  C5  UNL     1     -35.104   6.061   3.692  1.00 20.00     0.042 C 
HETATM    6  C6  UNL     1     -33.474   3.990   2.539  1.00 20.00     0.048 C 
HETATM    7  C7  UNL     1     -32.186   8.233   2.244  1.00 20.00     0.001 C 
HETATM    8  C8  UNL     1     -31.315   7.131   1.638  1.00 20.00     0.001 C 
HETATM    9  C9  UNL     1     -33.257   7.740   3.214  1.00 20.00     0.015 C 
HETATM   10  C10 UNL     1     -31.661   5.717   2.098  1.00 20.00     0.015 C 
HETATM   11  C11 UNL     1     -34.067   6.551   2.662  1.00 20.00    -0.009 A 
HETATM   12  C12 UNL     1     -33.171   5.416   2.033  1.00 20.00    -0.008 A 
HETATM   13  C13 UNL     1     -33.107   2.940   4.854  1.00 20.00     0.043 C 
ENDROOT
TORSDOF 0
ENDMDL
