MODEL 1
REMARK VINA RESULT:       1.7      0.000      0.000
REMARK  0 active torsions:
REMARK  status: ('A' for Active; 'I' for Inactive)
ROOT
HETATM    1  C1  UNL     1     -33.513   7.181   3.219  1.00 20.00    -0.080 C 
HETATM    2  C2  UNL     1     -34.573   7.489   3.975  1.00 20.00     0.015 C 
HETATM    3  C3  UNL     1     -33.146   5.783   2.802  1.00 20.00     0.043 C 
HETATM    4  C4  UNL     1     -32.215   9.577   0.659  1.00 20.00     0.002 C 
HETATM    5  C5  UNL     1     -31.680   8.204   0.262  1.00 20.00     0.006 C 
HETATM    6  C6  UNL     1     -33.220   9.293   1.765  1.00 20.00     0.014 C 
HETATM    7  C7  UNL     1     -31.810   7.320   1.511  1.00 20.00     0.006 C 
HETATM    8  C8  UNL     1     -32.565   8.166   2.575  1.00 20.00    -0.017 C 
HETATM    9  C9  UNL     1     -32.603   5.985   1.373  1.00 20.00    -0.040 C 
HETATM   10  C10 UNL     1     -31.589   8.729   3.621  1.00 20.00     0.020 C 
HETATM   11  C11 UNL     1     -31.667   4.833   0.981  1.00 20.00     0.015 C 
HETATM   12  C12 UNL     1     -33.776   6.010   0.373  1.00 20.00     0.015 C 
ENDROOT
TORSDOF 0
ENDMDL
MODEL 2
REMARK VINA RESULT:       2.3      1.051      3.582
REMARK  0 active torsions:
REMARK  status: ('A' for Active; 'I' for Inactive)
ROOT
HETATM    1  C1  UNL     1     -33.000   5.758   1.432  1.00 20.00    -0.080 C 
HETATM    2  C2  UNL     1     -33.510   5.040   0.424  1.00 20.00     0.015 C 
HETATM    3  C3  UNL     1     -31.786   6.639   1.317  1.00 20.00     0.043 C 
HETATM    4  C4  UNL     1     -35.197   7.091   4.148  1.00 20.00     0.002 C 
HETATM    5  C5  UNL     1     -33.922   7.928   4.187  1.00 20.00     0.006 C 
HETATM    6  C6  UNL     1     -35.079   6.270   2.872  1.00 20.00     0.014 C 
HETATM    7  C7  UNL     1     -32.862   7.125   3.418  1.00 20.00     0.006 C 
HETATM    8  C8  UNL     1     -33.593   5.892   2.815  1.00 20.00    -0.017 C 
HETATM    9  C9  UNL     1     -32.141   7.829   2.230  1.00 20.00    -0.040 C 
HETATM   10  C10 UNL     1     -33.309   4.628   3.642  1.00 20.00     0.020 C 
HETATM   11  C11 UNL     1     -30.869   8.543   2.710  1.00 20.00     0.015 C 
HETATM   12  C12 UNL     1     -32.994   8.847   1.446  1.00 20.00     0.015 C 
ENDROOT
TORSDOF 0
ENDMDL
MODEL 3
REMARK VINA RESULT:       2.6      1.043      1.228
REMARK  0 active torsions:
REMARK  status: ('A' for Active; 'I' for Inactive)
ROOT
HETATM    1  C1  UNL     1     -34.315   6.209   3.546  1.00 20.00    -0.080 C 
HETATM    2  C2  UNL     1     -35.537   6.198   4.090  1.00 20.00     0.015 C 
HETATM    3  C3  UNL     1     -33.653   5.013   2.919  1.00 20.00     0.043 C 
HETATM    4  C4  UNL     1     -32.948   9.305   1.955  1.00 20.00     0.002 C 
HETATM    5  C5  UNL     1     -32.132   8.145   1.393  1.00 20.00     0.006 C 
HETATM    6  C6  UNL     1     -34.090   8.641   2.710  1.00 20.00     0.014 C 
HETATM    7  C7  UNL     1     -32.358   6.963   2.347  1.00 20.00     0.006 C 
HETATM    8  C8  UNL     1     -33.431   7.423   3.373  1.00 20.00    -0.017 C 
HETATM    9  C9  UNL     1     -32.883   5.630   1.735  1.00 20.00    -0.040 C 
HETATM   10  C10 UNL     1     -32.781   7.804   4.713  1.00 20.00     0.020 C 
HETATM   11  C11 UNL     1     -31.715   4.725   1.317  1.00 20.00     0.015 C 
HETATM   12  C12 UNL     1     -33.828   5.780   0.526  1.00 20.00     0.015 C 
ENDROOT
TORSDOF 0
ENDMDL
MODEL 4
REMARK VINA RESULT:       2.8      1.258      3.502
REMARK  0 active torsions:
REMARK  status: ('A' for Active; 'I' for Inactive)
ROOT
HETATM    1  C1  UNL     1     -33.889   5.256   3.267  1.00 20.00    -0.080 C 
HETATM    2  C2  UNL     1     -33.701   4.027   3.761  1.00 20.00     0.015 C 
HETATM    3  C3  UNL     1     -34.768   6.300   3.900  1.00 20.00     0.043 C 
HETATM    4  C4  UNL     1     -31.205   6.974   1.312  1.00 20.00     0.002 C 
HETATM    5  C5  UNL     1     -32.144   8.074   1.795  1.00 20.00     0.006 C 
HETATM    6  C6  UNL     1     -31.661   5.725   2.051  1.00 20.00     0.014 C 
HETATM    7  C7  UNL     1     -33.453   7.373   2.188  1.00 20.00     0.006 C 
HETATM    8  C8  UNL     1     -33.191   5.846   2.063  1.00 20.00    -0.017 C 
HETATM    9  C9  UNL     1     -33.995   7.607   3.630  1.00 20.00    -0.040 C 
HETATM   10  C10 UNL     1     -33.802   5.289   0.767  1.00 20.00     0.020 C 
HETATM   11  C11 UNL     1     -34.941   8.815   3.669  1.00 20.00     0.015 C 
HETATM   12  C12 UNL     1     -32.920   7.805   4.718  1.00 20.00     0.015 C 
ENDROOT
TORSDOF 0
ENDMDL
MODEL 5
REMARK VINA RESULT:       3.1      1.128      3.357
REMARK  0 active torsions:
REMARK  status: ('A' for Active; 'I' for Inactive)
ROOT
HETATM    1  C1  UNL     1     -33.382   7.896   3.986  1.00 20.00    -0.080 C 
HETATM    2  C2  UNL     1     -33.269   8.026   5.313  1.00 20.00     0.015 C 
HETATM    3  C3  UNL     1     -32.911   8.920   2.989  1.00 20.00     0.043 C 
HETATM    4  C4  UNL     1     -33.300   4.525   2.371  1.00 20.00     0.002 C 
HETATM    5  C5  UNL     1     -32.965   5.528   1.272  1.00 20.00     0.006 C 
HETATM    6  C6  UNL     1     -33.272   5.339   3.657  1.00 20.00     0.014 C 
HETATM    7  C7  UNL     1     -33.433   6.897   1.788  1.00 20.00     0.006 C 
HETATM    8  C8  UNL     1     -33.901   6.680   3.254  1.00 20.00    -0.017 C 
HETATM    9  C9  UNL     1     -32.387   8.051   1.829  1.00 20.00    -0.040 C 
HETATM   10  C10 UNL     1     -35.435   6.622   3.338  1.00 20.00     0.020 C 
HETATM   11  C11 UNL     1     -32.394   8.841   0.513  1.00 20.00     0.015 C 
HETATM   12  C12 UNL     1     -30.935   7.620   2.121  1.00 20.00     0.015 C 
ENDROOT
TORSDOF 0
ENDMDL
MODEL 6
REMARK VINA RESULT:       3.8      1.149      3.301
REMARK  0 active torsions:
REMARK  status: ('A' for Active; 'I' for Inactive)
ROOT
HETATM    1  C1  UNL     1     -32.656   6.244   1.575  1.00 20.00    -0.080 C 
HETATM    2  C2  UNL     1     -31.703   5.636   0.858  1.00 20.00     0.015 C 
HETATM    3  C3  UNL     1     -33.959   5.604   1.970  1.00 20.00     0.043 C 
HETATM    4  C4  UNL     1     -31.787   8.855   4.106  1.00 20.00     0.002 C 
HETATM    5  C5  UNL     1     -33.181   8.358   4.474  1.00 20.00     0.006 C 
HETATM    6  C6  UNL     1     -31.305   7.890   3.032  1.00 20.00     0.014 C 
HETATM    7  C7  UNL     1     -33.724   7.648   3.224  1.00 20.00     0.006 C 
HETATM    8  C8  UNL     1     -32.561   7.619   2.193  1.00 20.00    -0.017 C 
HETATM    9  C9  UNL     1     -34.206   6.175   3.380  1.00 20.00    -0.040 C 
HETATM   10  C10 UNL     1     -32.754   8.701   1.118  1.00 20.00     0.020 C 
HETATM   11  C11 UNL     1     -35.699   6.124   3.733  1.00 20.00     0.015 C 
HETATM   12  C12 UNL     1     -33.440   5.333   4.421  1.00 20.00     0.015 C 
ENDROOT
TORSDOF 0
ENDMDL
