MODEL 1
REMARK VINA RESULT:       0.1      0.000      0.000
REMARK  0 active torsions:
REMARK  status: ('A' for Active; 'I' for Inactive)
ROOT
HETATM    1  C1  UNL     1     -33.342   4.827   2.400  1.00 20.00     0.004 C 
HETATM    2  C2  UNL     1     -32.433   5.524   1.390  1.00 20.00     0.005 C 
HETATM    3  C3  UNL     1     -33.373   5.575   3.735  1.00 20.00     0.042 C 
HETATM    4  C4  UNL     1     -31.876   7.900   2.236  1.00 20.00     0.013 A 
HETATM    5  C5  UNL     1     -32.667   7.004   1.315  1.00 20.00    -0.007 A 
HETATM    6  C6  UNL     1     -33.362   7.753   2.429  1.00 20.00     0.029 A 
HETATM    7  C7  UNL     1     -33.952   6.988   3.583  1.00 20.00     0.117 C 
HETATM    8 CL8  UNL     1     -33.677   7.920   5.087  1.00 20.00    -0.101 Cl
HETATM    9 CL9  UNL     1     -35.730   6.889   3.317  1.00 20.00    -0.101 Cl
ENDROOT
TORSDOF 0
ENDMDL
MODEL 2
REMARK VINA RESULT:       0.5      2.191      2.996
REMARK  0 active torsions:
REMARK  status: ('A' for Active; 'I' for Inactive)
ROOT
HETATM    1  C1  UNL     1     -34.090   7.559   3.718  1.00 20.00     0.004 C 
HETATM    2  C2  UNL     1     -34.270   6.104   3.292  1.00 20.00     0.005 C 
HETATM    3  C3  UNL     1     -32.639   8.017   3.545  1.00 20.00     0.042 C 
HETATM    4  C4  UNL     1     -32.193   5.336   1.961  1.00 20.00     0.013 A 
HETATM    5  C5  UNL     1     -33.631   5.796   1.971  1.00 20.00    -0.007 A 
HETATM    6  C6  UNL     1     -32.553   6.682   1.387  1.00 20.00     0.029 A 
HETATM    7  C7  UNL     1     -32.198   7.971   2.076  1.00 20.00     0.117 C 
HETATM    8 CL8  UNL     1     -30.426   8.209   1.968  1.00 20.00    -0.101 Cl
HETATM    9 CL9  UNL     1     -32.987   9.309   1.164  1.00 20.00    -0.101 Cl
ENDROOT
TORSDOF 0
ENDMDL
MODEL 3
REMARK VINA RESULT:       0.6      0.878      2.614
REMARK  0 active torsions:
REMARK  status: ('A' for Active; 'I' for Inactive)
ROOT
HETATM    1  C1  UNL     1     -32.390   8.799   2.003  1.00 20.00     0.004 C 
HETATM    2  C2  UNL     1     -31.796   7.670   1.163  1.00 20.00     0.005 C 
HETATM    3  C3  UNL     1     -33.788   8.441   2.512  1.00 20.00     0.042 C 
HETATM    4  C4  UNL     1     -33.187   5.521   1.507  1.00 20.00     0.013 A 
HETATM    5  C5  UNL     1     -31.943   6.322   1.803  1.00 20.00    -0.007 A 
HETATM    6  C6  UNL     1     -32.962   6.069   2.891  1.00 20.00     0.029 A 
HETATM    7  C7  UNL     1     -33.762   7.219   3.441  1.00 20.00     0.117 C 
HETATM    8 CL8  UNL     1     -35.433   6.658   3.751  1.00 20.00    -0.101 Cl
HETATM    9 CL9  UNL     1     -33.035   7.678   5.024  1.00 20.00    -0.101 Cl
ENDROOT
TORSDOF 0
ENDMDL
MODEL 4
REMARK VINA RESULT:       0.6      2.248      3.513
REMARK  0 active torsions:
REMARK  status: ('A' for Active; 'I' for Inactive)
ROOT
HETATM    1  C1  UNL     1     -33.350   8.133   2.927  1.00 20.00     0.004 C 
HETATM    2  C2  UNL     1     -34.104   7.408   4.040  1.00 20.00     0.005 C 
HETATM    3  C3  UNL     1     -32.280   7.236   2.300  1.00 20.00     0.042 C 
HETATM    4  C4  UNL     1     -33.599   4.878   3.912  1.00 20.00     0.013 A 
HETATM    5  C5  UNL     1     -34.541   6.027   3.650  1.00 20.00    -0.007 A 
HETATM    6  C6  UNL     1     -33.901   5.291   2.495  1.00 20.00     0.029 A 
HETATM    7  C7  UNL     1     -32.893   5.998   1.631  1.00 20.00     0.117 C 
HETATM    8 CL8  UNL     1     -31.597   4.840   1.198  1.00 20.00    -0.101 Cl
HETATM    9 CL9  UNL     1     -33.726   6.483   0.110  1.00 20.00    -0.101 Cl
ENDROOT
TORSDOF 0
ENDMDL
MODEL 5
REMARK VINA RESULT:       0.7      2.167      3.031
REMARK  0 active torsions:
REMARK  status: ('A' for Active; 'I' for Inactive)
ROOT
HETATM    1  C1  UNL     1     -34.184   7.151   3.994  1.00 20.00     0.004 C 
HETATM    2  C2  UNL     1     -33.285   8.365   3.771  1.00 20.00     0.005 C 
HETATM    3  C3  UNL     1     -34.494   6.435   2.677  1.00 20.00     0.042 C 
HETATM    4  C4  UNL     1     -32.274   8.260   1.396  1.00 20.00     0.013 A 
HETATM    5  C5  UNL     1     -32.111   8.071   2.884  1.00 20.00    -0.007 A 
HETATM    6  C6  UNL     1     -32.097   6.874   1.960  1.00 20.00     0.029 A 
HETATM    7  C7  UNL     1     -33.224   5.879   2.017  1.00 20.00     0.117 C 
HETATM    8 CL8  UNL     1     -33.594   5.338   0.351  1.00 20.00    -0.101 Cl
HETATM    9 CL9  UNL     1     -32.639   4.448   2.941  1.00 20.00    -0.101 Cl
ENDROOT
TORSDOF 0
ENDMDL
MODEL 6
REMARK VINA RESULT:       0.7      1.393      2.182
REMARK  0 active torsions:
REMARK  status: ('A' for Active; 'I' for Inactive)
ROOT
HETATM    1  C1  UNL     1     -33.111   6.661   1.690  1.00 20.00     0.004 C 
HETATM    2  C2  UNL     1     -32.349   7.754   2.435  1.00 20.00     0.005 C 
HETATM    3  C3  UNL     1     -33.746   5.662   2.659  1.00 20.00     0.042 C 
HETATM    4  C4  UNL     1     -32.997   7.701   4.935  1.00 20.00     0.013 A 
HETATM    5  C5  UNL     1     -33.128   8.340   3.574  1.00 20.00    -0.007 A 
HETATM    6  C6  UNL     1     -34.302   7.611   4.188  1.00 20.00     0.029 A 
HETATM    7  C7  UNL     1     -34.788   6.330   3.567  1.00 20.00     0.117 C 
HETATM    8 CL8  UNL     1     -35.263   5.204   4.875  1.00 20.00    -0.101 Cl
HETATM    9 CL9  UNL     1     -36.265   6.716   2.611  1.00 20.00    -0.101 Cl
ENDROOT
TORSDOF 0
ENDMDL
MODEL 7
REMARK VINA RESULT:       0.8      2.121      3.063
REMARK  0 active torsions:
REMARK  status: ('A' for Active; 'I' for Inactive)
ROOT
HETATM    1  C1  UNL     1     -32.659   5.428   1.815  1.00 20.00     0.004 C 
HETATM    2  C2  UNL     1     -33.712   5.388   2.920  1.00 20.00     0.005 C 
HETATM    3  C3  UNL     1     -32.708   6.748   1.043  1.00 20.00     0.042 C 
HETATM    4  C4  UNL     1     -34.641   7.768   3.306  1.00 20.00     0.013 A 
HETATM    5  C5  UNL     1     -33.742   6.639   3.747  1.00 20.00    -0.007 A 
HETATM    6  C6  UNL     1     -33.145   7.935   3.245  1.00 20.00     0.029 A 
HETATM    7  C7  UNL     1     -32.389   7.949   1.945  1.00 20.00     0.117 C 
HETATM    8 CL8  UNL     1     -32.764   9.472   1.081  1.00 20.00    -0.101 Cl
HETATM    9 CL9  UNL     1     -30.631   7.960   2.338  1.00 20.00    -0.101 Cl
ENDROOT
TORSDOF 0
ENDMDL
MODEL 8
REMARK VINA RESULT:       0.8      2.384      3.585
REMARK  0 active torsions:
REMARK  status: ('A' for Active; 'I' for Inactive)
ROOT
HETATM    1  C1  UNL     1     -32.168   8.783   4.144  1.00 20.00     0.004 C 
HETATM    2  C2  UNL     1     -33.379   8.164   4.838  1.00 20.00     0.005 C 
HETATM    3  C3  UNL     1     -31.538   7.809   3.145  1.00 20.00     0.042 C 
HETATM    4  C4  UNL     1     -34.101   6.034   3.567  1.00 20.00     0.013 A 
HETATM    5  C5  UNL     1     -34.322   7.493   3.884  1.00 20.00    -0.007 A 
HETATM    6  C6  UNL     1     -33.881   7.073   2.499  1.00 20.00     0.029 A 
HETATM    7  C7  UNL     1     -32.509   7.449   2.012  1.00 20.00     0.117 C 
HETATM    8 CL8  UNL     1     -31.847   6.084   1.059  1.00 20.00    -0.101 Cl
HETATM    9 CL9  UNL     1     -32.692   8.855   0.901  1.00 20.00    -0.101 Cl
ENDROOT
TORSDOF 0
ENDMDL
MODEL 9
REMARK VINA RESULT:       1.3      2.037      2.870
REMARK  0 active torsions:
REMARK  status: ('A' for Active; 'I' for Inactive)
ROOT
HETATM    1  C1  UNL     1     -31.599   7.357   1.375  1.00 20.00     0.004 C 
HETATM    2  C2  UNL     1     -32.174   8.453   2.269  1.00 20.00     0.005 C 
HETATM    3  C3  UNL     1     -31.795   5.970   1.993  1.00 20.00     0.042 C 
HETATM    4  C4  UNL     1     -33.688   7.385   4.070  1.00 20.00     0.013 A 
HETATM    5  C5  UNL     1     -33.553   8.139   2.770  1.00 20.00    -0.007 A 
HETATM    6  C6  UNL     1     -34.089   6.725   2.777  1.00 20.00     0.029 A 
HETATM    7  C7  UNL     1     -33.281   5.621   2.151  1.00 20.00     0.117 C 
HETATM    8 CL8  UNL     1     -33.453   4.147   3.154  1.00 20.00    -0.101 Cl
HETATM    9 CL9  UNL     1     -33.997   5.272   0.536  1.00 20.00    -0.101 Cl
ENDROOT
TORSDOF 0
ENDMDL
