MODEL 1
REMARK VINA RESULT:      -0.2      0.000      0.000
REMARK  0 active torsions:
REMARK  status: ('A' for Active; 'I' for Inactive)
ROOT
HETATM    1  C1  UNL     1     -34.182   7.674   4.032  1.00 20.00    -0.023 C 
HETATM    2  C2  UNL     1     -34.217   6.350   3.804  1.00 20.00    -0.080 C 
HETATM    3  C3  UNL     1     -32.035   7.981   1.629  1.00 20.00     0.127 C 
HETATM    4  C4  UNL     1     -33.184   8.748   3.711  1.00 20.00     0.035 C 
HETATM    5  C5  UNL     1     -35.335   5.519   4.394  1.00 20.00     0.034 C 
HETATM    6  C6  UNL     1     -31.858   8.365   3.078  1.00 20.00     0.082 C 
HETATM    7  C7  UNL     1     -31.809   6.537   1.269  1.00 20.00     0.079 C 
HETATM    8  C8  UNL     1     -34.678   4.165   4.582  1.00 20.00     0.005 C 
HETATM    9  C9  UNL     1     -33.011   5.668   1.608  1.00 20.00     0.016 C 
HETATM   10  C10 UNL     1     -33.829   4.034   3.333  1.00 20.00     0.009 C 
HETATM   11  C11 UNL     1     -33.217   5.435   3.115  1.00 20.00     0.014 C 
HETATM   12  O12 UNL     1     -32.376   8.806   0.781  1.00 20.00    -0.298 OA
ENDROOT
TORSDOF 0
ENDMDL
MODEL 2
REMARK VINA RESULT:       1.0      2.074      4.029
REMARK  0 active torsions:
REMARK  status: ('A' for Active; 'I' for Inactive)
ROOT
HETATM    1  C1  UNL     1     -33.649   7.753   4.055  1.00 20.00    -0.023 C 
HETATM    2  C2  UNL     1     -32.896   7.682   2.943  1.00 20.00    -0.080 C 
HETATM    3  C3  UNL     1     -34.306   4.598   3.748  1.00 20.00     0.127 C 
HETATM    4  C4  UNL     1     -34.758   6.902   4.602  1.00 20.00     0.035 C 
HETATM    5  C5  UNL     1     -31.935   8.805   2.620  1.00 20.00     0.034 C 
HETATM    6  C6  UNL     1     -35.286   5.745   3.772  1.00 20.00     0.082 C 
HETATM    7  C7  UNL     1     -33.632   4.298   2.435  1.00 20.00     0.079 C 
HETATM    8  C8  UNL     1     -31.880   8.769   1.104  1.00 20.00     0.005 C 
HETATM    9  C9  UNL     1     -32.474   5.245   2.157  1.00 20.00     0.016 C 
HETATM   10  C10 UNL     1     -31.884   7.282   0.810  1.00 20.00     0.009 C 
HETATM   11  C11 UNL     1     -32.903   6.679   1.801  1.00 20.00     0.014 C 
HETATM   12  O12 UNL     1     -34.046   3.951   4.762  1.00 20.00    -0.298 OA
ENDROOT
TORSDOF 0
ENDMDL
MODEL 3
REMARK VINA RESULT:       1.1      0.994      2.557
REMARK  0 active torsions:
REMARK  status: ('A' for Active; 'I' for Inactive)
ROOT
HETATM    1  C1  UNL     1     -32.729   4.789   2.375  1.00 20.00    -0.023 C 
HETATM    2  C2  UNL     1     -33.617   5.232   3.281  1.00 20.00    -0.080 C 
HETATM    3  C3  UNL     1     -31.933   7.860   1.730  1.00 20.00     0.127 C 
HETATM    4  C4  UNL     1     -32.067   5.425   1.187  1.00 20.00     0.035 C 
HETATM    5  C5  UNL     1     -34.196   4.268   4.294  1.00 20.00     0.034 C 
HETATM    6  C6  UNL     1     -32.474   6.827   0.772  1.00 20.00     0.082 C 
HETATM    7  C7  UNL     1     -32.933   8.594   2.584  1.00 20.00     0.079 C 
HETATM    8  C8  UNL     1     -35.566   4.858   4.569  1.00 20.00     0.005 C 
HETATM    9  C9  UNL     1     -33.376   7.768   3.783  1.00 20.00     0.016 C 
HETATM   10  C10 UNL     1     -35.286   6.347   4.590  1.00 20.00     0.009 C 
HETATM   11  C11 UNL     1     -34.295   6.586   3.429  1.00 20.00     0.014 C 
HETATM   12  O12 UNL     1     -30.726   8.076   1.830  1.00 20.00    -0.298 OA
ENDROOT
TORSDOF 0
ENDMDL
