MODEL 1
REMARK VINA RESULT:      -2.1      0.000      0.000
REMARK  1 active torsions:
REMARK  status: ('A' for Active; 'I' for Inactive)
REMARK    1  A    between atoms: C1_1  and  C4_4 
ROOT
HETATM    1  C1  UNL     1     -33.815   7.359   3.245  1.00 20.00     0.102 C 
HETATM    2  C2  UNL     1     -33.021   7.006   2.219  1.00 20.00    -0.015 C 
HETATM    3  C3  UNL     1     -32.999   5.654   1.565  1.00 20.00     0.055 C 
HETATM    4  I8  UNL     1     -31.685   8.412   1.430  1.00 20.00    -0.050 I 
ENDROOT
BRANCH   1   5
HETATM    5  C4  UNL     1     -34.813   6.479   3.914  1.00 20.00     0.408 C 
HETATM    6  F5  UNL     1     -34.381   5.195   4.011  1.00 20.00    -0.167 F 
HETATM    7  F6  UNL     1     -36.000   6.454   3.257  1.00 20.00    -0.167 F 
HETATM    8  F7  UNL     1     -35.076   6.898   5.178  1.00 20.00    -0.167 F 
ENDBRANCH   1   5
TORSDOF 1
ENDMDL
MODEL 2
REMARK VINA RESULT:      -2.1      0.010      1.334
REMARK  1 active torsions:
REMARK  status: ('A' for Active; 'I' for Inactive)
REMARK    1  A    between atoms: C1_1  and  C4_4 
ROOT
HETATM    1  C1  UNL     1     -33.811   7.359   3.248  1.00 20.00     0.102 C 
HETATM    2  C2  UNL     1     -33.019   7.005   2.220  1.00 20.00    -0.015 C 
HETATM    3  C3  UNL     1     -32.999   5.654   1.566  1.00 20.00     0.055 C 
HETATM    4  I8  UNL     1     -31.685   8.412   1.430  1.00 20.00    -0.050 I 
ENDROOT
BRANCH   1   5
HETATM    5  C4  UNL     1     -34.807   6.478   3.919  1.00 20.00     0.408 C 
HETATM    6  F5  UNL     1     -35.087   6.888   5.183  1.00 20.00    -0.167 F 
HETATM    7  F6  UNL     1     -34.384   5.192   4.000  1.00 20.00    -0.167 F 
HETATM    8  F7  UNL     1     -35.986   6.459   3.246  1.00 20.00    -0.167 F 
ENDBRANCH   1   5
TORSDOF 1
ENDMDL
MODEL 3
REMARK VINA RESULT:      -1.7      3.543      4.153
REMARK  1 active torsions:
REMARK  status: ('A' for Active; 'I' for Inactive)
REMARK    1  A    between atoms: C1_1  and  C4_4 
ROOT
HETATM    1  C1  UNL     1     -33.062   7.112   2.399  1.00 20.00     0.102 C 
HETATM    2  C2  UNL     1     -33.717   7.192   3.571  1.00 20.00    -0.015 C 
HETATM    3  C3  UNL     1     -33.497   8.246   4.617  1.00 20.00     0.055 C 
HETATM    4  I8  UNL     1     -35.171   5.756   4.028  1.00 20.00    -0.050 I 
ENDROOT
BRANCH   1   5
HETATM    5  C4  UNL     1     -32.006   8.050   1.929  1.00 20.00     0.408 C 
HETATM    6  F5  UNL     1     -31.243   8.518   2.950  1.00 20.00    -0.167 F 
HETATM    7  F6  UNL     1     -32.523   9.129   1.289  1.00 20.00    -0.167 F 
HETATM    8  F7  UNL     1     -31.160   7.449   1.055  1.00 20.00    -0.167 F 
ENDBRANCH   1   5
TORSDOF 1
ENDMDL
MODEL 4
REMARK VINA RESULT:      -1.7      3.545      4.155
REMARK  1 active torsions:
REMARK  status: ('A' for Active; 'I' for Inactive)
REMARK    1  A    between atoms: C1_1  and  C4_4 
ROOT
HETATM    1  C1  UNL     1     -33.057   7.115   2.397  1.00 20.00     0.102 C 
HETATM    2  C2  UNL     1     -33.711   7.195   3.570  1.00 20.00    -0.015 C 
HETATM    3  C3  UNL     1     -33.486   8.246   4.618  1.00 20.00     0.055 C 
HETATM    4  I8  UNL     1     -35.171   5.764   4.025  1.00 20.00    -0.050 I 
ENDROOT
BRANCH   1   5
HETATM    5  C4  UNL     1     -31.998   8.050   1.929  1.00 20.00     0.408 C 
HETATM    6  F5  UNL     1     -31.152   7.466   1.042  1.00 20.00    -0.167 F 
HETATM    7  F6  UNL     1     -31.241   8.524   2.951  1.00 20.00    -0.167 F 
HETATM    8  F7  UNL     1     -32.530   9.131   1.305  1.00 20.00    -0.167 F 
ENDBRANCH   1   5
TORSDOF 1
ENDMDL
MODEL 5
REMARK VINA RESULT:      -1.7      1.790      2.326
REMARK  1 active torsions:
REMARK  status: ('A' for Active; 'I' for Inactive)
REMARK    1  A    between atoms: C1_1  and  C4_4 
ROOT
HETATM    1  C1  UNL     1     -33.660   6.342   3.009  1.00 20.00     0.102 C 
HETATM    2  C2  UNL     1     -32.728   6.593   2.072  1.00 20.00    -0.015 C 
HETATM    3  C3  UNL     1     -32.091   7.928   1.819  1.00 20.00     0.055 C 
HETATM    4  I8  UNL     1     -32.077   5.033   0.837  1.00 20.00    -0.050 I 
ENDROOT
BRANCH   1   5
HETATM    5  C4  UNL     1     -34.224   7.339   3.961  1.00 20.00     0.408 C 
HETATM    6  F5  UNL     1     -34.763   8.410   3.323  1.00 20.00    -0.167 F 
HETATM    7  F6  UNL     1     -33.290   7.813   4.823  1.00 20.00    -0.167 F 
HETATM    8  F7  UNL     1     -35.213   6.799   4.717  1.00 20.00    -0.167 F 
ENDBRANCH   1   5
TORSDOF 1
ENDMDL
MODEL 6
REMARK VINA RESULT:      -1.7      3.530      4.144
REMARK  1 active torsions:
REMARK  status: ('A' for Active; 'I' for Inactive)
REMARK    1  A    between atoms: C1_1  and  C4_4 
ROOT
HETATM    1  C1  UNL     1     -33.057   7.060   2.395  1.00 20.00     0.102 C 
HETATM    2  C2  UNL     1     -33.728   7.155   3.557  1.00 20.00    -0.015 C 
HETATM    3  C3  UNL     1     -33.539   8.237   4.581  1.00 20.00     0.055 C 
HETATM    4  I8  UNL     1     -35.160   5.704   4.030  1.00 20.00    -0.050 I 
ENDROOT
BRANCH   1   5
HETATM    5  C4  UNL     1     -32.012   8.007   1.916  1.00 20.00     0.408 C 
HETATM    6  F5  UNL     1     -32.546   9.086   1.288  1.00 20.00    -0.167 F 
HETATM    7  F6  UNL     1     -31.149   7.424   1.047  1.00 20.00    -0.167 F 
HETATM    8  F7  UNL     1     -31.266   8.485   2.944  1.00 20.00    -0.167 F 
ENDBRANCH   1   5
TORSDOF 1
ENDMDL
MODEL 7
REMARK VINA RESULT:      -1.7      4.317      4.771
REMARK  1 active torsions:
REMARK  status: ('A' for Active; 'I' for Inactive)
REMARK    1  A    between atoms: C1_1  and  C4_4 
ROOT
HETATM    1  C1  UNL     1     -32.846   9.075   1.532  1.00 20.00     0.102 C 
HETATM    2  C2  UNL     1     -32.792   7.813   1.995  1.00 20.00    -0.015 C 
HETATM    3  C3  UNL     1     -32.073   6.676   1.329  1.00 20.00     0.055 C 
HETATM    4  I8  UNL     1     -33.770   7.340   3.785  1.00 20.00    -0.050 I 
ENDROOT
BRANCH   1   5
HETATM    5  C4  UNL     1     -32.207   9.569   0.281  1.00 20.00     0.408 C 
HETATM    6  F5  UNL     1     -30.979   9.025   0.082  1.00 20.00    -0.167 F 
HETATM    7  F6  UNL     1     -32.053  10.917   0.279  1.00 20.00    -0.167 F 
HETATM    8  F7  UNL     1     -32.951   9.260  -0.812  1.00 20.00    -0.167 F 
ENDBRANCH   1   5
TORSDOF 1
ENDMDL
MODEL 8
REMARK VINA RESULT:      -1.5      0.954      2.008
REMARK  1 active torsions:
REMARK  status: ('A' for Active; 'I' for Inactive)
REMARK    1  A    between atoms: C1_1  and  C4_4 
ROOT
HETATM    1  C1  UNL     1     -34.129   6.610   2.972  1.00 20.00     0.102 C 
HETATM    2  C2  UNL     1     -33.166   7.516   3.220  1.00 20.00    -0.015 C 
HETATM    3  C3  UNL     1     -32.980   8.252   4.515  1.00 20.00     0.055 C 
HETATM    4  I8  UNL     1     -31.788   7.977   1.713  1.00 20.00    -0.050 I 
ENDROOT
BRANCH   1   5
HETATM    5  C4  UNL     1     -35.180   6.175   3.934  1.00 20.00     0.408 C 
HETATM    6  F5  UNL     1     -35.146   6.889   5.089  1.00 20.00    -0.167 F 
HETATM    7  F6  UNL     1     -35.060   4.866   4.270  1.00 20.00    -0.167 F 
HETATM    8  F7  UNL     1     -36.424   6.332   3.416  1.00 20.00    -0.167 F 
ENDBRANCH   1   5
TORSDOF 1
ENDMDL
MODEL 9
REMARK VINA RESULT:      -1.3      3.569      3.910
REMARK  1 active torsions:
REMARK  status: ('A' for Active; 'I' for Inactive)
REMARK    1  A    between atoms: C1_1  and  C4_4 
ROOT
HETATM    1  C1  UNL     1     -32.996   7.648   2.908  1.00 20.00     0.102 C 
HETATM    2  C2  UNL     1     -33.566   6.442   2.733  1.00 20.00    -0.015 C 
HETATM    3  C3  UNL     1     -33.185   5.450   1.672  1.00 20.00     0.055 C 
HETATM    4  I8  UNL     1     -35.113   5.848   4.011  1.00 20.00    -0.050 I 
ENDROOT
BRANCH   1   5
HETATM    5  C4  UNL     1     -31.891   8.214   2.086  1.00 20.00     0.408 C 
HETATM    6  F5  UNL     1     -32.329   9.160   1.216  1.00 20.00    -0.167 F 
HETATM    7  F6  UNL     1     -31.254   7.263   1.356  1.00 20.00    -0.167 F 
HETATM    8  F7  UNL     1     -30.947   8.805   2.862  1.00 20.00    -0.167 F 
ENDBRANCH   1   5
TORSDOF 1
ENDMDL
