MODEL 1
REMARK VINA RESULT:      -0.3      0.000      0.000
REMARK  0 active torsions:
REMARK  status: ('A' for Active; 'I' for Inactive)
ROOT
HETATM    1  C1  UNL     1     -34.162   4.303   3.714  1.00 20.00     0.147 A 
HETATM    2  C2  UNL     1     -34.983   6.206   4.236  1.00 20.00     0.214 A 
HETATM    3  C3  UNL     1     -33.485   5.219   2.945  1.00 20.00     0.057 A 
HETATM    4  C4  UNL     1     -32.455   5.195   1.969  1.00 20.00     0.033 A 
HETATM    5  C5  UNL     1     -32.040   6.353   1.417  1.00 20.00     0.023 A 
HETATM    6  C6  UNL     1     -33.604   7.653   2.726  1.00 20.00     0.117 A 
HETATM    7  C7  UNL     1     -32.627   7.635   1.800  1.00 20.00     0.027 A 
HETATM    8  N8  UNL     1     -35.091   4.924   4.512  1.00 20.00    -0.253 NA
HETATM    9  N9  UNL     1     -34.022   6.449   3.288  1.00 20.00    -0.314 N 
HETATM   10 BR10 UNL     1     -31.991   9.182   0.981  1.00 20.00    -0.050 Br
ENDROOT
TORSDOF 0
ENDMDL
MODEL 2
REMARK VINA RESULT:       0.5      1.005      2.026
REMARK  0 active torsions:
REMARK  status: ('A' for Active; 'I' for Inactive)
ROOT
HETATM    1  C1  UNL     1     -34.882   4.925   4.616  1.00 20.00     0.147 A 
HETATM    2  C2  UNL     1     -33.503   4.090   3.212  1.00 20.00     0.214 A 
HETATM    3  C3  UNL     1     -34.345   5.998   3.945  1.00 20.00     0.057 A 
HETATM    4  C4  UNL     1     -34.484   7.410   3.967  1.00 20.00     0.033 A 
HETATM    5  C5  UNL     1     -33.752   8.159   3.118  1.00 20.00     0.023 A 
HETATM    6  C6  UNL     1     -32.691   6.212   2.155  1.00 20.00     0.117 A 
HETATM    7  C7  UNL     1     -32.819   7.551   2.172  1.00 20.00     0.027 A 
HETATM    8  N8  UNL     1     -34.354   3.744   4.155  1.00 20.00    -0.253 NA
HETATM    9  N9  UNL     1     -33.453   5.450   3.038  1.00 20.00    -0.314 N 
HETATM   10 BR10 UNL     1     -31.850   8.667   1.039  1.00 20.00    -0.050 Br
ENDROOT
TORSDOF 0
ENDMDL
MODEL 3
REMARK VINA RESULT:       1.1      1.889      2.607
REMARK  0 active torsions:
REMARK  status: ('A' for Active; 'I' for Inactive)
ROOT
HETATM    1  C1  UNL     1     -34.083   8.056   4.031  1.00 20.00     0.147 A 
HETATM    2  C2  UNL     1     -34.768   6.034   3.923  1.00 20.00     0.214 A 
HETATM    3  C3  UNL     1     -33.297   7.451   3.079  1.00 20.00     0.057 A 
HETATM    4  C4  UNL     1     -32.228   7.828   2.225  1.00 20.00     0.033 A 
HETATM    5  C5  UNL     1     -31.693   6.912   1.392  1.00 20.00     0.023 A 
HETATM    6  C6  UNL     1     -33.203   5.186   2.159  1.00 20.00     0.117 A 
HETATM    7  C7  UNL     1     -32.189   5.538   1.347  1.00 20.00     0.027 A 
HETATM    8  N8  UNL     1     -34.993   7.169   4.550  1.00 20.00    -0.253 NA
HETATM    9  N9  UNL     1     -33.746   6.142   3.014  1.00 20.00    -0.314 N 
HETATM   10 BR10 UNL     1     -31.387   4.343   0.166  1.00 20.00    -0.050 Br
ENDROOT
TORSDOF 0
ENDMDL
MODEL 4
REMARK VINA RESULT:       1.2      2.653      4.265
REMARK  0 active torsions:
REMARK  status: ('A' for Active; 'I' for Inactive)
ROOT
HETATM    1  C1  UNL     1     -32.755   9.017   1.865  1.00 20.00     0.147 A 
HETATM    2  C2  UNL     1     -31.738   7.333   1.029  1.00 20.00     0.214 A 
HETATM    3  C3  UNL     1     -33.206   7.927   2.571  1.00 20.00     0.057 A 
HETATM    4  C4  UNL     1     -34.113   7.683   3.635  1.00 20.00     0.033 A 
HETATM    5  C5  UNL     1     -34.297   6.420   4.070  1.00 20.00     0.023 A 
HETATM    6  C6  UNL     1     -32.724   5.531   2.463  1.00 20.00     0.117 A 
HETATM    7  C7  UNL     1     -33.583   5.294   3.472  1.00 20.00     0.027 A 
HETATM    8  N8  UNL     1     -31.844   8.640   0.910  1.00 20.00    -0.253 NA
HETATM    9  N9  UNL     1     -32.544   6.840   2.023  1.00 20.00    -0.314 N 
HETATM   10 BR10 UNL     1     -33.903   3.585   4.139  1.00 20.00    -0.050 Br
ENDROOT
TORSDOF 0
ENDMDL
MODEL 5
REMARK VINA RESULT:       1.5      2.623      3.910
REMARK  0 active torsions:
REMARK  status: ('A' for Active; 'I' for Inactive)
ROOT
HETATM    1  C1  UNL     1     -31.523   7.971   0.648  1.00 20.00     0.147 A 
HETATM    2  C2  UNL     1     -32.576   9.182   2.061  1.00 20.00     0.214 A 
HETATM    3  C3  UNL     1     -32.268   7.095   1.401  1.00 20.00     0.057 A 
HETATM    4  C4  UNL     1     -32.481   5.693   1.451  1.00 20.00     0.033 A 
HETATM    5  C5  UNL     1     -33.324   5.186   2.373  1.00 20.00     0.023 A 
HETATM    6  C6  UNL     1     -33.820   7.375   3.271  1.00 20.00     0.117 A 
HETATM    7  C7  UNL     1     -34.026   6.046   3.323  1.00 20.00     0.027 A 
HETATM    8  N8  UNL     1     -31.720   9.265   1.065  1.00 20.00    -0.253 NA
HETATM    9  N9  UNL     1     -32.947   7.886   2.314  1.00 20.00    -0.314 N 
HETATM   10 BR10 UNL     1     -35.169   5.254   4.561  1.00 20.00    -0.050 Br
ENDROOT
TORSDOF 0
ENDMDL
