MODEL 1
REMARK VINA RESULT:      -0.7      0.000      0.000
REMARK  0 active torsions:
REMARK  status: ('A' for Active; 'I' for Inactive)
ROOT
HETATM    1  C1  UNL     1     -34.320   5.273   4.062  1.00 20.00    -0.025 A 
HETATM    2  C2  UNL     1     -33.613   4.698   3.084  1.00 20.00    -0.025 A 
HETATM    3  C3  UNL     1     -34.035   7.727   4.673  1.00 20.00     0.009 C 
HETATM    4  C4  UNL     1     -31.873   5.993   1.774  1.00 20.00     0.009 C 
HETATM    5  C5  UNL     1     -32.680   8.012   4.036  1.00 20.00     0.005 C 
HETATM    6  C6  UNL     1     -31.841   7.513   1.655  1.00 20.00     0.005 C 
HETATM    7  C7  UNL     1     -34.689   6.691   3.757  1.00 20.00     0.013 A 
HETATM    8  C8  UNL     1     -33.352   5.632   1.948  1.00 20.00     0.013 A 
HETATM    9  C9  UNL     1     -32.982   7.993   2.538  1.00 20.00    -0.009 C 
HETATM   10  C10 UNL     1     -34.071   6.927   2.370  1.00 20.00     0.005 A 
ENDROOT
TORSDOF 0
ENDMDL
MODEL 2
REMARK VINA RESULT:       0.3      0.843      3.420
REMARK  0 active torsions:
REMARK  status: ('A' for Active; 'I' for Inactive)
ROOT
HETATM    1  C1  UNL     1     -31.561   7.501   1.835  1.00 20.00    -0.025 A 
HETATM    2  C2  UNL     1     -32.070   8.368   2.716  1.00 20.00    -0.025 A 
HETATM    3  C3  UNL     1     -32.355   5.087   1.702  1.00 20.00     0.009 C 
HETATM    4  C4  UNL     1     -33.847   7.671   4.382  1.00 20.00     0.009 C 
HETATM    5  C5  UNL     1     -33.028   4.945   3.062  1.00 20.00     0.005 C 
HETATM    6  C6  UNL     1     -34.762   6.463   4.209  1.00 20.00     0.005 C 
HETATM    7  C7  UNL     1     -32.582   6.545   1.302  1.00 20.00     0.013 A 
HETATM    8  C8  UNL     1     -33.526   8.141   2.959  1.00 20.00     0.013 A 
HETATM    9  C9  UNL     1     -34.287   5.801   2.925  1.00 20.00    -0.009 C 
HETATM   10  C10 UNL     1     -33.872   6.968   2.022  1.00 20.00     0.005 A 
ENDROOT
TORSDOF 0
ENDMDL
MODEL 3
REMARK VINA RESULT:       1.0      0.464      3.054
REMARK  0 active torsions:
REMARK  status: ('A' for Active; 'I' for Inactive)
ROOT
HETATM    1  C1  UNL     1     -32.558   8.430   3.586  1.00 20.00    -0.025 A 
HETATM    2  C2  UNL     1     -33.390   7.756   4.386  1.00 20.00    -0.025 A 
HETATM    3  C3  UNL     1     -31.511   7.369   1.523  1.00 20.00     0.009 C 
HETATM    4  C4  UNL     1     -33.964   5.326   3.952  1.00 20.00     0.009 C 
HETATM    5  C5  UNL     1     -31.708   5.891   1.845  1.00 20.00     0.005 C 
HETATM    6  C6  UNL     1     -33.827   4.639   2.597  1.00 20.00     0.005 C 
HETATM    7  C7  UNL     1     -32.720   8.070   2.142  1.00 20.00     0.013 A 
HETATM    8  C8  UNL     1     -34.252   6.797   3.631  1.00 20.00     0.013 A 
HETATM    9  C9  UNL     1     -33.216   5.694   1.689  1.00 20.00    -0.009 C 
HETATM   10  C10 UNL     1     -33.837   7.013   2.164  1.00 20.00     0.005 A 
ENDROOT
TORSDOF 0
ENDMDL
MODEL 4
REMARK VINA RESULT:       1.1      0.893      2.797
REMARK  0 active torsions:
REMARK  status: ('A' for Active; 'I' for Inactive)
ROOT
HETATM    1  C1  UNL     1     -32.692   5.809   0.973  1.00 20.00    -0.025 A 
HETATM    2  C2  UNL     1     -33.628   5.258   1.751  1.00 20.00    -0.025 A 
HETATM    3  C3  UNL     1     -31.952   8.228   1.255  1.00 20.00     0.009 C 
HETATM    4  C4  UNL     1     -34.801   6.593   3.557  1.00 20.00     0.009 C 
HETATM    5  C5  UNL     1     -33.125   8.781   2.057  1.00 20.00     0.005 C 
HETATM    6  C6  UNL     1     -34.241   7.864   4.187  1.00 20.00     0.005 C 
HETATM    7  C7  UNL     1     -31.817   6.774   1.710  1.00 20.00     0.013 A 
HETATM    8  C8  UNL     1     -33.574   5.768   3.154  1.00 20.00     0.013 A 
HETATM    9  C9  UNL     1     -32.950   8.133   3.431  1.00 20.00    -0.009 C 
HETATM   10  C10 UNL     1     -32.379   6.740   3.140  1.00 20.00     0.005 A 
ENDROOT
TORSDOF 0
ENDMDL
MODEL 5
REMARK VINA RESULT:       1.6      0.928      2.596
REMARK  0 active torsions:
REMARK  status: ('A' for Active; 'I' for Inactive)
ROOT
HETATM    1  C1  UNL     1     -34.899   6.258   3.691  1.00 20.00    -0.025 A 
HETATM    2  C2  UNL     1     -34.677   7.571   3.796  1.00 20.00    -0.025 A 
HETATM    3  C3  UNL     1     -33.652   4.807   2.011  1.00 20.00     0.009 C 
HETATM    4  C4  UNL     1     -33.024   8.759   2.288  1.00 20.00     0.009 C 
HETATM    5  C5  UNL     1     -33.141   5.877   1.053  1.00 20.00     0.005 C 
HETATM    6  C6  UNL     1     -31.883   8.067   1.549  1.00 20.00     0.005 C 
HETATM    7  C7  UNL     1     -33.657   5.481   3.384  1.00 20.00     0.013 A 
HETATM    8  C8  UNL     1     -33.247   7.928   3.555  1.00 20.00     0.013 A 
HETATM    9  C9  UNL     1     -32.059   6.591   1.864  1.00 20.00    -0.009 C 
HETATM   10  C10 UNL     1     -32.570   6.566   3.309  1.00 20.00     0.005 A 
ENDROOT
TORSDOF 0
ENDMDL
MODEL 6
REMARK VINA RESULT:       1.8      0.937      2.723
REMARK  0 active torsions:
REMARK  status: ('A' for Active; 'I' for Inactive)
ROOT
HETATM    1  C1  UNL     1     -32.654   8.948   2.272  1.00 20.00    -0.025 A 
HETATM    2  C2  UNL     1     -32.275   8.243   1.202  1.00 20.00    -0.025 A 
HETATM    3  C3  UNL     1     -34.107   7.945   4.106  1.00 20.00     0.009 C 
HETATM    4  C4  UNL     1     -33.015   5.843   0.869  1.00 20.00     0.009 C 
HETATM    5  C5  UNL     1     -34.684   6.741   3.370  1.00 20.00     0.005 C 
HETATM    6  C6  UNL     1     -33.490   4.925   1.991  1.00 20.00     0.005 C 
HETATM    7  C7  UNL     1     -32.705   8.126   3.523  1.00 20.00     0.013 A 
HETATM    8  C8  UNL     1     -32.023   6.807   1.528  1.00 20.00     0.013 A 
HETATM    9  C9  UNL     1     -33.486   5.801   3.233  1.00 20.00    -0.009 C 
HETATM   10  C10 UNL     1     -32.279   6.728   3.045  1.00 20.00     0.005 A 
ENDROOT
TORSDOF 0
ENDMDL
