MODEL 1
REMARK VINA RESULT:      -0.3      0.000      0.000
REMARK  0 active torsions:
REMARK  status: ('A' for Active; 'I' for Inactive)
ROOT
HETATM    1  C1  UNL     1     -33.148   5.620   1.309  1.00 20.00    -0.020 C 
HETATM    2  C2  UNL     1     -31.913   6.068   1.713  1.00 20.00    -0.020 C 
HETATM    3  C3  UNL     1     -34.116   7.806   4.183  1.00 20.00     0.002 C 
HETATM    4  C4  UNL     1     -34.826   6.959   3.083  1.00 20.00     0.014 C 
HETATM    5  C5  UNL     1     -32.590   7.641   3.909  1.00 20.00     0.014 C 
HETATM    6  C6  UNL     1     -33.702   6.033   2.668  1.00 20.00    -0.016 C 
HETATM    7  C7  UNL     1     -32.609   7.200   2.460  1.00 20.00    -0.016 C 
HETATM    8  C8  UNL     1     -33.610   4.844   3.661  1.00 20.00     0.020 C 
HETATM    9  C9  UNL     1     -32.742   8.440   1.537  1.00 20.00     0.020 C 
ENDROOT
TORSDOF 0
ENDMDL
MODEL 2
REMARK VINA RESULT:      -0.3      0.019      2.531
REMARK  0 active torsions:
REMARK  status: ('A' for Active; 'I' for Inactive)
ROOT
HETATM    1  C1  UNL     1     -31.907   6.060   1.726  1.00 20.00    -0.020 C 
HETATM    2  C2  UNL     1     -33.144   5.626   1.314  1.00 20.00    -0.020 C 
HETATM    3  C3  UNL     1     -34.106   7.818   4.186  1.00 20.00     0.002 C 
HETATM    4  C4  UNL     1     -32.581   7.640   3.919  1.00 20.00     0.014 C 
HETATM    5  C5  UNL     1     -34.819   6.981   3.080  1.00 20.00     0.014 C 
HETATM    6  C6  UNL     1     -32.595   7.199   2.470  1.00 20.00    -0.016 C 
HETATM    7  C7  UNL     1     -33.701   6.043   2.671  1.00 20.00    -0.016 C 
HETATM    8  C8  UNL     1     -32.711   8.441   1.546  1.00 20.00     0.020 C 
HETATM    9  C9  UNL     1     -33.627   4.853   3.663  1.00 20.00     0.020 C 
ENDROOT
TORSDOF 0
ENDMDL
MODEL 3
REMARK VINA RESULT:       0.5      0.831      2.644
REMARK  0 active torsions:
REMARK  status: ('A' for Active; 'I' for Inactive)
ROOT
HETATM    1  C1  UNL     1     -33.865   5.515   3.442  1.00 20.00    -0.020 C 
HETATM    2  C2  UNL     1     -34.717   6.591   3.491  1.00 20.00    -0.020 C 
HETATM    3  C3  UNL     1     -31.862   8.060   1.575  1.00 20.00     0.002 C 
HETATM    4  C4  UNL     1     -31.687   6.597   2.085  1.00 20.00     0.014 C 
HETATM    5  C5  UNL     1     -33.288   8.489   2.037  1.00 20.00     0.014 C 
HETATM    6  C6  UNL     1     -33.132   6.193   2.290  1.00 20.00    -0.016 C 
HETATM    7  C7  UNL     1     -33.536   7.495   3.152  1.00 20.00    -0.016 C 
HETATM    8  C8  UNL     1     -33.749   5.750   0.937  1.00 20.00     0.020 C 
HETATM    9  C9  UNL     1     -32.856   7.989   4.456  1.00 20.00     0.020 C 
ENDROOT
TORSDOF 0
ENDMDL
MODEL 4
REMARK VINA RESULT:       0.5      0.829      2.627
REMARK  0 active torsions:
REMARK  status: ('A' for Active; 'I' for Inactive)
ROOT
HETATM    1  C1  UNL     1     -34.731   6.623   3.495  1.00 20.00    -0.020 C 
HETATM    2  C2  UNL     1     -33.897   5.532   3.451  1.00 20.00    -0.020 C 
HETATM    3  C3  UNL     1     -31.852   8.037   1.576  1.00 20.00     0.002 C 
HETATM    4  C4  UNL     1     -33.270   8.492   2.037  1.00 20.00     0.014 C 
HETATM    5  C5  UNL     1     -31.700   6.574   2.093  1.00 20.00     0.014 C 
HETATM    6  C6  UNL     1     -33.536   7.505   3.155  1.00 20.00    -0.016 C 
HETATM    7  C7  UNL     1     -33.152   6.194   2.298  1.00 20.00    -0.016 C 
HETATM    8  C8  UNL     1     -32.849   7.993   4.458  1.00 20.00     0.020 C 
HETATM    9  C9  UNL     1     -33.775   5.757   0.945  1.00 20.00     0.020 C 
ENDROOT
TORSDOF 0
ENDMDL
MODEL 5
REMARK VINA RESULT:       1.0      1.069      3.139
REMARK  0 active torsions:
REMARK  status: ('A' for Active; 'I' for Inactive)
ROOT
HETATM    1  C1  UNL     1     -33.970   8.533   3.456  1.00 20.00    -0.020 C 
HETATM    2  C2  UNL     1     -33.693   7.722   4.529  1.00 20.00    -0.020 C 
HETATM    3  C3  UNL     1     -33.221   5.314   1.708  1.00 20.00     0.002 C 
HETATM    4  C4  UNL     1     -33.703   6.749   1.334  1.00 20.00     0.014 C 
HETATM    5  C5  UNL     1     -33.051   5.328   3.258  1.00 20.00     0.014 C 
HETATM    6  C6  UNL     1     -33.262   7.525   2.557  1.00 20.00    -0.016 C 
HETATM    7  C7  UNL     1     -33.919   6.513   3.628  1.00 20.00    -0.016 C 
HETATM    8  C8  UNL     1     -31.760   7.893   2.431  1.00 20.00     0.020 C 
HETATM    9  C9  UNL     1     -35.405   6.073   3.695  1.00 20.00     0.020 C 
ENDROOT
TORSDOF 0
ENDMDL
MODEL 6
REMARK VINA RESULT:       1.0      1.066      2.678
REMARK  0 active torsions:
REMARK  status: ('A' for Active; 'I' for Inactive)
ROOT
HETATM    1  C1  UNL     1     -33.682   7.711   4.522  1.00 20.00    -0.020 C 
HETATM    2  C2  UNL     1     -33.954   8.529   3.452  1.00 20.00    -0.020 C 
HETATM    3  C3  UNL     1     -33.221   5.314   1.690  1.00 20.00     0.002 C 
HETATM    4  C4  UNL     1     -33.054   5.319   3.240  1.00 20.00     0.014 C 
HETATM    5  C5  UNL     1     -33.697   6.752   1.322  1.00 20.00     0.014 C 
HETATM    6  C6  UNL     1     -33.914   6.508   3.615  1.00 20.00    -0.016 C 
HETATM    7  C7  UNL     1     -33.252   7.521   2.549  1.00 20.00    -0.016 C 
HETATM    8  C8  UNL     1     -35.404   6.077   3.680  1.00 20.00     0.020 C 
HETATM    9  C9  UNL     1     -31.748   7.879   2.425  1.00 20.00     0.020 C 
ENDROOT
TORSDOF 0
ENDMDL
MODEL 7
REMARK VINA RESULT:       2.6      0.913      2.312
REMARK  0 active torsions:
REMARK  status: ('A' for Active; 'I' for Inactive)
ROOT
HETATM    1  C1  UNL     1     -32.339   8.085   1.551  1.00 20.00    -0.020 C 
HETATM    2  C2  UNL     1     -31.947   8.155   2.866  1.00 20.00    -0.020 C 
HETATM    3  C3  UNL     1     -34.135   5.126   2.962  1.00 20.00     0.002 C 
HETATM    4  C4  UNL     1     -34.038   5.879   1.600  1.00 20.00     0.014 C 
HETATM    5  C5  UNL     1     -33.206   5.913   3.936  1.00 20.00     0.014 C 
HETATM    6  C6  UNL     1     -32.737   6.632   1.785  1.00 20.00    -0.016 C 
HETATM    7  C7  UNL     1     -33.118   7.248   3.226  1.00 20.00    -0.016 C 
HETATM    8  C8  UNL     1     -31.540   5.698   1.464  1.00 20.00     0.020 C 
HETATM    9  C9  UNL     1     -34.366   8.105   3.566  1.00 20.00     0.020 C 
ENDROOT
TORSDOF 0
ENDMDL
MODEL 8
REMARK VINA RESULT:       2.6      0.912      2.614
REMARK  0 active torsions:
REMARK  status: ('A' for Active; 'I' for Inactive)
ROOT
HETATM    1  C1  UNL     1     -31.924   8.111   2.889  1.00 20.00    -0.020 C 
HETATM    2  C2  UNL     1     -32.316   8.088   1.573  1.00 20.00    -0.020 C 
HETATM    3  C3  UNL     1     -34.116   5.082   2.878  1.00 20.00     0.002 C 
HETATM    4  C4  UNL     1     -33.188   5.835   3.879  1.00 20.00     0.014 C 
HETATM    5  C5  UNL     1     -34.019   5.884   1.544  1.00 20.00     0.014 C 
HETATM    6  C6  UNL     1     -33.097   7.194   3.217  1.00 20.00    -0.016 C 
HETATM    7  C7  UNL     1     -32.716   6.628   1.755  1.00 20.00    -0.016 C 
HETATM    8  C8  UNL     1     -34.344   8.041   3.587  1.00 20.00     0.020 C 
HETATM    9  C9  UNL     1     -31.522   5.704   1.403  1.00 20.00     0.020 C 
ENDROOT
TORSDOF 0
ENDMDL
