MODEL 1
REMARK VINA RESULT:      -2.8      0.000      0.000
REMARK  0 active torsions:
REMARK  status: ('A' for Active; 'I' for Inactive)
ROOT
HETATM    1  C1  UNL     1     -33.355   5.859   2.938  1.00 20.00     0.129 C 
HETATM    2  C2  UNL     1     -33.602   7.378   3.017  1.00 20.00     0.254 C 
HETATM    3  C3  UNL     1     -32.726   6.086   1.548  1.00 20.00     0.313 C 
HETATM    4  C4  UNL     1     -32.456   7.547   1.989  1.00 20.00     0.338 C 
HETATM    5  F5  UNL     1     -33.400   7.949   4.225  1.00 20.00    -0.243 F 
HETATM    6  F6  UNL     1     -31.629   5.346   1.270  1.00 20.00    -0.199 F 
HETATM    7  F7  UNL     1     -33.570   5.945   0.500  1.00 20.00    -0.199 F 
HETATM    8  F8  UNL     1     -31.233   7.773   2.521  1.00 20.00    -0.196 F 
HETATM    9  F9  UNL     1     -32.652   8.490   1.042  1.00 20.00    -0.196 F 
ENDROOT
TORSDOF 0
ENDMDL
MODEL 2
REMARK VINA RESULT:      -2.7      0.940      2.674
REMARK  0 active torsions:
REMARK  status: ('A' for Active; 'I' for Inactive)
ROOT
HETATM    1  C1  UNL     1     -33.316   7.902   3.000  1.00 20.00     0.129 C 
HETATM    2  C2  UNL     1     -33.288   6.367   3.133  1.00 20.00     0.254 C 
HETATM    3  C3  UNL     1     -32.261   7.773   1.882  1.00 20.00     0.313 C 
HETATM    4  C4  UNL     1     -32.762   6.320   1.676  1.00 20.00     0.338 C 
HETATM    5  F5  UNL     1     -34.480   5.768   3.348  1.00 20.00    -0.243 F 
HETATM    6  F6  UNL     1     -32.418   8.602   0.826  1.00 20.00    -0.199 F 
HETATM    7  F7  UNL     1     -30.974   7.888   2.284  1.00 20.00    -0.199 F 
HETATM    8  F8  UNL     1     -33.712   6.167   0.725  1.00 20.00    -0.196 F 
HETATM    9  F9  UNL     1     -31.805   5.400   1.427  1.00 20.00    -0.196 F 
ENDROOT
TORSDOF 0
ENDMDL
MODEL 3
REMARK VINA RESULT:      -2.5      1.413      2.517
REMARK  0 active torsions:
REMARK  status: ('A' for Active; 'I' for Inactive)
ROOT
HETATM    1  C1  UNL     1     -33.050   7.403   3.639  1.00 20.00     0.129 C 
HETATM    2  C2  UNL     1     -32.705   7.675   2.162  1.00 20.00     0.254 C 
HETATM    3  C3  UNL     1     -33.972   6.263   3.160  1.00 20.00     0.313 C 
HETATM    4  C4  UNL     1     -33.116   6.211   1.869  1.00 20.00     0.338 C 
HETATM    5  F5  UNL     1     -31.417   7.990   1.903  1.00 20.00    -0.243 F 
HETATM    6  F6  UNL     1     -33.964   5.142   3.914  1.00 20.00    -0.199 F 
HETATM    7  F7  UNL     1     -35.269   6.605   2.978  1.00 20.00    -0.199 F 
HETATM    8  F8  UNL     1     -32.103   5.314   1.885  1.00 20.00    -0.196 F 
HETATM    9  F9  UNL     1     -33.798   6.012   0.721  1.00 20.00    -0.196 F 
ENDROOT
TORSDOF 0
ENDMDL
MODEL 4
REMARK VINA RESULT:      -2.4      1.746      3.186
REMARK  0 active torsions:
REMARK  status: ('A' for Active; 'I' for Inactive)
ROOT
HETATM    1  C1  UNL     1     -33.783   6.357   2.213  1.00 20.00     0.129 C 
HETATM    2  C2  UNL     1     -32.748   7.321   2.825  1.00 20.00     0.254 C 
HETATM    3  C3  UNL     1     -34.484   6.320   3.587  1.00 20.00     0.313 C 
HETATM    4  C4  UNL     1     -33.819   7.689   3.882  1.00 20.00     0.338 C 
HETATM    5  F5  UNL     1     -32.335   8.331   2.028  1.00 20.00    -0.243 F 
HETATM    6  F6  UNL     1     -35.835   6.319   3.558  1.00 20.00    -0.199 F 
HETATM    7  F7  UNL     1     -34.107   5.308   4.402  1.00 20.00    -0.199 F 
HETATM    8  F8  UNL     1     -34.573   8.773   3.586  1.00 20.00    -0.196 F 
HETATM    9  F9  UNL     1     -33.365   7.860   5.142  1.00 20.00    -0.196 F 
ENDROOT
TORSDOF 0
ENDMDL
MODEL 5
REMARK VINA RESULT:      -2.4      1.492      2.619
REMARK  0 active torsions:
REMARK  status: ('A' for Active; 'I' for Inactive)
ROOT
HETATM    1  C1  UNL     1     -32.819   7.695   2.346  1.00 20.00     0.129 C 
HETATM    2  C2  UNL     1     -33.138   7.251   3.787  1.00 20.00     0.254 C 
HETATM    3  C3  UNL     1     -33.100   6.248   1.893  1.00 20.00     0.313 C 
HETATM    4  C4  UNL     1     -33.960   6.091   3.173  1.00 20.00     0.338 C 
HETATM    5  F5  UNL     1     -33.833   8.133   4.538  1.00 20.00    -0.243 F 
HETATM    6  F6  UNL     1     -33.762   6.115   0.722  1.00 20.00    -0.199 F 
HETATM    7  F7  UNL     1     -32.015   5.441   1.825  1.00 20.00    -0.199 F 
HETATM    8  F8  UNL     1     -35.281   6.341   3.014  1.00 20.00    -0.196 F 
HETATM    9  F9  UNL     1     -33.859   4.902   3.805  1.00 20.00    -0.196 F 
ENDROOT
TORSDOF 0
ENDMDL
MODEL 6
REMARK VINA RESULT:      -2.3      1.758      3.546
REMARK  0 active torsions:
REMARK  status: ('A' for Active; 'I' for Inactive)
ROOT
HETATM    1  C1  UNL     1     -32.638   7.538   2.833  1.00 20.00     0.129 C 
HETATM    2  C2  UNL     1     -33.567   6.536   2.120  1.00 20.00     0.254 C 
HETATM    3  C3  UNL     1     -33.750   7.744   3.882  1.00 20.00     0.313 C 
HETATM    4  C4  UNL     1     -34.290   6.348   3.477  1.00 20.00     0.338 C 
HETATM    5  F5  UNL     1     -32.972   5.434   1.612  1.00 20.00    -0.243 F 
HETATM    6  F6  UNL     1     -33.336   7.863   5.163  1.00 20.00    -0.199 F 
HETATM    7  F7  UNL     1     -34.588   8.779   3.641  1.00 20.00    -0.199 F 
HETATM    8  F8  UNL     1     -33.844   5.317   4.231  1.00 20.00    -0.196 F 
HETATM    9  F9  UNL     1     -35.634   6.236   3.415  1.00 20.00    -0.196 F 
ENDROOT
TORSDOF 0
ENDMDL
MODEL 7
REMARK VINA RESULT:      -1.9      0.807      2.992
REMARK  0 active torsions:
REMARK  status: ('A' for Active; 'I' for Inactive)
ROOT
HETATM    1  C1  UNL     1     -34.034   6.250   3.017  1.00 20.00     0.129 C 
HETATM    2  C2  UNL     1     -32.691   6.047   2.288  1.00 20.00     0.254 C 
HETATM    3  C3  UNL     1     -33.531   7.645   3.445  1.00 20.00     0.313 C 
HETATM    4  C4  UNL     1     -32.568   7.590   2.231  1.00 20.00     0.338 C 
HETATM    5  F5  UNL     1     -32.754   5.417   1.095  1.00 20.00    -0.243 F 
HETATM    6  F6  UNL     1     -34.450   8.635   3.419  1.00 20.00    -0.199 F 
HETATM    7  F7  UNL     1     -32.931   7.697   4.656  1.00 20.00    -0.199 F 
HETATM    8  F8  UNL     1     -33.035   8.165   1.098  1.00 20.00    -0.196 F 
HETATM    9  F9  UNL     1     -31.331   8.089   2.443  1.00 20.00    -0.196 F 
ENDROOT
TORSDOF 0
ENDMDL
MODEL 8
REMARK VINA RESULT:      -1.9      1.439      2.319
REMARK  0 active torsions:
REMARK  status: ('A' for Active; 'I' for Inactive)
ROOT
HETATM    1  C1  UNL     1     -32.457   6.190   2.058  1.00 20.00     0.129 C 
HETATM    2  C2  UNL     1     -33.829   6.258   2.755  1.00 20.00     0.254 C 
HETATM    3  C3  UNL     1     -32.398   7.730   2.137  1.00 20.00     0.313 C 
HETATM    4  C4  UNL     1     -33.396   7.634   3.320  1.00 20.00     0.338 C 
HETATM    5  F5  UNL     1     -34.075   5.296   3.672  1.00 20.00    -0.243 F 
HETATM    6  F6  UNL     1     -31.191   8.259   2.432  1.00 20.00    -0.199 F 
HETATM    7  F7  UNL     1     -32.858   8.384   1.046  1.00 20.00    -0.199 F 
HETATM    8  F8  UNL     1     -32.832   7.602   4.549  1.00 20.00    -0.196 F 
HETATM    9  F9  UNL     1     -34.357   8.582   3.353  1.00 20.00    -0.196 F 
ENDROOT
TORSDOF 0
ENDMDL
MODEL 9
REMARK VINA RESULT:      -1.3      2.099      3.573
REMARK  0 active torsions:
REMARK  status: ('A' for Active; 'I' for Inactive)
ROOT
HETATM    1  C1  UNL     1     -35.132   5.068   4.388  1.00 20.00     0.129 C 
HETATM    2  C2  UNL     1     -33.639   4.902   4.044  1.00 20.00     0.254 C 
HETATM    3  C3  UNL     1     -35.047   6.504   3.832  1.00 20.00     0.313 C 
HETATM    4  C4  UNL     1     -33.825   6.034   3.003  1.00 20.00     0.338 C 
HETATM    5  F5  UNL     1     -33.275   3.699   3.548  1.00 20.00    -0.243 F 
HETATM    6  F6  UNL     1     -36.115   6.922   3.117  1.00 20.00    -0.199 F 
HETATM    7  F7  UNL     1     -34.787   7.465   4.749  1.00 20.00    -0.199 F 
HETATM    8  F8  UNL     1     -34.107   5.620   1.745  1.00 20.00    -0.196 F 
HETATM    9  F9  UNL     1     -32.808   6.916   2.907  1.00 20.00    -0.196 F 
ENDROOT
TORSDOF 0
ENDMDL
