MODEL 1
REMARK VINA RESULT:      -0.6      0.000      0.000
REMARK  0 active torsions:
REMARK  status: ('A' for Active; 'I' for Inactive)
ROOT
HETATM    1  C1  UNL     1     -32.925   8.318   3.326  1.00 20.00     0.004 C 
HETATM    2  C2  UNL     1     -32.113   7.996   2.075  1.00 20.00     0.005 C 
HETATM    3  C3  UNL     1     -33.214   7.058   4.146  1.00 20.00     0.042 C 
HETATM    4  C4  UNL     1     -32.144   5.445   1.666  1.00 20.00     0.013 A 
HETATM    5  C5  UNL     1     -32.652   6.821   1.313  1.00 20.00    -0.007 A 
HETATM    6  C6  UNL     1     -33.573   5.813   1.962  1.00 20.00     0.029 A 
HETATM    7  C7  UNL     1     -34.069   6.053   3.361  1.00 20.00     0.117 C 
HETATM    8 CL8  UNL     1     -34.112   4.487   4.230  1.00 20.00    -0.101 Cl
HETATM    9 CL9  UNL     1     -35.761   6.660   3.243  1.00 20.00    -0.101 Cl
ENDROOT
TORSDOF 0
ENDMDL
MODEL 2
REMARK VINA RESULT:      -0.6      2.215      3.483
REMARK  0 active torsions:
REMARK  status: ('A' for Active; 'I' for Inactive)
ROOT
HETATM    1  C1  UNL     1     -33.975   4.179   3.608  1.00 20.00     0.004 C 
HETATM    2  C2  UNL     1     -34.874   5.059   4.472  1.00 20.00     0.005 C 
HETATM    3  C3  UNL     1     -32.754   4.951   3.102  1.00 20.00     0.042 C 
HETATM    4  C4  UNL     1     -34.202   7.535   4.166  1.00 20.00     0.013 A 
HETATM    5  C5  UNL     1     -35.147   6.400   3.858  1.00 20.00    -0.007 A 
HETATM    6  C6  UNL     1     -34.262   6.968   2.772  1.00 20.00     0.029 A 
HETATM    7  C7  UNL     1     -33.157   6.125   2.198  1.00 20.00     0.117 C 
HETATM    8 CL8  UNL     1     -31.735   7.172   1.895  1.00 20.00    -0.101 Cl
HETATM    9 CL9  UNL     1     -33.722   5.496   0.607  1.00 20.00    -0.101 Cl
ENDROOT
TORSDOF 0
ENDMDL
MODEL 3
REMARK VINA RESULT:      -0.5      2.481      3.230
REMARK  0 active torsions:
REMARK  status: ('A' for Active; 'I' for Inactive)
ROOT
HETATM    1  C1  UNL     1     -34.138   7.265   3.907  1.00 20.00     0.004 C 
HETATM    2  C2  UNL     1     -34.159   5.842   3.358  1.00 20.00     0.005 C 
HETATM    3  C3  UNL     1     -33.846   8.287   2.805  1.00 20.00     0.042 C 
HETATM    4  C4  UNL     1     -33.120   5.820   0.993  1.00 20.00     0.013 A 
HETATM    5  C5  UNL     1     -32.989   5.539   2.469  1.00 20.00    -0.007 A 
HETATM    6  C6  UNL     1     -32.176   6.641   1.829  1.00 20.00     0.029 A 
HETATM    7  C7  UNL     1     -32.457   8.074   2.187  1.00 20.00     0.117 C 
HETATM    8 CL8  UNL     1     -32.293   9.076   0.710  1.00 20.00    -0.101 Cl
HETATM    9 CL9  UNL     1     -31.189   8.604   3.351  1.00 20.00    -0.101 Cl
ENDROOT
TORSDOF 0
ENDMDL
MODEL 4
REMARK VINA RESULT:      -0.4      1.962      2.735
REMARK  0 active torsions:
REMARK  status: ('A' for Active; 'I' for Inactive)
ROOT
HETATM    1  C1  UNL     1     -34.417   6.226   3.495  1.00 20.00     0.004 C 
HETATM    2  C2  UNL     1     -33.863   7.616   3.793  1.00 20.00     0.005 C 
HETATM    3  C3  UNL     1     -33.344   5.311   2.899  1.00 20.00     0.042 C 
HETATM    4  C4  UNL     1     -31.585   7.903   2.610  1.00 20.00     0.013 A 
HETATM    5  C5  UNL     1     -33.066   8.185   2.657  1.00 20.00    -0.007 A 
HETATM    6  C6  UNL     1     -32.494   7.302   1.572  1.00 20.00     0.029 A 
HETATM    7  C7  UNL     1     -32.833   5.838   1.550  1.00 20.00     0.117 C 
HETATM    8 CL8  UNL     1     -31.377   4.919   1.054  1.00 20.00    -0.101 Cl
HETATM    9 CL9  UNL     1     -34.094   5.589   0.287  1.00 20.00    -0.101 Cl
ENDROOT
TORSDOF 0
ENDMDL
MODEL 5
REMARK VINA RESULT:       0.2      1.863      2.972
REMARK  0 active torsions:
REMARK  status: ('A' for Active; 'I' for Inactive)
ROOT
HETATM    1  C1  UNL     1     -32.145   8.240   2.936  1.00 20.00     0.004 C 
HETATM    2  C2  UNL     1     -33.174   8.129   4.058  1.00 20.00     0.005 C 
HETATM    3  C3  UNL     1     -32.703   7.716   1.611  1.00 20.00     0.042 C 
HETATM    4  C4  UNL     1     -35.105   6.588   3.302  1.00 20.00     0.013 A 
HETATM    5  C5  UNL     1     -33.845   6.789   4.107  1.00 20.00    -0.007 A 
HETATM    6  C6  UNL     1     -33.846   5.860   2.914  1.00 20.00     0.029 A 
HETATM    7  C7  UNL     1     -33.051   6.222   1.691  1.00 20.00     0.117 C 
HETATM    8 CL8  UNL     1     -33.982   5.738   0.239  1.00 20.00    -0.101 Cl
HETATM    9 CL9  UNL     1     -31.535   5.249   1.718  1.00 20.00    -0.101 Cl
ENDROOT
TORSDOF 0
ENDMDL
MODEL 6
REMARK VINA RESULT:       0.3      2.480      3.558
REMARK  0 active torsions:
REMARK  status: ('A' for Active; 'I' for Inactive)
ROOT
HETATM    1  C1  UNL     1     -33.051   5.707   1.561  1.00 20.00     0.004 C 
HETATM    2  C2  UNL     1     -34.065   5.583   2.695  1.00 20.00     0.005 C 
HETATM    3  C3  UNL     1     -31.857   6.573   1.970  1.00 20.00     0.042 C 
HETATM    4  C4  UNL     1     -33.552   7.356   4.503  1.00 20.00     0.013 A 
HETATM    5  C5  UNL     1     -34.392   6.899   3.336  1.00 20.00    -0.007 A 
HETATM    6  C6  UNL     1     -33.479   8.096   3.195  1.00 20.00     0.029 A 
HETATM    7  C7  UNL     1     -32.282   8.014   2.289  1.00 20.00     0.117 C 
HETATM    8 CL8  UNL     1     -30.922   8.891   3.056  1.00 20.00    -0.101 Cl
HETATM    9 CL9  UNL     1     -32.695   8.874   0.761  1.00 20.00    -0.101 Cl
ENDROOT
TORSDOF 0
ENDMDL
MODEL 7
REMARK VINA RESULT:       0.5      0.600      2.560
REMARK  0 active torsions:
REMARK  status: ('A' for Active; 'I' for Inactive)
ROOT
HETATM    1  C1  UNL     1     -32.458   6.200   1.400  1.00 20.00     0.004 C 
HETATM    2  C2  UNL     1     -31.978   7.583   1.833  1.00 20.00     0.005 C 
HETATM    3  C3  UNL     1     -33.924   5.973   1.778  1.00 20.00     0.042 C 
HETATM    4  C4  UNL     1     -33.680   8.604   3.486  1.00 20.00     0.013 A 
HETATM    5  C5  UNL     1     -32.357   7.920   3.244  1.00 20.00    -0.007 A 
HETATM    6  C6  UNL     1     -33.471   7.190   3.960  1.00 20.00     0.029 A 
HETATM    7  C7  UNL     1     -34.133   6.014   3.298  1.00 20.00     0.117 C 
HETATM    8 CL8  UNL     1     -35.885   6.060   3.668  1.00 20.00    -0.101 Cl
HETATM    9 CL9  UNL     1     -33.457   4.519   4.042  1.00 20.00    -0.101 Cl
ENDROOT
TORSDOF 0
ENDMDL
MODEL 8
REMARK VINA RESULT:       1.1      1.677      2.361
REMARK  0 active torsions:
REMARK  status: ('A' for Active; 'I' for Inactive)
ROOT
HETATM    1  C1  UNL     1     -32.221   7.423   1.504  1.00 20.00     0.004 C 
HETATM    2  C2  UNL     1     -32.594   5.947   1.404  1.00 20.00     0.005 C 
HETATM    3  C3  UNL     1     -32.167   7.889   2.961  1.00 20.00     0.042 C 
HETATM    4  C4  UNL     1     -33.513   5.137   3.678  1.00 20.00     0.013 A 
HETATM    5  C5  UNL     1     -33.770   5.579   2.259  1.00 20.00    -0.007 A 
HETATM    6  C6  UNL     1     -34.207   6.447   3.418  1.00 20.00     0.029 A 
HETATM    7  C7  UNL     1     -33.536   7.773   3.647  1.00 20.00     0.117 C 
HETATM    8 CL8  UNL     1     -33.352   8.025   5.411  1.00 20.00    -0.101 Cl
HETATM    9 CL9  UNL     1     -34.635   9.055   3.023  1.00 20.00    -0.101 Cl
ENDROOT
TORSDOF 0
ENDMDL
MODEL 9
REMARK VINA RESULT:       1.1      1.877      3.022
REMARK  0 active torsions:
REMARK  status: ('A' for Active; 'I' for Inactive)
ROOT
HETATM    1  C1  UNL     1     -34.902   5.214   4.433  1.00 20.00     0.004 C 
HETATM    2  C2  UNL     1     -34.064   4.436   3.423  1.00 20.00     0.005 C 
HETATM    3  C3  UNL     1     -35.253   6.610   3.911  1.00 20.00     0.042 C 
HETATM    4  C4  UNL     1     -33.172   6.054   1.618  1.00 20.00     0.013 A 
HETATM    5  C5  UNL     1     -32.927   5.237   2.862  1.00 20.00    -0.007 A 
HETATM    6  C6  UNL     1     -32.915   6.747   2.930  1.00 20.00     0.029 A 
HETATM    7  C7  UNL     1     -33.998   7.465   3.686  1.00 20.00     0.117 C 
HETATM    8 CL8  UNL     1     -34.432   8.954   2.789  1.00 20.00    -0.101 Cl
HETATM    9 CL9  UNL     1     -33.313   7.965   5.275  1.00 20.00    -0.101 Cl
ENDROOT
TORSDOF 0
ENDMDL
