MODEL 1
REMARK VINA RESULT:       2.3      0.000      0.000
REMARK  0 active torsions:
REMARK  status: ('A' for Active; 'I' for Inactive)
ROOT
HETATM    1  C1  UNL     1     -32.572   8.408   3.739  1.00 20.00     0.131 C 
HETATM    2  C2  UNL     1     -33.684   8.457   4.771  1.00 20.00     0.079 C 
HETATM    3  C3  UNL     1     -34.217   7.057   5.094  1.00 20.00     0.016 C 
HETATM    4  C4  UNL     1     -33.360   5.457   1.602  1.00 20.00     0.006 C 
HETATM    5  C5  UNL     1     -32.142   5.996   0.838  1.00 20.00     0.005 C 
HETATM    6  C6  UNL     1     -32.886   7.602   2.496  1.00 20.00     0.064 C 
HETATM    7  C7  UNL     1     -33.313   6.199   2.933  1.00 20.00     0.005 C 
HETATM    8  C8  UNL     1     -31.725   7.304   1.544  1.00 20.00    -0.007 C 
HETATM    9  C9  UNL     1     -34.564   6.199   3.843  1.00 20.00    -0.043 C 
HETATM   10  C10 UNL     1     -31.454   8.435   0.560  1.00 20.00     0.011 C 
HETATM   11  C11 UNL     1     -34.872   4.760   4.301  1.00 20.00     0.015 C 
HETATM   12  C12 UNL     1     -35.825   6.754   3.155  1.00 20.00     0.015 C 
HETATM   13  O13 UNL     1     -31.537   9.057   3.872  1.00 20.00    -0.298 OA
ENDROOT
TORSDOF 0
ENDMDL
MODEL 2
REMARK VINA RESULT:       2.6      1.771      3.640
REMARK  0 active torsions:
REMARK  status: ('A' for Active; 'I' for Inactive)
ROOT
HETATM    1  C1  UNL     1     -34.496   6.753   3.841  1.00 20.00     0.131 C 
HETATM    2  C2  UNL     1     -34.264   8.236   4.071  1.00 20.00     0.079 C 
HETATM    3  C3  UNL     1     -33.734   8.927   2.811  1.00 20.00     0.016 C 
HETATM    4  C4  UNL     1     -31.956   5.758   1.300  1.00 20.00     0.006 C 
HETATM    5  C5  UNL     1     -32.559   4.378   1.599  1.00 20.00     0.005 C 
HETATM    6  C6  UNL     1     -33.333   6.013   3.214  1.00 20.00     0.064 C 
HETATM    7  C7  UNL     1     -32.951   6.732   1.919  1.00 20.00     0.005 C 
HETATM    8  C8  UNL     1     -33.593   4.586   2.726  1.00 20.00    -0.007 C 
HETATM    9  C9  UNL     1     -32.529   8.204   2.142  1.00 20.00    -0.043 C 
HETATM   10  C10 UNL     1     -33.467   3.544   3.830  1.00 20.00     0.011 C 
HETATM   11  C11 UNL     1     -32.244   8.874   0.783  1.00 20.00     0.015 C 
HETATM   12  C12 UNL     1     -31.270   8.358   3.016  1.00 20.00     0.015 C 
HETATM   13  O13 UNL     1     -35.518   6.191   4.227  1.00 20.00    -0.298 OA
ENDROOT
TORSDOF 0
ENDMDL
MODEL 3
REMARK VINA RESULT:       3.6      1.128      3.614
REMARK  0 active torsions:
REMARK  status: ('A' for Active; 'I' for Inactive)
ROOT
HETATM    1  C1  UNL     1     -32.358   8.317   2.184  1.00 20.00     0.131 C 
HETATM    2  C2  UNL     1     -31.376   7.808   1.144  1.00 20.00     0.079 C 
HETATM    3  C3  UNL     1     -31.946   6.619   0.363  1.00 20.00     0.016 C 
HETATM    4  C4  UNL     1     -34.305   5.316   3.232  1.00 20.00     0.006 C 
HETATM    5  C5  UNL     1     -34.892   6.344   4.210  1.00 20.00     0.005 C 
HETATM    6  C6  UNL     1     -32.943   7.252   3.088  1.00 20.00     0.064 C 
HETATM    7  C7  UNL     1     -33.567   6.168   2.206  1.00 20.00     0.005 C 
HETATM    8  C8  UNL     1     -34.119   7.660   3.979  1.00 20.00    -0.007 C 
HETATM    9  C9  UNL     1     -32.548   5.496   1.256  1.00 20.00    -0.043 C 
HETATM   10  C10 UNL     1     -33.683   8.314   5.283  1.00 20.00     0.011 C 
HETATM   11  C11 UNL     1     -33.274   4.481   0.350  1.00 20.00     0.015 C 
HETATM   12  C12 UNL     1     -31.422   4.747   1.992  1.00 20.00     0.015 C 
HETATM   13  O13 UNL     1     -32.577   9.517   2.333  1.00 20.00    -0.298 OA
ENDROOT
TORSDOF 0
ENDMDL
MODEL 4
REMARK VINA RESULT:       4.2      1.778      4.467
REMARK  0 active torsions:
REMARK  status: ('A' for Active; 'I' for Inactive)
ROOT
HETATM    1  C1  UNL     1     -33.204   5.227   2.208  1.00 20.00     0.131 C 
HETATM    2  C2  UNL     1     -32.381   5.474   0.957  1.00 20.00     0.079 C 
HETATM    3  C3  UNL     1     -31.356   6.594   1.167  1.00 20.00     0.016 C 
HETATM    4  C4  UNL     1     -33.404   8.538   3.909  1.00 20.00     0.006 C 
HETATM    5  C5  UNL     1     -34.321   7.728   4.838  1.00 20.00     0.005 C 
HETATM    6  C6  UNL     1     -33.813   6.466   2.830  1.00 20.00     0.064 C 
HETATM    7  C7  UNL     1     -32.690   7.473   3.084  1.00 20.00     0.005 C 
HETATM    8  C8  UNL     1     -34.434   6.318   4.222  1.00 20.00    -0.007 C 
HETATM    9  C9  UNL     1     -31.944   7.891   1.794  1.00 20.00    -0.043 C 
HETATM   10  C10 UNL     1     -35.870   5.813   4.185  1.00 20.00     0.011 C 
HETATM   11  C11 UNL     1     -30.781   8.838   2.151  1.00 20.00     0.015 C 
HETATM   12  C12 UNL     1     -32.841   8.612   0.771  1.00 20.00     0.015 C 
HETATM   13  O13 UNL     1     -33.431   4.091   2.619  1.00 20.00    -0.298 OA
ENDROOT
TORSDOF 0
ENDMDL
MODEL 5
REMARK VINA RESULT:       4.5      1.431      2.874
REMARK  0 active torsions:
REMARK  status: ('A' for Active; 'I' for Inactive)
ROOT
HETATM    1  C1  UNL     1     -33.682   7.601   3.240  1.00 20.00     0.131 C 
HETATM    2  C2  UNL     1     -34.208   6.184   3.375  1.00 20.00     0.079 C 
HETATM    3  C3  UNL     1     -33.178   5.151   2.907  1.00 20.00     0.016 C 
HETATM    4  C4  UNL     1     -31.364   7.501   0.322  1.00 20.00     0.006 C 
HETATM    5  C5  UNL     1     -31.322   9.007   0.618  1.00 20.00     0.005 C 
HETATM    6  C6  UNL     1     -33.091   7.939   1.887  1.00 20.00     0.064 C 
HETATM    7  C7  UNL     1     -32.012   6.903   1.566  1.00 20.00     0.005 C 
HETATM    8  C8  UNL     1     -32.320   9.256   1.769  1.00 20.00    -0.007 C 
HETATM    9  C9  UNL     1     -32.555   5.455   1.513  1.00 20.00    -0.043 C 
HETATM   10  C10 UNL     1     -33.221  10.455   1.508  1.00 20.00     0.011 C 
HETATM   11  C11 UNL     1     -31.391   4.474   1.269  1.00 20.00     0.015 C 
HETATM   12  C12 UNL     1     -33.601   5.230   0.407  1.00 20.00     0.015 C 
HETATM   13  O13 UNL     1     -33.819   8.430   4.137  1.00 20.00    -0.298 OA
ENDROOT
TORSDOF 0
ENDMDL
MODEL 6
REMARK VINA RESULT:       4.7      2.027      3.175
REMARK  0 active torsions:
REMARK  status: ('A' for Active; 'I' for Inactive)
ROOT
HETATM    1  C1  UNL     1     -33.865   4.694   3.246  1.00 20.00     0.131 C 
HETATM    2  C2  UNL     1     -34.660   5.117   4.468  1.00 20.00     0.079 C 
HETATM    3  C3  UNL     1     -35.233   6.528   4.308  1.00 20.00     0.016 C 
HETATM    4  C4  UNL     1     -32.436   7.852   1.877  1.00 20.00     0.006 C 
HETATM    5  C5  UNL     1     -31.766   6.848   0.928  1.00 20.00     0.005 C 
HETATM    6  C6  UNL     1     -32.830   5.694   2.777  1.00 20.00     0.064 C 
HETATM    7  C7  UNL     1     -33.529   7.037   2.559  1.00 20.00     0.005 C 
HETATM    8  C8  UNL     1     -32.180   5.442   1.414  1.00 20.00    -0.007 C 
HETATM    9  C9  UNL     1     -34.198   7.591   3.839  1.00 20.00    -0.043 C 
HETATM   10  C10 UNL     1     -31.001   4.480   1.482  1.00 20.00     0.011 C 
HETATM   11  C11 UNL     1     -34.946   8.898   3.509  1.00 20.00     0.015 C 
HETATM   12  C12 UNL     1     -33.200   7.893   4.973  1.00 20.00     0.015 C 
HETATM   13  O13 UNL     1     -33.996   3.580   2.743  1.00 20.00    -0.298 OA
ENDROOT
TORSDOF 0
ENDMDL
