MODEL 1
REMARK VINA RESULT:      -2.5      0.000      0.000
REMARK  1 active torsions:
REMARK  status: ('A' for Active; 'I' for Inactive)
REMARK    1  A    between atoms: C2_2  and  C4_4 
ROOT
HETATM    1  C1  UNL     1     -32.419   6.672   1.646  1.00 20.00    -0.034 C 
HETATM    2  C2  UNL     1     -33.344   6.170   2.477  1.00 20.00    -0.016 C 
HETATM    3  C3  UNL     1     -31.933   8.082   1.697  1.00 20.00     0.036 C 
ENDROOT
BRANCH   2   4
HETATM    4  C4  UNL     1     -34.003   6.963   3.557  1.00 20.00     0.141 C 
HETATM    5 CL5  UNL     1     -35.464   6.125   4.121  1.00 20.00    -0.126 Cl
ENDBRANCH   2   4
TORSDOF 1
ENDMDL
MODEL 2
REMARK VINA RESULT:      -2.5      2.618      3.191
REMARK  1 active torsions:
REMARK  status: ('A' for Active; 'I' for Inactive)
REMARK    1  A    between atoms: C2_2  and  C4_4 
ROOT
HETATM    1  C1  UNL     1     -35.105   6.419   4.196  1.00 20.00    -0.034 C 
HETATM    2  C2  UNL     1     -34.976   5.084   4.209  1.00 20.00    -0.016 C 
HETATM    3  C3  UNL     1     -34.061   7.351   3.677  1.00 20.00     0.036 C 
ENDROOT
BRANCH   2   4
HETATM    4  C4  UNL     1     -33.768   4.365   3.705  1.00 20.00     0.141 C 
HETATM    5 CL5  UNL     1     -33.343   3.042   4.811  1.00 20.00    -0.126 Cl
ENDBRANCH   2   4
TORSDOF 1
ENDMDL
MODEL 3
REMARK VINA RESULT:      -2.3      2.411      3.527
REMARK  1 active torsions:
REMARK  status: ('A' for Active; 'I' for Inactive)
REMARK    1  A    between atoms: C2_2  and  C4_4 
ROOT
HETATM    1  C1  UNL     1     -34.510   7.267   4.253  1.00 20.00    -0.034 C 
HETATM    2  C2  UNL     1     -33.473   7.650   3.494  1.00 20.00    -0.016 C 
HETATM    3  C3  UNL     1     -35.324   6.044   3.992  1.00 20.00     0.036 C 
ENDROOT
BRANCH   2   4
HETATM    4  C4  UNL     1     -33.007   6.899   2.291  1.00 20.00     0.141 C 
HETATM    5 CL5  UNL     1     -31.689   7.786   1.495  1.00 20.00    -0.126 Cl
ENDBRANCH   2   4
TORSDOF 1
ENDMDL
MODEL 4
REMARK VINA RESULT:      -2.3      2.554      3.291
REMARK  1 active torsions:
REMARK  status: ('A' for Active; 'I' for Inactive)
REMARK    1  A    between atoms: C2_2  and  C4_4 
ROOT
HETATM    1  C1  UNL     1     -33.568   6.415   2.571  1.00 20.00    -0.034 C 
HETATM    2  C2  UNL     1     -32.593   6.839   1.753  1.00 20.00    -0.016 C 
HETATM    3  C3  UNL     1     -34.071   7.195   3.739  1.00 20.00     0.036 C 
ENDROOT
BRANCH   2   4
HETATM    4  C4  UNL     1     -31.890   8.147   1.913  1.00 20.00     0.141 C 
HETATM    5 CL5  UNL     1     -32.300   9.226   0.562  1.00 20.00    -0.126 Cl
ENDBRANCH   2   4
TORSDOF 1
ENDMDL
MODEL 5
REMARK VINA RESULT:      -2.2      1.254      1.786
REMARK  1 active torsions:
REMARK  status: ('A' for Active; 'I' for Inactive)
REMARK    1  A    between atoms: C2_2  and  C4_4 
ROOT
HETATM    1  C1  UNL     1     -33.175   7.396   3.066  1.00 20.00    -0.034 C 
HETATM    2  C2  UNL     1     -34.186   7.286   3.940  1.00 20.00    -0.016 C 
HETATM    3  C3  UNL     1     -32.988   6.493   1.893  1.00 20.00     0.036 C 
ENDROOT
BRANCH   2   4
HETATM    4  C4  UNL     1     -35.251   6.243   3.847  1.00 20.00     0.141 C 
HETATM    5 CL5  UNL     1     -34.604   4.669   4.358  1.00 20.00    -0.126 Cl
ENDBRANCH   2   4
TORSDOF 1
ENDMDL
MODEL 6
REMARK VINA RESULT:      -2.0      2.287      3.451
REMARK  1 active torsions:
REMARK  status: ('A' for Active; 'I' for Inactive)
REMARK    1  A    between atoms: C2_2  and  C4_4 
ROOT
HETATM    1  C1  UNL     1     -35.119   4.819   4.428  1.00 20.00    -0.034 C 
HETATM    2  C2  UNL     1     -35.221   6.120   4.117  1.00 20.00    -0.016 C 
HETATM    3  C3  UNL     1     -33.884   4.009   4.222  1.00 20.00     0.036 C 
ENDROOT
BRANCH   2   4
HETATM    4  C4  UNL     1     -34.106   6.918   3.523  1.00 20.00     0.141 C 
HETATM    5 CL5  UNL     1     -33.508   8.099   4.707  1.00 20.00    -0.126 Cl
ENDBRANCH   2   4
TORSDOF 1
ENDMDL
MODEL 7
REMARK VINA RESULT:      -2.0      2.348      3.321
REMARK  1 active torsions:
REMARK  status: ('A' for Active; 'I' for Inactive)
REMARK    1  A    between atoms: C2_2  and  C4_4 
ROOT
HETATM    1  C1  UNL     1     -34.112   7.256   3.845  1.00 20.00    -0.034 C 
HETATM    2  C2  UNL     1     -33.229   7.183   2.838  1.00 20.00    -0.016 C 
HETATM    3  C3  UNL     1     -35.280   6.339   3.994  1.00 20.00     0.036 C 
ENDROOT
BRANCH   2   4
HETATM    4  C4  UNL     1     -33.308   6.174   1.740  1.00 20.00     0.141 C 
HETATM    5 CL5  UNL     1     -31.692   5.519   1.401  1.00 20.00    -0.126 Cl
ENDBRANCH   2   4
TORSDOF 1
ENDMDL
MODEL 8
REMARK VINA RESULT:      -1.9      2.790      3.363
REMARK  1 active torsions:
REMARK  status: ('A' for Active; 'I' for Inactive)
REMARK    1  A    between atoms: C2_2  and  C4_4 
ROOT
HETATM    1  C1  UNL     1     -33.078   6.309   2.119  1.00 20.00    -0.034 C 
HETATM    2  C2  UNL     1     -32.786   7.609   2.273  1.00 20.00    -0.016 C 
HETATM    3  C3  UNL     1     -32.362   5.403   1.174  1.00 20.00     0.036 C 
ENDROOT
BRANCH   2   4
HETATM    4  C4  UNL     1     -31.708   8.310   1.514  1.00 20.00     0.141 C 
HETATM    5 CL5  UNL     1     -32.414   9.566   0.475  1.00 20.00    -0.126 Cl
ENDBRANCH   2   4
TORSDOF 1
ENDMDL
MODEL 9
REMARK VINA RESULT:      -1.9      1.500      1.935
REMARK  1 active torsions:
REMARK  status: ('A' for Active; 'I' for Inactive)
REMARK    1  A    between atoms: C2_2  and  C4_4 
ROOT
HETATM    1  C1  UNL     1     -31.828   8.463   0.763  1.00 20.00    -0.034 C 
HETATM    2  C2  UNL     1     -32.026   7.656   1.816  1.00 20.00    -0.016 C 
HETATM    3  C3  UNL     1     -32.509   9.778   0.584  1.00 20.00     0.036 C 
ENDROOT
BRANCH   2   4
HETATM    4  C4  UNL     1     -32.956   7.977   2.940  1.00 20.00     0.141 C 
HETATM    5 CL5  UNL     1     -33.991   6.576   3.290  1.00 20.00    -0.126 Cl
ENDBRANCH   2   4
TORSDOF 1
ENDMDL
