MODEL 1
REMARK VINA RESULT:      -0.6      0.000      0.000
REMARK  0 active torsions:
REMARK  status: ('A' for Active; 'I' for Inactive)
ROOT
HETATM    1  C1  UNL     1     -34.430   6.428   3.679  1.00 20.00     0.196 C 
HETATM    2  C2  UNL     1     -33.602   7.679   3.879  1.00 20.00     0.092 C 
HETATM    3  C3  UNL     1     -32.976   8.199   2.585  1.00 20.00     0.019 C 
HETATM    4  C4  UNL     1     -31.977   7.237   1.937  1.00 20.00     0.087 C 
HETATM    5  O5  UNL     1     -35.635   6.369   3.877  1.00 20.00    -0.285 OA
HETATM    6  S6  UNL     1     -33.494   5.015   3.205  1.00 20.00    -0.020 SA
HETATM    7  S7  UNL     1     -32.799   5.707   1.404  1.00 20.00    -0.090 SA
ENDROOT
TORSDOF 0
ENDMDL
MODEL 2
REMARK VINA RESULT:      -0.5      2.657      3.405
REMARK  0 active torsions:
REMARK  status: ('A' for Active; 'I' for Inactive)
ROOT
HETATM    1  C1  UNL     1     -32.257   7.991   1.878  1.00 20.00     0.196 C 
HETATM    2  C2  UNL     1     -31.921   6.566   1.496  1.00 20.00     0.092 C 
HETATM    3  C3  UNL     1     -33.111   5.614   1.617  1.00 20.00     0.019 C 
HETATM    4  C4  UNL     1     -33.654   5.461   3.041  1.00 20.00     0.087 C 
HETATM    5  O5  UNL     1     -32.214   8.933   1.099  1.00 20.00    -0.285 OA
HETATM    6  S6  UNL     1     -32.647   8.207   3.580  1.00 20.00    -0.020 SA
HETATM    7  S7  UNL     1     -34.327   7.034   3.653  1.00 20.00    -0.090 SA
ENDROOT
TORSDOF 0
ENDMDL
MODEL 3
REMARK VINA RESULT:      -0.5      2.075      2.391
REMARK  0 active torsions:
REMARK  status: ('A' for Active; 'I' for Inactive)
ROOT
HETATM    1  C1  UNL     1     -33.767   5.405   3.113  1.00 20.00     0.196 C 
HETATM    2  C2  UNL     1     -33.184   5.576   1.727  1.00 20.00     0.092 C 
HETATM    3  C3  UNL     1     -32.007   6.550   1.685  1.00 20.00     0.019 C 
HETATM    4  C4  UNL     1     -32.362   7.986   2.078  1.00 20.00     0.087 C 
HETATM    5  O5  UNL     1     -33.756   4.350   3.731  1.00 20.00    -0.285 OA
HETATM    6  S6  UNL     1     -34.544   6.850   3.750  1.00 20.00    -0.020 SA
HETATM    7  S7  UNL     1     -32.899   8.072   3.812  1.00 20.00    -0.090 SA
ENDROOT
TORSDOF 0
ENDMDL
MODEL 4
REMARK VINA RESULT:      -0.2      1.894      2.865
REMARK  0 active torsions:
REMARK  status: ('A' for Active; 'I' for Inactive)
ROOT
HETATM    1  C1  UNL     1     -32.529   7.299   2.107  1.00 20.00     0.196 C 
HETATM    2  C2  UNL     1     -33.583   8.162   2.765  1.00 20.00     0.092 C 
HETATM    3  C3  UNL     1     -34.101   7.582   4.081  1.00 20.00     0.019 C 
HETATM    4  C4  UNL     1     -34.814   6.235   3.938  1.00 20.00     0.087 C 
HETATM    5  O5  UNL     1     -31.372   7.653   1.927  1.00 20.00    -0.285 OA
HETATM    6  S6  UNL     1     -33.126   5.744   1.539  1.00 20.00    -0.020 SA
HETATM    7  S7  UNL     1     -33.669   4.952   3.351  1.00 20.00    -0.090 SA
ENDROOT
TORSDOF 0
ENDMDL
MODEL 5
REMARK VINA RESULT:       0.3      2.009      2.560
REMARK  0 active torsions:
REMARK  status: ('A' for Active; 'I' for Inactive)
ROOT
HETATM    1  C1  UNL     1     -33.147   7.850   3.800  1.00 20.00     0.196 C 
HETATM    2  C2  UNL     1     -34.379   6.974   3.744  1.00 20.00     0.092 C 
HETATM    3  C3  UNL     1     -34.086   5.550   3.270  1.00 20.00     0.019 C 
HETATM    4  C4  UNL     1     -33.548   5.461   1.840  1.00 20.00     0.087 C 
HETATM    5  O5  UNL     1     -32.698   8.330   4.831  1.00 20.00    -0.285 OA
HETATM    6  S6  UNL     1     -32.438   8.193   2.226  1.00 20.00    -0.020 SA
HETATM    7  S7  UNL     1     -31.930   6.277   1.701  1.00 20.00    -0.090 SA
ENDROOT
TORSDOF 0
ENDMDL
MODEL 6
REMARK VINA RESULT:       0.5      2.261      2.987
REMARK  0 active torsions:
REMARK  status: ('A' for Active; 'I' for Inactive)
ROOT
HETATM    1  C1  UNL     1     -32.977   5.800   1.687  1.00 20.00     0.196 C 
HETATM    2  C2  UNL     1     -33.602   5.396   3.005  1.00 20.00     0.092 C 
HETATM    3  C3  UNL     1     -34.472   6.492   3.621  1.00 20.00     0.019 C 
HETATM    4  C4  UNL     1     -33.710   7.768   3.989  1.00 20.00     0.087 C 
HETATM    5  O5  UNL     1     -33.223   5.255   0.621  1.00 20.00    -0.285 OA
HETATM    6  S6  UNL     1     -31.789   7.092   1.822  1.00 20.00    -0.020 SA
HETATM    7  S7  UNL     1     -33.031   8.572   2.508  1.00 20.00    -0.090 SA
ENDROOT
TORSDOF 0
ENDMDL
MODEL 7
REMARK VINA RESULT:       1.0      0.937      1.057
REMARK  0 active torsions:
REMARK  status: ('A' for Active; 'I' for Inactive)
ROOT
HETATM    1  C1  UNL     1     -34.753   5.449   4.120  1.00 20.00     0.196 C 
HETATM    2  C2  UNL     1     -34.247   6.831   4.472  1.00 20.00     0.092 C 
HETATM    3  C3  UNL     1     -33.883   7.669   3.246  1.00 20.00     0.019 C 
HETATM    4  C4  UNL     1     -32.737   7.095   2.408  1.00 20.00     0.087 C 
HETATM    5  O5  UNL     1     -35.885   5.055   4.365  1.00 20.00    -0.285 OA
HETATM    6  S6  UNL     1     -33.542   4.404   3.387  1.00 20.00    -0.020 SA
HETATM    7  S7  UNL     1     -33.198   5.493   1.684  1.00 20.00    -0.090 SA
ENDROOT
TORSDOF 0
ENDMDL
