MODEL 1
REMARK VINA RESULT:      -2.1      0.000      0.000
REMARK  2 active torsions:
REMARK  status: ('A' for Active; 'I' for Inactive)
REMARK    1  A    between atoms: C2_2  and  C3_3 
REMARK    2  A    between atoms: C2_2  and  C4_4 
ROOT
HETATM    1  C2  UNL     1     -32.830   6.873   2.849  1.00 20.00     0.244 C 
HETATM    2 CL9  UNL     1     -33.421   5.802   1.525  1.00 20.00    -0.111 Cl
ENDROOT
BRANCH   1   3
HETATM    3  C3  UNL     1     -34.014   7.397   3.688  1.00 20.00     0.200 C 
HETATM    4  C1  UNL     1     -33.604   7.972   5.043  1.00 20.00     0.072 C 
HETATM    5  F5  UNL     1     -34.643   8.387   2.992  1.00 20.00    -0.224 F 
HETATM    6 CL10 UNL     1     -35.214   6.100   3.997  1.00 20.00    -0.081 Cl
ENDBRANCH   1   3
BRANCH   1   7
HETATM    7  C4  UNL     1     -31.982   7.959   2.195  1.00 20.00     0.408 C 
HETATM    8  F6  UNL     1     -31.299   8.680   3.109  1.00 20.00    -0.169 F 
HETATM    9  F7  UNL     1     -31.081   7.422   1.339  1.00 20.00    -0.169 F 
HETATM   10  F8  UNL     1     -32.733   8.819   1.473  1.00 20.00    -0.169 F 
ENDBRANCH   1   7
TORSDOF 2
ENDMDL
MODEL 2
REMARK VINA RESULT:      -2.0      2.435      2.934
REMARK  2 active torsions:
REMARK  status: ('A' for Active; 'I' for Inactive)
REMARK    1  A    between atoms: C2_2  and  C3_3 
REMARK    2  A    between atoms: C2_2  and  C4_4 
ROOT
HETATM    1  C2  UNL     1     -33.442   6.888   2.189  1.00 20.00     0.244 C 
HETATM    2 CL9  UNL     1     -32.104   8.090   2.296  1.00 20.00    -0.111 Cl
ENDROOT
BRANCH   1   3
HETATM    3  C3  UNL     1     -34.074   6.659   3.579  1.00 20.00     0.200 C 
HETATM    4  C1  UNL     1     -35.599   6.579   3.558  1.00 20.00     0.072 C 
HETATM    5  F5  UNL     1     -33.603   5.485   4.088  1.00 20.00    -0.224 F 
HETATM    6 CL10 UNL     1     -33.621   7.968   4.719  1.00 20.00    -0.081 Cl
ENDBRANCH   1   3
BRANCH   1   7
HETATM    7  C4  UNL     1     -32.863   5.636   1.539  1.00 20.00     0.408 C 
HETATM    8  F6  UNL     1     -33.457   5.366   0.356  1.00 20.00    -0.169 F 
HETATM    9  F7  UNL     1     -31.536   5.778   1.309  1.00 20.00    -0.169 F 
HETATM   10  F8  UNL     1     -33.002   4.548   2.326  1.00 20.00    -0.169 F 
ENDBRANCH   1   7
TORSDOF 2
ENDMDL
MODEL 3
REMARK VINA RESULT:      -1.9      1.759      2.907
REMARK  2 active torsions:
REMARK  status: ('A' for Active; 'I' for Inactive)
REMARK    1  A    between atoms: C2_2  and  C3_3 
REMARK    2  A    between atoms: C2_2  and  C4_4 
ROOT
HETATM    1  C2  UNL     1     -33.216   7.225   2.059  1.00 20.00     0.244 C 
HETATM    2 CL9  UNL     1     -33.803   7.488   3.743  1.00 20.00    -0.111 Cl
ENDROOT
BRANCH   1   3
HETATM    3  C3  UNL     1     -32.891   5.734   1.828  1.00 20.00     0.200 C 
HETATM    4  C1  UNL     1     -33.446   5.177   0.519  1.00 20.00     0.072 C 
HETATM    5  F5  UNL     1     -31.536   5.579   1.803  1.00 20.00    -0.224 F 
HETATM    6 CL10 UNL     1     -33.532   4.717   3.159  1.00 20.00    -0.081 Cl
ENDBRANCH   1   3
BRANCH   1   7
HETATM    7  C4  UNL     1     -32.042   8.174   1.846  1.00 20.00     0.408 C 
HETATM    8  F6  UNL     1     -31.125   7.656   1.001  1.00 20.00    -0.169 F 
HETATM    9  F7  UNL     1     -32.459   9.353   1.326  1.00 20.00    -0.169 F 
HETATM   10  F8  UNL     1     -31.413   8.467   3.004  1.00 20.00    -0.169 F 
ENDBRANCH   1   7
TORSDOF 2
ENDMDL
MODEL 4
REMARK VINA RESULT:      -1.9      1.547      1.741
REMARK  2 active torsions:
REMARK  status: ('A' for Active; 'I' for Inactive)
REMARK    1  A    between atoms: C2_2  and  C3_3 
REMARK    2  A    between atoms: C2_2  and  C4_4 
ROOT
HETATM    1  C2  UNL     1     -33.008   6.083   3.177  1.00 20.00     0.244 C 
HETATM    2 CL9  UNL     1     -33.673   4.426   3.421  1.00 20.00    -0.111 Cl
ENDROOT
BRANCH   1   3
HETATM    3  C3  UNL     1     -34.019   7.146   3.656  1.00 20.00     0.200 C 
HETATM    4  C1  UNL     1     -33.589   7.881   4.924  1.00 20.00     0.072 C 
HETATM    5  F5  UNL     1     -34.179   8.077   2.672  1.00 20.00    -0.224 F 
HETATM    6 CL10 UNL     1     -35.625   6.414   3.979  1.00 20.00    -0.081 Cl
ENDBRANCH   1   3
BRANCH   1   7
HETATM    7  C4  UNL     1     -32.618   6.192   1.707  1.00 20.00     0.408 C 
HETATM    8  F6  UNL     1     -32.108   7.407   1.412  1.00 20.00    -0.169 F 
HETATM    9  F7  UNL     1     -31.685   5.266   1.382  1.00 20.00    -0.169 F 
HETATM   10  F8  UNL     1     -33.670   5.980   0.888  1.00 20.00    -0.169 F 
ENDBRANCH   1   7
TORSDOF 2
ENDMDL
MODEL 5
REMARK VINA RESULT:      -1.8      1.977      3.486
REMARK  2 active torsions:
REMARK  status: ('A' for Active; 'I' for Inactive)
REMARK    1  A    between atoms: C2_2  and  C3_3 
REMARK    2  A    between atoms: C2_2  and  C4_4 
ROOT
HETATM    1  C2  UNL     1     -34.023   6.112   2.823  1.00 20.00     0.244 C 
HETATM    2 CL9  UNL     1     -33.676   4.629   3.785  1.00 20.00    -0.111 Cl
ENDROOT
BRANCH   1   3
HETATM    3  C3  UNL     1     -32.960   6.301   1.720  1.00 20.00     0.200 C 
HETATM    4  C1  UNL     1     -31.875   5.225   1.718  1.00 20.00     0.072 C 
HETATM    5  F5  UNL     1     -33.576   6.270   0.504  1.00 20.00    -0.224 F 
HETATM    6 CL10 UNL     1     -32.140   7.889   1.875  1.00 20.00    -0.081 Cl
ENDBRANCH   1   3
BRANCH   1   7
HETATM    7  C4  UNL     1     -34.127   7.268   3.812  1.00 20.00     0.408 C 
HETATM    8  F6  UNL     1     -34.548   8.404   3.214  1.00 20.00    -0.169 F 
HETATM    9  F7  UNL     1     -35.000   6.980   4.805  1.00 20.00    -0.169 F 
HETATM   10  F8  UNL     1     -32.943   7.532   4.405  1.00 20.00    -0.169 F 
ENDBRANCH   1   7
TORSDOF 2
ENDMDL
MODEL 6
REMARK VINA RESULT:      -1.8      1.854      3.360
REMARK  2 active torsions:
REMARK  status: ('A' for Active; 'I' for Inactive)
REMARK    1  A    between atoms: C2_2  and  C3_3 
REMARK    2  A    between atoms: C2_2  and  C4_4 
ROOT
HETATM    1  C2  UNL     1     -33.378   6.904   1.995  1.00 20.00     0.244 C 
HETATM    2 CL9  UNL     1     -32.805   5.304   1.396  1.00 20.00    -0.111 Cl
ENDROOT
BRANCH   1   3
HETATM    3  C3  UNL     1     -32.215   7.919   2.018  1.00 20.00     0.200 C 
HETATM    4  C1  UNL     1     -31.991   8.570   3.382  1.00 20.00     0.072 C 
HETATM    5  F5  UNL     1     -31.063   7.276   1.672  1.00 20.00    -0.224 F 
HETATM    6 CL10 UNL     1     -32.481   9.237   0.832  1.00 20.00    -0.081 Cl
ENDBRANCH   1   3
BRANCH   1   7
HETATM    7  C4  UNL     1     -34.039   6.661   3.347  1.00 20.00     0.408 C 
HETATM    8  F6  UNL     1     -33.638   7.561   4.271  1.00 20.00    -0.169 F 
HETATM    9  F7  UNL     1     -35.387   6.745   3.251  1.00 20.00    -0.169 F 
HETATM   10  F8  UNL     1     -33.764   5.429   3.829  1.00 20.00    -0.169 F 
ENDBRANCH   1   7
TORSDOF 2
ENDMDL
MODEL 7
REMARK VINA RESULT:      -1.8      1.983      3.392
REMARK  2 active torsions:
REMARK  status: ('A' for Active; 'I' for Inactive)
REMARK    1  A    between atoms: C2_2  and  C3_3 
REMARK    2  A    between atoms: C2_2  and  C4_4 
ROOT
HETATM    1  C2  UNL     1     -34.024   6.091   2.823  1.00 20.00     0.244 C 
HETATM    2 CL9  UNL     1     -33.667   4.607   3.780  1.00 20.00    -0.111 Cl
ENDROOT
BRANCH   1   3
HETATM    3  C3  UNL     1     -32.964   6.290   1.719  1.00 20.00     0.200 C 
HETATM    4  C1  UNL     1     -31.878   5.215   1.705  1.00 20.00     0.072 C 
HETATM    5  F5  UNL     1     -33.584   6.268   0.504  1.00 20.00    -0.224 F 
HETATM    6 CL10 UNL     1     -32.145   7.877   1.885  1.00 20.00    -0.081 Cl
ENDBRANCH   1   3
BRANCH   1   7
HETATM    7  C4  UNL     1     -34.134   7.244   3.815  1.00 20.00     0.408 C 
HETATM    8  F6  UNL     1     -32.945   7.526   4.390  1.00 20.00    -0.169 F 
HETATM    9  F7  UNL     1     -34.571   8.371   3.204  1.00 20.00    -0.169 F 
HETATM   10  F8  UNL     1     -35.014   6.976   4.803  1.00 20.00    -0.169 F 
ENDBRANCH   1   7
TORSDOF 2
ENDMDL
MODEL 8
REMARK VINA RESULT:      -1.7      1.984      2.343
REMARK  2 active torsions:
REMARK  status: ('A' for Active; 'I' for Inactive)
REMARK    1  A    between atoms: C2_2  and  C3_3 
REMARK    2  A    between atoms: C2_2  and  C4_4 
ROOT
HETATM    1  C2  UNL     1     -33.215   7.328   2.182  1.00 20.00     0.244 C 
HETATM    2 CL9  UNL     1     -31.640   8.203   2.218  1.00 20.00    -0.111 Cl
ENDROOT
BRANCH   1   3
HETATM    3  C3  UNL     1     -33.962   7.508   3.521  1.00 20.00     0.200 C 
HETATM    4  C1  UNL     1     -33.039   7.687   4.724  1.00 20.00     0.072 C 
HETATM    5  F5  UNL     1     -34.753   8.616   3.437  1.00 20.00    -0.224 F 
HETATM    6 CL10 UNL     1     -35.025   6.104   3.863  1.00 20.00    -0.081 Cl
ENDBRANCH   1   3
BRANCH   1   7
HETATM    7  C4  UNL     1     -32.910   5.881   1.813  1.00 20.00     0.408 C 
HETATM    8  F6  UNL     1     -33.187   5.034   2.828  1.00 20.00    -0.169 F 
HETATM    9  F7  UNL     1     -33.640   5.489   0.741  1.00 20.00    -0.169 F 
HETATM   10  F8  UNL     1     -31.613   5.708   1.478  1.00 20.00    -0.169 F 
ENDBRANCH   1   7
TORSDOF 2
ENDMDL
MODEL 9
REMARK VINA RESULT:      -1.4      1.817      3.414
REMARK  2 active torsions:
REMARK  status: ('A' for Active; 'I' for Inactive)
REMARK    1  A    between atoms: C2_2  and  C3_3 
REMARK    2  A    between atoms: C2_2  and  C4_4 
ROOT
HETATM    1  C2  UNL     1     -33.553   6.939   2.115  1.00 20.00     0.244 C 
HETATM    2 CL9  UNL     1     -32.972   5.343   1.512  1.00 20.00    -0.111 Cl
ENDROOT
BRANCH   1   3
HETATM    3  C3  UNL     1     -32.401   7.966   2.120  1.00 20.00     0.200 C 
HETATM    4  C1  UNL     1     -32.715   9.251   1.356  1.00 20.00     0.072 C 
HETATM    5  F5  UNL     1     -32.123   8.308   3.411  1.00 20.00    -0.224 F 
HETATM    6 CL10 UNL     1     -30.909   7.270   1.407  1.00 20.00    -0.081 Cl
ENDBRANCH   1   3
BRANCH   1   7
HETATM    7  C4  UNL     1     -34.193   6.692   3.477  1.00 20.00     0.408 C 
HETATM    8  F6  UNL     1     -33.843   7.638   4.374  1.00 20.00    -0.169 F 
HETATM    9  F7  UNL     1     -35.544   6.694   3.385  1.00 20.00    -0.169 F 
HETATM   10  F8  UNL     1     -33.844   5.492   3.988  1.00 20.00    -0.169 F 
ENDBRANCH   1   7
TORSDOF 2
ENDMDL
