MODEL 1
REMARK VINA RESULT:      -1.7      0.000      0.000
REMARK  0 active torsions:
REMARK  status: ('A' for Active; 'I' for Inactive)
ROOT
HETATM    1  C1  UNL     1     -34.346   7.426   3.805  1.00 20.00     0.003 C 
HETATM    2  C2  UNL     1     -34.600   6.116   3.884  1.00 20.00     0.050 C 
HETATM    3  C3  UNL     1     -33.178   8.097   3.303  1.00 20.00    -0.004 C 
HETATM    4  C4  UNL     1     -32.295   7.643   2.405  1.00 20.00    -0.021 C 
HETATM    5  C5  UNL     1     -33.755   4.996   3.408  1.00 20.00     0.154 C 
HETATM    6  C6  UNL     1     -33.421   5.828   0.967  1.00 20.00     0.022 A 
HETATM    7  C7  UNL     1     -32.227   6.361   1.709  1.00 20.00     0.020 A 
HETATM    8  C8  UNL     1     -32.907   5.120   2.198  1.00 20.00     0.068 A 
HETATM    9  O9  UNL     1     -33.811   3.916   3.991  1.00 20.00    -0.293 OA
ENDROOT
TORSDOF 0
ENDMDL
MODEL 2
REMARK VINA RESULT:      -1.3      1.464      2.205
REMARK  0 active torsions:
REMARK  status: ('A' for Active; 'I' for Inactive)
ROOT
HETATM    1  C1  UNL     1     -34.411   6.701   3.503  1.00 20.00     0.003 C 
HETATM    2  C2  UNL     1     -33.988   5.990   2.454  1.00 20.00     0.050 C 
HETATM    3  C3  UNL     1     -33.691   7.653   4.305  1.00 20.00    -0.004 C 
HETATM    4  C4  UNL     1     -32.629   8.386   3.950  1.00 20.00    -0.021 C 
HETATM    5  C5  UNL     1     -32.663   6.043   1.793  1.00 20.00     0.154 C 
HETATM    6  C6  UNL     1     -32.584   8.610   1.386  1.00 20.00     0.022 A 
HETATM    7  C7  UNL     1     -31.878   8.420   2.699  1.00 20.00     0.020 A 
HETATM    8  C8  UNL     1     -31.891   7.305   1.699  1.00 20.00     0.068 A 
HETATM    9  O9  UNL     1     -32.225   5.032   1.250  1.00 20.00    -0.293 OA
ENDROOT
TORSDOF 0
ENDMDL
MODEL 3
REMARK VINA RESULT:      -1.3      1.139      2.660
REMARK  0 active torsions:
REMARK  status: ('A' for Active; 'I' for Inactive)
ROOT
HETATM    1  C1  UNL     1     -32.726   5.378   2.213  1.00 20.00     0.003 C 
HETATM    2  C2  UNL     1     -33.710   5.276   3.112  1.00 20.00     0.050 C 
HETATM    3  C3  UNL     1     -32.266   6.538   1.498  1.00 20.00    -0.004 C 
HETATM    4  C4  UNL     1     -32.370   7.821   1.865  1.00 20.00    -0.021 C 
HETATM    5  C5  UNL     1     -34.556   6.360   3.662  1.00 20.00     0.154 C 
HETATM    6  C6  UNL     1     -32.638   7.942   4.423  1.00 20.00     0.022 A 
HETATM    7  C7  UNL     1     -32.990   8.421   3.042  1.00 20.00     0.020 A 
HETATM    8  C8  UNL     1     -34.027   7.729   3.871  1.00 20.00     0.068 A 
HETATM    9  O9  UNL     1     -35.703   6.101   4.018  1.00 20.00    -0.293 OA
ENDROOT
TORSDOF 0
ENDMDL
MODEL 4
REMARK VINA RESULT:      -1.1      2.227      3.078
REMARK  0 active torsions:
REMARK  status: ('A' for Active; 'I' for Inactive)
ROOT
HETATM    1  C1  UNL     1     -32.993   8.060   4.087  1.00 20.00     0.003 C 
HETATM    2  C2  UNL     1     -32.211   8.490   3.091  1.00 20.00     0.050 C 
HETATM    3  C3  UNL     1     -34.091   7.134   4.044  1.00 20.00    -0.004 C 
HETATM    4  C4  UNL     1     -34.307   6.159   3.153  1.00 20.00    -0.021 C 
HETATM    5  C5  UNL     1     -32.234   8.069   1.671  1.00 20.00     0.154 C 
HETATM    6  C6  UNL     1     -32.066   5.505   2.068  1.00 20.00     0.022 A 
HETATM    7  C7  UNL     1     -33.543   5.771   1.971  1.00 20.00     0.020 A 
HETATM    8  C8  UNL     1     -32.580   6.683   1.275  1.00 20.00     0.068 A 
HETATM    9  O9  UNL     1     -31.890   8.870   0.805  1.00 20.00    -0.293 OA
ENDROOT
TORSDOF 0
ENDMDL
MODEL 5
REMARK VINA RESULT:      -0.9      1.796      3.240
REMARK  0 active torsions:
REMARK  status: ('A' for Active; 'I' for Inactive)
ROOT
HETATM    1  C1  UNL     1     -32.357   7.412   1.725  1.00 20.00     0.003 C 
HETATM    2  C2  UNL     1     -32.495   8.244   2.762  1.00 20.00     0.050 C 
HETATM    3  C3  UNL     1     -32.652   6.007   1.642  1.00 20.00    -0.004 C 
HETATM    4  C4  UNL     1     -33.527   5.309   2.375  1.00 20.00    -0.021 C 
HETATM    5  C5  UNL     1     -33.056   7.945   4.100  1.00 20.00     0.154 C 
HETATM    6  C6  UNL     1     -35.309   6.916   3.308  1.00 20.00     0.022 A 
HETATM    7  C7  UNL     1     -34.396   5.733   3.469  1.00 20.00     0.020 A 
HETATM    8  C8  UNL     1     -34.156   6.968   4.282  1.00 20.00     0.068 A 
HETATM    9  O9  UNL     1     -32.646   8.572   5.074  1.00 20.00    -0.293 OA
ENDROOT
TORSDOF 0
ENDMDL
MODEL 6
REMARK VINA RESULT:      -0.7      1.773      3.530
REMARK  0 active torsions:
REMARK  status: ('A' for Active; 'I' for Inactive)
ROOT
HETATM    1  C1  UNL     1     -33.064   5.022   1.940  1.00 20.00     0.003 C 
HETATM    2  C2  UNL     1     -32.796   6.326   1.826  1.00 20.00     0.050 C 
HETATM    3  C3  UNL     1     -33.575   4.294   3.070  1.00 20.00    -0.004 C 
HETATM    4  C4  UNL     1     -34.316   4.765   4.080  1.00 20.00    -0.021 C 
HETATM    5  C5  UNL     1     -33.017   7.391   2.832  1.00 20.00     0.154 C 
HETATM    6  C6  UNL     1     -35.526   6.902   3.307  1.00 20.00     0.022 A 
HETATM    7  C7  UNL     1     -34.789   6.118   4.357  1.00 20.00     0.020 A 
HETATM    8  C8  UNL     1     -34.161   7.347   3.774  1.00 20.00     0.068 A 
HETATM    9  O9  UNL     1     -32.274   8.370   2.839  1.00 20.00    -0.293 OA
ENDROOT
TORSDOF 0
ENDMDL
MODEL 7
REMARK VINA RESULT:      -0.5      1.426      2.704
REMARK  0 active torsions:
REMARK  status: ('A' for Active; 'I' for Inactive)
ROOT
HETATM    1  C1  UNL     1     -33.028   7.776   3.276  1.00 20.00     0.003 C 
HETATM    2  C2  UNL     1     -32.488   6.979   2.349  1.00 20.00     0.050 C 
HETATM    3  C3  UNL     1     -34.288   7.652   3.958  1.00 20.00    -0.004 C 
HETATM    4  C4  UNL     1     -34.991   6.535   4.184  1.00 20.00    -0.021 C 
HETATM    5  C5  UNL     1     -33.027   5.705   1.819  1.00 20.00     0.154 C 
HETATM    6  C6  UNL     1     -33.400   4.512   4.099  1.00 20.00     0.022 A 
HETATM    7  C7  UNL     1     -34.725   5.154   3.793  1.00 20.00     0.020 A 
HETATM    8  C8  UNL     1     -33.809   4.777   2.670  1.00 20.00     0.068 A 
HETATM    9  O9  UNL     1     -32.760   5.377   0.665  1.00 20.00    -0.293 OA
ENDROOT
TORSDOF 0
ENDMDL
MODEL 8
REMARK VINA RESULT:       0.3      1.155      2.604
REMARK  0 active torsions:
REMARK  status: ('A' for Active; 'I' for Inactive)
ROOT
HETATM    1  C1  UNL     1     -32.919   4.340   3.114  1.00 20.00     0.003 C 
HETATM    2  C2  UNL     1     -33.882   4.684   3.975  1.00 20.00     0.050 C 
HETATM    3  C3  UNL     1     -32.492   5.008   1.914  1.00 20.00    -0.004 C 
HETATM    4  C4  UNL     1     -32.608   6.307   1.615  1.00 20.00    -0.021 C 
HETATM    5  C5  UNL     1     -34.733   5.897   3.951  1.00 20.00     0.154 C 
HETATM    6  C6  UNL     1     -32.823   7.655   3.798  1.00 20.00     0.022 A 
HETATM    7  C7  UNL     1     -33.212   7.402   2.368  1.00 20.00     0.020 A 
HETATM    8  C8  UNL     1     -34.221   7.197   3.456  1.00 20.00     0.068 A 
HETATM    9  O9  UNL     1     -35.868   5.840   4.417  1.00 20.00    -0.293 OA
ENDROOT
TORSDOF 0
ENDMDL
