MODEL 1
REMARK VINA RESULT:       1.2      0.000      0.000
REMARK  0 active torsions:
REMARK  status: ('A' for Active; 'I' for Inactive)
ROOT
HETATM    1  C1  UNL     1     -32.619   8.144   1.945  1.00 20.00    -0.080 C 
HETATM    2  C2  UNL     1     -32.853   9.370   1.463  1.00 20.00     0.015 C 
HETATM    3  C3  UNL     1     -31.729   7.128   1.285  1.00 20.00     0.043 C 
HETATM    4  C4  UNL     1     -35.208   6.343   3.954  1.00 20.00     0.002 C 
HETATM    5  C5  UNL     1     -34.251   5.271   3.443  1.00 20.00     0.006 C 
HETATM    6  C6  UNL     1     -34.804   7.608   3.210  1.00 20.00     0.014 C 
HETATM    7  C7  UNL     1     -32.971   6.010   3.021  1.00 20.00     0.006 C 
HETATM    8  C8  UNL     1     -33.272   7.529   3.162  1.00 20.00    -0.017 C 
HETATM    9  C9  UNL     1     -32.459   5.799   1.566  1.00 20.00    -0.040 C 
HETATM   10  C10 UNL     1     -32.645   8.097   4.446  1.00 20.00     0.020 C 
HETATM   11  C11 UNL     1     -31.482   4.617   1.498  1.00 20.00     0.015 C 
HETATM   12  C12 UNL     1     -33.554   5.577   0.502  1.00 20.00     0.015 C 
ENDROOT
TORSDOF 0
ENDMDL
MODEL 2
REMARK VINA RESULT:       2.7      1.000      3.288
REMARK  0 active torsions:
REMARK  status: ('A' for Active; 'I' for Inactive)
ROOT
HETATM    1  C1  UNL     1     -32.659   8.187   3.531  1.00 20.00    -0.080 C 
HETATM    2  C2  UNL     1     -31.676   8.806   4.196  1.00 20.00     0.015 C 
HETATM    3  C3  UNL     1     -34.008   7.868   4.114  1.00 20.00     0.043 C 
HETATM    4  C4  UNL     1     -31.894   5.702   0.845  1.00 20.00     0.002 C 
HETATM    5  C5  UNL     1     -33.328   5.421   1.282  1.00 20.00     0.006 C 
HETATM    6  C6  UNL     1     -31.365   6.696   1.869  1.00 20.00     0.014 C 
HETATM    7  C7  UNL     1     -33.799   6.680   2.027  1.00 20.00     0.006 C 
HETATM    8  C8  UNL     1     -32.564   7.618   2.134  1.00 20.00    -0.017 C 
HETATM    9  C9  UNL     1     -34.341   6.503   3.476  1.00 20.00    -0.040 C 
HETATM   10  C10 UNL     1     -32.639   8.746   1.093  1.00 20.00     0.020 C 
HETATM   11  C11 UNL     1     -35.857   6.264   3.466  1.00 20.00     0.015 C 
HETATM   12  C12 UNL     1     -33.684   5.376   4.298  1.00 20.00     0.015 C 
ENDROOT
TORSDOF 0
ENDMDL
MODEL 3
REMARK VINA RESULT:       3.4      1.048      3.305
REMARK  0 active torsions:
REMARK  status: ('A' for Active; 'I' for Inactive)
ROOT
HETATM    1  C1  UNL     1     -34.241   6.743   3.315  1.00 20.00    -0.080 C 
HETATM    2  C2  UNL     1     -35.565   6.736   3.514  1.00 20.00     0.015 C 
HETATM    3  C3  UNL     1     -33.336   7.891   3.662  1.00 20.00     0.043 C 
HETATM    4  C4  UNL     1     -32.715   4.823   0.493  1.00 20.00     0.002 C 
HETATM    5  C5  UNL     1     -31.682   5.870   0.897  1.00 20.00     0.006 C 
HETATM    6  C6  UNL     1     -33.973   5.205   1.260  1.00 20.00     0.014 C 
HETATM    7  C7  UNL     1     -32.085   6.344   2.302  1.00 20.00     0.006 C 
HETATM    8  C8  UNL     1     -33.443   5.659   2.627  1.00 20.00    -0.017 C 
HETATM    9  C9  UNL     1     -32.303   7.871   2.517  1.00 20.00    -0.040 C 
HETATM   10  C10 UNL     1     -33.243   4.462   3.571  1.00 20.00     0.020 C 
HETATM   11  C11 UNL     1     -30.998   8.552   2.950  1.00 20.00     0.015 C 
HETATM   12  C12 UNL     1     -32.863   8.638   1.302  1.00 20.00     0.015 C 
ENDROOT
TORSDOF 0
ENDMDL
MODEL 4
REMARK VINA RESULT:       3.5      0.834      3.229
REMARK  0 active torsions:
REMARK  status: ('A' for Active; 'I' for Inactive)
ROOT
HETATM    1  C1  UNL     1     -31.805   5.892   1.375  1.00 20.00    -0.080 C 
HETATM    2  C2  UNL     1     -30.982   4.836   1.399  1.00 20.00     0.015 C 
HETATM    3  C3  UNL     1     -31.400   7.275   0.948  1.00 20.00     0.043 C 
HETATM    4  C4  UNL     1     -34.645   6.167   3.792  1.00 20.00     0.002 C 
HETATM    5  C5  UNL     1     -34.388   7.581   3.281  1.00 20.00     0.006 C 
HETATM    6  C6  UNL     1     -33.474   5.348   3.268  1.00 20.00     0.014 C 
HETATM    7  C7  UNL     1     -33.568   7.424   1.991  1.00 20.00     0.006 C 
HETATM    8  C8  UNL     1     -33.238   5.910   1.859  1.00 20.00    -0.017 C 
HETATM    9  C9  UNL     1     -32.208   8.178   1.902  1.00 20.00    -0.040 C 
HETATM   10  C10 UNL     1     -34.157   5.235   0.829  1.00 20.00     0.020 C 
HETATM   11  C11 UNL     1     -32.398   9.575   1.297  1.00 20.00     0.015 C 
HETATM   12  C12 UNL     1     -31.446   8.333   3.234  1.00 20.00     0.015 C 
ENDROOT
TORSDOF 0
ENDMDL
MODEL 5
REMARK VINA RESULT:       4.1      1.104      3.200
REMARK  0 active torsions:
REMARK  status: ('A' for Active; 'I' for Inactive)
ROOT
HETATM    1  C1  UNL     1     -33.864   4.670   3.667  1.00 20.00    -0.080 C 
HETATM    2  C2  UNL     1     -33.746   3.898   4.754  1.00 20.00     0.015 C 
HETATM    3  C3  UNL     1     -33.654   4.191   2.258  1.00 20.00     0.043 C 
HETATM    4  C4  UNL     1     -33.098   8.327   3.817  1.00 20.00     0.002 C 
HETATM    5  C5  UNL     1     -33.019   7.940   2.343  1.00 20.00     0.006 C 
HETATM    6  C6  UNL     1     -33.211   7.003   4.558  1.00 20.00     0.014 C 
HETATM    7  C7  UNL     1     -33.757   6.599   2.216  1.00 20.00     0.006 C 
HETATM    8  C8  UNL     1     -34.127   6.160   3.661  1.00 20.00    -0.017 C 
HETATM    9  C9  UNL     1     -32.986   5.405   1.580  1.00 20.00    -0.040 C 
HETATM   10  C10 UNL     1     -35.609   6.440   3.959  1.00 20.00     0.020 C 
HETATM   11  C11 UNL     1     -33.200   5.364   0.061  1.00 20.00     0.015 C 
HETATM   12  C12 UNL     1     -31.467   5.376   1.850  1.00 20.00     0.015 C 
ENDROOT
TORSDOF 0
ENDMDL
