MODEL 1
REMARK VINA RESULT:       5.0      0.000      0.000
REMARK  0 active torsions:
REMARK  status: ('A' for Active; 'I' for Inactive)
ROOT
HETATM    1  C1  UNL     1     -32.369   8.699   3.100  1.00 20.00     0.123 C 
HETATM    2  C2  UNL     1     -34.882   5.884   4.293  1.00 20.00     0.123 C 
HETATM    3  C3  UNL     1     -32.441   5.198   1.255  1.00 20.00     0.123 C 
HETATM    4  C4  UNL     1     -32.655   7.667   2.013  1.00 20.00     0.296 C 
HETATM    5  C5  UNL     1     -34.391   7.169   3.633  1.00 20.00     0.296 C 
HETATM    6  C6  UNL     1     -33.738   5.495   2.002  1.00 20.00     0.296 C 
HETATM    7  N7  UNL     1     -33.933   6.947   2.239  1.00 20.00     0.133 N 
HETATM    8  S8  UNL     1     -33.068   7.973   4.586  1.00 20.00    -0.130 SA
HETATM    9  S9  UNL     1     -33.846   4.602   3.582  1.00 20.00    -0.130 SA
HETATM   10  S10 UNL     1     -31.305   6.463   1.831  1.00 20.00    -0.130 SA
ENDROOT
TORSDOF 0
ENDMDL
MODEL 2
REMARK VINA RESULT:       5.0      0.066      3.242
REMARK  0 active torsions:
REMARK  status: ('A' for Active; 'I' for Inactive)
ROOT
HETATM    1  C1  UNL     1     -32.513   5.147   1.297  1.00 20.00     0.123 C 
HETATM    2  C2  UNL     1     -32.344   8.665   3.101  1.00 20.00     0.123 C 
HETATM    3  C3  UNL     1     -34.914   5.925   4.345  1.00 20.00     0.123 C 
HETATM    4  C4  UNL     1     -33.796   5.484   2.049  1.00 20.00     0.296 C 
HETATM    5  C5  UNL     1     -32.661   7.629   2.028  1.00 20.00     0.296 C 
HETATM    6  C6  UNL     1     -34.397   7.190   3.667  1.00 20.00     0.296 C 
HETATM    7  N7  UNL     1     -33.955   6.942   2.272  1.00 20.00     0.133 N 
HETATM    8  S8  UNL     1     -31.342   6.390   1.852  1.00 20.00    -0.130 SA
HETATM    9  S9  UNL     1     -33.049   7.974   4.601  1.00 20.00    -0.130 SA
HETATM   10  S10 UNL     1     -33.915   4.611   3.639  1.00 20.00    -0.130 SA
ENDROOT
TORSDOF 0
ENDMDL
MODEL 3
REMARK VINA RESULT:       5.0      0.078      3.200
REMARK  0 active torsions:
REMARK  status: ('A' for Active; 'I' for Inactive)
ROOT
HETATM    1  C1  UNL     1     -34.884   5.896   4.389  1.00 20.00     0.123 C 
HETATM    2  C2  UNL     1     -32.539   5.166   1.286  1.00 20.00     0.123 C 
HETATM    3  C3  UNL     1     -32.378   8.677   3.104  1.00 20.00     0.123 C 
HETATM    4  C4  UNL     1     -34.400   7.171   3.705  1.00 20.00     0.296 C 
HETATM    5  C5  UNL     1     -33.810   5.480   2.068  1.00 20.00     0.296 C 
HETATM    6  C6  UNL     1     -32.705   7.640   2.033  1.00 20.00     0.296 C 
HETATM    7  N7  UNL     1     -33.984   6.936   2.301  1.00 20.00     0.133 N 
HETATM    8  S8  UNL     1     -33.881   4.599   3.657  1.00 20.00    -0.130 SA
HETATM    9  S9  UNL     1     -31.372   6.421   1.822  1.00 20.00    -0.130 SA
HETATM   10  S10 UNL     1     -33.043   7.970   4.615  1.00 20.00    -0.130 SA
ENDROOT
TORSDOF 0
ENDMDL
MODEL 4
REMARK VINA RESULT:       6.7      1.554      2.899
REMARK  0 active torsions:
REMARK  status: ('A' for Active; 'I' for Inactive)
ROOT
HETATM    1  C1  UNL     1     -32.187   5.616   0.708  1.00 20.00     0.123 C 
HETATM    2  C2  UNL     1     -34.800   5.739   3.677  1.00 20.00     0.123 C 
HETATM    3  C3  UNL     1     -32.390   8.811   3.034  1.00 20.00     0.123 C 
HETATM    4  C4  UNL     1     -31.797   6.615   1.793  1.00 20.00     0.296 C 
HETATM    5  C5  UNL     1     -33.549   5.350   2.895  1.00 20.00     0.296 C 
HETATM    6  C6  UNL     1     -32.960   7.562   3.700  1.00 20.00     0.296 C 
HETATM    7  N7  UNL     1     -32.437   6.311   3.096  1.00 20.00     0.133 N 
HETATM    8  S8  UNL     1     -33.876   5.163   1.116  1.00 20.00    -0.130 SA
HETATM    9  S9  UNL     1     -34.778   7.534   3.674  1.00 20.00    -0.130 SA
HETATM   10  S10 UNL     1     -32.170   8.330   1.318  1.00 20.00    -0.130 SA
ENDROOT
TORSDOF 0
ENDMDL
MODEL 5
REMARK VINA RESULT:       6.7      1.555      2.900
REMARK  0 active torsions:
REMARK  status: ('A' for Active; 'I' for Inactive)
ROOT
HETATM    1  C1  UNL     1     -32.434   8.844   3.019  1.00 20.00     0.123 C 
HETATM    2  C2  UNL     1     -32.162   5.626   0.732  1.00 20.00     0.123 C 
HETATM    3  C3  UNL     1     -34.804   5.743   3.676  1.00 20.00     0.123 C 
HETATM    4  C4  UNL     1     -32.991   7.594   3.694  1.00 20.00     0.296 C 
HETATM    5  C5  UNL     1     -31.797   6.644   1.808  1.00 20.00     0.296 C 
HETATM    6  C6  UNL     1     -33.540   5.365   2.910  1.00 20.00     0.296 C 
HETATM    7  N7  UNL     1     -32.444   6.345   3.110  1.00 20.00     0.133 N 
HETATM    8  S8  UNL     1     -32.193   8.347   1.310  1.00 20.00    -0.130 SA
HETATM    9  S9  UNL     1     -33.848   5.152   1.130  1.00 20.00    -0.130 SA
HETATM   10  S10 UNL     1     -34.808   7.539   3.654  1.00 20.00    -0.130 SA
ENDROOT
TORSDOF 0
ENDMDL
MODEL 6
REMARK VINA RESULT:       6.8      1.537      2.899
REMARK  0 active torsions:
REMARK  status: ('A' for Active; 'I' for Inactive)
ROOT
HETATM    1  C1  UNL     1     -34.826   5.793   3.690  1.00 20.00     0.123 C 
HETATM    2  C2  UNL     1     -32.325   8.790   3.035  1.00 20.00     0.123 C 
HETATM    3  C3  UNL     1     -32.223   5.585   0.716  1.00 20.00     0.123 C 
HETATM    4  C4  UNL     1     -33.588   5.365   2.908  1.00 20.00     0.296 C 
HETATM    5  C5  UNL     1     -32.932   7.561   3.706  1.00 20.00     0.296 C 
HETATM    6  C6  UNL     1     -31.802   6.575   1.797  1.00 20.00     0.296 C 
HETATM    7  N7  UNL     1     -32.447   6.293   3.104  1.00 20.00     0.133 N 
HETATM    8  S8  UNL     1     -34.750   7.587   3.683  1.00 20.00    -0.130 SA
HETATM    9  S9  UNL     1     -32.125   8.300   1.319  1.00 20.00    -0.130 SA
HETATM   10  S10 UNL     1     -33.923   5.182   1.130  1.00 20.00    -0.130 SA
ENDROOT
TORSDOF 0
ENDMDL
MODEL 7
REMARK VINA RESULT:       6.9      1.697      2.876
REMARK  0 active torsions:
REMARK  status: ('A' for Active; 'I' for Inactive)
ROOT
HETATM    1  C1  UNL     1     -31.894   6.907   1.267  1.00 20.00     0.123 C 
HETATM    2  C2  UNL     1     -34.333   4.863   3.619  1.00 20.00     0.123 C 
HETATM    3  C3  UNL     1     -34.225   8.813   3.836  1.00 20.00     0.123 C 
HETATM    4  C4  UNL     1     -32.302   7.689   2.512  1.00 20.00     0.296 C 
HETATM    5  C5  UNL     1     -33.031   5.445   3.079  1.00 20.00     0.296 C 
HETATM    6  C6  UNL     1     -33.987   7.357   4.227  1.00 20.00     0.296 C 
HETATM    7  N7  UNL     1     -32.755   6.802   3.612  1.00 20.00     0.133 N 
HETATM    8  S8  UNL     1     -32.995   5.489   1.262  1.00 20.00    -0.130 SA
HETATM    9  S9  UNL     1     -35.403   6.291   3.819  1.00 20.00    -0.130 SA
HETATM   10  S10 UNL     1     -33.586   8.927   2.162  1.00 20.00    -0.130 SA
ENDROOT
TORSDOF 0
ENDMDL
MODEL 8
REMARK VINA RESULT:       6.9      1.692      2.869
REMARK  0 active torsions:
REMARK  status: ('A' for Active; 'I' for Inactive)
ROOT
HETATM    1  C1  UNL     1     -34.297   4.847   3.603  1.00 20.00     0.123 C 
HETATM    2  C2  UNL     1     -34.296   8.796   3.851  1.00 20.00     0.123 C 
HETATM    3  C3  UNL     1     -31.878   6.974   1.303  1.00 20.00     0.123 C 
HETATM    4  C4  UNL     1     -33.002   5.468   3.087  1.00 20.00     0.296 C 
HETATM    5  C5  UNL     1     -34.025   7.345   4.235  1.00 20.00     0.296 C 
HETATM    6  C6  UNL     1     -32.325   7.735   2.548  1.00 20.00     0.296 C 
HETATM    7  N7  UNL     1     -32.770   6.827   3.634  1.00 20.00     0.133 N 
HETATM    8  S8  UNL     1     -35.406   6.246   3.797  1.00 20.00    -0.130 SA
HETATM    9  S9  UNL     1     -33.637   8.941   2.187  1.00 20.00    -0.130 SA
HETATM   10  S10 UNL     1     -32.939   5.525   1.271  1.00 20.00    -0.130 SA
ENDROOT
TORSDOF 0
ENDMDL
