MODEL 1
REMARK VINA RESULT:      -0.8      0.000      0.000
REMARK  1 active torsions:
REMARK  status: ('A' for Active; 'I' for Inactive)
REMARK    1  A    between atoms: C1_1  and  C2_2 
ROOT
HETATM    1  C1  UNL     1     -33.825   6.304   3.113  1.00 20.00     0.432 C 
HETATM    2  F3  UNL     1     -35.138   6.535   2.884  1.00 20.00    -0.167 F 
HETATM    3  F4  UNL     1     -33.403   7.235   4.000  1.00 20.00    -0.167 F 
HETATM    4  F5  UNL     1     -33.726   5.100   3.719  1.00 20.00    -0.167 F 
ENDROOT
BRANCH   1   5
HETATM    5  C2  UNL     1     -33.014   6.356   1.832  1.00 20.00     0.267 C 
HETATM    6 CL6  UNL     1     -31.790   5.065   1.816  1.00 20.00    -0.079 Cl
HETATM    7 CL7  UNL     1     -34.077   6.194   0.413  1.00 20.00    -0.079 Cl
HETATM    8 BR8  UNL     1     -32.093   8.078   1.715  1.00 20.00    -0.040 Br
ENDBRANCH   1   5
TORSDOF 1
ENDMDL
MODEL 2
REMARK VINA RESULT:      -0.8      2.392      3.119
REMARK  1 active torsions:
REMARK  status: ('A' for Active; 'I' for Inactive)
REMARK    1  A    between atoms: C1_1  and  C2_2 
ROOT
HETATM    1  C1  UNL     1     -32.067   7.920   1.713  1.00 20.00     0.432 C 
HETATM    2  F3  UNL     1     -32.817   8.918   1.192  1.00 20.00    -0.167 F 
HETATM    3  F4  UNL     1     -30.943   7.831   0.965  1.00 20.00    -0.167 F 
HETATM    4  F5  UNL     1     -31.693   8.301   2.955  1.00 20.00    -0.167 F 
ENDROOT
BRANCH   1   5
HETATM    5  C2  UNL     1     -32.821   6.604   1.733  1.00 20.00     0.267 C 
HETATM    6 CL6  UNL     1     -33.871   6.463   0.303  1.00 20.00    -0.079 Cl
HETATM    7 CL7  UNL     1     -31.685   5.234   1.781  1.00 20.00    -0.079 Cl
HETATM    8 BR8  UNL     1     -33.946   6.524   3.331  1.00 20.00    -0.040 Br
ENDBRANCH   1   5
TORSDOF 1
ENDMDL
MODEL 3
REMARK VINA RESULT:      -0.7      2.793      3.086
REMARK  1 active torsions:
REMARK  status: ('A' for Active; 'I' for Inactive)
REMARK    1  A    between atoms: C1_1  and  C2_2 
ROOT
HETATM    1  C1  UNL     1     -33.217   6.327   2.065  1.00 20.00     0.432 C 
HETATM    2  F3  UNL     1     -33.990   6.256   0.957  1.00 20.00    -0.167 F 
HETATM    3  F4  UNL     1     -32.365   5.277   2.027  1.00 20.00    -0.167 F 
HETATM    4  F5  UNL     1     -32.471   7.451   1.967  1.00 20.00    -0.167 F 
ENDROOT
BRANCH   1   5
HETATM    5  C2  UNL     1     -34.050   6.315   3.333  1.00 20.00     0.267 C 
HETATM    6 CL6  UNL     1     -33.401   7.474   4.517  1.00 20.00    -0.079 Cl
HETATM    7 CL7  UNL     1     -35.746   6.715   2.968  1.00 20.00    -0.079 Cl
HETATM    8 BR8  UNL     1     -33.997   4.529   4.128  1.00 20.00    -0.040 Br
ENDBRANCH   1   5
TORSDOF 1
ENDMDL
MODEL 4
REMARK VINA RESULT:      -0.6      2.366      3.054
REMARK  1 active torsions:
REMARK  status: ('A' for Active; 'I' for Inactive)
REMARK    1  A    between atoms: C1_1  and  C2_2 
ROOT
HETATM    1  C1  UNL     1     -33.229   6.351   2.076  1.00 20.00     0.432 C 
HETATM    2  F3  UNL     1     -33.989   6.330   0.957  1.00 20.00    -0.167 F 
HETATM    3  F4  UNL     1     -32.400   5.283   2.018  1.00 20.00    -0.167 F 
HETATM    4  F5  UNL     1     -32.457   7.460   2.019  1.00 20.00    -0.167 F 
ENDROOT
BRANCH   1   5
HETATM    5  C2  UNL     1     -34.078   6.323   3.333  1.00 20.00     0.267 C 
HETATM    6 CL6  UNL     1     -35.776   6.692   2.947  1.00 20.00    -0.079 Cl
HETATM    7 CL7  UNL     1     -33.974   4.730   4.120  1.00 20.00    -0.079 Cl
HETATM    8 BR8  UNL     1     -33.425   7.673   4.589  1.00 20.00    -0.040 Br
ENDBRANCH   1   5
TORSDOF 1
ENDMDL
MODEL 5
REMARK VINA RESULT:      -0.5      2.448      2.623
REMARK  1 active torsions:
REMARK  status: ('A' for Active; 'I' for Inactive)
REMARK    1  A    between atoms: C1_1  and  C2_2 
ROOT
HETATM    1  C1  UNL     1     -32.689   6.199   1.648  1.00 20.00     0.432 C 
HETATM    2  F3  UNL     1     -33.459   6.142   0.537  1.00 20.00    -0.167 F 
HETATM    3  F4  UNL     1     -33.255   5.388   2.570  1.00 20.00    -0.167 F 
HETATM    4  F5  UNL     1     -31.486   5.668   1.332  1.00 20.00    -0.167 F 
ENDROOT
BRANCH   1   5
HETATM    5  C2  UNL     1     -32.557   7.618   2.168  1.00 20.00     0.267 C 
HETATM    6 CL6  UNL     1     -30.897   7.924   2.732  1.00 20.00    -0.079 Cl
HETATM    7 CL7  UNL     1     -32.987   8.790   0.899  1.00 20.00    -0.079 Cl
HETATM    8 BR8  UNL     1     -33.775   7.872   3.677  1.00 20.00    -0.040 Br
ENDBRANCH   1   5
TORSDOF 1
ENDMDL
MODEL 6
REMARK VINA RESULT:      -0.5      2.134      2.953
REMARK  1 active torsions:
REMARK  status: ('A' for Active; 'I' for Inactive)
REMARK    1  A    between atoms: C1_1  and  C2_2 
ROOT
HETATM    1  C1  UNL     1     -33.503   7.616   3.370  1.00 20.00     0.432 C 
HETATM    2  F3  UNL     1     -33.022   7.900   4.602  1.00 20.00    -0.167 F 
HETATM    3  F4  UNL     1     -33.992   6.355   3.412  1.00 20.00    -0.167 F 
HETATM    4  F5  UNL     1     -34.549   8.443   3.144  1.00 20.00    -0.167 F 
ENDROOT
BRANCH   1   5
HETATM    5  C2  UNL     1     -32.434   7.758   2.303  1.00 20.00     0.267 C 
HETATM    6 CL6  UNL     1     -32.945   8.925   1.060  1.00 20.00    -0.079 Cl
HETATM    7 CL7  UNL     1     -30.896   8.286   3.027  1.00 20.00    -0.079 Cl
HETATM    8 BR8  UNL     1     -32.145   6.028   1.439  1.00 20.00    -0.040 Br
ENDBRANCH   1   5
TORSDOF 1
ENDMDL
MODEL 7
REMARK VINA RESULT:      -0.4      1.886      2.055
REMARK  1 active torsions:
REMARK  status: ('A' for Active; 'I' for Inactive)
REMARK    1  A    between atoms: C1_1  and  C2_2 
ROOT
HETATM    1  C1  UNL     1     -33.433   7.657   3.203  1.00 20.00     0.432 C 
HETATM    2  F3  UNL     1     -34.428   8.539   2.955  1.00 20.00    -0.167 F 
HETATM    3  F4  UNL     1     -33.032   7.854   4.480  1.00 20.00    -0.167 F 
HETATM    4  F5  UNL     1     -33.968   6.416   3.138  1.00 20.00    -0.167 F 
ENDROOT
BRANCH   1   5
HETATM    5  C2  UNL     1     -32.280   7.822   2.231  1.00 20.00     0.267 C 
HETATM    6 CL6  UNL     1     -30.826   8.396   3.081  1.00 20.00    -0.079 Cl
HETATM    7 CL7  UNL     1     -31.929   6.281   1.412  1.00 20.00    -0.079 Cl
HETATM    8 BR8  UNL     1     -32.760   9.145   0.873  1.00 20.00    -0.040 Br
ENDBRANCH   1   5
TORSDOF 1
ENDMDL
MODEL 8
REMARK VINA RESULT:      -0.3      2.520      2.877
REMARK  1 active torsions:
REMARK  status: ('A' for Active; 'I' for Inactive)
REMARK    1  A    between atoms: C1_1  and  C2_2 
ROOT
HETATM    1  C1  UNL     1     -32.130   7.783   1.786  1.00 20.00     0.432 C 
HETATM    2  F3  UNL     1     -32.713   8.747   1.037  1.00 20.00    -0.167 F 
HETATM    3  F4  UNL     1     -30.876   7.608   1.307  1.00 20.00    -0.167 F 
HETATM    4  F5  UNL     1     -32.014   8.265   3.044  1.00 20.00    -0.167 F 
ENDROOT
BRANCH   1   5
HETATM    5  C2  UNL     1     -32.919   6.488   1.750  1.00 20.00     0.267 C 
HETATM    6 CL6  UNL     1     -33.928   6.332   3.208  1.00 20.00    -0.079 Cl
HETATM    7 CL7  UNL     1     -33.947   6.424   0.298  1.00 20.00    -0.079 Cl
HETATM    8 BR8  UNL     1     -31.682   4.975   1.694  1.00 20.00    -0.040 Br
ENDBRANCH   1   5
TORSDOF 1
ENDMDL
MODEL 9
REMARK VINA RESULT:      -0.3      2.478      2.907
REMARK  1 active torsions:
REMARK  status: ('A' for Active; 'I' for Inactive)
REMARK    1  A    between atoms: C1_1  and  C2_2 
ROOT
HETATM    1  C1  UNL     1     -32.671   6.327   1.651  1.00 20.00     0.432 C 
HETATM    2  F3  UNL     1     -33.443   6.279   0.541  1.00 20.00    -0.167 F 
HETATM    3  F4  UNL     1     -33.247   5.523   2.575  1.00 20.00    -0.167 F 
HETATM    4  F5  UNL     1     -31.475   5.780   1.335  1.00 20.00    -0.167 F 
ENDROOT
BRANCH   1   5
HETATM    5  C2  UNL     1     -32.521   7.744   2.170  1.00 20.00     0.267 C 
HETATM    6 CL6  UNL     1     -33.765   8.096   3.393  1.00 20.00    -0.079 Cl
HETATM    7 CL7  UNL     1     -30.903   7.983   2.873  1.00 20.00    -0.079 Cl
HETATM    8 BR8  UNL     1     -32.741   9.004   0.690  1.00 20.00    -0.040 Br
ENDBRANCH   1   5
TORSDOF 1
ENDMDL
