MODEL 1
REMARK VINA RESULT:      -0.5      0.000      0.000
REMARK  1 active torsions:
REMARK  status: ('A' for Active; 'I' for Inactive)
REMARK    1  A    between atoms: C5_5  and  O10_10 
ROOT
HETATM    1  C1  UNL     1     -34.124   7.487   4.092  1.00 20.00     0.001 C 
HETATM    2  C2  UNL     1     -33.057   7.991   3.455  1.00 20.00    -0.018 C 
HETATM    3  C3  UNL     1     -33.984   5.380   2.711  1.00 20.00     0.046 C 
HETATM    4  C4  UNL     1     -31.646   6.326   2.111  1.00 20.00     0.024 A 
HETATM    5  C5  UNL     1     -34.879   6.318   3.533  1.00 20.00     0.141 C 
HETATM    6  C6  UNL     1     -32.575   7.513   2.138  1.00 20.00    -0.018 A 
HETATM    7  C7  UNL     1     -33.097   6.125   1.721  1.00 20.00    -0.030 A 
HETATM    8  C8  UNL     1     -32.375   8.593   1.105  1.00 20.00     0.020 C 
HETATM    9  C9  UNL     1     -33.412   5.836   0.276  1.00 20.00     0.016 C 
ENDROOT
BRANCH   5  10
HETATM   10  O10 UNL     1     -35.435   5.580   4.619  1.00 20.00    -0.392 OA
HETATM   11  H24 UNL     1     -35.476   4.655   4.330  1.00 20.00     0.210 HD
ENDBRANCH   5  10
TORSDOF 1
ENDMDL
MODEL 2
REMARK VINA RESULT:      -0.1      1.999      3.318
REMARK  1 active torsions:
REMARK  status: ('A' for Active; 'I' for Inactive)
REMARK    1  A    between atoms: C5_5  and  O10_10 
ROOT
HETATM    1  C1  UNL     1     -32.085   7.234   1.858  1.00 20.00     0.001 C 
HETATM    2  C2  UNL     1     -32.841   7.973   2.682  1.00 20.00    -0.018 C 
HETATM    3  C3  UNL     1     -33.655   5.279   2.130  1.00 20.00     0.046 C 
HETATM    4  C4  UNL     1     -35.200   7.090   3.154  1.00 20.00     0.024 A 
HETATM    5  C5  UNL     1     -32.228   5.743   1.804  1.00 20.00     0.141 C 
HETATM    6  C6  UNL     1     -33.812   7.407   3.648  1.00 20.00    -0.018 A 
HETATM    7  C7  UNL     1     -34.226   5.949   3.372  1.00 20.00    -0.030 A 
HETATM    8  C8  UNL     1     -33.659   7.901   5.065  1.00 20.00     0.020 C 
HETATM    9  C9  UNL     1     -34.482   5.005   4.519  1.00 20.00     0.016 C 
ENDROOT
BRANCH   5  10
HETATM   10  O10 UNL     1     -31.899   5.306   0.486  1.00 20.00    -0.392 OA
HETATM   11  H24 UNL     1     -32.700   4.898   0.124  1.00 20.00     0.210 HD
ENDBRANCH   5  10
TORSDOF 1
ENDMDL
MODEL 3
REMARK VINA RESULT:       0.6      1.329      2.800
REMARK  1 active torsions:
REMARK  status: ('A' for Active; 'I' for Inactive)
REMARK    1  A    between atoms: C5_5  and  O10_10 
ROOT
HETATM    1  C1  UNL     1     -33.083   4.693   2.426  1.00 20.00     0.001 C 
HETATM    2  C2  UNL     1     -32.949   5.874   1.805  1.00 20.00    -0.018 C 
HETATM    3  C3  UNL     1     -34.457   5.777   4.242  1.00 20.00     0.046 C 
HETATM    4  C4  UNL     1     -34.550   7.733   2.545  1.00 20.00     0.024 A 
HETATM    5  C5  UNL     1     -33.530   4.616   3.855  1.00 20.00     0.141 C 
HETATM    6  C6  UNL     1     -33.148   7.186   2.465  1.00 20.00    -0.018 A 
HETATM    7  C7  UNL     1     -33.930   7.132   3.791  1.00 20.00    -0.030 A 
HETATM    8  C8  UNL     1     -32.014   8.164   2.288  1.00 20.00     0.020 C 
HETATM    9  C9  UNL     1     -33.567   8.059   4.923  1.00 20.00     0.016 C 
ENDROOT
BRANCH   5  10
HETATM   10  O10 UNL     1     -34.235   3.391   4.041  1.00 20.00    -0.392 OA
HETATM   11  H24 UNL     1     -33.809   2.939   4.785  1.00 20.00     0.210 HD
ENDBRANCH   5  10
TORSDOF 1
ENDMDL
MODEL 4
REMARK VINA RESULT:       1.2      2.087      3.214
REMARK  1 active torsions:
REMARK  status: ('A' for Active; 'I' for Inactive)
REMARK    1  A    between atoms: C5_5  and  O10_10 
ROOT
HETATM    1  C1  UNL     1     -33.420   7.908   3.212  1.00 20.00     0.001 C 
HETATM    2  C2  UNL     1     -34.053   6.727   3.272  1.00 20.00    -0.018 C 
HETATM    3  C3  UNL     1     -32.090   7.120   1.218  1.00 20.00     0.046 C 
HETATM    4  C4  UNL     1     -33.865   5.232   1.199  1.00 20.00     0.024 A 
HETATM    5  C5  UNL     1     -32.154   8.068   2.424  1.00 20.00     0.141 C 
HETATM    6  C6  UNL     1     -33.546   5.481   2.651  1.00 20.00    -0.018 A 
HETATM    7  C7  UNL     1     -32.468   5.687   1.571  1.00 20.00    -0.030 A 
HETATM    8  C8  UNL     1     -33.479   4.292   3.577  1.00 20.00     0.020 C 
HETATM    9  C9  UNL     1     -31.338   4.701   1.430  1.00 20.00     0.016 C 
ENDROOT
BRANCH   5  10
HETATM   10  O10 UNL     1     -32.086   9.411   1.950  1.00 20.00    -0.392 OA
HETATM   11  H24 UNL     1     -31.845   9.360   1.012  1.00 20.00     0.210 HD
ENDBRANCH   5  10
TORSDOF 1
ENDMDL
MODEL 5
REMARK VINA RESULT:       1.2      1.777      2.984
REMARK  1 active torsions:
REMARK  status: ('A' for Active; 'I' for Inactive)
REMARK    1  A    between atoms: C5_5  and  O10_10 
ROOT
HETATM    1  C1  UNL     1     -34.912   4.277   4.842  1.00 20.00     0.001 C 
HETATM    2  C2  UNL     1     -35.420   5.508   4.690  1.00 20.00    -0.018 C 
HETATM    3  C3  UNL     1     -32.850   4.941   3.550  1.00 20.00     0.046 C 
HETATM    4  C4  UNL     1     -33.777   7.329   3.946  1.00 20.00     0.024 A 
HETATM    5  C5  UNL     1     -33.775   3.798   3.990  1.00 20.00     0.141 C 
HETATM    6  C6  UNL     1     -34.977   6.466   3.650  1.00 20.00    -0.018 A 
HETATM    7  C7  UNL     1     -33.612   6.146   3.013  1.00 20.00    -0.030 A 
HETATM    8  C8  UNL     1     -36.087   7.056   2.817  1.00 20.00     0.020 C 
HETATM    9  C9  UNL     1     -33.374   6.421   1.550  1.00 20.00     0.016 C 
ENDROOT
BRANCH   5  10
HETATM   10  O10 UNL     1     -33.010   2.860   4.745  1.00 20.00    -0.392 OA
HETATM   11  H24 UNL     1     -32.324   2.522   4.150  1.00 20.00     0.210 HD
ENDBRANCH   5  10
TORSDOF 1
ENDMDL
MODEL 6
REMARK VINA RESULT:       1.3      1.207      2.525
REMARK  1 active torsions:
REMARK  status: ('A' for Active; 'I' for Inactive)
REMARK    1  A    between atoms: C5_5  and  O10_10 
ROOT
HETATM    1  C1  UNL     1     -34.078   5.879   3.733  1.00 20.00     0.001 C 
HETATM    2  C2  UNL     1     -33.737   5.274   2.586  1.00 20.00    -0.018 C 
HETATM    3  C3  UNL     1     -33.289   8.097   2.826  1.00 20.00     0.046 C 
HETATM    4  C4  UNL     1     -33.309   6.807   0.578  1.00 20.00     0.024 A 
HETATM    5  C5  UNL     1     -33.557   7.243   4.073  1.00 20.00     0.141 C 
HETATM    6  C6  UNL     1     -32.781   5.836   1.604  1.00 20.00    -0.018 A 
HETATM    7  C7  UNL     1     -32.514   7.346   1.750  1.00 20.00    -0.030 A 
HETATM    8  C8  UNL     1     -31.671   4.903   1.191  1.00 20.00     0.020 C 
HETATM    9  C9  UNL     1     -31.139   7.902   1.482  1.00 20.00     0.016 C 
ENDROOT
BRANCH   5  10
HETATM   10  O10 UNL     1     -34.528   7.909   4.878  1.00 20.00    -0.392 OA
HETATM   11  H24 UNL     1     -34.452   7.532   5.768  1.00 20.00     0.210 HD
ENDBRANCH   5  10
TORSDOF 1
ENDMDL
MODEL 7
REMARK VINA RESULT:       1.4      1.922      3.123
REMARK  1 active torsions:
REMARK  status: ('A' for Active; 'I' for Inactive)
REMARK    1  A    between atoms: C5_5  and  O10_10 
ROOT
HETATM    1  C1  UNL     1     -33.321   5.338   2.427  1.00 20.00     0.001 C 
HETATM    2  C2  UNL     1     -33.634   6.258   3.351  1.00 20.00    -0.018 C 
HETATM    3  C3  UNL     1     -31.716   6.948   1.332  1.00 20.00     0.046 C 
HETATM    4  C4  UNL     1     -32.043   8.259   3.544  1.00 20.00     0.024 A 
HETATM    5  C5  UNL     1     -32.625   5.723   1.156  1.00 20.00     0.141 C 
HETATM    6  C6  UNL     1     -33.402   7.712   3.186  1.00 20.00    -0.018 A 
HETATM    7  C7  UNL     1     -32.397   8.087   2.080  1.00 20.00    -0.030 A 
HETATM    8  C8  UNL     1     -34.607   8.581   3.446  1.00 20.00     0.020 C 
HETATM    9  C9  UNL     1     -32.611   9.327   1.250  1.00 20.00     0.016 C 
ENDROOT
BRANCH   5  10
HETATM   10  O10 UNL     1     -31.825   4.622   0.729  1.00 20.00    -0.392 OA
HETATM   11  H24 UNL     1     -31.218   4.968   0.057  1.00 20.00     0.210 HD
ENDBRANCH   5  10
TORSDOF 1
ENDMDL
MODEL 8
REMARK VINA RESULT:       1.5      1.903      3.166
REMARK  1 active torsions:
REMARK  status: ('A' for Active; 'I' for Inactive)
REMARK    1  A    between atoms: C5_5  and  O10_10 
ROOT
HETATM    1  C1  UNL     1     -31.614   7.838   2.129  1.00 20.00     0.001 C 
HETATM    2  C2  UNL     1     -32.037   6.706   1.547  1.00 20.00    -0.018 C 
HETATM    3  C3  UNL     1     -33.149   7.432   4.090  1.00 20.00     0.046 C 
HETATM    4  C4  UNL     1     -33.305   5.063   3.051  1.00 20.00     0.024 A 
HETATM    5  C5  UNL     1     -32.385   8.466   3.251  1.00 20.00     0.141 C 
HETATM    6  C6  UNL     1     -33.307   6.022   1.887  1.00 20.00    -0.018 A 
HETATM    7  C7  UNL     1     -33.923   6.434   3.238  1.00 20.00    -0.030 A 
HETATM    8  C8  UNL     1     -34.195   5.708   0.710  1.00 20.00     0.020 C 
HETATM    9  C9  UNL     1     -35.419   6.525   3.392  1.00 20.00     0.016 C 
ENDROOT
BRANCH   5  10
HETATM   10  O10 UNL     1     -31.467   9.151   4.100  1.00 20.00    -0.392 OA
HETATM   11  H24 UNL     1     -30.816   8.493   4.388  1.00 20.00     0.210 HD
ENDBRANCH   5  10
TORSDOF 1
ENDMDL
MODEL 9
REMARK VINA RESULT:       2.0      2.139      3.822
REMARK  1 active torsions:
REMARK  status: ('A' for Active; 'I' for Inactive)
REMARK    1  A    between atoms: C5_5  and  O10_10 
ROOT
HETATM    1  C1  UNL     1     -32.562   5.921   1.830  1.00 20.00     0.001 C 
HETATM    2  C2  UNL     1     -33.338   5.576   2.867  1.00 20.00    -0.018 C 
HETATM    3  C3  UNL     1     -32.543   8.320   2.610  1.00 20.00     0.046 C 
HETATM    4  C4  UNL     1     -33.491   7.272   4.783  1.00 20.00     0.024 A 
HETATM    5  C5  UNL     1     -32.405   7.356   1.423  1.00 20.00     0.141 C 
HETATM    6  C6  UNL     1     -34.155   6.535   3.647  1.00 20.00    -0.018 A 
HETATM    7  C7  UNL     1     -33.750   8.013   3.486  1.00 20.00    -0.030 A 
HETATM    8  C8  UNL     1     -35.606   6.155   3.800  1.00 20.00     0.020 C 
HETATM    9  C9  UNL     1     -34.804   9.091   3.480  1.00 20.00     0.016 C 
ENDROOT
BRANCH   5  10
HETATM   10  O10 UNL     1     -31.110   7.523   0.851  1.00 20.00    -0.392 OA
HETATM   11  H24 UNL     1     -31.223   7.454  -0.109  1.00 20.00     0.210 HD
ENDBRANCH   5  10
TORSDOF 1
ENDMDL
