MODEL 1
REMARK VINA RESULT:      -0.9      0.000      0.000
REMARK  1 active torsions:
REMARK  status: ('A' for Active; 'I' for Inactive)
REMARK    1  A    between atoms: C2_2  and  C10_10 
ROOT
HETATM    1  C1  UNL     1     -32.649   6.649   1.634  1.00 20.00    -0.018 A 
HETATM    2  C2  UNL     1     -33.073   7.432   2.646  1.00 20.00    -0.075 A 
HETATM    3  C3  UNL     1     -32.610   9.483   0.354  1.00 20.00     0.001 C 
HETATM    4  C4  UNL     1     -31.593   8.398   0.016  1.00 20.00     0.009 C 
HETATM    5  C5  UNL     1     -32.329   9.795   1.821  1.00 20.00     0.010 C 
HETATM    6  C6  UNL     1     -31.482   7.550   1.283  1.00 20.00     0.016 A 
HETATM    7  C7  UNL     1     -31.958   8.449   2.447  1.00 20.00     0.022 A 
ENDROOT
BRANCH   2   8
HETATM    8  C10 UNL     1     -34.245   7.346   3.642  1.00 20.00     0.006 C 
HETATM    9  C8  UNL     1     -34.641   5.896   3.803  1.00 20.00     0.014 C 
HETATM   10  C9  UNL     1     -33.837   7.983   4.951  1.00 20.00     0.014 C 
ENDBRANCH   2   8
TORSDOF 1
ENDMDL
MODEL 2
REMARK VINA RESULT:      -0.0      1.345      2.793
REMARK  1 active torsions:
REMARK  status: ('A' for Active; 'I' for Inactive)
REMARK    1  A    between atoms: C2_2  and  C10_10 
ROOT
HETATM    1  C1  UNL     1     -33.329   7.554   3.746  1.00 20.00    -0.018 A 
HETATM    2  C2  UNL     1     -33.833   6.324   3.524  1.00 20.00    -0.075 A 
HETATM    3  C3  UNL     1     -31.421   6.429   1.563  1.00 20.00     0.001 C 
HETATM    4  C4  UNL     1     -31.823   7.898   1.648  1.00 20.00     0.009 C 
HETATM    5  C5  UNL     1     -32.730   5.717   1.237  1.00 20.00     0.010 C 
HETATM    6  C6  UNL     1     -33.218   7.893   2.273  1.00 20.00     0.016 A 
HETATM    7  C7  UNL     1     -33.802   6.486   2.010  1.00 20.00     0.022 A 
ENDROOT
BRANCH   2   8
HETATM    8  C10 UNL     1     -34.279   5.172   4.444  1.00 20.00     0.006 C 
HETATM    9  C8  UNL     1     -35.787   5.187   4.547  1.00 20.00     0.014 C 
HETATM   10  C9  UNL     1     -33.750   3.864   3.901  1.00 20.00     0.014 C 
ENDBRANCH   2   8
TORSDOF 1
ENDMDL
MODEL 3
REMARK VINA RESULT:       0.2      1.236      3.842
REMARK  1 active torsions:
REMARK  status: ('A' for Active; 'I' for Inactive)
REMARK    1  A    between atoms: C2_2  and  C10_10 
ROOT
HETATM    1  C1  UNL     1     -33.375   8.601   2.507  1.00 20.00    -0.018 A 
HETATM    2  C2  UNL     1     -32.404   8.641   1.574  1.00 20.00    -0.075 A 
HETATM    3  C3  UNL     1     -33.353   5.683   1.433  1.00 20.00     0.001 C 
HETATM    4  C4  UNL     1     -33.640   6.037   2.889  1.00 20.00     0.009 C 
HETATM    5  C5  UNL     1     -31.899   6.101   1.241  1.00 20.00     0.010 C 
HETATM    6  C6  UNL     1     -32.859   7.327   3.144  1.00 20.00     0.016 A 
HETATM    7  C7  UNL     1     -31.738   7.369   2.081  1.00 20.00     0.022 A 
ENDROOT
BRANCH   2   8
HETATM    8  C10 UNL     1     -32.075   9.605   0.418  1.00 20.00     0.006 C 
HETATM    9  C8  UNL     1     -32.538   8.984  -0.880  1.00 20.00     0.014 C 
HETATM   10  C9  UNL     1     -32.726  10.944   0.683  1.00 20.00     0.014 C 
ENDBRANCH   2   8
TORSDOF 1
ENDMDL
MODEL 4
REMARK VINA RESULT:       0.2      0.531      1.187
REMARK  1 active torsions:
REMARK  status: ('A' for Active; 'I' for Inactive)
REMARK    1  A    between atoms: C2_2  and  C10_10 
ROOT
HETATM    1  C1  UNL     1     -32.797   6.467   1.530  1.00 20.00    -0.018 A 
HETATM    2  C2  UNL     1     -32.987   7.090   2.710  1.00 20.00    -0.075 A 
HETATM    3  C3  UNL     1     -32.736   9.470   0.723  1.00 20.00     0.001 C 
HETATM    4  C4  UNL     1     -31.878   8.404   0.049  1.00 20.00     0.009 C 
HETATM    5  C5  UNL     1     -32.197   9.515   2.149  1.00 20.00     0.010 C 
HETATM    6  C6  UNL     1     -31.633   7.350   1.129  1.00 20.00     0.016 A 
HETATM    7  C7  UNL     1     -31.840   8.066   2.483  1.00 20.00     0.022 A 
ENDROOT
BRANCH   2   8
HETATM    8  C10 UNL     1     -33.987   6.901   3.867  1.00 20.00     0.006 C 
HETATM    9  C8  UNL     1     -33.841   8.058   4.829  1.00 20.00     0.014 C 
HETATM   10  C9  UNL     1     -35.386   6.788   3.306  1.00 20.00     0.014 C 
ENDBRANCH   2   8
TORSDOF 1
ENDMDL
MODEL 5
REMARK VINA RESULT:       0.2      1.228      4.075
REMARK  1 active torsions:
REMARK  status: ('A' for Active; 'I' for Inactive)
REMARK    1  A    between atoms: C2_2  and  C10_10 
ROOT
HETATM    1  C1  UNL     1     -33.401   8.626   2.369  1.00 20.00    -0.018 A 
HETATM    2  C2  UNL     1     -32.528   8.541   1.345  1.00 20.00    -0.075 A 
HETATM    3  C3  UNL     1     -33.438   5.588   1.705  1.00 20.00     0.001 C 
HETATM    4  C4  UNL     1     -33.584   6.138   3.121  1.00 20.00     0.009 C 
HETATM    5  C5  UNL     1     -32.017   5.980   1.312  1.00 20.00     0.010 C 
HETATM    6  C6  UNL     1     -32.803   7.452   3.118  1.00 20.00     0.016 A 
HETATM    7  C7  UNL     1     -31.794   7.352   1.951  1.00 20.00     0.022 A 
ENDROOT
BRANCH   2   8
HETATM    8  C10 UNL     1     -32.332   9.338   0.042  1.00 20.00     0.006 C 
HETATM    9  C8  UNL     1     -32.636  10.794   0.312  1.00 20.00     0.014 C 
HETATM   10  C9  UNL     1     -30.924   9.126  -0.467  1.00 20.00     0.014 C 
ENDBRANCH   2   8
TORSDOF 1
ENDMDL
MODEL 6
REMARK VINA RESULT:       0.5      1.618      4.135
REMARK  1 active torsions:
REMARK  status: ('A' for Active; 'I' for Inactive)
REMARK    1  A    between atoms: C2_2  and  C10_10 
ROOT
HETATM    1  C1  UNL     1     -32.894   7.655   2.234  1.00 20.00    -0.018 A 
HETATM    2  C2  UNL     1     -32.822   6.346   1.923  1.00 20.00    -0.075 A 
HETATM    3  C3  UNL     1     -35.386   6.484   3.679  1.00 20.00     0.001 C 
HETATM    4  C4  UNL     1     -34.557   7.635   4.240  1.00 20.00     0.009 C 
HETATM    5  C5  UNL     1     -34.422   5.302   3.703  1.00 20.00     0.010 C 
HETATM    6  C6  UNL     1     -33.143   7.403   3.707  1.00 20.00     0.016 A 
HETATM    7  C7  UNL     1     -33.056   5.899   3.359  1.00 20.00     0.022 A 
ENDROOT
BRANCH   2   8
HETATM    8  C10 UNL     1     -32.592   5.573   0.610  1.00 20.00     0.006 C 
HETATM    9  C8  UNL     1     -31.533   4.520   0.845  1.00 20.00     0.014 C 
HETATM   10  C9  UNL     1     -33.902   4.980   0.143  1.00 20.00     0.014 C 
ENDBRANCH   2   8
TORSDOF 1
ENDMDL
MODEL 7
REMARK VINA RESULT:       0.6      2.448      4.534
REMARK  1 active torsions:
REMARK  status: ('A' for Active; 'I' for Inactive)
REMARK    1  A    between atoms: C2_2  and  C10_10 
ROOT
HETATM    1  C1  UNL     1     -34.973   4.820   4.864  1.00 20.00    -0.018 A 
HETATM    2  C2  UNL     1     -33.903   4.274   4.254  1.00 20.00    -0.075 A 
HETATM    3  C3  UNL     1     -33.459   7.318   3.797  1.00 20.00     0.001 C 
HETATM    4  C4  UNL     1     -34.980   7.228   3.869  1.00 20.00     0.009 C 
HETATM    5  C5  UNL     1     -33.085   6.257   2.767  1.00 20.00     0.010 C 
HETATM    6  C6  UNL     1     -35.298   5.742   3.706  1.00 20.00     0.016 A 
HETATM    7  C7  UNL     1     -34.076   5.115   2.997  1.00 20.00     0.022 A 
ENDROOT
BRANCH   2   8
HETATM    8  C10 UNL     1     -32.877   3.199   4.661  1.00 20.00     0.006 C 
HETATM    9  C8  UNL     1     -32.520   3.395   6.117  1.00 20.00     0.014 C 
HETATM   10  C9  UNL     1     -33.452   1.828   4.386  1.00 20.00     0.014 C 
ENDBRANCH   2   8
TORSDOF 1
ENDMDL
MODEL 8
REMARK VINA RESULT:       0.6      1.159      2.394
REMARK  1 active torsions:
REMARK  status: ('A' for Active; 'I' for Inactive)
REMARK    1  A    between atoms: C2_2  and  C10_10 
ROOT
HETATM    1  C1  UNL     1     -32.104   8.042   2.634  1.00 20.00    -0.018 A 
HETATM    2  C2  UNL     1     -33.350   7.564   2.820  1.00 20.00    -0.075 A 
HETATM    3  C3  UNL     1     -31.853   5.106   1.640  1.00 20.00     0.001 C 
HETATM    4  C4  UNL     1     -31.091   6.269   1.015  1.00 20.00     0.009 C 
HETATM    5  C5  UNL     1     -33.312   5.422   1.327  1.00 20.00     0.010 C 
HETATM    6  C6  UNL     1     -31.986   7.490   1.227  1.00 20.00     0.016 A 
HETATM    7  C7  UNL     1     -33.417   6.945   1.431  1.00 20.00     0.022 A 
ENDROOT
BRANCH   2   8
HETATM    8  C10 UNL     1     -34.348   7.615   3.993  1.00 20.00     0.006 C 
HETATM    9  C8  UNL     1     -35.052   6.281   4.090  1.00 20.00     0.014 C 
HETATM   10  C9  UNL     1     -33.609   7.972   5.262  1.00 20.00     0.014 C 
ENDBRANCH   2   8
TORSDOF 1
ENDMDL
MODEL 9
REMARK VINA RESULT:       0.7      1.083      3.795
REMARK  1 active torsions:
REMARK  status: ('A' for Active; 'I' for Inactive)
REMARK    1  A    between atoms: C2_2  and  C10_10 
ROOT
HETATM    1  C1  UNL     1     -32.078   5.641   1.781  1.00 20.00    -0.018 A 
HETATM    2  C2  UNL     1     -32.423   6.944   1.808  1.00 20.00    -0.075 A 
HETATM    3  C3  UNL     1     -33.972   5.786   4.243  1.00 20.00     0.001 C 
HETATM    4  C4  UNL     1     -33.898   4.579   3.314  1.00 20.00     0.009 C 
HETATM    5  C5  UNL     1     -34.527   6.893   3.352  1.00 20.00     0.010 C 
HETATM    6  C6  UNL     1     -33.502   5.150   1.952  1.00 20.00     0.016 A 
HETATM    7  C7  UNL     1     -33.905   6.643   1.977  1.00 20.00     0.022 A 
ENDROOT
BRANCH   2   8
HETATM    8  C10 UNL     1     -31.627   8.260   1.707  1.00 20.00     0.006 C 
HETATM    9  C8  UNL     1     -32.349   9.193   0.762  1.00 20.00     0.014 C 
HETATM   10  C9  UNL     1     -31.460   8.850   3.089  1.00 20.00     0.014 C 
ENDBRANCH   2   8
TORSDOF 1
ENDMDL
