MODEL 1
REMARK VINA RESULT:      -0.1      0.000      0.000
REMARK  0 active torsions:
REMARK  status: ('A' for Active; 'I' for Inactive)
ROOT
HETATM    1  C1  UNL     1     -32.677   8.169   3.045  1.00 20.00     0.006 C 
HETATM    2  C2  UNL     1     -33.297   7.228   4.079  1.00 20.00     0.009 C 
HETATM    3  C3  UNL     1     -32.201   7.412   1.830  1.00 20.00    -0.005 A 
HETATM    4  C4  UNL     1     -32.125   5.917   1.822  1.00 20.00    -0.000 A 
HETATM    5  C5  UNL     1     -33.202   6.657   1.023  1.00 20.00    -0.000 A 
HETATM    6  C6  UNL     1     -33.580   5.684   2.098  1.00 20.00     0.003 A 
HETATM    7  C7  UNL     1     -34.201   6.159   3.415  1.00 20.00    -0.043 C 
HETATM    8  C8  UNL     1     -34.333   4.959   4.373  1.00 20.00     0.015 C 
HETATM    9  C9  UNL     1     -35.608   6.729   3.162  1.00 20.00     0.015 C 
ENDROOT
TORSDOF 0
ENDMDL
MODEL 2
REMARK VINA RESULT:      -0.0      1.137      3.136
REMARK  0 active torsions:
REMARK  status: ('A' for Active; 'I' for Inactive)
ROOT
HETATM    1  C1  UNL     1     -33.761   6.606   3.366  1.00 20.00     0.006 C 
HETATM    2  C2  UNL     1     -33.588   7.982   2.721  1.00 20.00     0.009 C 
HETATM    3  C3  UNL     1     -33.392   5.501   2.409  1.00 20.00    -0.005 A 
HETATM    4  C4  UNL     1     -33.161   5.771   0.955  1.00 20.00    -0.000 A 
HETATM    5  C5  UNL     1     -31.994   5.443   1.891  1.00 20.00    -0.000 A 
HETATM    6  C6  UNL     1     -32.039   6.745   1.152  1.00 20.00     0.003 A 
HETATM    7  C7  UNL     1     -32.285   8.067   1.888  1.00 20.00    -0.043 C 
HETATM    8  C8  UNL     1     -32.431   9.201   0.855  1.00 20.00     0.015 C 
HETATM    9  C9  UNL     1     -31.087   8.397   2.797  1.00 20.00     0.015 C 
ENDROOT
TORSDOF 0
ENDMDL
MODEL 3
REMARK VINA RESULT:       0.0      1.029      3.230
REMARK  0 active torsions:
REMARK  status: ('A' for Active; 'I' for Inactive)
ROOT
HETATM    1  C1  UNL     1     -34.107   4.579   3.753  1.00 20.00     0.006 C 
HETATM    2  C2  UNL     1     -32.858   5.080   3.027  1.00 20.00     0.009 C 
HETATM    3  C3  UNL     1     -34.920   5.724   4.302  1.00 20.00    -0.005 A 
HETATM    4  C4  UNL     1     -34.379   7.120   4.336  1.00 20.00    -0.000 A 
HETATM    5  C5  UNL     1     -35.479   6.725   3.347  1.00 20.00    -0.000 A 
HETATM    6  C6  UNL     1     -34.159   7.241   2.859  1.00 20.00     0.003 A 
HETATM    7  C7  UNL     1     -33.161   6.321   2.149  1.00 20.00    -0.043 C 
HETATM    8  C8  UNL     1     -31.848   7.090   1.909  1.00 20.00     0.015 C 
HETATM    9  C9  UNL     1     -33.720   5.886   0.782  1.00 20.00     0.015 C 
ENDROOT
TORSDOF 0
ENDMDL
MODEL 4
REMARK VINA RESULT:       0.2      1.121      2.567
REMARK  0 active torsions:
REMARK  status: ('A' for Active; 'I' for Inactive)
ROOT
HETATM    1  C1  UNL     1     -33.929   7.060   3.333  1.00 20.00     0.006 C 
HETATM    2  C2  UNL     1     -33.355   5.732   2.836  1.00 20.00     0.009 C 
HETATM    3  C3  UNL     1     -32.998   8.208   3.033  1.00 20.00    -0.005 A 
HETATM    4  C4  UNL     1     -31.597   7.974   2.560  1.00 20.00    -0.000 A 
HETATM    5  C5  UNL     1     -32.672   8.508   1.609  1.00 20.00    -0.000 A 
HETATM    6  C6  UNL     1     -31.973   7.214   1.324  1.00 20.00     0.003 A 
HETATM    7  C7  UNL     1     -32.708   5.874   1.436  1.00 20.00    -0.043 C 
HETATM    8  C8  UNL     1     -31.699   4.726   1.239  1.00 20.00     0.015 C 
HETATM    9  C9  UNL     1     -33.780   5.764   0.337  1.00 20.00     0.015 C 
ENDROOT
TORSDOF 0
ENDMDL
MODEL 5
REMARK VINA RESULT:       0.4      0.811      2.909
REMARK  0 active torsions:
REMARK  status: ('A' for Active; 'I' for Inactive)
ROOT
HETATM    1  C1  UNL     1     -32.501   8.140   3.021  1.00 20.00     0.006 C 
HETATM    2  C2  UNL     1     -32.603   7.558   1.611  1.00 20.00     0.009 C 
HETATM    3  C3  UNL     1     -33.618   7.642   3.903  1.00 20.00    -0.005 A 
HETATM    4  C4  UNL     1     -34.789   6.901   3.337  1.00 20.00    -0.000 A 
HETATM    5  C5  UNL     1     -33.723   6.177   4.163  1.00 20.00    -0.000 A 
HETATM    6  C6  UNL     1     -33.994   5.777   2.745  1.00 20.00     0.003 A 
HETATM    7  C7  UNL     1     -32.975   6.054   1.635  1.00 20.00    -0.043 C 
HETATM    8  C8  UNL     1     -33.593   5.675   0.276  1.00 20.00     0.015 C 
HETATM    9  C9  UNL     1     -31.715   5.194   1.846  1.00 20.00     0.015 C 
ENDROOT
TORSDOF 0
ENDMDL
MODEL 6
REMARK VINA RESULT:       0.4      1.032      3.324
REMARK  0 active torsions:
REMARK  status: ('A' for Active; 'I' for Inactive)
ROOT
HETATM    1  C1  UNL     1     -33.272   5.687   1.850  1.00 20.00     0.006 C 
HETATM    2  C2  UNL     1     -31.978   6.499   1.826  1.00 20.00     0.009 C 
HETATM    3  C3  UNL     1     -34.118   6.035   3.049  1.00 20.00    -0.005 A 
HETATM    4  C4  UNL     1     -33.578   6.869   4.169  1.00 20.00    -0.000 A 
HETATM    5  C5  UNL     1     -34.611   7.436   3.191  1.00 20.00    -0.000 A 
HETATM    6  C6  UNL     1     -33.261   8.072   3.332  1.00 20.00     0.003 A 
HETATM    7  C7  UNL     1     -32.220   7.980   2.212  1.00 20.00    -0.043 C 
HETATM    8  C8  UNL     1     -30.893   8.587   2.705  1.00 20.00     0.015 C 
HETATM    9  C9  UNL     1     -32.689   8.784   0.986  1.00 20.00     0.015 C 
ENDROOT
TORSDOF 0
ENDMDL
MODEL 7
REMARK VINA RESULT:       1.0      0.693      2.322
REMARK  0 active torsions:
REMARK  status: ('A' for Active; 'I' for Inactive)
ROOT
HETATM    1  C1  UNL     1     -32.343   6.147   1.282  1.00 20.00     0.006 C 
HETATM    2  C2  UNL     1     -33.750   5.811   1.779  1.00 20.00     0.009 C 
HETATM    3  C3  UNL     1     -31.941   7.547   1.674  1.00 20.00    -0.005 A 
HETATM    4  C4  UNL     1     -32.936   8.517   2.231  1.00 20.00    -0.000 A 
HETATM    5  C5  UNL     1     -31.864   7.887   3.124  1.00 20.00    -0.000 A 
HETATM    6  C6  UNL     1     -33.319   7.687   3.418  1.00 20.00     0.003 A 
HETATM    7  C7  UNL     1     -33.987   6.322   3.222  1.00 20.00    -0.043 C 
HETATM    8  C8  UNL     1     -35.504   6.465   3.453  1.00 20.00     0.015 C 
HETATM    9  C9  UNL     1     -33.439   5.311   4.245  1.00 20.00     0.015 C 
ENDROOT
TORSDOF 0
ENDMDL
MODEL 8
REMARK VINA RESULT:       1.3      0.920      2.151
REMARK  0 active torsions:
REMARK  status: ('A' for Active; 'I' for Inactive)
ROOT
HETATM    1  C1  UNL     1     -32.739   4.622   3.273  1.00 20.00     0.006 C 
HETATM    2  C2  UNL     1     -34.126   5.106   3.699  1.00 20.00     0.009 C 
HETATM    3  C3  UNL     1     -32.330   5.220   1.951  1.00 20.00    -0.005 A 
HETATM    4  C4  UNL     1     -33.309   5.959   1.092  1.00 20.00    -0.000 A 
HETATM    5  C5  UNL     1     -32.203   6.702   1.847  1.00 20.00    -0.000 A 
HETATM    6  C6  UNL     1     -33.646   7.010   2.106  1.00 20.00     0.003 A 
HETATM    7  C7  UNL     1     -34.315   6.620   3.428  1.00 20.00    -0.043 C 
HETATM    8  C8  UNL     1     -35.823   6.922   3.340  1.00 20.00     0.015 C 
HETATM    9  C9  UNL     1     -33.725   7.448   4.584  1.00 20.00     0.015 C 
ENDROOT
TORSDOF 0
ENDMDL
MODEL 9
REMARK VINA RESULT:       1.5      1.135      1.739
REMARK  0 active torsions:
REMARK  status: ('A' for Active; 'I' for Inactive)
ROOT
HETATM    1  C1  UNL     1     -31.897   7.777   1.468  1.00 20.00     0.006 C 
HETATM    2  C2  UNL     1     -32.134   8.238   2.907  1.00 20.00     0.009 C 
HETATM    3  C3  UNL     1     -32.232   6.317   1.297  1.00 20.00    -0.005 A 
HETATM    4  C4  UNL     1     -32.489   5.431   2.476  1.00 20.00    -0.000 A 
HETATM    5  C5  UNL     1     -33.631   5.871   1.555  1.00 20.00    -0.000 A 
HETATM    6  C6  UNL     1     -33.648   6.216   3.013  1.00 20.00     0.003 A 
HETATM    7  C7  UNL     1     -33.449   7.659   3.488  1.00 20.00    -0.043 C 
HETATM    8  C8  UNL     1     -33.360   7.677   5.026  1.00 20.00     0.015 C 
HETATM    9  C9  UNL     1     -34.648   8.527   3.066  1.00 20.00     0.015 C 
ENDROOT
TORSDOF 0
ENDMDL
