MODEL 1
REMARK VINA RESULT:      -1.4      0.000      0.000
REMARK  0 active torsions:
REMARK  status: ('A' for Active; 'I' for Inactive)
ROOT
HETATM    1  C1  UNL     1     -32.437   5.395   1.156  1.00 20.00     0.004 C 
HETATM    2  C2  UNL     1     -33.382   4.765   1.917  1.00 20.00    -0.017 C 
HETATM    3  C3  UNL     1     -34.826   6.184   3.867  1.00 20.00    -0.021 C 
HETATM    4  C4  UNL     1     -34.527   7.497   4.130  1.00 20.00    -0.024 C 
HETATM    5  C5  UNL     1     -31.674   7.932   1.651  1.00 20.00    -0.019 C 
HETATM    6  C6  UNL     1     -32.255   6.732   1.642  1.00 20.00    -0.056 C 
HETATM    7  C7  UNL     1     -32.442   8.856   2.655  1.00 20.00     0.036 C 
HETATM    8  C8  UNL     1     -33.650   5.532   3.189  1.00 20.00     0.039 C 
HETATM    9  C9  UNL     1     -33.143   7.843   3.595  1.00 20.00     0.020 C 
HETATM   10  C10 UNL     1     -33.385   6.837   2.527  1.00 20.00     0.037 C 
ENDROOT
TORSDOF 0
ENDMDL
MODEL 2
REMARK VINA RESULT:      -1.4      0.370      3.289
REMARK  0 active torsions:
REMARK  status: ('A' for Active; 'I' for Inactive)
ROOT
HETATM    1  C1  UNL     1     -34.634   6.513   4.009  1.00 20.00     0.004 C 
HETATM    2  C2  UNL     1     -34.228   7.817   4.082  1.00 20.00    -0.017 C 
HETATM    3  C3  UNL     1     -32.364   8.840   2.245  1.00 20.00    -0.021 C 
HETATM    4  C4  UNL     1     -31.780   8.013   1.319  1.00 20.00    -0.024 C 
HETATM    5  C5  UNL     1     -33.480   4.760   2.318  1.00 20.00    -0.019 C 
HETATM    6  C6  UNL     1     -33.855   5.833   3.015  1.00 20.00    -0.056 C 
HETATM    7  C7  UNL     1     -32.486   5.210   1.196  1.00 20.00     0.036 C 
HETATM    8  C8  UNL     1     -32.908   8.012   3.379  1.00 20.00     0.039 C 
HETATM    9  C9  UNL     1     -31.938   6.556   1.735  1.00 20.00     0.020 C 
HETATM   10  C10 UNL     1     -33.217   6.955   2.379  1.00 20.00     0.037 C 
ENDROOT
TORSDOF 0
ENDMDL
MODEL 3
REMARK VINA RESULT:      -1.3      0.805      2.716
REMARK  0 active torsions:
REMARK  status: ('A' for Active; 'I' for Inactive)
ROOT
HETATM    1  C1  UNL     1     -33.631   8.343   3.685  1.00 20.00     0.004 C 
HETATM    2  C2  UNL     1     -34.468   7.604   4.475  1.00 20.00    -0.017 C 
HETATM    3  C3  UNL     1     -34.561   4.805   4.235  1.00 20.00    -0.021 C 
HETATM    4  C4  UNL     1     -33.833   4.170   3.260  1.00 20.00    -0.024 C 
HETATM    5  C5  UNL     1     -32.243   7.232   1.658  1.00 20.00    -0.019 C 
HETATM    6  C6  UNL     1     -33.021   7.483   2.712  1.00 20.00    -0.056 C 
HETATM    7  C7  UNL     1     -32.148   5.683   1.460  1.00 20.00     0.036 C 
HETATM    8  C8  UNL     1     -34.739   6.253   3.860  1.00 20.00     0.039 C 
HETATM    9  C9  UNL     1     -33.417   5.160   2.180  1.00 20.00     0.020 C 
HETATM   10  C10 UNL     1     -33.385   6.197   3.245  1.00 20.00     0.037 C 
ENDROOT
TORSDOF 0
ENDMDL
MODEL 4
REMARK VINA RESULT:      -1.3      0.247      3.160
REMARK  0 active torsions:
REMARK  status: ('A' for Active; 'I' for Inactive)
ROOT
HETATM    1  C1  UNL     1     -32.354   8.743   2.585  1.00 20.00     0.004 C 
HETATM    2  C2  UNL     1     -31.694   8.035   1.619  1.00 20.00    -0.017 C 
HETATM    3  C3  UNL     1     -32.459   5.403   1.001  1.00 20.00    -0.021 C 
HETATM    4  C4  UNL     1     -33.442   4.779   1.728  1.00 20.00    -0.024 C 
HETATM    5  C5  UNL     1     -34.216   7.599   4.162  1.00 20.00    -0.019 C 
HETATM    6  C6  UNL     1     -33.291   7.880   3.244  1.00 20.00    -0.056 C 
HETATM    7  C7  UNL     1     -34.787   6.169   3.880  1.00 20.00     0.036 C 
HETATM    8  C8  UNL     1     -31.902   6.552   1.799  1.00 20.00     0.039 C 
HETATM    9  C9  UNL     1     -33.659   5.500   3.052  1.00 20.00     0.020 C 
HETATM   10  C10 UNL     1     -33.269   6.752   2.351  1.00 20.00     0.037 C 
ENDROOT
TORSDOF 0
ENDMDL
MODEL 5
REMARK VINA RESULT:      -0.8      0.393      2.629
REMARK  0 active torsions:
REMARK  status: ('A' for Active; 'I' for Inactive)
ROOT
HETATM    1  C1  UNL     1     -33.394   4.754   2.081  1.00 20.00     0.004 C 
HETATM    2  C2  UNL     1     -32.432   5.282   1.265  1.00 20.00    -0.017 C 
HETATM    3  C3  UNL     1     -31.502   7.904   1.663  1.00 20.00    -0.021 C 
HETATM    4  C4  UNL     1     -32.073   8.702   2.623  1.00 20.00    -0.024 C 
HETATM    5  C5  UNL     1     -34.675   6.250   3.920  1.00 20.00    -0.019 C 
HETATM    6  C6  UNL     1     -33.879   5.777   2.961  1.00 20.00    -0.056 C 
HETATM    7  C7  UNL     1     -34.209   7.696   4.294  1.00 20.00     0.036 C 
HETATM    8  C8  UNL     1     -32.453   6.790   1.312  1.00 20.00     0.039 C 
HETATM    9  C9  UNL     1     -33.432   8.150   3.032  1.00 20.00     0.020 C 
HETATM   10  C10 UNL     1     -32.890   6.797   2.734  1.00 20.00     0.037 C 
ENDROOT
TORSDOF 0
ENDMDL
MODEL 6
REMARK VINA RESULT:      -0.6      0.827      2.691
REMARK  0 active torsions:
REMARK  status: ('A' for Active; 'I' for Inactive)
ROOT
HETATM    1  C1  UNL     1     -32.212   5.704   1.495  1.00 20.00     0.004 C 
HETATM    2  C2  UNL     1     -32.142   7.065   1.618  1.00 20.00    -0.017 C 
HETATM    3  C3  UNL     1     -33.491   8.384   3.700  1.00 20.00    -0.021 C 
HETATM    4  C4  UNL     1     -34.304   7.681   4.553  1.00 20.00    -0.024 C 
HETATM    5  C5  UNL     1     -33.862   4.224   3.028  1.00 20.00    -0.019 C 
HETATM    6  C6  UNL     1     -33.154   5.194   2.448  1.00 20.00    -0.056 C 
HETATM    7  C7  UNL     1     -34.611   4.818   4.267  1.00 20.00     0.036 C 
HETATM    8  C8  UNL     1     -33.296   7.594   2.433  1.00 20.00     0.039 C 
HETATM    9  C9  UNL     1     -34.671   6.334   3.945  1.00 20.00     0.020 C 
HETATM   10  C10 UNL     1     -33.348   6.362   3.266  1.00 20.00     0.037 C 
ENDROOT
TORSDOF 0
ENDMDL
MODEL 7
REMARK VINA RESULT:      -0.6      0.609      2.602
REMARK  0 active torsions:
REMARK  status: ('A' for Active; 'I' for Inactive)
ROOT
HETATM    1  C1  UNL     1     -31.646   7.675   1.449  1.00 20.00     0.004 C 
HETATM    2  C2  UNL     1     -32.166   8.641   2.265  1.00 20.00    -0.017 C 
HETATM    3  C3  UNL     1     -34.055   7.979   4.238  1.00 20.00    -0.021 C 
HETATM    4  C4  UNL     1     -34.535   6.697   4.334  1.00 20.00    -0.024 C 
HETATM    5  C5  UNL     1     -32.588   5.151   1.455  1.00 20.00    -0.019 C 
HETATM    6  C6  UNL     1     -32.331   6.438   1.687  1.00 20.00    -0.056 C 
HETATM    7  C7  UNL     1     -33.583   4.631   2.546  1.00 20.00     0.036 C 
HETATM    8  C8  UNL     1     -33.476   8.193   2.864  1.00 20.00     0.039 C 
HETATM    9  C9  UNL     1     -34.263   5.932   3.045  1.00 20.00     0.020 C 
HETATM   10  C10 UNL     1     -33.044   6.770   2.891  1.00 20.00     0.037 C 
ENDROOT
TORSDOF 0
ENDMDL
MODEL 8
REMARK VINA RESULT:      -0.4      0.886      3.738
REMARK  0 active torsions:
REMARK  status: ('A' for Active; 'I' for Inactive)
ROOT
HETATM    1  C1  UNL     1     -34.689   7.554   4.248  1.00 20.00     0.004 C 
HETATM    2  C2  UNL     1     -33.877   8.238   3.387  1.00 20.00    -0.017 C 
HETATM    3  C3  UNL     1     -32.352   6.865   1.466  1.00 20.00    -0.021 C 
HETATM    4  C4  UNL     1     -32.343   5.493   1.441  1.00 20.00    -0.024 C 
HETATM    5  C5  UNL     1     -34.674   4.862   4.380  1.00 20.00    -0.019 C 
HETATM    6  C6  UNL     1     -34.475   6.146   4.080  1.00 20.00    -0.056 C 
HETATM    7  C7  UNL     1     -33.931   3.977   3.325  1.00 20.00     0.036 C 
HETATM    8  C8  UNL     1     -32.807   7.336   2.823  1.00 20.00     0.039 C 
HETATM    9  C9  UNL     1     -32.849   4.936   2.765  1.00 20.00     0.020 C 
HETATM   10  C10 UNL     1     -33.703   6.149   2.866  1.00 20.00     0.037 C 
ENDROOT
TORSDOF 0
ENDMDL
MODEL 9
REMARK VINA RESULT:      -0.3      0.813      2.676
REMARK  0 active torsions:
REMARK  status: ('A' for Active; 'I' for Inactive)
ROOT
HETATM    1  C1  UNL     1     -34.213   4.624   3.571  1.00 20.00     0.004 C 
HETATM    2  C2  UNL     1     -33.367   4.388   2.524  1.00 20.00    -0.017 C 
HETATM    3  C3  UNL     1     -31.859   6.479   1.403  1.00 20.00    -0.021 C 
HETATM    4  C4  UNL     1     -32.032   7.768   1.842  1.00 20.00    -0.024 C 
HETATM    5  C5  UNL     1     -34.729   7.121   4.444  1.00 20.00    -0.019 C 
HETATM    6  C6  UNL     1     -34.275   6.036   3.817  1.00 20.00    -0.056 C 
HETATM    7  C7  UNL     1     -33.909   8.363   3.961  1.00 20.00     0.036 C 
HETATM    8  C8  UNL     1     -33.070   5.662   1.771  1.00 20.00     0.039 C 
HETATM    9  C9  UNL     1     -33.352   7.901   2.590  1.00 20.00     0.020 C 
HETATM   10  C10 UNL     1     -33.174   6.484   3.006  1.00 20.00     0.037 C 
ENDROOT
TORSDOF 0
ENDMDL
