MODEL 1
REMARK VINA RESULT:      -2.4      0.000      0.000
REMARK  2 active torsions:
REMARK  status: ('A' for Active; 'I' for Inactive)
REMARK    1  A    between atoms: C1_1  and  C2_2 
REMARK    2  A    between atoms: C1_1  and  C3_3 
ROOT
HETATM    1  C1  UNL     1     -33.129   6.544   2.062  1.00 20.00     0.386 C 
HETATM    2  F4  UNL     1     -32.390   5.397   2.077  1.00 20.00    -0.191 F 
HETATM    3  F5  UNL     1     -33.846   6.507   0.901  1.00 20.00    -0.191 F 
ENDROOT
BRANCH   1   4
HETATM    4  C2  UNL     1     -32.156   7.713   1.970  1.00 20.00     0.390 C 
HETATM    5  F6  UNL     1     -30.974   7.245   1.482  1.00 20.00    -0.181 F 
HETATM    6  F7  UNL     1     -31.884   8.205   3.203  1.00 20.00    -0.181 F 
HETATM    7 CL9  UNL     1     -32.720   9.022   0.920  1.00 20.00    -0.042 Cl
ENDBRANCH   1   4
BRANCH   1   8
HETATM    8  C3  UNL     1     -34.110   6.513   3.237  1.00 20.00     0.328 C 
HETATM    9  F8  UNL     1     -35.372   6.737   2.784  1.00 20.00    -0.200 F 
HETATM   10 CL10 UNL     1     -33.727   7.736   4.474  1.00 20.00    -0.059 Cl
HETATM   11 CL11 UNL     1     -34.090   4.900   4.009  1.00 20.00    -0.059 Cl
ENDBRANCH   1   8
TORSDOF 2
ENDMDL
MODEL 2
REMARK VINA RESULT:      -2.1      1.049      1.451
REMARK  2 active torsions:
REMARK  status: ('A' for Active; 'I' for Inactive)
REMARK    1  A    between atoms: C1_1  and  C2_2 
REMARK    2  A    between atoms: C1_1  and  C3_3 
ROOT
HETATM    1  C1  UNL     1     -33.055   6.560   2.032  1.00 20.00     0.386 C 
HETATM    2  F4  UNL     1     -32.298   5.440   1.851  1.00 20.00    -0.191 F 
HETATM    3  F5  UNL     1     -33.905   6.608   0.965  1.00 20.00    -0.191 F 
ENDROOT
BRANCH   1   4
HETATM    4  C2  UNL     1     -32.123   7.761   1.938  1.00 20.00     0.390 C 
HETATM    5  F6  UNL     1     -30.913   7.327   1.489  1.00 20.00    -0.181 F 
HETATM    6  F7  UNL     1     -31.900   8.289   3.167  1.00 20.00    -0.181 F 
HETATM    7 CL9  UNL     1     -32.708   9.027   0.846  1.00 20.00    -0.042 Cl
ENDBRANCH   1   4
BRANCH   1   8
HETATM    8  C3  UNL     1     -33.887   6.391   3.306  1.00 20.00     0.328 C 
HETATM    9  F8  UNL     1     -33.397   7.201   4.281  1.00 20.00    -0.200 F 
HETATM   10 CL10 UNL     1     -33.877   4.714   3.905  1.00 20.00    -0.059 Cl
HETATM   11 CL11 UNL     1     -35.582   6.875   3.000  1.00 20.00    -0.059 Cl
ENDBRANCH   1   8
TORSDOF 2
ENDMDL
MODEL 3
REMARK VINA RESULT:      -2.0      1.588      3.562
REMARK  2 active torsions:
REMARK  status: ('A' for Active; 'I' for Inactive)
REMARK    1  A    between atoms: C1_1  and  C2_2 
REMARK    2  A    between atoms: C1_1  and  C3_3 
ROOT
HETATM    1  C1  UNL     1     -33.346   7.630   3.284  1.00 20.00     0.386 C 
HETATM    2  F4  UNL     1     -32.878   7.765   4.559  1.00 20.00    -0.191 F 
HETATM    3  F5  UNL     1     -34.300   8.594   3.136  1.00 20.00    -0.191 F 
ENDROOT
BRANCH   1   4
HETATM    4  C2  UNL     1     -34.037   6.276   3.194  1.00 20.00     0.390 C 
HETATM    5  F6  UNL     1     -33.224   5.343   3.763  1.00 20.00    -0.181 F 
HETATM    6  F7  UNL     1     -34.186   5.902   1.899  1.00 20.00    -0.181 F 
HETATM    7 CL9  UNL     1     -35.608   6.226   4.010  1.00 20.00    -0.042 Cl
ENDBRANCH   1   4
BRANCH   1   8
HETATM    8  C3  UNL     1     -32.204   7.923   2.308  1.00 20.00     0.328 C 
HETATM    9  F8  UNL     1     -31.133   8.408   2.991  1.00 20.00    -0.200 F 
HETATM   10 CL10 UNL     1     -32.664   9.110   1.062  1.00 20.00    -0.059 Cl
HETATM   11 CL11 UNL     1     -31.690   6.416   1.494  1.00 20.00    -0.059 Cl
ENDBRANCH   1   8
TORSDOF 2
ENDMDL
MODEL 4
REMARK VINA RESULT:      -1.9      1.282      2.009
REMARK  2 active torsions:
REMARK  status: ('A' for Active; 'I' for Inactive)
REMARK    1  A    between atoms: C1_1  and  C2_2 
REMARK    2  A    between atoms: C1_1  and  C3_3 
ROOT
HETATM    1  C1  UNL     1     -33.262   7.603   3.194  1.00 20.00     0.386 C 
HETATM    2  F4  UNL     1     -34.152   8.636   3.129  1.00 20.00    -0.191 F 
HETATM    3  F5  UNL     1     -32.762   7.626   4.464  1.00 20.00    -0.191 F 
ENDROOT
BRANCH   1   4
HETATM    4  C2  UNL     1     -32.119   7.925   2.240  1.00 20.00     0.390 C 
HETATM    5  F6  UNL     1     -31.703   6.763   1.666  1.00 20.00    -0.181 F 
HETATM    6  F7  UNL     1     -31.052   8.410   2.921  1.00 20.00    -0.181 F 
HETATM    7 CL9  UNL     1     -32.568   9.058   0.955  1.00 20.00    -0.042 Cl
ENDBRANCH   1   4
BRANCH   1   8
HETATM    8  C3  UNL     1     -34.019   6.288   2.996  1.00 20.00     0.328 C 
HETATM    9  F8  UNL     1     -34.216   6.071   1.668  1.00 20.00    -0.200 F 
HETATM   10 CL10 UNL     1     -35.603   6.286   3.811  1.00 20.00    -0.059 Cl
HETATM   11 CL11 UNL     1     -33.053   4.923   3.629  1.00 20.00    -0.059 Cl
ENDBRANCH   1   8
TORSDOF 2
ENDMDL
MODEL 5
REMARK VINA RESULT:      -1.8      1.525      3.627
REMARK  2 active torsions:
REMARK  status: ('A' for Active; 'I' for Inactive)
REMARK    1  A    between atoms: C1_1  and  C2_2 
REMARK    2  A    between atoms: C1_1  and  C3_3 
ROOT
HETATM    1  C1  UNL     1     -33.506   7.700   3.406  1.00 20.00     0.386 C 
HETATM    2  F4  UNL     1     -32.784   7.865   4.552  1.00 20.00    -0.191 F 
HETATM    3  F5  UNL     1     -34.250   8.837   3.271  1.00 20.00    -0.191 F 
ENDROOT
BRANCH   1   4
HETATM    4  C2  UNL     1     -34.467   6.541   3.635  1.00 20.00     0.390 C 
HETATM    5  F6  UNL     1     -35.379   6.538   2.624  1.00 20.00    -0.181 F 
HETATM    6  F7  UNL     1     -35.174   6.727   4.777  1.00 20.00    -0.181 F 
HETATM    7 CL9  UNL     1     -33.672   4.960   3.680  1.00 20.00    -0.042 Cl
ENDBRANCH   1   4
BRANCH   1   8
HETATM    8  C3  UNL     1     -32.538   7.612   2.223  1.00 20.00     0.328 C 
HETATM    9  F8  UNL     1     -31.258   7.688   2.675  1.00 20.00    -0.200 F 
HETATM   10 CL10 UNL     1     -32.797   8.913   1.034  1.00 20.00    -0.059 Cl
HETATM   11 CL11 UNL     1     -32.726   6.038   1.394  1.00 20.00    -0.059 Cl
ENDBRANCH   1   8
TORSDOF 2
ENDMDL
MODEL 6
REMARK VINA RESULT:      -1.8      1.589      2.342
REMARK  2 active torsions:
REMARK  status: ('A' for Active; 'I' for Inactive)
REMARK    1  A    between atoms: C1_1  and  C2_2 
REMARK    2  A    between atoms: C1_1  and  C3_3 
ROOT
HETATM    1  C1  UNL     1     -33.244   7.632   3.239  1.00 20.00     0.386 C 
HETATM    2  F4  UNL     1     -34.218   8.572   3.063  1.00 20.00    -0.191 F 
HETATM    3  F5  UNL     1     -32.831   7.768   4.533  1.00 20.00    -0.191 F 
ENDROOT
BRANCH   1   4
HETATM    4  C2  UNL     1     -32.077   8.011   2.337  1.00 20.00     0.390 C 
HETATM    5  F6  UNL     1     -31.545   6.867   1.826  1.00 20.00    -0.181 F 
HETATM    6  F7  UNL     1     -31.088   8.595   3.058  1.00 20.00    -0.181 F 
HETATM    7 CL9  UNL     1     -32.535   9.069   0.993  1.00 20.00    -0.042 Cl
ENDBRANCH   1   4
BRANCH   1   8
HETATM    8  C3  UNL     1     -33.864   6.243   3.072  1.00 20.00     0.328 C 
HETATM    9  F8  UNL     1     -33.174   5.342   3.820  1.00 20.00    -0.200 F 
HETATM   10 CL10 UNL     1     -33.856   5.696   1.377  1.00 20.00    -0.059 Cl
HETATM   11 CL11 UNL     1     -35.554   6.251   3.658  1.00 20.00    -0.059 Cl
ENDBRANCH   1   8
TORSDOF 2
ENDMDL
MODEL 7
REMARK VINA RESULT:      -1.8      1.394      3.437
REMARK  2 active torsions:
REMARK  status: ('A' for Active; 'I' for Inactive)
REMARK    1  A    between atoms: C1_1  and  C2_2 
REMARK    2  A    between atoms: C1_1  and  C3_3 
ROOT
HETATM    1  C1  UNL     1     -33.206   6.909   2.436  1.00 20.00     0.386 C 
HETATM    2  F4  UNL     1     -34.018   6.712   1.357  1.00 20.00    -0.191 F 
HETATM    3  F5  UNL     1     -32.676   5.685   2.727  1.00 20.00    -0.191 F 
ENDROOT
BRANCH   1   4
HETATM    4  C2  UNL     1     -34.093   7.320   3.604  1.00 20.00     0.390 C 
HETATM    5  F6  UNL     1     -34.687   8.505   3.292  1.00 20.00    -0.181 F 
HETATM    6  F7  UNL     1     -33.346   7.555   4.710  1.00 20.00    -0.181 F 
HETATM    7 CL9  UNL     1     -35.358   6.140   3.983  1.00 20.00    -0.042 Cl
ENDBRANCH   1   4
BRANCH   1   8
HETATM    8  C3  UNL     1     -32.067   7.846   2.031  1.00 20.00     0.328 C 
HETATM    9  F8  UNL     1     -31.065   7.127   1.461  1.00 20.00    -0.200 F 
HETATM   10 CL10 UNL     1     -31.401   8.745   3.416  1.00 20.00    -0.059 Cl
HETATM   11 CL11 UNL     1     -32.646   9.025   0.815  1.00 20.00    -0.059 Cl
ENDBRANCH   1   8
TORSDOF 2
ENDMDL
MODEL 8
REMARK VINA RESULT:      -1.8      1.765      2.718
REMARK  2 active torsions:
REMARK  status: ('A' for Active; 'I' for Inactive)
REMARK    1  A    between atoms: C1_1  and  C2_2 
REMARK    2  A    between atoms: C1_1  and  C3_3 
ROOT
HETATM    1  C1  UNL     1     -32.295   7.946   1.786  1.00 20.00     0.386 C 
HETATM    2  F4  UNL     1     -33.013   8.644   2.713  1.00 20.00    -0.191 F 
HETATM    3  F5  UNL     1     -31.038   7.829   2.304  1.00 20.00    -0.191 F 
ENDROOT
BRANCH   1   4
HETATM    4  C2  UNL     1     -32.203   8.810   0.536  1.00 20.00     0.390 C 
HETATM    5  F6  UNL     1     -33.059   8.306  -0.395  1.00 20.00    -0.181 F 
HETATM    6  F7  UNL     1     -30.964   8.727  -0.011  1.00 20.00    -0.181 F 
HETATM    7 CL9  UNL     1     -32.613  10.509   0.817  1.00 20.00    -0.042 Cl
ENDBRANCH   1   4
BRANCH   1   8
HETATM    8  C3  UNL     1     -32.896   6.545   1.652  1.00 20.00     0.328 C 
HETATM    9  F8  UNL     1     -33.735   6.508   0.583  1.00 20.00    -0.200 F 
HETATM   10 CL10 UNL     1     -33.806   6.054   3.102  1.00 20.00    -0.059 Cl
HETATM   11 CL11 UNL     1     -31.599   5.347   1.364  1.00 20.00    -0.059 Cl
ENDBRANCH   1   8
TORSDOF 2
ENDMDL
MODEL 9
REMARK VINA RESULT:      -1.7      1.665      3.681
REMARK  2 active torsions:
REMARK  status: ('A' for Active; 'I' for Inactive)
REMARK    1  A    between atoms: C1_1  and  C2_2 
REMARK    2  A    between atoms: C1_1  and  C3_3 
ROOT
HETATM    1  C1  UNL     1     -33.656   7.272   3.214  1.00 20.00     0.386 C 
HETATM    2  F4  UNL     1     -32.706   7.425   4.181  1.00 20.00    -0.191 F 
HETATM    3  F5  UNL     1     -34.197   8.511   3.028  1.00 20.00    -0.191 F 
ENDROOT
BRANCH   1   4
HETATM    4  C2  UNL     1     -34.745   6.372   3.783  1.00 20.00     0.390 C 
HETATM    5  F6  UNL     1     -35.851   6.492   2.999  1.00 20.00    -0.181 F 
HETATM    6  F7  UNL     1     -35.114   6.794   5.018  1.00 20.00    -0.181 F 
HETATM    7 CL9  UNL     1     -34.287   4.663   3.853  1.00 20.00    -0.042 Cl
ENDBRANCH   1   4
BRANCH   1   8
HETATM    8  C3  UNL     1     -32.971   6.842   1.915  1.00 20.00     0.328 C 
HETATM    9  F8  UNL     1     -33.912   6.499   0.995  1.00 20.00    -0.200 F 
HETATM   10 CL10 UNL     1     -31.877   5.457   2.150  1.00 20.00    -0.059 Cl
HETATM   11 CL11 UNL     1     -32.027   8.203   1.240  1.00 20.00    -0.059 Cl
ENDBRANCH   1   8
TORSDOF 2
ENDMDL
