MODEL 1
REMARK VINA RESULT:      -0.3      0.000      0.000
REMARK  1 active torsions:
REMARK  status: ('A' for Active; 'I' for Inactive)
REMARK    1  A    between atoms: C7_7  and  C8_8 
ROOT
HETATM    1  C1  UNL     1     -31.868   8.224   0.411  1.00 20.00    -0.026 C 
HETATM    2  C2  UNL     1     -32.529   9.214   1.028  1.00 20.00    -0.025 C 
HETATM    3  C3  UNL     1     -31.291   8.131   2.647  1.00 20.00     0.017 C 
HETATM    4  C4  UNL     1     -32.836   6.492   1.893  1.00 20.00     0.014 C 
HETATM    5  C5  UNL     1     -31.528   7.192   1.460  1.00 20.00     0.009 C 
HETATM    6  C6  UNL     1     -32.644   8.833   2.488  1.00 20.00     0.013 C 
HETATM    7  C7  UNL     1     -33.641   7.647   2.570  1.00 20.00     0.007 C 
ENDROOT
BRANCH   7   8
HETATM    8  C8  UNL     1     -34.046   7.309   4.001  1.00 20.00     0.119 C 
HETATM    9 CL9  UNL     1     -35.386   6.148   3.998  1.00 20.00    -0.130 Cl
ENDBRANCH   7   8
TORSDOF 1
ENDMDL
MODEL 2
REMARK VINA RESULT:      -0.0      1.152      2.184
REMARK  1 active torsions:
REMARK  status: ('A' for Active; 'I' for Inactive)
REMARK    1  A    between atoms: C7_7  and  C8_8 
ROOT
HETATM    1  C1  UNL     1     -31.259   6.969   1.577  1.00 20.00    -0.026 C 
HETATM    2  C2  UNL     1     -31.851   5.766   1.638  1.00 20.00    -0.025 C 
HETATM    3  C3  UNL     1     -33.486   7.282   1.042  1.00 20.00     0.017 C 
HETATM    4  C4  UNL     1     -32.826   7.954   3.222  1.00 20.00     0.014 C 
HETATM    5  C5  UNL     1     -32.342   8.008   1.756  1.00 20.00     0.009 C 
HETATM    6  C6  UNL     1     -33.326   6.005   1.874  1.00 20.00     0.013 C 
HETATM    7  C7  UNL     1     -33.474   6.537   3.324  1.00 20.00     0.007 C 
ENDROOT
BRANCH   7   8
HETATM    8  C8  UNL     1     -34.924   6.594   3.791  1.00 20.00     0.119 C 
HETATM    9 CL9  UNL     1     -35.381   5.063   4.558  1.00 20.00    -0.130 Cl
ENDBRANCH   7   8
TORSDOF 1
ENDMDL
MODEL 3
REMARK VINA RESULT:       0.2      2.738      3.799
REMARK  1 active torsions:
REMARK  status: ('A' for Active; 'I' for Inactive)
REMARK    1  A    between atoms: C7_7  and  C8_8 
ROOT
HETATM    1  C1  UNL     1     -34.516   7.863   4.063  1.00 20.00    -0.026 C 
HETATM    2  C2  UNL     1     -33.253   7.451   3.880  1.00 20.00    -0.025 C 
HETATM    3  C3  UNL     1     -34.549   6.338   2.328  1.00 20.00     0.017 C 
HETATM    4  C4  UNL     1     -35.343   5.557   4.426  1.00 20.00     0.014 C 
HETATM    5  C5  UNL     1     -35.422   6.793   3.501  1.00 20.00     0.009 C 
HETATM    6  C6  UNL     1     -33.318   6.096   3.209  1.00 20.00     0.013 C 
HETATM    7  C7  UNL     1     -33.860   5.094   4.262  1.00 20.00     0.007 C 
ENDROOT
BRANCH   7   8
HETATM    8  C8  UNL     1     -33.754   3.641   3.811  1.00 20.00     0.119 C 
HETATM    9 CL9  UNL     1     -32.930   2.675   5.048  1.00 20.00    -0.130 Cl
ENDBRANCH   7   8
TORSDOF 1
ENDMDL
MODEL 4
REMARK VINA RESULT:       0.3      2.182      3.411
REMARK  1 active torsions:
REMARK  status: ('A' for Active; 'I' for Inactive)
REMARK    1  A    between atoms: C7_7  and  C8_8 
ROOT
HETATM    1  C1  UNL     1     -33.430   5.801   3.217  1.00 20.00    -0.026 C 
HETATM    2  C2  UNL     1     -33.750   7.093   3.387  1.00 20.00    -0.025 C 
HETATM    3  C3  UNL     1     -33.900   6.662   1.124  1.00 20.00     0.017 C 
HETATM    4  C4  UNL     1     -31.603   6.339   1.634  1.00 20.00     0.014 C 
HETATM    5  C5  UNL     1     -32.972   5.639   1.786  1.00 20.00     0.009 C 
HETATM    6  C6  UNL     1     -33.489   7.795   2.072  1.00 20.00     0.013 C 
HETATM    7  C7  UNL     1     -31.950   7.842   1.879  1.00 20.00     0.007 C 
ENDROOT
BRANCH   7   8
HETATM    8  C8  UNL     1     -31.523   8.732   0.718  1.00 20.00     0.119 C 
HETATM    9 CL9  UNL     1     -32.656  10.083   0.533  1.00 20.00    -0.130 Cl
ENDBRANCH   7   8
TORSDOF 1
ENDMDL
MODEL 5
REMARK VINA RESULT:       0.5      2.154      3.789
REMARK  1 active torsions:
REMARK  status: ('A' for Active; 'I' for Inactive)
REMARK    1  A    between atoms: C7_7  and  C8_8 
ROOT
HETATM    1  C1  UNL     1     -35.255   6.374   3.946  1.00 20.00    -0.026 C 
HETATM    2  C2  UNL     1     -34.330   5.489   3.546  1.00 20.00    -0.025 C 
HETATM    3  C3  UNL     1     -33.194   7.245   4.524  1.00 20.00     0.017 C 
HETATM    4  C4  UNL     1     -34.244   8.208   2.624  1.00 20.00     0.014 C 
HETATM    5  C5  UNL     1     -34.572   7.718   4.052  1.00 20.00     0.009 C 
HETATM    6  C6  UNL     1     -33.032   6.248   3.371  1.00 20.00     0.013 C 
HETATM    7  C7  UNL     1     -33.202   7.157   2.125  1.00 20.00     0.007 C 
ENDROOT
BRANCH   7   8
HETATM    8  C8  UNL     1     -31.897   7.803   1.677  1.00 20.00     0.119 C 
HETATM    9 CL9  UNL     1     -32.228   9.303   0.791  1.00 20.00    -0.130 Cl
ENDBRANCH   7   8
TORSDOF 1
ENDMDL
MODEL 6
REMARK VINA RESULT:       0.6      2.579      3.754
REMARK  1 active torsions:
REMARK  status: ('A' for Active; 'I' for Inactive)
REMARK    1  A    between atoms: C7_7  and  C8_8 
ROOT
HETATM    1  C1  UNL     1     -34.271   7.265   4.975  1.00 20.00    -0.026 C 
HETATM    2  C2  UNL     1     -33.520   8.004   4.146  1.00 20.00    -0.025 C 
HETATM    3  C3  UNL     1     -35.246   7.137   2.884  1.00 20.00     0.017 C 
HETATM    4  C4  UNL     1     -34.015   5.231   3.587  1.00 20.00     0.014 C 
HETATM    5  C5  UNL     1     -35.025   6.268   4.126  1.00 20.00     0.009 C 
HETATM    6  C6  UNL     1     -33.761   7.488   2.744  1.00 20.00     0.013 C 
HETATM    7  C7  UNL     1     -33.099   6.088   2.656  1.00 20.00     0.007 C 
ENDROOT
BRANCH   7   8
HETATM    8  C8  UNL     1     -33.047   5.542   1.233  1.00 20.00     0.119 C 
HETATM    9 CL9  UNL     1     -31.452   4.842   0.904  1.00 20.00    -0.130 Cl
ENDBRANCH   7   8
TORSDOF 1
ENDMDL
MODEL 7
REMARK VINA RESULT:       0.7      2.370      3.954
REMARK  1 active torsions:
REMARK  status: ('A' for Active; 'I' for Inactive)
REMARK    1  A    between atoms: C7_7  and  C8_8 
ROOT
HETATM    1  C1  UNL     1     -35.507   6.137   4.161  1.00 20.00    -0.026 C 
HETATM    2  C2  UNL     1     -34.762   5.026   4.066  1.00 20.00    -0.025 C 
HETATM    3  C3  UNL     1     -33.304   6.773   4.446  1.00 20.00     0.017 C 
HETATM    4  C4  UNL     1     -34.273   7.263   2.333  1.00 20.00     0.014 C 
HETATM    5  C5  UNL     1     -34.606   7.307   3.841  1.00 20.00     0.009 C 
HETATM    6  C6  UNL     1     -33.367   5.454   3.667  1.00 20.00     0.013 C 
HETATM    7  C7  UNL     1     -33.446   5.944   2.197  1.00 20.00     0.007 C 
ENDROOT
BRANCH   7   8
HETATM    8  C8  UNL     1     -32.075   6.182   1.575  1.00 20.00     0.119 C 
HETATM    9 CL9  UNL     1     -31.716   7.917   1.529  1.00 20.00    -0.130 Cl
ENDBRANCH   7   8
TORSDOF 1
ENDMDL
MODEL 8
REMARK VINA RESULT:       1.0      2.263      3.789
REMARK  1 active torsions:
REMARK  status: ('A' for Active; 'I' for Inactive)
REMARK    1  A    between atoms: C7_7  and  C8_8 
ROOT
HETATM    1  C1  UNL     1     -35.332   6.533   4.089  1.00 20.00    -0.026 C 
HETATM    2  C2  UNL     1     -35.407   6.527   2.749  1.00 20.00    -0.025 C 
HETATM    3  C3  UNL     1     -33.390   5.553   3.308  1.00 20.00     0.017 C 
HETATM    4  C4  UNL     1     -33.199   7.790   4.083  1.00 20.00     0.014 C 
HETATM    5  C5  UNL     1     -33.869   6.448   4.455  1.00 20.00     0.009 C 
HETATM    6  C6  UNL     1     -33.990   6.454   2.223  1.00 20.00     0.013 C 
HETATM    7  C7  UNL     1     -33.322   7.822   2.526  1.00 20.00     0.007 C 
ENDROOT
BRANCH   7   8
HETATM    8  C8  UNL     1     -31.971   7.989   1.841  1.00 20.00     0.119 C 
HETATM    9 CL9  UNL     1     -32.081   9.209   0.559  1.00 20.00    -0.130 Cl
ENDBRANCH   7   8
TORSDOF 1
ENDMDL
MODEL 9
REMARK VINA RESULT:       1.2      2.341      3.485
REMARK  1 active torsions:
REMARK  status: ('A' for Active; 'I' for Inactive)
REMARK    1  A    between atoms: C7_7  and  C8_8 
ROOT
HETATM    1  C1  UNL     1     -33.447   6.450   2.800  1.00 20.00    -0.026 C 
HETATM    2  C2  UNL     1     -32.775   6.073   1.702  1.00 20.00    -0.025 C 
HETATM    3  C3  UNL     1     -31.504   7.700   2.732  1.00 20.00     0.017 C 
HETATM    4  C4  UNL     1     -33.498   8.824   2.097  1.00 20.00     0.014 C 
HETATM    5  C5  UNL     1     -32.969   7.837   3.161  1.00 20.00     0.009 C 
HETATM    6  C6  UNL     1     -31.860   7.216   1.322  1.00 20.00     0.013 C 
HETATM    7  C7  UNL     1     -32.762   8.365   0.798  1.00 20.00     0.007 C 
ENDROOT
BRANCH   7   8
HETATM    8  C8  UNL     1     -31.970   9.496   0.151  1.00 20.00     0.119 C 
HETATM    9 CL9  UNL     1     -32.648  11.065   0.620  1.00 20.00    -0.130 Cl
ENDBRANCH   7   8
TORSDOF 1
ENDMDL
