MODEL 1
REMARK VINA RESULT:      -1.1      0.000      0.000
REMARK  0 active torsions:
REMARK  status: ('A' for Active; 'I' for Inactive)
ROOT
HETATM    1  C1  UNL     1     -34.628   7.246   4.504  1.00 20.00    -0.021 C 
HETATM    2  C2  UNL     1     -33.872   4.853   3.765  1.00 20.00    -0.021 C 
HETATM    3  C3  UNL     1     -33.673   8.141   4.166  1.00 20.00    -0.025 C 
HETATM    4  C4  UNL     1     -33.015   4.626   2.746  1.00 20.00    -0.025 C 
HETATM    5  C5  UNL     1     -32.014   7.910   1.926  1.00 20.00     0.009 C 
HETATM    6  C6  UNL     1     -31.862   6.507   1.247  1.00 20.00     0.009 C 
HETATM    7  C7  UNL     1     -34.710   6.082   3.537  1.00 20.00     0.035 C 
HETATM    8  C8  UNL     1     -32.826   7.513   3.130  1.00 20.00     0.013 C 
HETATM    9  C9  UNL     1     -33.111   5.670   1.653  1.00 20.00     0.013 C 
HETATM   10  C10 UNL     1     -33.918   6.697   2.409  1.00 20.00     0.012 C 
ENDROOT
TORSDOF 0
ENDMDL
MODEL 2
REMARK VINA RESULT:      -0.9      0.812      3.415
REMARK  0 active torsions:
REMARK  status: ('A' for Active; 'I' for Inactive)
ROOT
HETATM    1  C1  UNL     1     -32.134   6.763   1.572  1.00 20.00    -0.021 C 
HETATM    2  C2  UNL     1     -33.028   8.137   3.611  1.00 20.00    -0.021 C 
HETATM    3  C3  UNL     1     -32.180   5.445   1.866  1.00 20.00    -0.025 C 
HETATM    4  C4  UNL     1     -33.902   7.642   4.516  1.00 20.00    -0.025 C 
HETATM    5  C5  UNL     1     -34.103   4.262   3.517  1.00 20.00     0.009 C 
HETATM    6  C6  UNL     1     -34.919   5.176   4.492  1.00 20.00     0.009 C 
HETATM    7  C7  UNL     1     -33.241   7.553   2.241  1.00 20.00     0.035 C 
HETATM    8  C8  UNL     1     -33.122   5.276   2.993  1.00 20.00     0.013 C 
HETATM    9  C9  UNL     1     -34.850   6.623   3.920  1.00 20.00     0.013 C 
HETATM   10  C10 UNL     1     -34.123   6.389   2.619  1.00 20.00     0.012 C 
ENDROOT
TORSDOF 0
ENDMDL
MODEL 3
REMARK VINA RESULT:      -0.5      0.935      3.482
REMARK  0 active torsions:
REMARK  status: ('A' for Active; 'I' for Inactive)
ROOT
HETATM    1  C1  UNL     1     -31.893   7.291   1.494  1.00 20.00    -0.021 C 
HETATM    2  C2  UNL     1     -32.088   8.423   3.844  1.00 20.00    -0.021 C 
HETATM    3  C3  UNL     1     -32.452   6.062   1.541  1.00 20.00    -0.025 C 
HETATM    4  C4  UNL     1     -33.053   8.118   4.739  1.00 20.00    -0.025 C 
HETATM    5  C5  UNL     1     -34.629   5.380   3.161  1.00 20.00     0.009 C 
HETATM    6  C6  UNL     1     -34.974   6.302   4.380  1.00 20.00     0.009 C 
HETATM    7  C7  UNL     1     -32.566   8.280   2.425  1.00 20.00     0.035 C 
HETATM    8  C8  UNL     1     -33.342   6.028   2.722  1.00 20.00     0.013 C 
HETATM    9  C9  UNL     1     -34.351   7.698   4.082  1.00 20.00     0.013 C 
HETATM   10  C10 UNL     1     -33.826   7.492   2.682  1.00 20.00     0.012 C 
ENDROOT
TORSDOF 0
ENDMDL
MODEL 4
REMARK VINA RESULT:      -0.1      0.832      3.535
REMARK  0 active torsions:
REMARK  status: ('A' for Active; 'I' for Inactive)
ROOT
HETATM    1  C1  UNL     1     -32.052   5.680   1.119  1.00 20.00    -0.021 C 
HETATM    2  C2  UNL     1     -31.505   7.921   2.354  1.00 20.00    -0.021 C 
HETATM    3  C3  UNL     1     -32.792   4.892   1.930  1.00 20.00    -0.025 C 
HETATM    4  C4  UNL     1     -32.279   8.439   3.333  1.00 20.00    -0.025 C 
HETATM    5  C5  UNL     1     -34.626   5.845   3.815  1.00 20.00     0.009 C 
HETATM    6  C6  UNL     1     -34.518   7.338   4.278  1.00 20.00     0.009 C 
HETATM    7  C7  UNL     1     -32.312   7.157   1.339  1.00 20.00     0.035 C 
HETATM    8  C8  UNL     1     -33.381   5.760   2.973  1.00 20.00     0.013 C 
HETATM    9  C9  UNL     1     -33.746   8.103   3.162  1.00 20.00     0.013 C 
HETATM   10  C10 UNL     1     -33.598   7.024   2.117  1.00 20.00     0.012 C 
ENDROOT
TORSDOF 0
ENDMDL
MODEL 5
REMARK VINA RESULT:       0.3      0.924      2.654
REMARK  0 active torsions:
REMARK  status: ('A' for Active; 'I' for Inactive)
ROOT
HETATM    1  C1  UNL     1     -34.083   7.921   4.133  1.00 20.00    -0.021 C 
HETATM    2  C2  UNL     1     -32.816   9.040   2.137  1.00 20.00    -0.021 C 
HETATM    3  C3  UNL     1     -34.543   6.709   3.749  1.00 20.00    -0.025 C 
HETATM    4  C4  UNL     1     -32.224   8.339   1.145  1.00 20.00    -0.025 C 
HETATM    5  C5  UNL     1     -33.261   5.049   1.897  1.00 20.00     0.009 C 
HETATM    6  C6  UNL     1     -32.199   5.680   0.934  1.00 20.00     0.009 C 
HETATM    7  C7  UNL     1     -32.787   8.302   3.447  1.00 20.00     0.035 C 
HETATM    8  C8  UNL     1     -33.773   6.304   2.553  1.00 20.00     0.013 C 
HETATM    9  C9  UNL     1     -31.703   6.994   1.606  1.00 20.00     0.013 C 
HETATM   10  C10 UNL     1     -32.417   6.932   2.934  1.00 20.00     0.012 C 
ENDROOT
TORSDOF 0
ENDMDL
MODEL 6
REMARK VINA RESULT:       0.3      0.817      2.804
REMARK  0 active torsions:
REMARK  status: ('A' for Active; 'I' for Inactive)
ROOT
HETATM    1  C1  UNL     1     -31.641   7.921   1.507  1.00 20.00    -0.021 C 
HETATM    2  C2  UNL     1     -32.845   5.690   0.860  1.00 20.00    -0.021 C 
HETATM    3  C3  UNL     1     -32.470   8.673   2.266  1.00 20.00    -0.025 C 
HETATM    4  C4  UNL     1     -33.828   5.134   1.602  1.00 20.00    -0.025 C 
HETATM    5  C5  UNL     1     -34.367   7.631   4.038  1.00 20.00     0.009 C 
HETATM    6  C6  UNL     1     -34.812   6.139   3.868  1.00 20.00     0.009 C 
HETATM    7  C7  UNL     1     -31.849   6.433   1.708  1.00 20.00     0.035 C 
HETATM    8  C8  UNL     1     -33.510   7.773   2.808  1.00 20.00     0.013 C 
HETATM    9  C9  UNL     1     -33.679   5.416   3.082  1.00 20.00     0.013 C 
HETATM   10  C10 UNL     1     -32.644   6.509   2.988  1.00 20.00     0.012 C 
ENDROOT
TORSDOF 0
ENDMDL
MODEL 7
REMARK VINA RESULT:       0.5      0.823      2.640
REMARK  0 active torsions:
REMARK  status: ('A' for Active; 'I' for Inactive)
ROOT
HETATM    1  C1  UNL     1     -33.606   4.697   2.185  1.00 20.00    -0.021 C 
HETATM    2  C2  UNL     1     -34.993   6.332   3.685  1.00 20.00    -0.021 C 
HETATM    3  C3  UNL     1     -32.908   5.410   1.273  1.00 20.00    -0.025 C 
HETATM    4  C4  UNL     1     -34.640   7.617   3.908  1.00 20.00    -0.025 C 
HETATM    5  C5  UNL     1     -31.896   7.980   1.717  1.00 20.00     0.009 C 
HETATM    6  C6  UNL     1     -32.493   8.829   2.890  1.00 20.00     0.009 C 
HETATM    7  C7  UNL     1     -33.796   5.441   3.492  1.00 20.00     0.035 C 
HETATM    8  C8  UNL     1     -32.834   6.803   1.764  1.00 20.00     0.013 C 
HETATM    9  C9  UNL     1     -33.140   7.825   3.890  1.00 20.00     0.013 C 
HETATM   10  C10 UNL     1     -32.747   6.504   3.275  1.00 20.00     0.012 C 
ENDROOT
TORSDOF 0
ENDMDL
MODEL 8
REMARK VINA RESULT:       1.1      0.852      2.704
REMARK  0 active torsions:
REMARK  status: ('A' for Active; 'I' for Inactive)
ROOT
HETATM    1  C1  UNL     1     -33.892   8.241   3.392  1.00 20.00    -0.021 C 
HETATM    2  C2  UNL     1     -32.942   6.711   1.494  1.00 20.00    -0.021 C 
HETATM    3  C3  UNL     1     -34.853   7.572   4.067  1.00 20.00    -0.025 C 
HETATM    4  C4  UNL     1     -32.962   5.361   1.547  1.00 20.00    -0.025 C 
HETATM    5  C5  UNL     1     -34.863   4.804   4.470  1.00 20.00     0.009 C 
HETATM    6  C6  UNL     1     -33.973   3.908   3.543  1.00 20.00     0.009 C 
HETATM    7  C7  UNL     1     -32.805   7.329   2.859  1.00 20.00     0.035 C 
HETATM    8  C8  UNL     1     -34.667   6.132   3.788  1.00 20.00     0.013 C 
HETATM    9  C9  UNL     1     -32.858   4.827   2.960  1.00 20.00     0.013 C 
HETATM   10  C10 UNL     1     -33.127   6.117   3.697  1.00 20.00     0.012 C 
ENDROOT
TORSDOF 0
ENDMDL
