MODEL 1
REMARK VINA RESULT:       0.5      0.000      0.000
REMARK  0 active torsions:
REMARK  status: ('A' for Active; 'I' for Inactive)
ROOT
HETATM    1  C1  UNL     1     -32.219   5.283   1.727  1.00 20.00    -0.018 C 
HETATM    2  C2  UNL     1     -34.174   7.491   4.226  1.00 20.00    -0.018 C 
HETATM    3  C3  UNL     1     -32.395   6.609   1.483  1.00 20.00    -0.078 C 
HETATM    4  C4  UNL     1     -34.620   6.259   3.919  1.00 20.00    -0.078 C 
HETATM    5  C5  UNL     1     -31.399   7.697   1.725  1.00 20.00     0.035 C 
HETATM    6  C6  UNL     1     -34.735   4.944   4.657  1.00 20.00     0.035 C 
HETATM    7  C7  UNL     1     -31.975   8.346   3.019  1.00 20.00     0.013 C 
HETATM    8  C8  UNL     1     -33.921   3.974   3.683  1.00 20.00     0.013 C 
HETATM    9  C9  UNL     1     -33.143   5.006   2.870  1.00 20.00     0.017 C 
HETATM   10  C10 UNL     1     -33.518   8.166   3.008  1.00 20.00     0.017 C 
HETATM   11  C11 UNL     1     -33.734   7.151   1.886  1.00 20.00     0.030 C 
HETATM   12  C12 UNL     1     -34.304   5.935   2.523  1.00 20.00     0.030 C 
ENDROOT
TORSDOF 0
ENDMDL
MODEL 2
REMARK VINA RESULT:       0.6      0.420      3.841
REMARK  0 active torsions:
REMARK  status: ('A' for Active; 'I' for Inactive)
ROOT
HETATM    1  C1  UNL     1     -34.147   7.563   4.347  1.00 20.00    -0.018 C 
HETATM    2  C2  UNL     1     -32.350   5.392   1.701  1.00 20.00    -0.018 C 
HETATM    3  C3  UNL     1     -34.743   6.444   3.854  1.00 20.00    -0.078 C 
HETATM    4  C4  UNL     1     -32.313   6.734   1.614  1.00 20.00    -0.078 C 
HETATM    5  C5  UNL     1     -34.801   5.104   4.514  1.00 20.00     0.035 C 
HETATM    6  C6  UNL     1     -31.246   7.793   1.785  1.00 20.00     0.035 C 
HETATM    7  C7  UNL     1     -33.733   4.321   3.692  1.00 20.00     0.013 C 
HETATM    8  C8  UNL     1     -31.917   8.726   2.895  1.00 20.00     0.013 C 
HETATM    9  C9  UNL     1     -32.976   7.771   3.440  1.00 20.00     0.017 C 
HETATM   10  C10 UNL     1     -33.702   4.906   2.253  1.00 20.00     0.017 C 
HETATM   11  C11 UNL     1     -34.507   6.197   2.393  1.00 20.00     0.030 C 
HETATM   12  C12 UNL     1     -33.568   7.313   2.109  1.00 20.00     0.030 C 
ENDROOT
TORSDOF 0
ENDMDL
MODEL 3
REMARK VINA RESULT:       2.8      1.126      3.451
REMARK  0 active torsions:
REMARK  status: ('A' for Active; 'I' for Inactive)
ROOT
HETATM    1  C1  UNL     1     -32.572   5.617   1.759  1.00 20.00    -0.018 C 
HETATM    2  C2  UNL     1     -34.038   8.942   3.077  1.00 20.00    -0.018 C 
HETATM    3  C3  UNL     1     -33.068   5.698   3.023  1.00 20.00    -0.078 C 
HETATM    4  C4  UNL     1     -32.906   8.942   2.350  1.00 20.00    -0.078 C 
HETATM    5  C5  UNL     1     -34.416   5.241   3.480  1.00 20.00     0.035 C 
HETATM    6  C6  UNL     1     -32.520   9.411   0.964  1.00 20.00     0.035 C 
HETATM    7  C7  UNL     1     -35.163   6.602   3.610  1.00 20.00     0.013 C 
HETATM    8  C8  UNL     1     -31.919   8.067   0.344  1.00 20.00     0.013 C 
HETATM    9  C9  UNL     1     -32.506   7.042   1.311  1.00 20.00     0.017 C 
HETATM   10  C10 UNL     1     -34.122   7.696   3.977  1.00 20.00     0.017 C 
HETATM   11  C11 UNL     1     -32.788   6.993   3.727  1.00 20.00     0.030 C 
HETATM   12  C12 UNL     1     -32.125   7.730   2.620  1.00 20.00     0.030 C 
ENDROOT
TORSDOF 0
ENDMDL
MODEL 4
REMARK VINA RESULT:       2.9      0.890      2.220
REMARK  0 active torsions:
REMARK  status: ('A' for Active; 'I' for Inactive)
ROOT
HETATM    1  C1  UNL     1     -31.360   7.750   1.819  1.00 20.00    -0.018 C 
HETATM    2  C2  UNL     1     -34.189   5.963   3.753  1.00 20.00    -0.018 C 
HETATM    3  C3  UNL     1     -32.242   8.466   2.567  1.00 20.00    -0.078 C 
HETATM    4  C4  UNL     1     -33.882   5.584   2.499  1.00 20.00    -0.078 C 
HETATM    5  C5  UNL     1     -32.011   8.999   3.944  1.00 20.00     0.035 C 
HETATM    6  C6  UNL     1     -33.245   4.363   1.872  1.00 20.00     0.035 C 
HETATM    7  C7  UNL     1     -32.839   7.990   4.796  1.00 20.00     0.013 C 
HETATM    8  C8  UNL     1     -32.038   5.030   1.064  1.00 20.00     0.013 C 
HETATM    9  C9  UNL     1     -31.967   6.385   1.763  1.00 20.00     0.017 C 
HETATM   10  C10 UNL     1     -34.026   7.482   3.931  1.00 20.00     0.017 C 
HETATM   11  C11 UNL     1     -33.654   7.962   2.529  1.00 20.00     0.030 C 
HETATM   12  C12 UNL     1     -33.452   6.741   1.706  1.00 20.00     0.030 C 
ENDROOT
TORSDOF 0
ENDMDL
MODEL 5
REMARK VINA RESULT:       3.0      1.216      2.715
REMARK  0 active torsions:
REMARK  status: ('A' for Active; 'I' for Inactive)
ROOT
HETATM    1  C1  UNL     1     -33.916   9.012   3.080  1.00 20.00    -0.018 C 
HETATM    2  C2  UNL     1     -32.622   5.747   1.467  1.00 20.00    -0.018 C 
HETATM    3  C3  UNL     1     -32.763   9.010   2.358  1.00 20.00    -0.078 C 
HETATM    4  C4  UNL     1     -33.125   5.732   2.715  1.00 20.00    -0.078 C 
HETATM    5  C5  UNL     1     -32.602   9.451   0.939  1.00 20.00     0.035 C 
HETATM    6  C6  UNL     1     -34.372   5.172   3.363  1.00 20.00     0.035 C 
HETATM    7  C7  UNL     1     -32.501   8.077   0.210  1.00 20.00     0.013 C 
HETATM    8  C8  UNL     1     -34.979   6.486   4.040  1.00 20.00     0.013 C 
HETATM    9  C9  UNL     1     -34.225   7.560   3.260  1.00 20.00     0.017 C 
HETATM   10  C10 UNL     1     -31.859   7.054   1.188  1.00 20.00     0.017 C 
HETATM   11  C11 UNL     1     -31.915   7.784   2.529  1.00 20.00     0.030 C 
HETATM   12  C12 UNL     1     -32.816   6.989   3.404  1.00 20.00     0.030 C 
ENDROOT
TORSDOF 0
ENDMDL
MODEL 6
REMARK VINA RESULT:       3.0      0.940      2.180
REMARK  0 active torsions:
REMARK  status: ('A' for Active; 'I' for Inactive)
ROOT
HETATM    1  C1  UNL     1     -33.809   4.890   2.471  1.00 20.00    -0.018 C 
HETATM    2  C2  UNL     1     -32.190   8.370   2.929  1.00 20.00    -0.018 C 
HETATM    3  C3  UNL     1     -33.128   5.473   1.448  1.00 20.00    -0.078 C 
HETATM    4  C4  UNL     1     -33.419   8.126   3.418  1.00 20.00    -0.078 C 
HETATM    5  C5  UNL     1     -31.722   5.177   1.035  1.00 20.00     0.035 C 
HETATM    6  C6  UNL     1     -34.016   7.982   4.801  1.00 20.00     0.035 C 
HETATM    7  C7  UNL     1     -30.976   6.419   1.609  1.00 20.00     0.013 C 
HETATM    8  C8  UNL     1     -34.692   6.538   4.693  1.00 20.00     0.013 C 
HETATM    9  C9  UNL     1     -33.956   5.991   3.473  1.00 20.00     0.017 C 
HETATM   10  C10 UNL     1     -31.958   7.623   1.604  1.00 20.00     0.017 C 
HETATM   11  C11 UNL     1     -33.308   6.958   1.336  1.00 20.00     0.030 C 
HETATM   12  C12 UNL     1     -34.139   7.191   2.546  1.00 20.00     0.030 C 
ENDROOT
TORSDOF 0
ENDMDL
