MODEL 1
REMARK VINA RESULT:      -3.2      0.000      0.000
REMARK  3 active torsions:
REMARK  status: ('A' for Active; 'I' for Inactive)
REMARK    1  A    between atoms: C1_1  and  C3_3 
REMARK    2  A    between atoms: C1_1  and  C4_4 
REMARK    3  A    between atoms: C2_2  and  C3_3 
ROOT
HETATM    1  C1  UNL     1     -33.162   6.845   2.549  1.00 20.00     0.197 C 
ENDROOT
BRANCH   1   2
HETATM    2  C3  UNL     1     -34.064   7.334   3.676  1.00 20.00     0.264 C 
HETATM    3  F5  UNL     1     -34.686   8.477   3.289  1.00 20.00    -0.205 F 
HETATM    4  F6  UNL     1     -33.306   7.640   4.759  1.00 20.00    -0.205 F 
BRANCH   2   5
HETATM    5  C2  UNL     1     -35.105   6.298   4.063  1.00 20.00     0.193 C 
HETATM    6 CL10 UNL     1     -34.389   4.666   4.088  1.00 20.00    -0.124 Cl
ENDBRANCH   2   5
ENDBRANCH   1   2
BRANCH   1   7
HETATM    7  C4  UNL     1     -32.140   7.884   2.132  1.00 20.00     0.393 C 
HETATM    8  F7  UNL     1     -31.582   8.486   3.203  1.00 20.00    -0.171 F 
HETATM    9  F8  UNL     1     -31.145   7.308   1.422  1.00 20.00    -0.171 F 
HETATM   10  F9  UNL     1     -32.694   8.839   1.356  1.00 20.00    -0.171 F 
ENDBRANCH   1   7
TORSDOF 3
ENDMDL
MODEL 2
REMARK VINA RESULT:      -3.1      0.014      1.194
REMARK  3 active torsions:
REMARK  status: ('A' for Active; 'I' for Inactive)
REMARK    1  A    between atoms: C1_1  and  C3_3 
REMARK    2  A    between atoms: C1_1  and  C4_4 
REMARK    3  A    between atoms: C2_2  and  C3_3 
ROOT
HETATM    1  C1  UNL     1     -33.155   6.844   2.547  1.00 20.00     0.197 C 
ENDROOT
BRANCH   1   2
HETATM    2  C3  UNL     1     -34.057   7.339   3.672  1.00 20.00     0.264 C 
HETATM    3  F5  UNL     1     -34.677   8.481   3.280  1.00 20.00    -0.205 F 
HETATM    4  F6  UNL     1     -33.299   7.648   4.754  1.00 20.00    -0.205 F 
BRANCH   2   5
HETATM    5  C2  UNL     1     -35.100   6.305   4.062  1.00 20.00     0.193 C 
HETATM    6 CL10 UNL     1     -34.389   4.672   4.082  1.00 20.00    -0.124 Cl
ENDBRANCH   2   5
ENDBRANCH   1   2
BRANCH   1   7
HETATM    7  C4  UNL     1     -32.138   7.883   2.120  1.00 20.00     0.393 C 
HETATM    8  F7  UNL     1     -32.702   8.846   1.362  1.00 20.00    -0.171 F 
HETATM    9  F8  UNL     1     -31.593   8.482   3.203  1.00 20.00    -0.171 F 
HETATM   10  F9  UNL     1     -31.132   7.329   1.412  1.00 20.00    -0.171 F 
ENDBRANCH   1   7
TORSDOF 3
ENDMDL
MODEL 3
REMARK VINA RESULT:      -3.1      0.012      1.195
REMARK  3 active torsions:
REMARK  status: ('A' for Active; 'I' for Inactive)
REMARK    1  A    between atoms: C1_1  and  C3_3 
REMARK    2  A    between atoms: C1_1  and  C4_4 
REMARK    3  A    between atoms: C2_2  and  C3_3 
ROOT
HETATM    1  C1  UNL     1     -33.156   6.843   2.550  1.00 20.00     0.197 C 
ENDROOT
BRANCH   1   2
HETATM    2  C3  UNL     1     -34.059   7.337   3.674  1.00 20.00     0.264 C 
HETATM    3  F5  UNL     1     -34.678   8.479   3.284  1.00 20.00    -0.205 F 
HETATM    4  F6  UNL     1     -33.302   7.644   4.758  1.00 20.00    -0.205 F 
BRANCH   2   5
HETATM    5  C2  UNL     1     -35.102   6.303   4.063  1.00 20.00     0.193 C 
HETATM    6 CL10 UNL     1     -34.391   4.669   4.084  1.00 20.00    -0.124 Cl
ENDBRANCH   2   5
ENDBRANCH   1   2
BRANCH   1   7
HETATM    7  C4  UNL     1     -32.132   7.879   2.133  1.00 20.00     0.393 C 
HETATM    8  F7  UNL     1     -31.134   7.327   1.413  1.00 20.00    -0.171 F 
HETATM    9  F8  UNL     1     -32.710   8.831   1.366  1.00 20.00    -0.171 F 
HETATM   10  F9  UNL     1     -31.585   8.495   3.203  1.00 20.00    -0.171 F 
ENDBRANCH   1   7
TORSDOF 3
ENDMDL
MODEL 4
REMARK VINA RESULT:      -3.0      2.390      3.932
REMARK  3 active torsions:
REMARK  status: ('A' for Active; 'I' for Inactive)
REMARK    1  A    between atoms: C1_1  and  C3_3 
REMARK    2  A    between atoms: C1_1  and  C4_4 
REMARK    3  A    between atoms: C2_2  and  C3_3 
ROOT
HETATM    1  C1  UNL     1     -33.815   6.257   3.068  1.00 20.00     0.197 C 
ENDROOT
BRANCH   1   2
HETATM    2  C3  UNL     1     -33.127   7.616   3.002  1.00 20.00     0.264 C 
HETATM    3  F5  UNL     1     -32.541   7.880   4.198  1.00 20.00    -0.205 F 
HETATM    4  F6  UNL     1     -34.057   8.581   2.792  1.00 20.00    -0.205 F 
BRANCH   2   5
HETATM    5  C2  UNL     1     -32.081   7.672   1.902  1.00 20.00     0.193 C 
HETATM    6 CL10 UNL     1     -32.312   9.118   0.888  1.00 20.00    -0.124 Cl
ENDBRANCH   2   5
ENDBRANCH   1   2
BRANCH   1   7
HETATM    7  C4  UNL     1     -35.056   6.277   3.938  1.00 20.00     0.393 C 
HETATM    8  F7  UNL     1     -36.150   6.628   3.231  1.00 20.00    -0.171 F 
HETATM    9  F8  UNL     1     -35.283   5.053   4.462  1.00 20.00    -0.171 F 
HETATM   10  F9  UNL     1     -34.926   7.143   4.965  1.00 20.00    -0.171 F 
ENDBRANCH   1   7
TORSDOF 3
ENDMDL
MODEL 5
REMARK VINA RESULT:      -2.8      2.420      3.910
REMARK  3 active torsions:
REMARK  status: ('A' for Active; 'I' for Inactive)
REMARK    1  A    between atoms: C1_1  and  C3_3 
REMARK    2  A    between atoms: C1_1  and  C4_4 
REMARK    3  A    between atoms: C2_2  and  C3_3 
ROOT
HETATM    1  C1  UNL     1     -33.609   5.625   3.157  1.00 20.00     0.197 C 
ENDROOT
BRANCH   1   2
HETATM    2  C3  UNL     1     -32.928   6.312   1.980  1.00 20.00     0.264 C 
HETATM    3  F5  UNL     1     -33.807   6.416   0.951  1.00 20.00    -0.205 F 
HETATM    4  F6  UNL     1     -31.896   5.545   1.547  1.00 20.00    -0.205 F 
BRANCH   2   5
HETATM    5  C2  UNL     1     -32.413   7.694   2.347  1.00 20.00     0.193 C 
HETATM    6 CL10 UNL     1     -32.111   8.662   0.882  1.00 20.00    -0.124 Cl
ENDBRANCH   2   5
ENDBRANCH   1   2
BRANCH   1   7
HETATM    7  C4  UNL     1     -34.738   6.453   3.738  1.00 20.00     0.393 C 
HETATM    8  F7  UNL     1     -35.572   6.897   2.775  1.00 20.00    -0.171 F 
HETATM    9  F8  UNL     1     -35.468   5.715   4.603  1.00 20.00    -0.171 F 
HETATM   10  F9  UNL     1     -34.269   7.525   4.412  1.00 20.00    -0.171 F 
ENDBRANCH   1   7
TORSDOF 3
ENDMDL
MODEL 6
REMARK VINA RESULT:      -2.8      2.412      3.897
REMARK  3 active torsions:
REMARK  status: ('A' for Active; 'I' for Inactive)
REMARK    1  A    between atoms: C1_1  and  C3_3 
REMARK    2  A    between atoms: C1_1  and  C4_4 
REMARK    3  A    between atoms: C2_2  and  C3_3 
ROOT
HETATM    1  C1  UNL     1     -33.598   7.814   2.194  1.00 20.00     0.197 C 
ENDROOT
BRANCH   1   2
HETATM    2  C3  UNL     1     -32.110   7.854   1.867  1.00 20.00     0.264 C 
HETATM    3  F5  UNL     1     -31.661   6.590   1.665  1.00 20.00    -0.205 F 
HETATM    4  F6  UNL     1     -31.429   8.354   2.928  1.00 20.00    -0.205 F 
BRANCH   2   5
HETATM    5  C2  UNL     1     -31.820   8.697   0.636  1.00 20.00     0.193 C 
HETATM    6 CL10 UNL     1     -32.733  10.226   0.691  1.00 20.00    -0.124 Cl
ENDBRANCH   2   5
ENDBRANCH   1   2
BRANCH   1   7
HETATM    7  C4  UNL     1     -33.886   7.094   3.495  1.00 20.00     0.393 C 
HETATM    8  F7  UNL     1     -33.267   7.687   4.537  1.00 20.00    -0.171 F 
HETATM    9  F8  UNL     1     -35.213   7.098   3.753  1.00 20.00    -0.171 F 
HETATM   10  F9  UNL     1     -33.485   5.806   3.448  1.00 20.00    -0.171 F 
ENDBRANCH   1   7
TORSDOF 3
ENDMDL
MODEL 7
REMARK VINA RESULT:      -2.7      1.988      3.022
REMARK  3 active torsions:
REMARK  status: ('A' for Active; 'I' for Inactive)
REMARK    1  A    between atoms: C1_1  and  C3_3 
REMARK    2  A    between atoms: C1_1  and  C4_4 
REMARK    3  A    between atoms: C2_2  and  C3_3 
ROOT
HETATM    1  C1  UNL     1     -33.043   8.993   1.404  1.00 20.00     0.197 C 
ENDROOT
BRANCH   1   2
HETATM    2  C3  UNL     1     -32.227   7.869   2.031  1.00 20.00     0.264 C 
HETATM    3  F5  UNL     1     -31.387   8.389   2.961  1.00 20.00    -0.205 F 
HETATM    4  F6  UNL     1     -31.456   7.285   1.079  1.00 20.00    -0.205 F 
BRANCH   2   5
HETATM    5  C2  UNL     1     -33.112   6.818   2.681  1.00 20.00     0.193 C 
HETATM    6 CL10 UNL     1     -34.104   7.541   3.971  1.00 20.00    -0.124 Cl
ENDBRANCH   2   5
ENDBRANCH   1   2
BRANCH   1   7
HETATM    7  C4  UNL     1     -32.300   9.691   0.282  1.00 20.00     0.393 C 
HETATM    8  F7  UNL     1     -31.067   9.172   0.107  1.00 20.00    -0.171 F 
HETATM    9  F8  UNL     1     -32.971   9.554  -0.884  1.00 20.00    -0.171 F 
HETATM   10  F9  UNL     1     -32.168  11.012   0.523  1.00 20.00    -0.171 F 
ENDBRANCH   1   7
TORSDOF 3
ENDMDL
MODEL 8
REMARK VINA RESULT:      -2.5      2.073      3.327
REMARK  3 active torsions:
REMARK  status: ('A' for Active; 'I' for Inactive)
REMARK    1  A    between atoms: C1_1  and  C3_3 
REMARK    2  A    between atoms: C1_1  and  C4_4 
REMARK    3  A    between atoms: C2_2  and  C3_3 
ROOT
HETATM    1  C1  UNL     1     -32.844   9.290   1.457  1.00 20.00     0.197 C 
ENDROOT
BRANCH   1   2
HETATM    2  C3  UNL     1     -32.115   8.073   2.013  1.00 20.00     0.264 C 
HETATM    3  F5  UNL     1     -31.448   8.425   3.141  1.00 20.00    -0.205 F 
HETATM    4  F6  UNL     1     -31.186   7.655   1.115  1.00 20.00    -0.205 F 
BRANCH   2   5
HETATM    5  C2  UNL     1     -33.067   6.931   2.323  1.00 20.00     0.193 C 
HETATM    6 CL10 UNL     1     -32.651   5.486   1.367  1.00 20.00    -0.124 Cl
ENDBRANCH   2   5
ENDBRANCH   1   2
BRANCH   1   7
HETATM    7  C4  UNL     1     -32.257   9.768   0.144  1.00 20.00     0.393 C 
HETATM    8  F7  UNL     1     -33.069   9.480  -0.894  1.00 20.00    -0.171 F 
HETATM    9  F8  UNL     1     -32.082  11.108   0.166  1.00 20.00    -0.171 F 
HETATM   10  F9  UNL     1     -31.055   9.204  -0.095  1.00 20.00    -0.171 F 
ENDBRANCH   1   7
TORSDOF 3
ENDMDL
MODEL 9
REMARK VINA RESULT:      -2.5      2.387      3.314
REMARK  3 active torsions:
REMARK  status: ('A' for Active; 'I' for Inactive)
REMARK    1  A    between atoms: C1_1  and  C3_3 
REMARK    2  A    between atoms: C1_1  and  C4_4 
REMARK    3  A    between atoms: C2_2  and  C3_3 
ROOT
HETATM    1  C1  UNL     1     -31.471   8.949   0.862  1.00 20.00     0.197 C 
ENDROOT
BRANCH   1   2
HETATM    2  C3  UNL     1     -32.141   7.813   1.627  1.00 20.00     0.264 C 
HETATM    3  F5  UNL     1     -31.348   6.713   1.582  1.00 20.00    -0.205 F 
HETATM    4  F6  UNL     1     -33.309   7.488   1.017  1.00 20.00    -0.205 F 
BRANCH   2   5
HETATM    5  C2  UNL     1     -32.412   8.184   3.075  1.00 20.00     0.193 C 
HETATM    6 CL10 UNL     1     -33.898   7.394   3.660  1.00 20.00    -0.124 Cl
ENDBRANCH   2   5
ENDBRANCH   1   2
BRANCH   1   7
HETATM    7  C4  UNL     1     -32.474   9.913   0.261  1.00 20.00     0.393 C 
HETATM    8  F7  UNL     1     -33.452  10.220   1.137  1.00 20.00    -0.171 F 
HETATM    9  F8  UNL     1     -31.864  11.067  -0.091  1.00 20.00    -0.171 F 
HETATM   10  F9  UNL     1     -33.049   9.402  -0.848  1.00 20.00    -0.171 F 
ENDBRANCH   1   7
TORSDOF 3
ENDMDL
