MODEL 1
REMARK VINA RESULT:      -3.1      0.000      0.000
REMARK  3 active torsions:
REMARK  status: ('A' for Active; 'I' for Inactive)
REMARK    1  A    between atoms: C2_2  and  C8_8 
REMARK    2  A    between atoms: C6_6  and  C7_7 
REMARK    3  A    between atoms: C7_7  and  C8_8 
ROOT
HETATM    1  C5  UNL     1     -32.606   5.808   1.829  1.00 20.00     0.014 C 
HETATM    2  C8  UNL     1     -32.967   7.291   1.950  1.00 20.00     0.004 C 
ENDROOT
BRANCH   2   3
HETATM    3  C2  UNL     1     -33.092   7.657   3.409  1.00 20.00    -0.027 C 
HETATM    4  C1  UNL     1     -34.123   7.291   4.183  1.00 20.00    -0.035 C 
HETATM    5  C3  UNL     1     -35.276   6.475   3.700  1.00 20.00     0.036 C 
ENDBRANCH   2   3
BRANCH   2   6
HETATM    6  C7  UNL     1     -31.910   8.153   1.231  1.00 20.00     0.008 C 
BRANCH   6   7
HETATM    7  C6  UNL     1     -32.362   9.602   1.015  1.00 20.00    -0.004 C 
HETATM    8  C4  UNL     1     -32.655   9.879  -0.451  1.00 20.00     0.005 C 
ENDBRANCH   6   7
ENDBRANCH   2   6
TORSDOF 3
ENDMDL
MODEL 2
REMARK VINA RESULT:      -2.9      2.005      4.703
REMARK  3 active torsions:
REMARK  status: ('A' for Active; 'I' for Inactive)
REMARK    1  A    between atoms: C2_2  and  C8_8 
REMARK    2  A    between atoms: C6_6  and  C7_7 
REMARK    3  A    between atoms: C7_7  and  C8_8 
ROOT
HETATM    1  C5  UNL     1     -35.466   6.229   4.089  1.00 20.00     0.014 C 
HETATM    2  C8  UNL     1     -34.185   6.312   3.254  1.00 20.00     0.004 C 
ENDROOT
BRANCH   2   3
HETATM    3  C2  UNL     1     -33.381   7.512   3.693  1.00 20.00    -0.027 C 
HETATM    4  C1  UNL     1     -32.448   8.102   2.932  1.00 20.00    -0.035 C 
HETATM    5  C3  UNL     1     -32.089   7.649   1.556  1.00 20.00     0.036 C 
ENDBRANCH   2   3
BRANCH   2   6
HETATM    6  C7  UNL     1     -33.381   5.004   3.386  1.00 20.00     0.008 C 
BRANCH   6   7
HETATM    7  C6  UNL     1     -34.070   3.962   4.273  1.00 20.00    -0.004 C 
HETATM    8  C4  UNL     1     -33.075   2.945   4.810  1.00 20.00     0.005 C 
ENDBRANCH   6   7
ENDBRANCH   2   6
TORSDOF 3
ENDMDL
MODEL 3
REMARK VINA RESULT:      -2.7      1.634      2.819
REMARK  3 active torsions:
REMARK  status: ('A' for Active; 'I' for Inactive)
REMARK    1  A    between atoms: C2_2  and  C8_8 
REMARK    2  A    between atoms: C6_6  and  C7_7 
REMARK    3  A    between atoms: C7_7  and  C8_8 
ROOT
HETATM    1  C5  UNL     1     -33.158   8.252   4.976  1.00 20.00     0.014 C 
HETATM    2  C8  UNL     1     -33.446   7.280   3.828  1.00 20.00     0.004 C 
ENDROOT
BRANCH   2   3
HETATM    3  C2  UNL     1     -34.894   6.857   3.883  1.00 20.00    -0.027 C 
HETATM    4  C1  UNL     1     -35.295   5.597   4.101  1.00 20.00    -0.035 C 
HETATM    5  C3  UNL     1     -34.360   4.454   4.319  1.00 20.00     0.036 C 
ENDBRANCH   2   3
BRANCH   2   6
HETATM    6  C7  UNL     1     -33.091   7.935   2.478  1.00 20.00     0.008 C 
BRANCH   6   7
HETATM    7  C6  UNL     1     -32.035   7.153   1.690  1.00 20.00    -0.004 C 
HETATM    8  C4  UNL     1     -32.514   5.746   1.365  1.00 20.00     0.005 C 
ENDBRANCH   6   7
ENDBRANCH   2   6
TORSDOF 3
ENDMDL
MODEL 4
REMARK VINA RESULT:      -2.7      1.314      2.411
REMARK  3 active torsions:
REMARK  status: ('A' for Active; 'I' for Inactive)
REMARK    1  A    between atoms: C2_2  and  C8_8 
REMARK    2  A    between atoms: C6_6  and  C7_7 
REMARK    3  A    between atoms: C7_7  and  C8_8 
ROOT
HETATM    1  C5  UNL     1     -33.453   8.273   4.387  1.00 20.00     0.014 C 
HETATM    2  C8  UNL     1     -33.546   6.923   3.671  1.00 20.00     0.004 C 
ENDROOT
BRANCH   2   3
HETATM    3  C2  UNL     1     -34.907   6.319   3.921  1.00 20.00    -0.027 C 
HETATM    4  C1  UNL     1     -35.105   5.028   4.224  1.00 20.00    -0.035 C 
HETATM    5  C3  UNL     1     -34.006   4.027   4.353  1.00 20.00     0.036 C 
ENDBRANCH   2   3
BRANCH   2   6
HETATM    6  C7  UNL     1     -33.267   7.102   2.166  1.00 20.00     0.008 C 
BRANCH   6   7
HETATM    7  C6  UNL     1     -31.995   7.909   1.883  1.00 20.00    -0.004 C 
HETATM    8  C4  UNL     1     -32.265   9.046   0.909  1.00 20.00     0.005 C 
ENDBRANCH   6   7
ENDBRANCH   2   6
TORSDOF 3
ENDMDL
MODEL 5
REMARK VINA RESULT:      -2.3      0.982      4.349
REMARK  3 active torsions:
REMARK  status: ('A' for Active; 'I' for Inactive)
REMARK    1  A    between atoms: C2_2  and  C8_8 
REMARK    2  A    between atoms: C6_6  and  C7_7 
REMARK    3  A    between atoms: C7_7  and  C8_8 
ROOT
HETATM    1  C5  UNL     1     -32.619   8.301   4.116  1.00 20.00     0.014 C 
HETATM    2  C8  UNL     1     -33.102   7.801   2.752  1.00 20.00     0.004 C 
ENDROOT
BRANCH   2   3
HETATM    3  C2  UNL     1     -31.929   7.725   1.805  1.00 20.00    -0.027 C 
HETATM    4  C1  UNL     1     -31.708   8.608   0.820  1.00 20.00    -0.035 C 
HETATM    5  C3  UNL     1     -32.593   9.776   0.538  1.00 20.00     0.036 C 
ENDBRANCH   2   3
BRANCH   2   6
HETATM    6  C7  UNL     1     -33.803   6.437   2.906  1.00 20.00     0.008 C 
BRANCH   6   7
HETATM    7  C6  UNL     1     -34.999   6.480   3.863  1.00 20.00    -0.004 C 
HETATM    8  C4  UNL     1     -35.256   5.119   4.492  1.00 20.00     0.005 C 
ENDBRANCH   6   7
ENDBRANCH   2   6
TORSDOF 3
ENDMDL
MODEL 6
REMARK VINA RESULT:      -2.2      0.954      1.101
REMARK  3 active torsions:
REMARK  status: ('A' for Active; 'I' for Inactive)
REMARK    1  A    between atoms: C2_2  and  C8_8 
REMARK    2  A    between atoms: C6_6  and  C7_7 
REMARK    3  A    between atoms: C7_7  and  C8_8 
ROOT
HETATM    1  C5  UNL     1     -32.334   5.606   1.085  1.00 20.00     0.014 C 
HETATM    2  C8  UNL     1     -33.094   6.610   1.958  1.00 20.00     0.004 C 
ENDROOT
BRANCH   2   3
HETATM    3  C2  UNL     1     -33.391   5.981   3.297  1.00 20.00    -0.027 C 
HETATM    4  C1  UNL     1     -34.574   6.081   3.921  1.00 20.00    -0.035 C 
HETATM    5  C3  UNL     1     -35.744   6.825   3.369  1.00 20.00     0.036 C 
ENDBRANCH   2   3
BRANCH   2   6
HETATM    6  C7  UNL     1     -32.277   7.909   2.104  1.00 20.00     0.008 C 
BRANCH   6   7
HETATM    7  C6  UNL     1     -31.770   8.454   0.764  1.00 20.00    -0.004 C 
HETATM    8  C4  UNL     1     -32.465   9.755   0.395  1.00 20.00     0.005 C 
ENDBRANCH   6   7
ENDBRANCH   2   6
TORSDOF 3
ENDMDL
MODEL 7
REMARK VINA RESULT:      -2.2      1.855      3.100
REMARK  3 active torsions:
REMARK  status: ('A' for Active; 'I' for Inactive)
REMARK    1  A    between atoms: C2_2  and  C8_8 
REMARK    2  A    between atoms: C6_6  and  C7_7 
REMARK    3  A    between atoms: C7_7  and  C8_8 
ROOT
HETATM    1  C5  UNL     1     -34.224   7.523   4.047  1.00 20.00     0.014 C 
HETATM    2  C8  UNL     1     -33.697   6.164   3.577  1.00 20.00     0.004 C 
ENDROOT
BRANCH   2   3
HETATM    3  C2  UNL     1     -34.664   5.083   3.997  1.00 20.00    -0.027 C 
HETATM    4  C1  UNL     1     -34.285   3.868   4.418  1.00 20.00    -0.035 C 
HETATM    5  C3  UNL     1     -32.862   3.432   4.528  1.00 20.00     0.036 C 
ENDBRANCH   2   3
BRANCH   2   6
HETATM    6  C7  UNL     1     -33.481   6.178   2.051  1.00 20.00     0.008 C 
BRANCH   6   7
HETATM    7  C6  UNL     1     -32.044   6.532   1.651  1.00 20.00    -0.004 C 
HETATM    8  C4  UNL     1     -31.856   8.037   1.531  1.00 20.00     0.005 C 
ENDBRANCH   6   7
ENDBRANCH   2   6
TORSDOF 3
ENDMDL
MODEL 8
REMARK VINA RESULT:      -2.1      1.727      3.866
REMARK  3 active torsions:
REMARK  status: ('A' for Active; 'I' for Inactive)
REMARK    1  A    between atoms: C2_2  and  C8_8 
REMARK    2  A    between atoms: C6_6  and  C7_7 
REMARK    3  A    between atoms: C7_7  and  C8_8 
ROOT
HETATM    1  C5  UNL     1     -33.850   4.136   4.066  1.00 20.00     0.014 C 
HETATM    2  C8  UNL     1     -33.665   5.523   3.443  1.00 20.00     0.004 C 
ENDROOT
BRANCH   2   3
HETATM    3  C2  UNL     1     -33.409   5.374   1.963  1.00 20.00    -0.027 C 
HETATM    4  C1  UNL     1     -32.624   6.200   1.256  1.00 20.00    -0.035 C 
HETATM    5  C3  UNL     1     -31.904   7.368   1.843  1.00 20.00     0.036 C 
ENDBRANCH   2   3
BRANCH   2   6
HETATM    6  C7  UNL     1     -34.902   6.399   3.725  1.00 20.00     0.008 C 
BRANCH   6   7
HETATM    7  C6  UNL     1     -34.546   7.853   4.054  1.00 20.00    -0.004 C 
HETATM    8  C4  UNL     1     -33.362   7.932   5.006  1.00 20.00     0.005 C 
ENDBRANCH   6   7
ENDBRANCH   2   6
TORSDOF 3
ENDMDL
MODEL 9
REMARK VINA RESULT:      -1.9      2.223      4.536
REMARK  3 active torsions:
REMARK  status: ('A' for Active; 'I' for Inactive)
REMARK    1  A    between atoms: C2_2  and  C8_8 
REMARK    2  A    between atoms: C6_6  and  C7_7 
REMARK    3  A    between atoms: C7_7  and  C8_8 
ROOT
HETATM    1  C5  UNL     1     -32.941   6.217   1.563  1.00 20.00     0.014 C 
HETATM    2  C8  UNL     1     -33.317   5.824   2.995  1.00 20.00     0.004 C 
ENDROOT
BRANCH   2   3
HETATM    3  C2  UNL     1     -34.497   6.651   3.445  1.00 20.00    -0.027 C 
HETATM    4  C1  UNL     1     -34.399   7.698   4.277  1.00 20.00    -0.035 C 
HETATM    5  C3  UNL     1     -33.111   8.178   4.860  1.00 20.00     0.036 C 
ENDBRANCH   2   3
BRANCH   2   6
HETATM    6  C7  UNL     1     -33.616   4.314   3.068  1.00 20.00     0.008 C 
BRANCH   6   7
HETATM    7  C6  UNL     1     -33.948   3.835   4.485  1.00 20.00    -0.004 C 
HETATM    8  C4  UNL     1     -32.971   2.768   4.954  1.00 20.00     0.005 C 
ENDBRANCH   6   7
ENDBRANCH   2   6
TORSDOF 3
ENDMDL
