MODEL 1
REMARK VINA RESULT:       0.5      0.000      0.000
REMARK  0 active torsions:
REMARK  status: ('A' for Active; 'I' for Inactive)
ROOT
HETATM    1  C1  UNL     1     -34.067   5.272   3.737  1.00 20.00     0.006 C 
HETATM    2  C2  UNL     1     -33.080   5.293   2.565  1.00 20.00     0.011 C 
HETATM    3  C3  UNL     1     -33.889   7.842   4.314  1.00 20.00     0.010 C 
HETATM    4  C4  UNL     1     -32.486   8.087   3.769  1.00 20.00     0.069 C 
HETATM    5  C5  UNL     1     -32.252   9.563   0.809  1.00 20.00     0.197 C 
HETATM    6  C6  UNL     1     -31.434   8.359   0.431  1.00 20.00     0.197 C 
HETATM    7  C7  UNL     1     -34.463   6.730   3.436  1.00 20.00    -0.005 C 
HETATM    8  C8  UNL     1     -33.603   6.689   2.150  1.00 20.00     0.052 C 
HETATM    9  C9  UNL     1     -32.651   7.878   2.268  1.00 20.00     0.168 C 
HETATM   10  O10 UNL     1     -33.261   9.029   1.664  1.00 20.00    -0.353 OA
HETATM   11  O11 UNL     1     -31.399   7.597   1.637  1.00 20.00    -0.353 OA
ENDROOT
TORSDOF 0
ENDMDL
MODEL 2
REMARK VINA RESULT:       1.9      0.817      2.200
REMARK  0 active torsions:
REMARK  status: ('A' for Active; 'I' for Inactive)
ROOT
HETATM    1  C1  UNL     1     -34.893   6.208   4.002  1.00 20.00     0.006 C 
HETATM    2  C2  UNL     1     -34.804   7.647   3.481  1.00 20.00     0.011 C 
HETATM    3  C3  UNL     1     -33.146   5.180   2.310  1.00 20.00     0.010 C 
HETATM    4  C4  UNL     1     -33.316   6.192   1.184  1.00 20.00     0.069 C 
HETATM    5  C5  UNL     1     -30.992   8.540   0.899  1.00 20.00     0.197 C 
HETATM    6  C6  UNL     1     -32.148   9.497   0.995  1.00 20.00     0.197 C 
HETATM    7  C7  UNL     1     -33.428   5.965   3.592  1.00 20.00    -0.005 C 
HETATM    8  C8  UNL     1     -33.288   7.463   3.235  1.00 20.00     0.052 C 
HETATM    9  C9  UNL     1     -32.786   7.486   1.792  1.00 20.00     0.168 C 
HETATM   10  O10 UNL     1     -31.351   7.489   1.794  1.00 20.00    -0.353 OA
HETATM   11  O11 UNL     1     -33.279   8.633   1.095  1.00 20.00    -0.353 OA
ENDROOT
TORSDOF 0
ENDMDL
MODEL 3
REMARK VINA RESULT:       1.9      1.226      4.081
REMARK  0 active torsions:
REMARK  status: ('A' for Active; 'I' for Inactive)
ROOT
HETATM    1  C1  UNL     1     -32.154  10.582   0.019  1.00 20.00     0.006 C 
HETATM    2  C2  UNL     1     -33.010  10.419   1.280  1.00 20.00     0.011 C 
HETATM    3  C3  UNL     1     -30.954   8.236   0.178  1.00 20.00     0.010 C 
HETATM    4  C4  UNL     1     -31.065   8.039   1.685  1.00 20.00     0.069 C 
HETATM    5  C5  UNL     1     -33.438   5.992   2.769  1.00 20.00     0.197 C 
HETATM    6  C6  UNL     1     -33.882   7.170   3.592  1.00 20.00     0.197 C 
HETATM    7  C7  UNL     1     -32.185   9.058  -0.205  1.00 20.00    -0.005 C 
HETATM    8  C8  UNL     1     -33.193   8.916   0.960  1.00 20.00     0.052 C 
HETATM    9  C9  UNL     1     -32.566   7.897   1.910  1.00 20.00     0.168 C 
HETATM   10  O10 UNL     1     -33.007   6.581   1.543  1.00 20.00    -0.353 OA
HETATM   11  O11 UNL     1     -32.922   8.174   3.267  1.00 20.00    -0.353 OA
ENDROOT
TORSDOF 0
ENDMDL
MODEL 4
REMARK VINA RESULT:       2.7      1.768      3.422
REMARK  0 active torsions:
REMARK  status: ('A' for Active; 'I' for Inactive)
ROOT
HETATM    1  C1  UNL     1     -31.861   5.341   0.450  1.00 20.00     0.006 C 
HETATM    2  C2  UNL     1     -33.168   4.976   1.163  1.00 20.00     0.011 C 
HETATM    3  C3  UNL     1     -31.655   7.775   1.451  1.00 20.00     0.010 C 
HETATM    4  C4  UNL     1     -33.135   8.027   1.710  1.00 20.00     0.069 C 
HETATM    5  C5  UNL     1     -34.198   7.706   4.835  1.00 20.00     0.197 C 
HETATM    6  C6  UNL     1     -35.180   6.729   4.251  1.00 20.00     0.197 C 
HETATM    7  C7  UNL     1     -31.476   6.266   1.620  1.00 20.00    -0.005 C 
HETATM    8  C8  UNL     1     -32.704   5.760   2.414  1.00 20.00     0.052 C 
HETATM    9  C9  UNL     1     -33.477   7.019   2.801  1.00 20.00     0.168 C 
HETATM   10  O10 UNL     1     -33.010   7.482   4.077  1.00 20.00    -0.353 OA
HETATM   11  O11 UNL     1     -34.882   6.761   2.857  1.00 20.00    -0.353 OA
ENDROOT
TORSDOF 0
ENDMDL
MODEL 5
REMARK VINA RESULT:       3.0      1.745      3.779
REMARK  0 active torsions:
REMARK  status: ('A' for Active; 'I' for Inactive)
ROOT
HETATM    1  C1  UNL     1     -31.234   7.869   0.709  1.00 20.00     0.006 C 
HETATM    2  C2  UNL     1     -31.657   8.504   2.038  1.00 20.00     0.011 C 
HETATM    3  C3  UNL     1     -32.495   5.578   1.067  1.00 20.00     0.010 C 
HETATM    4  C4  UNL     1     -32.506   5.575   2.591  1.00 20.00     0.069 C 
HETATM    5  C5  UNL     1     -35.338   6.440   4.084  1.00 20.00     0.197 C 
HETATM    6  C6  UNL     1     -34.490   7.465   4.785  1.00 20.00     0.197 C 
HETATM    7  C7  UNL     1     -32.541   7.055   0.676  1.00 20.00    -0.005 C 
HETATM    8  C8  UNL     1     -33.044   7.828   1.918  1.00 20.00     0.052 C 
HETATM    9  C9  UNL     1     -33.410   6.752   2.938  1.00 20.00     0.168 C 
HETATM   10  O10 UNL     1     -34.789   6.394   2.767  1.00 20.00    -0.353 OA
HETATM   11  O11 UNL     1     -33.183   7.213   4.273  1.00 20.00    -0.353 OA
ENDROOT
TORSDOF 0
ENDMDL
MODEL 6
REMARK VINA RESULT:       3.5      2.682      4.450
REMARK  0 active torsions:
REMARK  status: ('A' for Active; 'I' for Inactive)
ROOT
HETATM    1  C1  UNL     1     -33.411   6.981   1.539  1.00 20.00     0.006 C 
HETATM    2  C2  UNL     1     -33.188   5.469   1.427  1.00 20.00     0.011 C 
HETATM    3  C3  UNL     1     -34.414   6.946   3.981  1.00 20.00     0.010 C 
HETATM    4  C4  UNL     1     -34.965   5.525   3.967  1.00 20.00     0.069 C 
HETATM    5  C5  UNL     1     -33.191   3.201   5.533  1.00 20.00     0.197 C 
HETATM    6  C6  UNL     1     -33.227   2.485   4.211  1.00 20.00     0.197 C 
HETATM    7  C7  UNL     1     -33.192   6.905   3.063  1.00 20.00    -0.005 C 
HETATM    8  C8  UNL     1     -32.792   5.417   2.922  1.00 20.00     0.052 C 
HETATM    9  C9  UNL     1     -33.710   4.663   3.883  1.00 20.00     0.168 C 
HETATM   10  O10 UNL     1     -33.074   4.576   5.167  1.00 20.00    -0.353 OA
HETATM   11  O11 UNL     1     -34.004   3.354   3.390  1.00 20.00    -0.353 OA
ENDROOT
TORSDOF 0
ENDMDL
