MODEL 1
REMARK VINA RESULT:       2.3      0.000      0.000
REMARK  0 active torsions:
REMARK  status: ('A' for Active; 'I' for Inactive)
ROOT
HETATM    1  C1  UNL     1     -32.098   6.627   1.618  1.00 20.00     0.135 C 
HETATM    2  C2  UNL     1     -33.337   5.817   1.330  1.00 20.00     0.080 C 
HETATM    3  C3  UNL     1     -33.952   5.236   2.597  1.00 20.00     0.016 C 
HETATM    4  C4  UNL     1     -31.619   8.599   3.209  1.00 20.00     0.023 A 
HETATM    5  C5  UNL     1     -33.555   7.205   4.199  1.00 20.00     0.014 C 
HETATM    6  C6  UNL     1     -33.091   8.306   3.289  1.00 20.00     0.003 A 
HETATM    7  C7  UNL     1     -32.338   8.051   1.992  1.00 20.00     0.021 A 
HETATM    8  C8  UNL     1     -34.603   6.241   3.589  1.00 20.00    -0.047 C 
HETATM    9  C9  UNL     1     -32.553   9.022   0.857  1.00 20.00     0.024 C 
HETATM   10  C10 UNL     1     -35.765   7.007   2.932  1.00 20.00     0.015 C 
HETATM   11  C11 UNL     1     -35.194   5.409   4.752  1.00 20.00     0.015 C 
HETATM   12  O12 UNL     1     -30.963   6.174   1.544  1.00 20.00    -0.297 OA
ENDROOT
TORSDOF 0
ENDMDL
MODEL 2
REMARK VINA RESULT:       2.6      1.617      3.799
REMARK  0 active torsions:
REMARK  status: ('A' for Active; 'I' for Inactive)
ROOT
HETATM    1  C1  UNL     1     -33.685   7.439   3.715  1.00 20.00     0.135 C 
HETATM    2  C2  UNL     1     -33.155   7.849   2.365  1.00 20.00     0.080 C 
HETATM    3  C3  UNL     1     -32.035   6.934   1.884  1.00 20.00     0.016 C 
HETATM    4  C4  UNL     1     -34.593   5.212   4.644  1.00 20.00     0.023 A 
HETATM    5  C5  UNL     1     -32.938   4.683   2.733  1.00 20.00     0.014 C 
HETATM    6  C6  UNL     1     -34.334   5.014   3.177  1.00 20.00     0.003 A 
HETATM    7  C7  UNL     1     -34.740   6.384   3.695  1.00 20.00     0.021 A 
HETATM    8  C8  UNL     1     -32.429   5.479   1.505  1.00 20.00    -0.047 C 
HETATM    9  C9  UNL     1     -36.152   6.844   3.424  1.00 20.00     0.024 C 
HETATM   10  C10 UNL     1     -33.448   5.455   0.350  1.00 20.00     0.015 C 
HETATM   11  C11 UNL     1     -31.143   4.779   1.004  1.00 20.00     0.015 C 
HETATM   12  O12 UNL     1     -33.302   7.932   4.770  1.00 20.00    -0.297 OA
ENDROOT
TORSDOF 0
ENDMDL
MODEL 3
REMARK VINA RESULT:       3.9      1.463      3.562
REMARK  0 active torsions:
REMARK  status: ('A' for Active; 'I' for Inactive)
ROOT
HETATM    1  C1  UNL     1     -33.744   5.446   2.726  1.00 20.00     0.135 C 
HETATM    2  C2  UNL     1     -34.352   6.766   3.126  1.00 20.00     0.080 C 
HETATM    3  C3  UNL     1     -33.314   7.733   3.682  1.00 20.00     0.016 C 
HETATM    4  C4  UNL     1     -31.776   4.813   1.185  1.00 20.00     0.023 A 
HETATM    5  C5  UNL     1     -31.348   7.182   2.122  1.00 20.00     0.014 C 
HETATM    6  C6  UNL     1     -31.969   6.301   1.077  1.00 20.00     0.003 A 
HETATM    7  C7  UNL     1     -33.163   5.400   1.352  1.00 20.00     0.021 A 
HETATM    8  C8  UNL     1     -32.268   8.297   2.679  1.00 20.00    -0.047 C 
HETATM    9  C9  UNL     1     -34.128   5.153   0.217  1.00 20.00     0.024 C 
HETATM   10  C10 UNL     1     -32.946   9.092   1.548  1.00 20.00     0.015 C 
HETATM   11  C11 UNL     1     -31.373   9.282   3.467  1.00 20.00     0.015 C 
HETATM   12  O12 UNL     1     -33.727   4.461   3.454  1.00 20.00    -0.297 OA
ENDROOT
TORSDOF 0
ENDMDL
MODEL 4
REMARK VINA RESULT:       4.1      1.298      3.698
REMARK  0 active torsions:
REMARK  status: ('A' for Active; 'I' for Inactive)
ROOT
HETATM    1  C1  UNL     1     -33.278   5.487   1.711  1.00 20.00     0.135 C 
HETATM    2  C2  UNL     1     -31.917   6.054   1.393  1.00 20.00     0.080 C 
HETATM    3  C3  UNL     1     -31.983   7.528   1.012  1.00 20.00     0.016 C 
HETATM    4  C4  UNL     1     -35.149   6.211   3.329  1.00 20.00     0.023 A 
HETATM    5  C5  UNL     1     -33.797   8.306   2.657  1.00 20.00     0.014 C 
HETATM    6  C6  UNL     1     -33.977   7.123   3.563  1.00 20.00     0.003 A 
HETATM    7  C7  UNL     1     -33.743   5.689   3.114  1.00 20.00     0.021 A 
HETATM    8  C8  UNL     1     -32.354   8.531   2.141  1.00 20.00    -0.047 C 
HETATM    9  C9  UNL     1     -33.235   4.708   4.143  1.00 20.00     0.024 C 
HETATM   10  C10 UNL     1     -31.327   8.491   3.287  1.00 20.00     0.015 C 
HETATM   11  C11 UNL     1     -32.302   9.948   1.521  1.00 20.00     0.015 C 
HETATM   12  O12 UNL     1     -33.966   4.886   0.895  1.00 20.00    -0.297 OA
ENDROOT
TORSDOF 0
ENDMDL
MODEL 5
REMARK VINA RESULT:       4.4      1.974      3.552
REMARK  0 active torsions:
REMARK  status: ('A' for Active; 'I' for Inactive)
ROOT
HETATM    1  C1  UNL     1     -34.574   6.285   3.871  1.00 20.00     0.135 C 
HETATM    2  C2  UNL     1     -33.889   4.943   3.813  1.00 20.00     0.080 C 
HETATM    3  C3  UNL     1     -33.669   4.472   2.381  1.00 20.00     0.016 C 
HETATM    4  C4  UNL     1     -34.053   8.571   2.797  1.00 20.00     0.023 A 
HETATM    5  C5  UNL     1     -33.078   6.718   1.285  1.00 20.00     0.014 C 
HETATM    6  C6  UNL     1     -32.919   7.646   2.455  1.00 20.00     0.003 A 
HETATM    7  C7  UNL     1     -33.671   7.468   3.764  1.00 20.00     0.021 A 
HETATM    8  C8  UNL     1     -32.629   5.257   1.533  1.00 20.00    -0.047 C 
HETATM    9  C9  UNL     1     -32.980   7.909   5.033  1.00 20.00     0.024 C 
HETATM   10  C10 UNL     1     -31.226   5.192   2.164  1.00 20.00     0.015 C 
HETATM   11  C11 UNL     1     -32.550   4.558   0.155  1.00 20.00     0.015 C 
HETATM   12  O12 UNL     1     -35.783   6.422   4.010  1.00 20.00    -0.297 OA
ENDROOT
TORSDOF 0
ENDMDL
MODEL 6
REMARK VINA RESULT:       5.0      1.573      2.841
REMARK  0 active torsions:
REMARK  status: ('A' for Active; 'I' for Inactive)
ROOT
HETATM    1  C1  UNL     1     -33.791   4.932   2.900  1.00 20.00     0.135 C 
HETATM    2  C2  UNL     1     -34.925   5.638   3.600  1.00 20.00     0.080 C 
HETATM    3  C3  UNL     1     -34.428   6.658   4.617  1.00 20.00     0.016 C 
HETATM    4  C4  UNL     1     -31.727   5.778   1.608  1.00 20.00     0.023 A 
HETATM    5  C5  UNL     1     -32.401   7.578   3.333  1.00 20.00     0.014 C 
HETATM    6  C6  UNL     1     -32.556   6.980   1.965  1.00 20.00     0.003 A 
HETATM    7  C7  UNL     1     -33.232   5.642   1.713  1.00 20.00     0.021 A 
HETATM    8  C8  UNL     1     -33.726   7.927   4.056  1.00 20.00    -0.047 C 
HETATM    9  C9  UNL     1     -33.975   5.468   0.409  1.00 20.00     0.024 C 
HETATM   10  C10 UNL     1     -34.671   8.738   3.150  1.00 20.00     0.015 C 
HETATM   11  C11 UNL     1     -33.368   8.818   5.269  1.00 20.00     0.015 C 
HETATM   12  O12 UNL     1     -33.350   3.846   3.254  1.00 20.00    -0.297 OA
ENDROOT
TORSDOF 0
ENDMDL
MODEL 7
REMARK VINA RESULT:       5.3      2.352      3.662
REMARK  0 active torsions:
REMARK  status: ('A' for Active; 'I' for Inactive)
ROOT
HETATM    1  C1  UNL     1     -35.187   6.309   3.745  1.00 20.00     0.135 C 
HETATM    2  C2  UNL     1     -35.241   5.512   5.024  1.00 20.00     0.080 C 
HETATM    3  C3  UNL     1     -34.966   4.031   4.791  1.00 20.00     0.016 C 
HETATM    4  C4  UNL     1     -33.407   6.542   1.894  1.00 20.00     0.023 A 
HETATM    5  C5  UNL     1     -33.141   4.220   2.993  1.00 20.00     0.014 C 
HETATM    6  C6  UNL     1     -32.816   5.686   2.980  1.00 20.00     0.003 A 
HETATM    7  C7  UNL     1     -33.827   6.765   3.333  1.00 20.00     0.021 A 
HETATM    8  C8  UNL     1     -33.520   3.639   4.379  1.00 20.00    -0.047 C 
HETATM    9  C9  UNL     1     -33.307   8.022   3.988  1.00 20.00     0.024 C 
HETATM   10  C10 UNL     1     -32.499   4.039   5.461  1.00 20.00     0.015 C 
HETATM   11  C11 UNL     1     -33.487   2.097   4.257  1.00 20.00     0.015 C 
HETATM   12  O12 UNL     1     -36.177   6.588   3.080  1.00 20.00    -0.297 OA
ENDROOT
TORSDOF 0
ENDMDL
