MODEL 1
REMARK VINA RESULT:      -0.3      0.000      0.000
REMARK  0 active torsions:
REMARK  status: ('A' for Active; 'I' for Inactive)
ROOT
HETATM    1  C1  UNL     1     -31.604   7.586   1.262  1.00 20.00    -0.021 C 
HETATM    2  C2  UNL     1     -31.919   6.268   1.227  1.00 20.00    -0.021 C 
HETATM    3  C3  UNL     1     -32.096   8.498   3.705  1.00 20.00    -0.021 C 
HETATM    4  C4  UNL     1     -33.030   7.944   4.517  1.00 20.00    -0.021 C 
HETATM    5  C5  UNL     1     -33.813   5.143   2.873  1.00 20.00    -0.015 C 
HETATM    6  C6  UNL     1     -34.515   5.862   3.787  1.00 20.00    -0.079 C 
HETATM    7  C7  UNL     1     -32.462   8.379   2.243  1.00 20.00     0.036 C 
HETATM    8  C8  UNL     1     -32.718   6.021   2.435  1.00 20.00     0.036 C 
HETATM    9  C9  UNL     1     -34.191   7.357   3.746  1.00 20.00     0.042 C 
HETATM   10  C10 UNL     1     -33.531   7.333   2.395  1.00 20.00     0.020 C 
HETATM   11  C11 UNL     1     -35.586   5.349   4.681  1.00 20.00     0.044 C 
ENDROOT
TORSDOF 0
ENDMDL
MODEL 2
REMARK VINA RESULT:       0.2      0.899      3.915
REMARK  0 active torsions:
REMARK  status: ('A' for Active; 'I' for Inactive)
ROOT
HETATM    1  C1  UNL     1     -34.713   6.415   4.354  1.00 20.00    -0.021 C 
HETATM    2  C2  UNL     1     -34.102   7.614   4.515  1.00 20.00    -0.021 C 
HETATM    3  C3  UNL     1     -33.179   4.897   2.810  1.00 20.00    -0.021 C 
HETATM    4  C4  UNL     1     -32.325   5.416   1.894  1.00 20.00    -0.021 C 
HETATM    5  C5  UNL     1     -32.370   8.667   2.658  1.00 20.00    -0.015 C 
HETATM    6  C6  UNL     1     -32.057   8.032   1.499  1.00 20.00    -0.079 C 
HETATM    7  C7  UNL     1     -34.402   5.762   3.011  1.00 20.00     0.036 C 
HETATM    8  C8  UNL     1     -33.054   7.665   3.487  1.00 20.00     0.036 C 
HETATM    9  C9  UNL     1     -32.823   6.720   1.312  1.00 20.00     0.042 C 
HETATM   10  C10 UNL     1     -33.869   7.005   2.354  1.00 20.00     0.020 C 
HETATM   11  C11 UNL     1     -31.173   8.545   0.421  1.00 20.00     0.044 C 
ENDROOT
TORSDOF 0
ENDMDL
MODEL 3
REMARK VINA RESULT:       0.3      1.093      3.568
REMARK  0 active torsions:
REMARK  status: ('A' for Active; 'I' for Inactive)
ROOT
HETATM    1  C1  UNL     1     -34.692   7.644   4.438  1.00 20.00    -0.021 C 
HETATM    2  C2  UNL     1     -33.594   8.186   3.856  1.00 20.00    -0.021 C 
HETATM    3  C3  UNL     1     -34.436   5.003   4.408  1.00 20.00    -0.021 C 
HETATM    4  C4  UNL     1     -33.703   4.351   3.472  1.00 20.00    -0.021 C 
HETATM    5  C5  UNL     1     -32.107   6.865   1.958  1.00 20.00    -0.015 C 
HETATM    6  C6  UNL     1     -32.413   5.616   1.522  1.00 20.00    -0.079 C 
HETATM    7  C7  UNL     1     -35.054   6.274   3.872  1.00 20.00     0.036 C 
HETATM    8  C8  UNL     1     -32.931   7.078   3.157  1.00 20.00     0.036 C 
HETATM    9  C9  UNL     1     -33.701   5.065   2.140  1.00 20.00     0.042 C 
HETATM   10  C10 UNL     1     -34.211   6.391   2.633  1.00 20.00     0.020 C 
HETATM   11  C11 UNL     1     -31.697   4.848   0.469  1.00 20.00     0.044 C 
ENDROOT
TORSDOF 0
ENDMDL
MODEL 4
REMARK VINA RESULT:       0.5      0.728      2.416
REMARK  0 active torsions:
REMARK  status: ('A' for Active; 'I' for Inactive)
ROOT
HETATM    1  C1  UNL     1     -31.553   8.012   1.415  1.00 20.00    -0.021 C 
HETATM    2  C2  UNL     1     -32.371   8.683   2.262  1.00 20.00    -0.021 C 
HETATM    3  C3  UNL     1     -32.799   5.809   0.619  1.00 20.00    -0.021 C 
HETATM    4  C4  UNL     1     -33.744   5.192   1.371  1.00 20.00    -0.021 C 
HETATM    5  C5  UNL     1     -34.286   7.433   3.788  1.00 20.00    -0.015 C 
HETATM    6  C6  UNL     1     -34.489   6.090   3.760  1.00 20.00    -0.079 C 
HETATM    7  C7  UNL     1     -31.753   6.501   1.463  1.00 20.00     0.036 C 
HETATM    8  C8  UNL     1     -33.421   7.727   2.637  1.00 20.00     0.036 C 
HETATM    9  C9  UNL     1     -33.498   5.355   2.854  1.00 20.00     0.042 C 
HETATM   10  C10 UNL     1     -32.511   6.486   2.761  1.00 20.00     0.020 C 
HETATM   11  C11 UNL     1     -35.464   5.327   4.582  1.00 20.00     0.044 C 
ENDROOT
TORSDOF 0
ENDMDL
MODEL 5
REMARK VINA RESULT:       0.5      1.073      3.417
REMARK  0 active torsions:
REMARK  status: ('A' for Active; 'I' for Inactive)
ROOT
HETATM    1  C1  UNL     1     -34.233   4.168   4.082  1.00 20.00    -0.021 C 
HETATM    2  C2  UNL     1     -33.437   4.013   2.996  1.00 20.00    -0.021 C 
HETATM    3  C3  UNL     1     -35.489   6.495   3.873  1.00 20.00    -0.021 C 
HETATM    4  C4  UNL     1     -34.975   7.544   3.184  1.00 20.00    -0.021 C 
HETATM    5  C5  UNL     1     -32.393   6.137   1.598  1.00 20.00    -0.015 C 
HETATM    6  C6  UNL     1     -32.628   7.431   1.940  1.00 20.00    -0.079 C 
HETATM    7  C7  UNL     1     -34.415   5.627   4.486  1.00 20.00     0.036 C 
HETATM    8  C8  UNL     1     -33.353   5.342   2.376  1.00 20.00     0.036 C 
HETATM    9  C9  UNL     1     -33.464   7.569   3.215  1.00 20.00     0.042 C 
HETATM   10  C10 UNL     1     -33.258   6.155   3.685  1.00 20.00     0.020 C 
HETATM   11  C11 UNL     1     -32.068   8.636   1.274  1.00 20.00     0.044 C 
ENDROOT
TORSDOF 0
ENDMDL
MODEL 6
REMARK VINA RESULT:       0.8      1.030      3.126
REMARK  0 active torsions:
REMARK  status: ('A' for Active; 'I' for Inactive)
ROOT
HETATM    1  C1  UNL     1     -34.059   8.019   4.117  1.00 20.00    -0.021 C 
HETATM    2  C2  UNL     1     -34.587   6.810   3.803  1.00 20.00    -0.021 C 
HETATM    3  C3  UNL     1     -32.701   8.908   2.018  1.00 20.00    -0.021 C 
HETATM    4  C4  UNL     1     -32.141   8.077   1.104  1.00 20.00    -0.021 C 
HETATM    5  C5  UNL     1     -33.453   5.124   1.952  1.00 20.00    -0.015 C 
HETATM    6  C6  UNL     1     -32.314   5.429   1.277  1.00 20.00    -0.079 C 
HETATM    7  C7  UNL     1     -32.742   8.300   3.400  1.00 20.00     0.036 C 
HETATM    8  C8  UNL     1     -33.884   6.376   2.588  1.00 20.00     0.036 C 
HETATM    9  C9  UNL     1     -31.703   6.764   1.711  1.00 20.00     0.042 C 
HETATM   10  C10 UNL     1     -32.480   6.876   2.993  1.00 20.00     0.020 C 
HETATM   11  C11 UNL     1     -31.607   4.562   0.298  1.00 20.00     0.044 C 
ENDROOT
TORSDOF 0
ENDMDL
MODEL 7
REMARK VINA RESULT:       1.2      1.370      2.926
REMARK  0 active torsions:
REMARK  status: ('A' for Active; 'I' for Inactive)
ROOT
HETATM    1  C1  UNL     1     -34.117   8.106   3.092  1.00 20.00    -0.021 C 
HETATM    2  C2  UNL     1     -34.989   7.439   3.888  1.00 20.00    -0.021 C 
HETATM    3  C3  UNL     1     -33.024   6.368   1.411  1.00 20.00    -0.021 C 
HETATM    4  C4  UNL     1     -32.889   5.052   1.707  1.00 20.00    -0.021 C 
HETATM    5  C5  UNL     1     -34.716   4.770   4.489  1.00 20.00    -0.015 C 
HETATM    6  C6  UNL     1     -33.695   4.009   4.016  1.00 20.00    -0.079 C 
HETATM    7  C7  UNL     1     -32.942   7.245   2.639  1.00 20.00     0.036 C 
HETATM    8  C8  UNL     1     -34.677   6.015   3.709  1.00 20.00     0.036 C 
HETATM    9  C9  UNL     1     -32.689   4.810   3.186  1.00 20.00     0.042 C 
HETATM   10  C10 UNL     1     -33.140   6.162   3.663  1.00 20.00     0.020 C 
HETATM   11  C11 UNL     1     -33.443   2.577   4.326  1.00 20.00     0.044 C 
ENDROOT
TORSDOF 0
ENDMDL
MODEL 8
REMARK VINA RESULT:       2.6      0.969      2.019
REMARK  0 active torsions:
REMARK  status: ('A' for Active; 'I' for Inactive)
ROOT
HETATM    1  C1  UNL     1     -32.460   5.357   0.601  1.00 20.00    -0.021 C 
HETATM    2  C2  UNL     1     -33.121   4.753   1.619  1.00 20.00    -0.021 C 
HETATM    3  C3  UNL     1     -31.215   7.493   1.565  1.00 20.00    -0.021 C 
HETATM    4  C4  UNL     1     -31.657   8.166   2.656  1.00 20.00    -0.021 C 
HETATM    5  C5  UNL     1     -34.018   6.116   3.831  1.00 20.00    -0.015 C 
HETATM    6  C6  UNL     1     -33.840   7.452   3.995  1.00 20.00    -0.079 C 
HETATM    7  C7  UNL     1     -32.344   6.868   0.778  1.00 20.00     0.036 C 
HETATM    8  C8  UNL     1     -33.147   5.735   2.711  1.00 20.00     0.036 C 
HETATM    9  C9  UNL     1     -33.162   8.116   2.794  1.00 20.00     0.042 C 
HETATM   10  C10 UNL     1     -33.404   6.982   1.837  1.00 20.00     0.020 C 
HETATM   11  C11 UNL     1     -34.332   8.276   5.131  1.00 20.00     0.044 C 
ENDROOT
TORSDOF 0
ENDMDL
MODEL 9
REMARK VINA RESULT:       2.6      0.994      1.117
REMARK  0 active torsions:
REMARK  status: ('A' for Active; 'I' for Inactive)
ROOT
HETATM    1  C1  UNL     1     -32.648   8.234   1.297  1.00 20.00    -0.021 C 
HETATM    2  C2  UNL     1     -32.246   6.971   1.009  1.00 20.00    -0.021 C 
HETATM    3  C3  UNL     1     -33.015   8.415   3.919  1.00 20.00    -0.021 C 
HETATM    4  C4  UNL     1     -33.342   7.346   4.686  1.00 20.00    -0.021 C 
HETATM    5  C5  UNL     1     -32.909   4.804   2.564  1.00 20.00    -0.015 C 
HETATM    6  C6  UNL     1     -33.671   4.906   3.683  1.00 20.00    -0.079 C 
HETATM    7  C7  UNL     1     -33.564   8.305   2.515  1.00 20.00     0.036 C 
HETATM    8  C8  UNL     1     -32.535   6.181   2.213  1.00 20.00     0.036 C 
HETATM    9  C9  UNL     1     -34.173   6.329   3.936  1.00 20.00     0.042 C 
HETATM   10  C10 UNL     1     -33.890   6.838   2.549  1.00 20.00     0.020 C 
HETATM   11  C11 UNL     1     -34.116   3.786   4.554  1.00 20.00     0.044 C 
ENDROOT
TORSDOF 0
ENDMDL
