MODEL 1
REMARK VINA RESULT:       2.2      0.000      0.000
REMARK  1 active torsions:
REMARK  status: ('A' for Active; 'I' for Inactive)
REMARK    1  A    between atoms: C8_8  and  O12_12 
ROOT
HETATM    1  C1  UNL     1     -33.558   7.519   3.800  1.00 20.00    -0.049 C 
HETATM    2  C2  UNL     1     -32.348   8.233   1.657  1.00 20.00     0.135 C 
HETATM    3  C3  UNL     1     -33.210   8.384   4.754  1.00 20.00     0.017 C 
HETATM    4  C4  UNL     1     -31.270   7.319   1.102  1.00 20.00     0.079 C 
HETATM    5  C5  UNL     1     -31.789   5.922   0.778  1.00 20.00     0.008 C 
HETATM    6  C6  UNL     1     -32.426   5.288   2.010  1.00 20.00     0.009 C 
HETATM    7  C7  UNL     1     -33.607   7.594   2.286  1.00 20.00     0.092 C 
HETATM    8  C8  UNL     1     -34.081   6.095   3.859  1.00 20.00     0.155 C 
HETATM    9  C9  UNL     1     -33.710   6.046   2.351  1.00 20.00     0.034 C 
HETATM   10  O11 UNL     1     -32.167   9.457   1.622  1.00 20.00    -0.297 OA
ENDROOT
BRANCH   8  11
HETATM   11  O12 UNL     1     -35.483   5.996   4.167  1.00 20.00    -0.386 OA
HETATM   12  C10 UNL     1     -35.748   4.844   4.946  1.00 20.00     0.202 C 
ENDBRANCH   8  11
TORSDOF 1
ENDMDL
MODEL 2
REMARK VINA RESULT:       2.3      1.208      4.498
REMARK  1 active torsions:
REMARK  status: ('A' for Active; 'I' for Inactive)
REMARK    1  A    between atoms: C8_8  and  O12_12 
ROOT
HETATM    1  C1  UNL     1     -32.724   6.731   1.754  1.00 20.00    -0.049 C 
HETATM    2  C2  UNL     1     -34.318   6.851   3.757  1.00 20.00     0.135 C 
HETATM    3  C3  UNL     1     -32.636   5.447   1.399  1.00 20.00     0.017 C 
HETATM    4  C4  UNL     1     -33.749   7.252   5.105  1.00 20.00     0.079 C 
HETATM    5  C5  UNL     1     -33.090   8.628   5.082  1.00 20.00     0.008 C 
HETATM    6  C6  UNL     1     -31.998   8.682   4.019  1.00 20.00     0.009 C 
HETATM    7  C7  UNL     1     -33.773   7.544   2.488  1.00 20.00     0.092 C 
HETATM    8  C8  UNL     1     -31.798   7.912   1.533  1.00 20.00     0.155 C 
HETATM    9  C9  UNL     1     -32.647   8.603   2.636  1.00 20.00     0.034 C 
HETATM   10  O11 UNL     1     -35.172   5.955   3.713  1.00 20.00    -0.297 OA
ENDROOT
BRANCH   8  11
HETATM   11  O12 UNL     1     -31.884   8.488   0.217  1.00 20.00    -0.386 OA
HETATM   12  C10 UNL     1     -32.218   9.862   0.289  1.00 20.00     0.202 C 
ENDBRANCH   8  11
TORSDOF 1
ENDMDL
MODEL 3
REMARK VINA RESULT:       2.3      1.910      4.021
REMARK  1 active torsions:
REMARK  status: ('A' for Active; 'I' for Inactive)
REMARK    1  A    between atoms: C8_8  and  O12_12 
ROOT
HETATM    1  C1  UNL     1     -33.226   4.829   2.739  1.00 20.00    -0.049 C 
HETATM    2  C2  UNL     1     -34.559   6.752   3.783  1.00 20.00     0.135 C 
HETATM    3  C3  UNL     1     -33.294   3.800   3.586  1.00 20.00     0.017 C 
HETATM    4  C4  UNL     1     -33.803   7.990   4.232  1.00 20.00     0.079 C 
HETATM    5  C5  UNL     1     -33.033   8.656   3.095  1.00 20.00     0.008 C 
HETATM    6  C6  UNL     1     -32.073   7.666   2.447  1.00 20.00     0.009 C 
HETATM    7  C7  UNL     1     -34.107   6.038   2.489  1.00 20.00     0.092 C 
HETATM    8  C8  UNL     1     -32.232   5.186   1.650  1.00 20.00     0.155 C 
HETATM    9  C9  UNL     1     -32.882   6.595   1.713  1.00 20.00     0.034 C 
HETATM   10  O11 UNL     1     -35.488   6.334   4.486  1.00 20.00    -0.297 OA
ENDROOT
BRANCH   8  11
HETATM   11  O12 UNL     1     -32.420   4.459   0.422  1.00 20.00    -0.386 OA
HETATM   12  C10 UNL     1     -31.191   3.940  -0.050  1.00 20.00     0.202 C 
ENDBRANCH   8  11
TORSDOF 1
ENDMDL
MODEL 4
REMARK VINA RESULT:       2.4      1.346      4.501
REMARK  1 active torsions:
REMARK  status: ('A' for Active; 'I' for Inactive)
REMARK    1  A    between atoms: C8_8  and  O12_12 
ROOT
HETATM    1  C1  UNL     1     -32.026   6.360   1.696  1.00 20.00    -0.049 C 
HETATM    2  C2  UNL     1     -33.928   5.170   2.934  1.00 20.00     0.135 C 
HETATM    3  C3  UNL     1     -31.041   5.471   1.543  1.00 20.00     0.017 C 
HETATM    4  C4  UNL     1     -34.261   5.622   4.345  1.00 20.00     0.079 C 
HETATM    5  C5  UNL     1     -34.645   7.096   4.417  1.00 20.00     0.008 C 
HETATM    6  C6  UNL     1     -33.537   7.969   3.839  1.00 20.00     0.009 C 
HETATM    7  C7  UNL     1     -33.525   6.238   1.892  1.00 20.00     0.092 C 
HETATM    8  C8  UNL     1     -32.034   7.877   1.708  1.00 20.00     0.155 C 
HETATM    9  C9  UNL     1     -33.448   7.725   2.331  1.00 20.00     0.034 C 
HETATM   10  O11 UNL     1     -33.954   3.960   2.674  1.00 20.00    -0.297 OA
ENDROOT
BRANCH   8  11
HETATM   11  O12 UNL     1     -31.981   8.475   0.400  1.00 20.00    -0.386 OA
HETATM   12  C10 UNL     1     -32.300   9.852   0.462  1.00 20.00     0.202 C 
ENDBRANCH   8  11
TORSDOF 1
ENDMDL
MODEL 5
REMARK VINA RESULT:       3.4      1.670      3.041
REMARK  1 active torsions:
REMARK  status: ('A' for Active; 'I' for Inactive)
REMARK    1  A    between atoms: C8_8  and  O12_12 
ROOT
HETATM    1  C1  UNL     1     -33.174   5.385   1.795  1.00 20.00    -0.049 C 
HETATM    2  C2  UNL     1     -32.559   7.854   2.096  1.00 20.00     0.135 C 
HETATM    3  C3  UNL     1     -33.190   5.142   0.483  1.00 20.00     0.017 C 
HETATM    4  C4  UNL     1     -33.613   8.794   2.654  1.00 20.00     0.079 C 
HETATM    5  C5  UNL     1     -34.108   8.372   4.034  1.00 20.00     0.008 C 
HETATM    6  C6  UNL     1     -34.649   6.947   3.997  1.00 20.00     0.009 C 
HETATM    7  C7  UNL     1     -32.476   6.418   2.659  1.00 20.00     0.092 C 
HETATM    8  C8  UNL     1     -33.841   4.689   2.967  1.00 20.00     0.155 C 
HETATM    9  C9  UNL     1     -33.488   5.981   3.754  1.00 20.00     0.034 C 
HETATM   10  O11 UNL     1     -31.826   8.256   1.182  1.00 20.00    -0.297 OA
ENDROOT
BRANCH   8  11
HETATM   11  O12 UNL     1     -33.174   3.488   3.394  1.00 20.00    -0.386 OA
HETATM   12  C10 UNL     1     -33.532   3.158   4.723  1.00 20.00     0.202 C 
ENDBRANCH   8  11
TORSDOF 1
ENDMDL
MODEL 6
REMARK VINA RESULT:       3.6      1.941      3.650
REMARK  1 active torsions:
REMARK  status: ('A' for Active; 'I' for Inactive)
REMARK    1  A    between atoms: C8_8  and  O12_12 
ROOT
HETATM    1  C1  UNL     1     -32.346   7.330   1.685  1.00 20.00    -0.049 C 
HETATM    2  C2  UNL     1     -32.729   8.064   4.110  1.00 20.00     0.135 C 
HETATM    3  C3  UNL     1     -31.883   8.392   1.022  1.00 20.00     0.017 C 
HETATM    4  C4  UNL     1     -34.155   8.119   4.627  1.00 20.00     0.079 C 
HETATM    5  C5  UNL     1     -34.868   6.773   4.537  1.00 20.00     0.008 C 
HETATM    6  C6  UNL     1     -34.853   6.253   3.104  1.00 20.00     0.009 C 
HETATM    7  C7  UNL     1     -32.336   6.922   3.146  1.00 20.00     0.092 C 
HETATM    8  C8  UNL     1     -33.056   6.072   1.222  1.00 20.00     0.155 C 
HETATM    9  C9  UNL     1     -33.417   5.892   2.721  1.00 20.00     0.034 C 
HETATM   10  O11 UNL     1     -31.938   8.955   4.447  1.00 20.00    -0.297 OA
ENDROOT
BRANCH   8  11
HETATM   11  O12 UNL     1     -32.181   5.076   0.659  1.00 20.00    -0.386 OA
HETATM   12  C10 UNL     1     -32.898   4.193  -0.183  1.00 20.00     0.202 C 
ENDBRANCH   8  11
TORSDOF 1
ENDMDL
MODEL 7
REMARK VINA RESULT:       3.9      1.617      4.170
REMARK  1 active torsions:
REMARK  status: ('A' for Active; 'I' for Inactive)
REMARK    1  A    between atoms: C8_8  and  O12_12 
ROOT
HETATM    1  C1  UNL     1     -32.756   8.809   1.784  1.00 20.00    -0.049 C 
HETATM    2  C2  UNL     1     -33.605   7.585   3.869  1.00 20.00     0.135 C 
HETATM    3  C3  UNL     1     -33.406   9.973   1.721  1.00 20.00     0.017 C 
HETATM    4  C4  UNL     1     -34.411   6.313   3.678  1.00 20.00     0.079 C 
HETATM    5  C5  UNL     1     -33.645   5.239   2.911  1.00 20.00     0.008 C 
HETATM    6  C6  UNL     1     -33.183   5.771   1.559  1.00 20.00     0.009 C 
HETATM    7  C7  UNL     1     -32.419   7.859   2.917  1.00 20.00     0.092 C 
HETATM    8  C8  UNL     1     -32.061   7.974   0.725  1.00 20.00     0.155 C 
HETATM    9  C9  UNL     1     -32.113   6.840   1.785  1.00 20.00     0.034 C 
HETATM   10  O11 UNL     1     -33.945   8.378   4.756  1.00 20.00    -0.297 OA
ENDROOT
BRANCH   8  11
HETATM   11  O12 UNL     1     -30.749   8.447   0.372  1.00 20.00    -0.386 OA
HETATM   12  C10 UNL     1     -30.779   9.145  -0.859  1.00 20.00     0.202 C 
ENDBRANCH   8  11
TORSDOF 1
ENDMDL
MODEL 8
REMARK VINA RESULT:       4.1      1.767      3.105
REMARK  1 active torsions:
REMARK  status: ('A' for Active; 'I' for Inactive)
REMARK    1  A    between atoms: C8_8  and  O12_12 
ROOT
HETATM    1  C1  UNL     1     -32.790   6.872   1.581  1.00 20.00    -0.049 C 
HETATM    2  C2  UNL     1     -31.354   8.607   0.359  1.00 20.00     0.135 C 
HETATM    3  C3  UNL     1     -32.786   5.764   0.835  1.00 20.00     0.017 C 
HETATM    4  C4  UNL     1     -32.039   9.838  -0.206  1.00 20.00     0.079 C 
HETATM    5  C5  UNL     1     -32.764  10.652   0.862  1.00 20.00     0.008 C 
HETATM    6  C6  UNL     1     -33.777   9.785   1.601  1.00 20.00     0.009 C 
HETATM    7  C7  UNL     1     -31.840   8.046   1.715  1.00 20.00     0.092 C 
HETATM    8  C8  UNL     1     -33.756   7.388   2.631  1.00 20.00     0.155 C 
HETATM    9  C9  UNL     1     -33.026   8.744   2.434  1.00 20.00     0.034 C 
HETATM   10  O11 UNL     1     -30.454   8.070  -0.301  1.00 20.00    -0.297 OA
ENDROOT
BRANCH   8  11
HETATM   11  O12 UNL     1     -33.605   6.771   3.922  1.00 20.00    -0.386 OA
HETATM   12  C10 UNL     1     -34.798   6.118   4.313  1.00 20.00     0.202 C 
ENDBRANCH   8  11
TORSDOF 1
ENDMDL
MODEL 9
REMARK VINA RESULT:       4.6      1.498      2.844
REMARK  1 active torsions:
REMARK  status: ('A' for Active; 'I' for Inactive)
REMARK    1  A    between atoms: C8_8  and  O12_12 
ROOT
HETATM    1  C1  UNL     1     -32.981   6.074   1.527  1.00 20.00    -0.049 C 
HETATM    2  C2  UNL     1     -31.705   8.175   0.805  1.00 20.00     0.135 C 
HETATM    3  C3  UNL     1     -33.052   5.273   0.462  1.00 20.00     0.017 C 
HETATM    4  C4  UNL     1     -32.459   9.491   0.751  1.00 20.00     0.079 C 
HETATM    5  C5  UNL     1     -33.066   9.878   2.096  1.00 20.00     0.008 C 
HETATM    6  C6  UNL     1     -33.983   8.774   2.609  1.00 20.00     0.009 C 
HETATM    7  C7  UNL     1     -32.032   7.181   1.942  1.00 20.00     0.092 C 
HETATM    8  C8  UNL     1     -33.828   6.175   2.782  1.00 20.00     0.155 C 
HETATM    9  C9  UNL     1     -33.136   7.552   2.969  1.00 20.00     0.034 C 
HETATM   10  O11 UNL     1     -30.880   7.924  -0.084  1.00 20.00    -0.297 OA
ENDROOT
BRANCH   8  11
HETATM   11  O12 UNL     1     -33.528   5.177   3.775  1.00 20.00    -0.386 OA
HETATM   12  C10 UNL     1     -34.714   4.686   4.371  1.00 20.00     0.202 C 
ENDBRANCH   8  11
TORSDOF 1
ENDMDL
