MODEL 1
REMARK VINA RESULT:      -2.1      0.000      0.000
REMARK  1 active torsions:
REMARK  status: ('A' for Active; 'I' for Inactive)
REMARK    1  A    between atoms: C2_2  and  C3_3 
ROOT
HETATM    1  C1  UNL     1     -33.760   6.558   3.012  1.00 20.00     0.105 C 
HETATM    2  C2  UNL     1     -32.767   6.719   2.131  1.00 20.00     0.036 C 
HETATM    3 CL4  UNL     1     -34.223   7.703   4.199  1.00 20.00    -0.096 Cl
HETATM    4 CL5  UNL     1     -32.446   5.432   1.005  1.00 20.00    -0.087 Cl
ENDROOT
BRANCH   2   5
HETATM    5  C3  UNL     1     -31.841   7.891   2.025  1.00 20.00     0.166 C 
HETATM    6 CL6  UNL     1     -32.429   9.036   0.799  1.00 20.00    -0.125 Cl
ENDBRANCH   2   5
TORSDOF 1
ENDMDL
MODEL 2
REMARK VINA RESULT:      -2.0      1.347      2.406
REMARK  1 active torsions:
REMARK  status: ('A' for Active; 'I' for Inactive)
REMARK    1  A    between atoms: C2_2  and  C3_3 
ROOT
HETATM    1  C1  UNL     1     -34.029   7.238   3.558  1.00 20.00     0.105 C 
HETATM    2  C2  UNL     1     -33.213   6.934   2.543  1.00 20.00     0.036 C 
HETATM    3 CL4  UNL     1     -35.287   6.236   4.148  1.00 20.00    -0.096 Cl
HETATM    4 CL5  UNL     1     -31.996   8.092   2.087  1.00 20.00    -0.087 Cl
ENDROOT
BRANCH   2   5
HETATM    5  C3  UNL     1     -33.252   5.699   1.698  1.00 20.00     0.166 C 
HETATM    6 CL6  UNL     1     -31.619   5.284   1.131  1.00 20.00    -0.125 Cl
ENDBRANCH   2   5
TORSDOF 1
ENDMDL
MODEL 3
REMARK VINA RESULT:      -1.8      1.642      4.006
REMARK  1 active torsions:
REMARK  status: ('A' for Active; 'I' for Inactive)
REMARK    1  A    between atoms: C2_2  and  C3_3 
ROOT
HETATM    1  C1  UNL     1     -33.014   6.931   2.632  1.00 20.00     0.105 C 
HETATM    2  C2  UNL     1     -33.909   6.936   3.627  1.00 20.00     0.036 C 
HETATM    3 CL4  UNL     1     -32.942   5.769   1.375  1.00 20.00    -0.096 Cl
HETATM    4 CL5  UNL     1     -33.814   8.202   4.816  1.00 20.00    -0.087 Cl
ENDROOT
BRANCH   2   5
HETATM    5  C3  UNL     1     -34.987   5.926   3.870  1.00 20.00     0.166 C 
HETATM    6 CL6  UNL     1     -34.278   4.335   4.225  1.00 20.00    -0.125 Cl
ENDBRANCH   2   5
TORSDOF 1
ENDMDL
MODEL 4
REMARK VINA RESULT:      -1.8      1.191      2.963
REMARK  1 active torsions:
REMARK  status: ('A' for Active; 'I' for Inactive)
REMARK    1  A    between atoms: C2_2  and  C3_3 
ROOT
HETATM    1  C1  UNL     1     -32.169   8.550   0.649  1.00 20.00     0.105 C 
HETATM    2  C2  UNL     1     -32.256   7.749   1.717  1.00 20.00     0.036 C 
HETATM    3 CL4  UNL     1     -32.481  10.234   0.649  1.00 20.00    -0.096 Cl
HETATM    4 CL5  UNL     1     -31.904   6.058   1.512  1.00 20.00    -0.087 Cl
ENDROOT
BRANCH   2   5
HETATM    5  C3  UNL     1     -32.676   8.140   3.100  1.00 20.00     0.166 C 
HETATM    6 CL6  UNL     1     -34.062   7.159   3.627  1.00 20.00    -0.125 Cl
ENDBRANCH   2   5
TORSDOF 1
ENDMDL
MODEL 5
REMARK VINA RESULT:      -1.7      2.031      3.767
REMARK  1 active torsions:
REMARK  status: ('A' for Active; 'I' for Inactive)
REMARK    1  A    between atoms: C2_2  and  C3_3 
ROOT
HETATM    1  C1  UNL     1     -33.349   7.535   2.843  1.00 20.00     0.105 C 
HETATM    2  C2  UNL     1     -33.874   6.362   3.215  1.00 20.00     0.036 C 
HETATM    3 CL4  UNL     1     -31.915   7.730   1.926  1.00 20.00    -0.096 Cl
HETATM    4 CL5  UNL     1     -35.339   6.373   4.153  1.00 20.00    -0.087 Cl
ENDROOT
BRANCH   2   5
HETATM    5  C3  UNL     1     -33.308   5.002   2.950  1.00 20.00     0.166 C 
HETATM    6 CL6  UNL     1     -33.868   3.847   4.180  1.00 20.00    -0.125 Cl
ENDBRANCH   2   5
TORSDOF 1
ENDMDL
MODEL 6
REMARK VINA RESULT:      -1.7      0.598      2.578
REMARK  1 active torsions:
REMARK  status: ('A' for Active; 'I' for Inactive)
REMARK    1  A    between atoms: C2_2  and  C3_3 
ROOT
HETATM    1  C1  UNL     1     -33.056   5.854   1.976  1.00 20.00     0.105 C 
HETATM    2  C2  UNL     1     -32.897   7.068   2.515  1.00 20.00     0.036 C 
HETATM    3 CL4  UNL     1     -32.051   5.171   0.768  1.00 20.00    -0.096 Cl
HETATM    4 CL5  UNL     1     -34.031   7.587   3.728  1.00 20.00    -0.087 Cl
ENDROOT
BRANCH   2   5
HETATM    5  C3  UNL     1     -31.855   8.081   2.156  1.00 20.00     0.166 C 
HETATM    6 CL6  UNL     1     -32.415   9.095   0.807  1.00 20.00    -0.125 Cl
ENDBRANCH   2   5
TORSDOF 1
ENDMDL
MODEL 7
REMARK VINA RESULT:      -1.7      1.723      3.094
REMARK  1 active torsions:
REMARK  status: ('A' for Active; 'I' for Inactive)
REMARK    1  A    between atoms: C2_2  and  C3_3 
ROOT
HETATM    1  C1  UNL     1     -32.888   6.084   2.297  1.00 20.00     0.105 C 
HETATM    2  C2  UNL     1     -33.797   5.972   3.273  1.00 20.00     0.036 C 
HETATM    3 CL4  UNL     1     -32.363   7.559   1.601  1.00 20.00    -0.096 Cl
HETATM    4 CL5  UNL     1     -34.203   4.380   3.843  1.00 20.00    -0.087 Cl
ENDROOT
BRANCH   2   5
HETATM    5  C3  UNL     1     -34.561   7.085   3.921  1.00 20.00     0.166 C 
HETATM    6 CL6  UNL     1     -33.476   8.086   4.912  1.00 20.00    -0.125 Cl
ENDBRANCH   2   5
TORSDOF 1
ENDMDL
MODEL 8
REMARK VINA RESULT:      -1.6      2.017      2.951
REMARK  1 active torsions:
REMARK  status: ('A' for Active; 'I' for Inactive)
REMARK    1  A    between atoms: C2_2  and  C3_3 
ROOT
HETATM    1  C1  UNL     1     -34.223   5.017   4.254  1.00 20.00     0.105 C 
HETATM    2  C2  UNL     1     -33.914   6.022   3.427  1.00 20.00     0.036 C 
HETATM    3 CL4  UNL     1     -33.693   3.397   4.082  1.00 20.00    -0.096 Cl
HETATM    4 CL5  UNL     1     -34.558   7.601   3.770  1.00 20.00    -0.087 Cl
ENDROOT
BRANCH   2   5
HETATM    5  C3  UNL     1     -33.089   5.937   2.180  1.00 20.00     0.166 C 
HETATM    6 CL6  UNL     1     -32.266   7.483   1.875  1.00 20.00    -0.125 Cl
ENDBRANCH   2   5
TORSDOF 1
ENDMDL
MODEL 9
REMARK VINA RESULT:      -1.4      1.889      3.279
REMARK  1 active torsions:
REMARK  status: ('A' for Active; 'I' for Inactive)
REMARK    1  A    between atoms: C2_2  and  C3_3 
ROOT
HETATM    1  C1  UNL     1     -33.291   7.442   3.554  1.00 20.00     0.105 C 
HETATM    2  C2  UNL     1     -33.677   6.228   3.144  1.00 20.00     0.036 C 
HETATM    3 CL4  UNL     1     -33.757   8.181   5.027  1.00 20.00    -0.096 Cl
HETATM    4 CL5  UNL     1     -33.099   5.653   1.607  1.00 20.00    -0.087 Cl
ENDROOT
BRANCH   2   5
HETATM    5  C3  UNL     1     -34.612   5.297   3.852  1.00 20.00     0.166 C 
HETATM    6 CL6  UNL     1     -33.793   3.764   4.228  1.00 20.00    -0.125 Cl
ENDBRANCH   2   5
TORSDOF 1
ENDMDL
