MODEL 1
REMARK VINA RESULT:      -0.2      0.000      0.000
REMARK  0 active torsions:
REMARK  status: ('A' for Active; 'I' for Inactive)
ROOT
HETATM    1  C1  UNL     1     -31.739   6.807   1.615  1.00 20.00    -0.021 C 
HETATM    2  C2  UNL     1     -31.916   8.473   3.476  1.00 20.00    -0.021 C 
HETATM    3  C3  UNL     1     -32.524   5.725   1.704  1.00 20.00    -0.023 C 
HETATM    4  C4  UNL     1     -32.784   8.189   4.456  1.00 20.00    -0.023 C 
HETATM    5  C5  UNL     1     -32.396   8.065   2.112  1.00 20.00     0.035 C 
HETATM    6  C6  UNL     1     -33.846   6.079   2.273  1.00 20.00     0.033 A 
HETATM    7  C7  UNL     1     -34.000   7.543   3.908  1.00 20.00     0.033 A 
HETATM    8  C8  UNL     1     -33.847   7.618   2.375  1.00 20.00     0.015 A 
HETATM    9  C9  UNL     1     -33.977   5.993   3.817  1.00 20.00     0.098 A 
HETATM   10 CL10 UNL     1     -35.408   5.107   4.475  1.00 20.00    -0.124 Cl
ENDROOT
TORSDOF 0
ENDMDL
MODEL 2
REMARK VINA RESULT:       0.8      1.972      3.372
REMARK  0 active torsions:
REMARK  status: ('A' for Active; 'I' for Inactive)
ROOT
HETATM    1  C1  UNL     1     -33.914   7.675   4.285  1.00 20.00    -0.021 C 
HETATM    2  C2  UNL     1     -34.763   5.330   4.508  1.00 20.00    -0.021 C 
HETATM    3  C3  UNL     1     -32.909   7.868   3.420  1.00 20.00    -0.023 C 
HETATM    4  C4  UNL     1     -34.165   4.400   3.751  1.00 20.00    -0.023 C 
HETATM    5  C5  UNL     1     -34.917   6.656   3.819  1.00 20.00     0.035 C 
HETATM    6  C6  UNL     1     -33.075   7.012   2.222  1.00 20.00     0.033 A 
HETATM    7  C7  UNL     1     -33.821   4.951   2.419  1.00 20.00     0.033 A 
HETATM    8  C8  UNL     1     -34.461   6.353   2.378  1.00 20.00     0.015 A 
HETATM    9  C9  UNL     1     -32.419   5.606   2.285  1.00 20.00     0.098 A 
HETATM   10 CL10 UNL     1     -31.406   5.104   0.875  1.00 20.00    -0.124 Cl
ENDROOT
TORSDOF 0
ENDMDL
MODEL 3
REMARK VINA RESULT:       0.9      2.177      3.622
REMARK  0 active torsions:
REMARK  status: ('A' for Active; 'I' for Inactive)
ROOT
HETATM    1  C1  UNL     1     -34.271   7.051   4.783  1.00 20.00    -0.021 C 
HETATM    2  C2  UNL     1     -33.782   4.923   3.557  1.00 20.00    -0.021 C 
HETATM    3  C3  UNL     1     -33.653   8.154   4.339  1.00 20.00    -0.023 C 
HETATM    4  C4  UNL     1     -32.929   5.007   2.526  1.00 20.00    -0.023 C 
HETATM    5  C5  UNL     1     -34.688   6.115   3.683  1.00 20.00     0.035 C 
HETATM    6  C6  UNL     1     -33.557   8.143   2.860  1.00 20.00     0.033 A 
HETATM    7  C7  UNL     1     -33.128   6.274   1.783  1.00 20.00     0.033 A 
HETATM    8  C8  UNL     1     -34.381   6.921   2.406  1.00 20.00     0.015 A 
HETATM    9  C9  UNL     1     -32.285   7.490   2.256  1.00 20.00     0.098 A 
HETATM   10 CL10 UNL     1     -31.401   8.424   0.988  1.00 20.00    -0.124 Cl
ENDROOT
TORSDOF 0
ENDMDL
MODEL 4
REMARK VINA RESULT:       1.0      1.477      2.419
REMARK  0 active torsions:
REMARK  status: ('A' for Active; 'I' for Inactive)
ROOT
HETATM    1  C1  UNL     1     -33.148   4.608   2.458  1.00 20.00    -0.021 C 
HETATM    2  C2  UNL     1     -31.847   6.443   1.359  1.00 20.00    -0.021 C 
HETATM    3  C3  UNL     1     -33.728   4.903   3.629  1.00 20.00    -0.023 C 
HETATM    4  C4  UNL     1     -31.805   7.618   2.003  1.00 20.00    -0.023 C 
HETATM    5  C5  UNL     1     -33.172   5.744   1.474  1.00 20.00     0.035 C 
HETATM    6  C6  UNL     1     -34.247   6.291   3.623  1.00 20.00     0.033 A 
HETATM    7  C7  UNL     1     -33.104   7.904   2.656  1.00 20.00     0.033 A 
HETATM    8  C8  UNL     1     -34.058   6.792   2.176  1.00 20.00     0.015 A 
HETATM    9  C9  UNL     1     -33.270   7.394   4.114  1.00 20.00     0.098 A 
HETATM   10 CL10 UNL     1     -33.899   8.570   5.333  1.00 20.00    -0.124 Cl
ENDROOT
TORSDOF 0
ENDMDL
MODEL 5
REMARK VINA RESULT:       1.0      2.374      3.103
REMARK  0 active torsions:
REMARK  status: ('A' for Active; 'I' for Inactive)
ROOT
HETATM    1  C1  UNL     1     -33.364   5.173   1.978  1.00 20.00    -0.021 C 
HETATM    2  C2  UNL     1     -34.500   6.618   3.678  1.00 20.00    -0.021 C 
HETATM    3  C3  UNL     1     -32.742   5.805   0.973  1.00 20.00    -0.023 C 
HETATM    4  C4  UNL     1     -34.422   7.943   3.488  1.00 20.00    -0.023 C 
HETATM    5  C5  UNL     1     -33.245   5.884   3.297  1.00 20.00     0.035 C 
HETATM    6  C6  UNL     1     -32.095   7.048   1.456  1.00 20.00     0.033 A 
HETATM    7  C7  UNL     1     -33.093   8.318   2.950  1.00 20.00     0.033 A 
HETATM    8  C8  UNL     1     -32.255   7.024   2.989  1.00 20.00     0.015 A 
HETATM    9  C9  UNL     1     -32.956   8.339   1.403  1.00 20.00     0.098 A 
HETATM   10 CL10 UNL     1     -32.202   9.804   0.661  1.00 20.00    -0.124 Cl
ENDROOT
TORSDOF 0
ENDMDL
MODEL 6
REMARK VINA RESULT:       1.3      1.755      2.800
REMARK  0 active torsions:
REMARK  status: ('A' for Active; 'I' for Inactive)
ROOT
HETATM    1  C1  UNL     1     -34.332   7.543   3.955  1.00 20.00    -0.021 C 
HETATM    2  C2  UNL     1     -32.537   8.689   2.636  1.00 20.00    -0.021 C 
HETATM    3  C3  UNL     1     -34.828   6.413   3.435  1.00 20.00    -0.023 C 
HETATM    4  C4  UNL     1     -32.175   8.107   1.485  1.00 20.00    -0.023 C 
HETATM    5  C5  UNL     1     -32.855   7.708   3.730  1.00 20.00     0.035 C 
HETATM    6  C6  UNL     1     -33.760   5.624   2.776  1.00 20.00     0.033 A 
HETATM    7  C7  UNL     1     -32.183   6.631   1.618  1.00 20.00     0.033 A 
HETATM    8  C8  UNL     1     -32.445   6.356   3.113  1.00 20.00     0.015 A 
HETATM    9  C9  UNL     1     -33.517   5.915   1.271  1.00 20.00     0.098 A 
HETATM   10 CL10 UNL     1     -33.425   4.493   0.160  1.00 20.00    -0.124 Cl
ENDROOT
TORSDOF 0
ENDMDL
MODEL 7
REMARK VINA RESULT:       1.9      1.666      2.963
REMARK  0 active torsions:
REMARK  status: ('A' for Active; 'I' for Inactive)
ROOT
HETATM    1  C1  UNL     1     -35.341   7.122   3.161  1.00 20.00    -0.021 C 
HETATM    2  C2  UNL     1     -33.410   6.761   1.609  1.00 20.00    -0.021 C 
HETATM    3  C3  UNL     1     -35.642   6.112   3.988  1.00 20.00    -0.023 C 
HETATM    4  C4  UNL     1     -32.785   5.578   1.693  1.00 20.00    -0.023 C 
HETATM    5  C5  UNL     1     -33.865   7.294   2.939  1.00 20.00     0.035 C 
HETATM    6  C6  UNL     1     -34.411   5.439   4.465  1.00 20.00     0.033 A 
HETATM    7  C7  UNL     1     -32.714   5.122   3.101  1.00 20.00     0.033 A 
HETATM    8  C8  UNL     1     -33.245   6.301   3.941  1.00 20.00     0.015 A 
HETATM    9  C9  UNL     1     -33.897   4.252   3.605  1.00 20.00     0.098 A 
HETATM   10 CL10 UNL     1     -33.485   2.722   4.473  1.00 20.00    -0.124 Cl
ENDROOT
TORSDOF 0
ENDMDL
MODEL 8
REMARK VINA RESULT:       1.9      1.073      2.489
REMARK  0 active torsions:
REMARK  status: ('A' for Active; 'I' for Inactive)
ROOT
HETATM    1  C1  UNL     1     -32.371   8.682   1.339  1.00 20.00    -0.021 C 
HETATM    2  C2  UNL     1     -32.017   6.267   0.777  1.00 20.00    -0.021 C 
HETATM    3  C3  UNL     1     -33.356   8.957   2.205  1.00 20.00    -0.023 C 
HETATM    4  C4  UNL     1     -32.832   5.386   1.374  1.00 20.00    -0.023 C 
HETATM    5  C5  UNL     1     -31.626   7.417   1.663  1.00 20.00     0.035 C 
HETATM    6  C6  UNL     1     -33.431   7.921   3.262  1.00 20.00     0.033 A 
HETATM    7  C7  UNL     1     -33.120   5.799   2.768  1.00 20.00     0.033 A 
HETATM    8  C8  UNL     1     -32.206   7.013   3.032  1.00 20.00     0.015 A 
HETATM    9  C9  UNL     1     -34.361   6.710   2.975  1.00 20.00     0.098 A 
HETATM   10 CL10 UNL     1     -35.524   6.237   4.274  1.00 20.00    -0.124 Cl
ENDROOT
TORSDOF 0
ENDMDL
