MODEL 1
REMARK VINA RESULT:      -1.8      0.000      0.000
REMARK  0 active torsions:
REMARK  status: ('A' for Active; 'I' for Inactive)
ROOT
HETATM    1  C1  UNL     1     -33.239   4.907   2.855  1.00 20.00    -0.019 A 
HETATM    2  C2  UNL     1     -33.834   4.342   3.914  1.00 20.00    -0.086 A 
HETATM    3  C3  UNL     1     -33.996   7.590   4.186  1.00 20.00     0.132 C 
HETATM    4  C4  UNL     1     -34.946   5.171   4.494  1.00 20.00     0.046 A 
HETATM    5  C5  UNL     1     -33.055   7.469   2.976  1.00 20.00     0.088 C 
HETATM    6  C6  UNL     1     -33.858   6.216   2.548  1.00 20.00     0.027 A 
HETATM    7  C7  UNL     1     -34.914   6.459   3.671  1.00 20.00     0.067 A 
HETATM    8  C8  UNL     1     -33.489   3.024   4.512  1.00 20.00     0.043 C 
HETATM    9  O9  UNL     1     -34.004   8.296   5.172  1.00 20.00    -0.298 OA
ENDROOT
TORSDOF 0
ENDMDL
MODEL 2
REMARK VINA RESULT:      -1.1      1.826      3.554
REMARK  0 active torsions:
REMARK  status: ('A' for Active; 'I' for Inactive)
ROOT
HETATM    1  C1  UNL     1     -34.194   7.550   3.768  1.00 20.00    -0.019 A 
HETATM    2  C2  UNL     1     -33.052   7.406   3.084  1.00 20.00    -0.086 A 
HETATM    3  C3  UNL     1     -34.161   4.469   3.973  1.00 20.00     0.132 C 
HETATM    4  C4  UNL     1     -32.963   6.111   2.325  1.00 20.00     0.046 A 
HETATM    5  C5  UNL     1     -35.127   5.369   4.760  1.00 20.00     0.088 C 
HETATM    6  C6  UNL     1     -35.066   6.369   3.579  1.00 20.00     0.027 A 
HETATM    7  C7  UNL     1     -34.239   5.365   2.717  1.00 20.00     0.067 A 
HETATM    8  C8  UNL     1     -31.935   8.388   3.026  1.00 20.00     0.043 C 
HETATM    9  O9  UNL     1     -33.558   3.450   4.242  1.00 20.00    -0.298 OA
ENDROOT
TORSDOF 0
ENDMDL
MODEL 3
REMARK VINA RESULT:      -0.8      1.353      1.763
REMARK  0 active torsions:
REMARK  status: ('A' for Active; 'I' for Inactive)
ROOT
HETATM    1  C1  UNL     1     -33.138   5.248   2.105  1.00 20.00    -0.019 A 
HETATM    2  C2  UNL     1     -33.732   5.226   3.306  1.00 20.00    -0.086 A 
HETATM    3  C3  UNL     1     -32.234   8.095   2.890  1.00 20.00     0.132 C 
HETATM    4  C4  UNL     1     -34.172   6.582   3.785  1.00 20.00     0.046 A 
HETATM    5  C5  UNL     1     -31.707   7.337   1.660  1.00 20.00     0.088 C 
HETATM    6  C6  UNL     1     -33.082   6.630   1.578  1.00 20.00     0.027 A 
HETATM    7  C7  UNL     1     -33.663   7.538   2.706  1.00 20.00     0.067 A 
HETATM    8  C8  UNL     1     -33.974   4.019   4.141  1.00 20.00     0.043 C 
HETATM    9  O9  UNL     1     -31.719   8.837   3.700  1.00 20.00    -0.298 OA
ENDROOT
TORSDOF 0
ENDMDL
MODEL 4
REMARK VINA RESULT:      -0.8      2.259      4.381
REMARK  0 active torsions:
REMARK  status: ('A' for Active; 'I' for Inactive)
ROOT
HETATM    1  C1  UNL     1     -31.902   7.828   0.530  1.00 20.00    -0.019 A 
HETATM    2  C2  UNL     1     -32.345   9.021   0.947  1.00 20.00    -0.086 A 
HETATM    3  C3  UNL     1     -33.565   6.681   2.866  1.00 20.00     0.132 C 
HETATM    4  C4  UNL     1     -32.618   9.080   2.425  1.00 20.00     0.046 A 
HETATM    5  C5  UNL     1     -32.922   5.818   1.767  1.00 20.00     0.088 C 
HETATM    6  C6  UNL     1     -31.803   6.883   1.665  1.00 20.00     0.027 A 
HETATM    7  C7  UNL     1     -32.363   7.650   2.904  1.00 20.00     0.067 A 
HETATM    8  C8  UNL     1     -32.566  10.221   0.095  1.00 20.00     0.043 C 
HETATM    9  O9  UNL     1     -34.620   6.626   3.464  1.00 20.00    -0.298 OA
ENDROOT
TORSDOF 0
ENDMDL
MODEL 5
REMARK VINA RESULT:      -0.4      2.542      3.568
REMARK  0 active torsions:
REMARK  status: ('A' for Active; 'I' for Inactive)
ROOT
HETATM    1  C1  UNL     1     -33.148   7.887   3.775  1.00 20.00    -0.019 A 
HETATM    2  C2  UNL     1     -33.843   6.898   3.198  1.00 20.00    -0.086 A 
HETATM    3  C3  UNL     1     -32.368   8.676   0.892  1.00 20.00     0.132 C 
HETATM    4  C4  UNL     1     -33.254   6.428   1.896  1.00 20.00     0.046 A 
HETATM    5  C5  UNL     1     -32.085   9.549   2.126  1.00 20.00     0.088 C 
HETATM    6  C6  UNL     1     -31.970   8.245   2.952  1.00 20.00     0.027 A 
HETATM    7  C7  UNL     1     -32.073   7.370   1.664  1.00 20.00     0.067 A 
HETATM    8  C8  UNL     1     -35.081   6.270   3.731  1.00 20.00     0.043 C 
HETATM    9  O9  UNL     1     -32.706   8.920  -0.247  1.00 20.00    -0.298 OA
ENDROOT
TORSDOF 0
ENDMDL
MODEL 6
REMARK VINA RESULT:       0.6      1.976      2.715
REMARK  0 active torsions:
REMARK  status: ('A' for Active; 'I' for Inactive)
ROOT
HETATM    1  C1  UNL     1     -31.926   7.040   2.040  1.00 20.00    -0.019 A 
HETATM    2  C2  UNL     1     -32.228   5.866   1.471  1.00 20.00    -0.086 A 
HETATM    3  C3  UNL     1     -34.500   6.611   3.692  1.00 20.00     0.132 C 
HETATM    4  C4  UNL     1     -33.704   5.583   1.421  1.00 20.00     0.046 A 
HETATM    5  C5  UNL     1     -33.468   7.713   3.984  1.00 20.00     0.088 C 
HETATM    6  C6  UNL     1     -33.156   7.743   2.468  1.00 20.00     0.027 A 
HETATM    7  C7  UNL     1     -34.331   6.763   2.164  1.00 20.00     0.067 A 
HETATM    8  C8  UNL     1     -31.256   4.886   0.915  1.00 20.00     0.043 C 
HETATM    9  O9  UNL     1     -35.177   5.890   4.395  1.00 20.00    -0.298 OA
ENDROOT
TORSDOF 0
ENDMDL
MODEL 7
REMARK VINA RESULT:       0.7      2.363      3.270
REMARK  0 active torsions:
REMARK  status: ('A' for Active; 'I' for Inactive)
ROOT
HETATM    1  C1  UNL     1     -33.864   7.388   3.331  1.00 20.00    -0.019 A 
HETATM    2  C2  UNL     1     -34.467   6.249   3.698  1.00 20.00    -0.086 A 
HETATM    3  C3  UNL     1     -32.602   5.694   1.078  1.00 20.00     0.132 C 
HETATM    4  C4  UNL     1     -33.675   5.014   3.366  1.00 20.00     0.046 A 
HETATM    5  C5  UNL     1     -32.517   7.227   1.147  1.00 20.00     0.088 C 
HETATM    6  C6  UNL     1     -32.561   7.103   2.690  1.00 20.00     0.027 A 
HETATM    7  C7  UNL     1     -32.458   5.548   2.610  1.00 20.00     0.067 A 
HETATM    8  C8  UNL     1     -35.786   6.135   4.376  1.00 20.00     0.043 C 
HETATM    9  O9  UNL     1     -32.741   4.903   0.169  1.00 20.00    -0.298 OA
ENDROOT
TORSDOF 0
ENDMDL
MODEL 8
REMARK VINA RESULT:       0.9      2.327      3.698
REMARK  0 active torsions:
REMARK  status: ('A' for Active; 'I' for Inactive)
ROOT
HETATM    1  C1  UNL     1     -34.289   6.833   3.874  1.00 20.00    -0.019 A 
HETATM    2  C2  UNL     1     -33.337   7.761   4.036  1.00 20.00    -0.086 A 
HETATM    3  C3  UNL     1     -32.420   5.662   1.711  1.00 20.00     0.132 C 
HETATM    4  C4  UNL     1     -32.553   8.045   2.784  1.00 20.00     0.046 A 
HETATM    5  C5  UNL     1     -33.671   4.944   2.242  1.00 20.00     0.088 C 
HETATM    6  C6  UNL     1     -34.302   6.338   2.479  1.00 20.00     0.027 A 
HETATM    7  C7  UNL     1     -33.106   7.045   1.768  1.00 20.00     0.067 A 
HETATM    8  C8  UNL     1     -33.028   8.489   5.296  1.00 20.00     0.043 C 
HETATM    9  O9  UNL     1     -31.313   5.286   1.386  1.00 20.00    -0.298 OA
ENDROOT
TORSDOF 0
ENDMDL
