MODEL 1
REMARK VINA RESULT:      -0.1      0.000      0.000
REMARK  1 active torsions:
REMARK  status: ('A' for Active; 'I' for Inactive)
REMARK    1  A    between atoms: C2_2  and  C6_6 
ROOT
HETATM    1  C1  UNL     1     -32.760   8.206   2.117  1.00 20.00     0.071 C 
HETATM    2  C2  UNL     1     -33.231   6.974   2.381  1.00 20.00     0.003 C 
HETATM    3 BR7  UNL     1     -31.639   8.735   0.731  1.00 20.00    -0.062 Br
HETATM    4 BR8  UNL     1     -32.771   5.503   1.276  1.00 20.00    -0.054 Br
ENDROOT
BRANCH   2   5
HETATM    5  C6  UNL     1     -34.165   6.634   3.567  1.00 20.00    -0.017 C 
HETATM    6  C3  UNL     1     -35.666   6.800   3.222  1.00 20.00     0.020 C 
HETATM    7  C4  UNL     1     -33.975   5.165   4.007  1.00 20.00     0.020 C 
HETATM    8  C5  UNL     1     -33.884   7.566   4.766  1.00 20.00     0.020 C 
ENDBRANCH   2   5
TORSDOF 1
ENDMDL
MODEL 2
REMARK VINA RESULT:       0.0      0.049      1.523
REMARK  1 active torsions:
REMARK  status: ('A' for Active; 'I' for Inactive)
REMARK    1  A    between atoms: C2_2  and  C6_6 
ROOT
HETATM    1  C1  UNL     1     -32.775   8.205   2.130  1.00 20.00     0.071 C 
HETATM    2  C2  UNL     1     -33.254   6.976   2.396  1.00 20.00     0.003 C 
HETATM    3 BR7  UNL     1     -31.646   8.723   0.747  1.00 20.00    -0.062 Br
HETATM    4 BR8  UNL     1     -32.796   5.499   1.298  1.00 20.00    -0.054 Br
ENDROOT
BRANCH   2   5
HETATM    5  C6  UNL     1     -34.194   6.645   3.579  1.00 20.00    -0.017 C 
HETATM    6  C3  UNL     1     -34.053   5.183   4.073  1.00 20.00     0.020 C 
HETATM    7  C4  UNL     1     -33.884   7.551   4.792  1.00 20.00     0.020 C 
HETATM    8  C5  UNL     1     -35.672   6.829   3.169  1.00 20.00     0.020 C 
ENDBRANCH   2   5
TORSDOF 1
ENDMDL
MODEL 3
REMARK VINA RESULT:       0.3      1.100      1.987
REMARK  1 active torsions:
REMARK  status: ('A' for Active; 'I' for Inactive)
REMARK    1  A    between atoms: C2_2  and  C6_6 
ROOT
HETATM    1  C1  UNL     1     -33.081   5.263   1.896  1.00 20.00     0.071 C 
HETATM    2  C2  UNL     1     -33.324   6.417   2.545  1.00 20.00     0.003 C 
HETATM    3 BR7  UNL     1     -31.812   4.933   0.578  1.00 20.00    -0.062 Br
HETATM    4 BR8  UNL     1     -32.315   7.976   2.161  1.00 20.00    -0.054 Br
ENDROOT
BRANCH   2   5
HETATM    5  C6  UNL     1     -34.410   6.591   3.634  1.00 20.00    -0.017 C 
HETATM    6  C3  UNL     1     -35.774   7.046   3.059  1.00 20.00     0.020 C 
HETATM    7  C4  UNL     1     -34.665   5.257   4.368  1.00 20.00     0.020 C 
HETATM    8  C5  UNL     1     -33.985   7.665   4.659  1.00 20.00     0.020 C 
ENDBRANCH   2   5
TORSDOF 1
ENDMDL
MODEL 4
REMARK VINA RESULT:       0.4      1.102      2.474
REMARK  1 active torsions:
REMARK  status: ('A' for Active; 'I' for Inactive)
REMARK    1  A    between atoms: C2_2  and  C6_6 
ROOT
HETATM    1  C1  UNL     1     -33.084   5.266   1.909  1.00 20.00     0.071 C 
HETATM    2  C2  UNL     1     -33.334   6.425   2.545  1.00 20.00     0.003 C 
HETATM    3 BR7  UNL     1     -31.814   4.928   0.594  1.00 20.00    -0.062 Br
HETATM    4 BR8  UNL     1     -32.338   7.987   2.141  1.00 20.00    -0.054 Br
ENDROOT
BRANCH   2   5
HETATM    5  C6  UNL     1     -34.420   6.605   3.632  1.00 20.00    -0.017 C 
HETATM    6  C3  UNL     1     -34.714   5.301   4.416  1.00 20.00     0.020 C 
HETATM    7  C4  UNL     1     -33.978   7.655   4.676  1.00 20.00     0.020 C 
HETATM    8  C5  UNL     1     -35.758   7.048   2.999  1.00 20.00     0.020 C 
ENDBRANCH   2   5
TORSDOF 1
ENDMDL
MODEL 5
REMARK VINA RESULT:       0.5      1.791      3.640
REMARK  1 active torsions:
REMARK  status: ('A' for Active; 'I' for Inactive)
REMARK    1  A    between atoms: C2_2  and  C6_6 
ROOT
HETATM    1  C1  UNL     1     -34.010   7.267   3.494  1.00 20.00     0.071 C 
HETATM    2  C2  UNL     1     -33.139   7.099   2.482  1.00 20.00     0.003 C 
HETATM    3 BR7  UNL     1     -35.280   6.066   4.127  1.00 20.00    -0.062 Br
HETATM    4 BR8  UNL     1     -33.099   5.480   1.496  1.00 20.00    -0.054 Br
ENDROOT
BRANCH   2   5
HETATM    5  C6  UNL     1     -32.115   8.167   2.028  1.00 20.00    -0.017 C 
HETATM    6  C3  UNL     1     -32.752   9.293   1.177  1.00 20.00     0.020 C 
HETATM    7  C4  UNL     1     -31.465   8.852   3.250  1.00 20.00     0.020 C 
HETATM    8  C5  UNL     1     -31.012   7.527   1.156  1.00 20.00     0.020 C 
ENDBRANCH   2   5
TORSDOF 1
ENDMDL
MODEL 6
REMARK VINA RESULT:       0.6      1.794      3.679
REMARK  1 active torsions:
REMARK  status: ('A' for Active; 'I' for Inactive)
REMARK    1  A    between atoms: C2_2  and  C6_6 
ROOT
HETATM    1  C1  UNL     1     -34.012   7.277   3.492  1.00 20.00     0.071 C 
HETATM    2  C2  UNL     1     -33.139   7.109   2.482  1.00 20.00     0.003 C 
HETATM    3 BR7  UNL     1     -35.287   6.079   4.120  1.00 20.00    -0.062 Br
HETATM    4 BR8  UNL     1     -33.102   5.491   1.493  1.00 20.00    -0.054 Br
ENDROOT
BRANCH   2   5
HETATM    5  C6  UNL     1     -32.110   8.174   2.033  1.00 20.00    -0.017 C 
HETATM    6  C3  UNL     1     -30.960   7.582   1.181  1.00 20.00     0.020 C 
HETATM    7  C4  UNL     1     -32.789   9.255   1.164  1.00 20.00     0.020 C 
HETATM    8  C5  UNL     1     -31.450   8.844   3.258  1.00 20.00     0.020 C 
ENDBRANCH   2   5
TORSDOF 1
ENDMDL
MODEL 7
REMARK VINA RESULT:       0.7      2.364      3.973
REMARK  1 active torsions:
REMARK  status: ('A' for Active; 'I' for Inactive)
REMARK    1  A    between atoms: C2_2  and  C6_6 
ROOT
HETATM    1  C1  UNL     1     -34.117   6.376   3.011  1.00 20.00     0.071 C 
HETATM    2  C2  UNL     1     -33.229   7.376   3.160  1.00 20.00     0.003 C 
HETATM    3 BR7  UNL     1     -35.383   5.773   4.231  1.00 20.00    -0.062 Br
HETATM    4 BR8  UNL     1     -33.157   8.376   4.769  1.00 20.00    -0.054 Br
ENDROOT
BRANCH   2   5
HETATM    5  C6  UNL     1     -32.209   7.803   2.078  1.00 20.00    -0.017 C 
HETATM    6  C3  UNL     1     -32.765   8.883   1.116  1.00 20.00     0.020 C 
HETATM    7  C4  UNL     1     -30.943   8.404   2.728  1.00 20.00     0.020 C 
HETATM    8  C5  UNL     1     -31.808   6.597   1.200  1.00 20.00     0.020 C 
ENDBRANCH   2   5
TORSDOF 1
ENDMDL
MODEL 8
REMARK VINA RESULT:       0.8      2.629      4.110
REMARK  1 active torsions:
REMARK  status: ('A' for Active; 'I' for Inactive)
REMARK    1  A    between atoms: C2_2  and  C6_6 
ROOT
HETATM    1  C1  UNL     1     -33.079   4.265   3.305  1.00 20.00     0.071 C 
HETATM    2  C2  UNL     1     -33.380   5.497   2.856  1.00 20.00     0.003 C 
HETATM    3 BR7  UNL     1     -33.707   3.414   4.834  1.00 20.00    -0.062 Br
HETATM    4 BR8  UNL     1     -34.583   6.609   3.811  1.00 20.00    -0.054 Br
ENDROOT
BRANCH   2   5
HETATM    5  C6  UNL     1     -32.801   6.118   1.563  1.00 20.00    -0.017 C 
HETATM    6  C3  UNL     1     -33.842   6.216   0.420  1.00 20.00     0.020 C 
HETATM    7  C4  UNL     1     -32.300   7.556   1.826  1.00 20.00     0.020 C 
HETATM    8  C5  UNL     1     -31.634   5.262   1.022  1.00 20.00     0.020 C 
ENDBRANCH   2   5
TORSDOF 1
ENDMDL
MODEL 9
REMARK VINA RESULT:       0.9      1.575      3.488
REMARK  1 active torsions:
REMARK  status: ('A' for Active; 'I' for Inactive)
REMARK    1  A    between atoms: C2_2  and  C6_6 
ROOT
HETATM    1  C1  UNL     1     -33.849   4.526   4.317  1.00 20.00     0.071 C 
HETATM    2  C2  UNL     1     -33.588   5.469   3.393  1.00 20.00     0.003 C 
HETATM    3 BR7  UNL     1     -33.263   2.762   4.354  1.00 20.00    -0.062 Br
HETATM    4 BR8  UNL     1     -32.499   5.078   1.890  1.00 20.00    -0.054 Br
ENDROOT
BRANCH   2   5
HETATM    5  C6  UNL     1     -34.126   6.918   3.451  1.00 20.00    -0.017 C 
HETATM    6  C3  UNL     1     -33.819   7.623   4.796  1.00 20.00     0.020 C 
HETATM    7  C4  UNL     1     -33.484   7.783   2.344  1.00 20.00     0.020 C 
HETATM    8  C5  UNL     1     -35.662   6.936   3.287  1.00 20.00     0.020 C 
ENDBRANCH   2   5
TORSDOF 1
ENDMDL
