MODEL 1
REMARK VINA RESULT:       0.1      0.000      0.000
REMARK  1 active torsions:
REMARK  status: ('A' for Active; 'I' for Inactive)
REMARK    1  A    between atoms: C4_4  and  C6_6 
ROOT
HETATM    1  C1  UNL     1     -33.856   6.250   3.436  1.00 20.00     0.279 C 
HETATM    2  C2  UNL     1     -32.451   8.207   3.196  1.00 20.00     0.284 C 
HETATM    3  C3  UNL     1     -33.587   5.689   2.045  1.00 20.00     0.104 C 
HETATM    4  C4  UNL     1     -31.951   7.911   1.776  1.00 20.00     0.075 C 
HETATM    5  N7  UNL     1     -33.796   7.710   3.492  1.00 20.00     0.085 N 
HETATM    6  S8  UNL     1     -31.917   6.110   1.462  1.00 20.00    -0.161 SA
HETATM    7  H21 UNL     1     -34.444   8.090   2.805  1.00 20.00     0.315 HD
ENDROOT
BRANCH   4   8
HETATM    8  C6  UNL     1     -32.756   8.626   0.692  1.00 20.00     0.012 C 
HETATM    9  C5  UNL     1     -32.288  10.032   0.493  1.00 20.00     0.006 C 
ENDBRANCH   4   8
TORSDOF 1
ENDMDL
MODEL 2
REMARK VINA RESULT:       0.4      1.453      3.832
REMARK  1 active torsions:
REMARK  status: ('A' for Active; 'I' for Inactive)
REMARK    1  A    between atoms: C4_4  and  C6_6 
ROOT
HETATM    1  C1  UNL     1     -32.710   8.142   2.669  1.00 20.00     0.279 C 
HETATM    2  C2  UNL     1     -34.409   6.654   3.544  1.00 20.00     0.284 C 
HETATM    3  C3  UNL     1     -31.941   7.073   1.902  1.00 20.00     0.104 C 
HETATM    4  C4  UNL     1     -33.902   5.370   2.873  1.00 20.00     0.075 C 
HETATM    5  N7  UNL     1     -33.368   7.630   3.871  1.00 20.00     0.085 N 
HETATM    6  S8  UNL     1     -33.039   5.752   1.307  1.00 20.00    -0.161 SA
HETATM    7  H21 UNL     1     -32.670   7.180   4.459  1.00 20.00     0.315 HD
ENDROOT
BRANCH   4   8
HETATM    8  C6  UNL     1     -33.008   4.529   3.783  1.00 20.00     0.012 C 
HETATM    9  C5  UNL     1     -33.781   3.452   4.474  1.00 20.00     0.006 C 
ENDBRANCH   4   8
TORSDOF 1
ENDMDL
MODEL 3
REMARK VINA RESULT:       1.2      1.841      3.563
REMARK  1 active torsions:
REMARK  status: ('A' for Active; 'I' for Inactive)
REMARK    1  A    between atoms: C4_4  and  C6_6 
ROOT
HETATM    1  C1  UNL     1     -32.003   6.921   0.984  1.00 20.00     0.279 C 
HETATM    2  C2  UNL     1     -32.845   5.689   2.891  1.00 20.00     0.284 C 
HETATM    3  C3  UNL     1     -32.323   8.306   1.534  1.00 20.00     0.104 C 
HETATM    4  C4  UNL     1     -33.258   6.902   3.735  1.00 20.00     0.075 C 
HETATM    5  N7  UNL     1     -32.931   5.888   1.444  1.00 20.00     0.085 N 
HETATM    6  S8  UNL     1     -32.211   8.350   3.348  1.00 20.00    -0.161 SA
HETATM    7  H21 UNL     1     -33.879   6.172   1.208  1.00 20.00     0.315 HD
ENDROOT
BRANCH   4   8
HETATM    8  C6  UNL     1     -34.737   7.260   3.591  1.00 20.00     0.012 C 
HETATM    9  C5  UNL     1     -35.622   6.130   4.008  1.00 20.00     0.006 C 
ENDBRANCH   4   8
TORSDOF 1
ENDMDL
MODEL 4
REMARK VINA RESULT:       1.6      1.962      3.026
REMARK  1 active torsions:
REMARK  status: ('A' for Active; 'I' for Inactive)
REMARK    1  A    between atoms: C4_4  and  C6_6 
ROOT
HETATM    1  C1  UNL     1     -33.837   7.671   4.023  1.00 20.00     0.279 C 
HETATM    2  C2  UNL     1     -34.222   6.170   2.163  1.00 20.00     0.284 C 
HETATM    3  C3  UNL     1     -32.448   8.118   3.583  1.00 20.00     0.104 C 
HETATM    4  C4  UNL     1     -32.896   6.426   1.433  1.00 20.00     0.075 C 
HETATM    5  N7  UNL     1     -34.159   6.303   3.619  1.00 20.00     0.085 N 
HETATM    6  S8  UNL     1     -32.283   8.115   1.773  1.00 20.00    -0.161 SA
HETATM    7  H21 UNL     1     -33.437   5.679   3.974  1.00 20.00     0.315 HD
ENDROOT
BRANCH   4   8
HETATM    8  C6  UNL     1     -31.820   5.392   1.760  1.00 20.00     0.012 C 
HETATM    9  C5  UNL     1     -31.506   4.529   0.581  1.00 20.00     0.006 C 
ENDBRANCH   4   8
TORSDOF 1
ENDMDL
MODEL 5
REMARK VINA RESULT:       1.8      1.936      2.879
REMARK  1 active torsions:
REMARK  status: ('A' for Active; 'I' for Inactive)
REMARK    1  A    between atoms: C4_4  and  C6_6 
ROOT
HETATM    1  C1  UNL     1     -33.798   7.657   3.794  1.00 20.00     0.279 C 
HETATM    2  C2  UNL     1     -32.125   7.066   2.145  1.00 20.00     0.284 C 
HETATM    3  C3  UNL     1     -34.613   6.376   3.661  1.00 20.00     0.104 C 
HETATM    4  C4  UNL     1     -32.682   5.679   1.796  1.00 20.00     0.075 C 
HETATM    5  N7  UNL     1     -33.131   8.048   2.553  1.00 20.00     0.085 N 
HETATM    6  S8  UNL     1     -33.565   4.955   3.225  1.00 20.00    -0.161 SA
HETATM    7  H21 UNL     1     -33.830   8.127   1.817  1.00 20.00     0.315 HD
ENDROOT
BRANCH   4   8
HETATM    8  C6  UNL     1     -33.582   5.685   0.561  1.00 20.00     0.012 C 
HETATM    9  C5  UNL     1     -33.552   4.371  -0.151  1.00 20.00     0.006 C 
ENDBRANCH   4   8
TORSDOF 1
ENDMDL
MODEL 6
REMARK VINA RESULT:       1.8      1.952      3.042
REMARK  1 active torsions:
REMARK  status: ('A' for Active; 'I' for Inactive)
REMARK    1  A    between atoms: C4_4  and  C6_6 
ROOT
HETATM    1  C1  UNL     1     -32.676   5.513   1.654  1.00 20.00     0.279 C 
HETATM    2  C2  UNL     1     -32.646   7.932   1.754  1.00 20.00     0.284 C 
HETATM    3  C3  UNL     1     -33.398   5.307   2.981  1.00 20.00     0.104 C 
HETATM    4  C4  UNL     1     -33.396   8.078   3.085  1.00 20.00     0.075 C 
HETATM    5  N7  UNL     1     -31.843   6.714   1.630  1.00 20.00     0.085 N 
HETATM    6  S8  UNL     1     -34.539   6.674   3.344  1.00 20.00    -0.161 SA
HETATM    7  H21 UNL     1     -31.187   6.673   2.408  1.00 20.00     0.315 HD
ENDROOT
BRANCH   4   8
HETATM    8  C6  UNL     1     -32.464   8.235   4.287  1.00 20.00     0.012 C 
HETATM    9  C5  UNL     1     -33.225   8.293   5.572  1.00 20.00     0.006 C 
ENDBRANCH   4   8
TORSDOF 1
ENDMDL
MODEL 7
REMARK VINA RESULT:       1.8      2.783      3.400
REMARK  1 active torsions:
REMARK  status: ('A' for Active; 'I' for Inactive)
REMARK    1  A    between atoms: C4_4  and  C6_6 
ROOT
HETATM    1  C1  UNL     1     -33.826   3.943   3.553  1.00 20.00     0.279 C 
HETATM    2  C2  UNL     1     -33.282   5.779   2.072  1.00 20.00     0.284 C 
HETATM    3  C3  UNL     1     -34.547   4.788   4.597  1.00 20.00     0.104 C 
HETATM    4  C4  UNL     1     -33.956   6.890   2.888  1.00 20.00     0.075 C 
HETATM    5  N7  UNL     1     -32.758   4.665   2.863  1.00 20.00     0.085 N 
HETATM    6  S8  UNL     1     -35.365   6.228   3.847  1.00 20.00    -0.161 SA
HETATM    7  H21 UNL     1     -32.110   5.032   3.557  1.00 20.00     0.315 HD
ENDROOT
BRANCH   4   8
HETATM    8  C6  UNL     1     -32.988   7.633   3.808  1.00 20.00     0.012 C 
HETATM    9  C5  UNL     1     -33.685   8.198   5.004  1.00 20.00     0.006 C 
ENDBRANCH   4   8
TORSDOF 1
ENDMDL
MODEL 8
REMARK VINA RESULT:       1.9      2.324      3.063
REMARK  1 active torsions:
REMARK  status: ('A' for Active; 'I' for Inactive)
REMARK    1  A    between atoms: C4_4  and  C6_6 
ROOT
HETATM    1  C1  UNL     1     -33.873   3.944   3.720  1.00 20.00     0.279 C 
HETATM    2  C2  UNL     1     -33.396   5.593   2.012  1.00 20.00     0.284 C 
HETATM    3  C3  UNL     1     -34.548   4.908   4.689  1.00 20.00     0.104 C 
HETATM    4  C4  UNL     1     -34.035   6.795   2.723  1.00 20.00     0.075 C 
HETATM    5  N7  UNL     1     -32.837   4.576   2.904  1.00 20.00     0.085 N 
HETATM    6  S8  UNL     1     -35.400   6.254   3.814  1.00 20.00    -0.161 SA
HETATM    7  H21 UNL     1     -32.159   5.019   3.522  1.00 20.00     0.315 HD
ENDROOT
BRANCH   4   8
HETATM    8  C6  UNL     1     -33.027   7.635   3.507  1.00 20.00     0.012 C 
HETATM    9  C5  UNL     1     -31.993   8.235   2.610  1.00 20.00     0.006 C 
ENDBRANCH   4   8
TORSDOF 1
ENDMDL
MODEL 9
REMARK VINA RESULT:       2.2      2.349      2.773
REMARK  1 active torsions:
REMARK  status: ('A' for Active; 'I' for Inactive)
REMARK    1  A    between atoms: C4_4  and  C6_6 
ROOT
HETATM    1  C1  UNL     1     -35.413   5.322   4.553  1.00 20.00     0.279 C 
HETATM    2  C2  UNL     1     -34.143   7.239   3.793  1.00 20.00     0.284 C 
HETATM    3  C3  UNL     1     -34.504   4.270   3.927  1.00 20.00     0.104 C 
HETATM    4  C4  UNL     1     -33.028   6.460   3.082  1.00 20.00     0.075 C 
HETATM    5  N7  UNL     1     -35.448   6.576   3.801  1.00 20.00     0.085 N 
HETATM    6  S8  UNL     1     -32.775   4.827   3.866  1.00 20.00    -0.161 SA
HETATM    7  H21 UNL     1     -35.719   6.373   2.840  1.00 20.00     0.315 HD
ENDROOT
BRANCH   4   8
HETATM    8  C6  UNL     1     -33.267   6.299   1.582  1.00 20.00     0.012 C 
HETATM    9  C5  UNL     1     -32.342   5.292   0.979  1.00 20.00     0.006 C 
ENDBRANCH   4   8
TORSDOF 1
ENDMDL
