MODEL 1
REMARK VINA RESULT:      -0.4      0.000      0.000
REMARK  0 active torsions:
REMARK  status: ('A' for Active; 'I' for Inactive)
ROOT
HETATM    1  C1  UNL     1     -32.150   5.109   1.845  1.00 20.00    -0.018 C 
HETATM    2  C2  UNL     1     -34.239   7.527   4.151  1.00 20.00    -0.018 C 
HETATM    3  C3  UNL     1     -32.312   6.415   1.482  1.00 20.00    -0.078 C 
HETATM    4  C4  UNL     1     -34.708   6.273   3.886  1.00 20.00    -0.078 C 
HETATM    5  C5  UNL     1     -31.395   7.625   1.431  1.00 20.00     0.035 C 
HETATM    6  C6  UNL     1     -34.854   4.999   4.702  1.00 20.00     0.035 C 
HETATM    7  C7  UNL     1     -32.182   8.694   2.361  1.00 20.00     0.013 C 
HETATM    8  C8  UNL     1     -34.019   3.927   3.821  1.00 20.00     0.013 C 
HETATM    9  C9  UNL     1     -33.120   4.858   3.000  1.00 20.00     0.017 C 
HETATM   10  C10 UNL     1     -33.072   7.763   3.191  1.00 20.00     0.017 C 
HETATM   11  C11 UNL     1     -33.576   6.958   2.005  1.00 20.00     0.030 C 
HETATM   12  C12 UNL     1     -34.239   5.796   2.577  1.00 20.00     0.030 C 
ENDROOT
TORSDOF 0
ENDMDL
MODEL 2
REMARK VINA RESULT:      -0.4      0.012      3.989
REMARK  0 active torsions:
REMARK  status: ('A' for Active; 'I' for Inactive)
ROOT
HETATM    1  C1  UNL     1     -34.255   7.522   4.142  1.00 20.00    -0.018 C 
HETATM    2  C2  UNL     1     -32.139   5.109   1.856  1.00 20.00    -0.018 C 
HETATM    3  C3  UNL     1     -34.716   6.264   3.880  1.00 20.00    -0.078 C 
HETATM    4  C4  UNL     1     -32.307   6.412   1.488  1.00 20.00    -0.078 C 
HETATM    5  C5  UNL     1     -34.858   4.992   4.699  1.00 20.00     0.035 C 
HETATM    6  C6  UNL     1     -31.397   7.629   1.438  1.00 20.00     0.035 C 
HETATM    7  C7  UNL     1     -34.012   3.922   3.825  1.00 20.00     0.013 C 
HETATM    8  C8  UNL     1     -32.195   8.695   2.360  1.00 20.00     0.013 C 
HETATM    9  C9  UNL     1     -33.084   7.761   3.188  1.00 20.00     0.017 C 
HETATM   10  C10 UNL     1     -33.114   4.855   3.006  1.00 20.00     0.017 C 
HETATM   11  C11 UNL     1     -34.235   5.784   2.574  1.00 20.00     0.030 C 
HETATM   12  C12 UNL     1     -33.576   6.949   2.002  1.00 20.00     0.030 C 
ENDROOT
TORSDOF 0
ENDMDL
MODEL 3
REMARK VINA RESULT:       2.2      1.010      3.540
REMARK  0 active torsions:
REMARK  status: ('A' for Active; 'I' for Inactive)
ROOT
HETATM    1  C1  UNL     1     -32.533   5.553   1.618  1.00 20.00    -0.018 C 
HETATM    2  C2  UNL     1     -34.091   8.871   3.061  1.00 20.00    -0.018 C 
HETATM    3  C3  UNL     1     -33.075   5.554   2.871  1.00 20.00    -0.078 C 
HETATM    4  C4  UNL     1     -32.893   8.916   2.409  1.00 20.00    -0.078 C 
HETATM    5  C5  UNL     1     -34.333   4.966   3.486  1.00 20.00     0.035 C 
HETATM    6  C6  UNL     1     -32.436   9.447   1.060  1.00 20.00     0.035 C 
HETATM    7  C7  UNL     1     -35.052   6.272   4.118  1.00 20.00     0.013 C 
HETATM    8  C8  UNL     1     -31.768   8.137   0.382  1.00 20.00     0.013 C 
HETATM    9  C9  UNL     1     -32.433   7.016   1.188  1.00 20.00     0.017 C 
HETATM   10  C10 UNL     1     -34.396   7.393   3.304  1.00 20.00     0.017 C 
HETATM   11  C11 UNL     1     -32.976   6.886   3.489  1.00 20.00     0.030 C 
HETATM   12  C12 UNL     1     -32.167   7.644   2.545  1.00 20.00     0.030 C 
ENDROOT
TORSDOF 0
ENDMDL
MODEL 4
REMARK VINA RESULT:       2.2      0.995      2.583
REMARK  0 active torsions:
REMARK  status: ('A' for Active; 'I' for Inactive)
ROOT
HETATM    1  C1  UNL     1     -34.092   8.851   3.105  1.00 20.00    -0.018 C 
HETATM    2  C2  UNL     1     -32.567   5.523   1.648  1.00 20.00    -0.018 C 
HETATM    3  C3  UNL     1     -32.891   8.886   2.456  1.00 20.00    -0.078 C 
HETATM    4  C4  UNL     1     -33.111   5.525   2.899  1.00 20.00    -0.078 C 
HETATM    5  C5  UNL     1     -32.425   9.419   1.112  1.00 20.00     0.035 C 
HETATM    6  C6  UNL     1     -34.378   4.946   3.508  1.00 20.00     0.035 C 
HETATM    7  C7  UNL     1     -31.769   8.106   0.428  1.00 20.00     0.013 C 
HETATM    8  C8  UNL     1     -35.084   6.257   4.145  1.00 20.00     0.013 C 
HETATM    9  C9  UNL     1     -34.413   7.374   3.339  1.00 20.00     0.017 C 
HETATM   10  C10 UNL     1     -32.449   6.988   1.225  1.00 20.00     0.017 C 
HETATM   11  C11 UNL     1     -32.180   7.604   2.587  1.00 20.00     0.030 C 
HETATM   12  C12 UNL     1     -32.999   6.851   3.524  1.00 20.00     0.030 C 
ENDROOT
TORSDOF 0
ENDMDL
