MODEL 1
REMARK VINA RESULT:       2.2      0.000      0.000
REMARK  2 active torsions:
REMARK  status: ('A' for Active; 'I' for Inactive)
REMARK    1  A    between atoms: C7_7  and  C10_10 
REMARK    2  A    between atoms: C8_8  and  C9_9 
ROOT
HETATM    1  C1  UNL     1     -32.973   9.313   1.814  1.00 20.00    -0.019 C 
HETATM    2  C3  UNL     1     -32.411   9.505   0.596  1.00 20.00    -0.087 C 
HETATM    3  C5  UNL     1     -31.643   8.261   0.123  1.00 20.00     0.039 C 
HETATM    4  C8  UNL     1     -32.818   7.874   2.151  1.00 20.00     0.021 C 
HETATM    5  C10 UNL     1     -31.421   7.690   1.500  1.00 20.00     0.005 C 
HETATM    6  C11 UNL     1     -32.452  10.738  -0.229  1.00 20.00     0.043 C 
ENDROOT
BRANCH   4   7
HETATM    7  C9  UNL     1     -32.660   6.985   3.411  1.00 20.00     0.022 C 
HETATM    8  C4  UNL     1     -33.671   7.613   4.376  1.00 20.00    -0.082 C 
HETATM    9  C2  UNL     1     -34.902   7.391   3.873  1.00 20.00    -0.019 C 
HETATM   10  C12 UNL     1     -33.273   8.394   5.568  1.00 20.00     0.043 C 
HETATM   11  C7  UNL     1     -34.748   6.518   2.650  1.00 20.00     0.014 C 
HETATM   12  C6  UNL     1     -33.496   5.724   3.139  1.00 20.00     0.018 C 
ENDBRANCH   4   7
TORSDOF 2
ENDMDL
MODEL 2
REMARK VINA RESULT:       2.6      1.159      1.725
REMARK  2 active torsions:
REMARK  status: ('A' for Active; 'I' for Inactive)
REMARK    1  A    between atoms: C7_7  and  C10_10 
REMARK    2  A    between atoms: C8_8  and  C9_9 
ROOT
HETATM    1  C1  UNL     1     -33.042   9.235   1.355  1.00 20.00    -0.019 C 
HETATM    2  C3  UNL     1     -32.335   9.784   0.337  1.00 20.00    -0.087 C 
HETATM    3  C5  UNL     1     -31.167   8.884  -0.094  1.00 20.00     0.039 C 
HETATM    4  C8  UNL     1     -32.549   7.845   1.535  1.00 20.00     0.021 C 
HETATM    5  C10 UNL     1     -31.060   8.143   1.214  1.00 20.00     0.005 C 
HETATM    6  C11 UNL     1     -32.570  11.097  -0.314  1.00 20.00     0.043 C 
ENDROOT
BRANCH   4   7
HETATM    7  C9  UNL     1     -32.386   6.807   2.676  1.00 20.00     0.022 C 
HETATM    8  C4  UNL     1     -33.809   6.255   2.812  1.00 20.00    -0.082 C 
HETATM    9  C2  UNL     1     -34.091   5.577   1.681  1.00 20.00    -0.019 C 
HETATM   10  C12 UNL     1     -34.684   6.551   3.968  1.00 20.00     0.043 C 
HETATM   11  C7  UNL     1     -32.839   5.556   0.835  1.00 20.00     0.014 C 
HETATM   12  C6  UNL     1     -31.813   5.545   2.012  1.00 20.00     0.018 C 
ENDBRANCH   4   7
TORSDOF 2
ENDMDL
MODEL 3
REMARK VINA RESULT:       2.8      2.098      4.974
REMARK  2 active torsions:
REMARK  status: ('A' for Active; 'I' for Inactive)
REMARK    1  A    between atoms: C7_7  and  C10_10 
REMARK    2  A    between atoms: C8_8  and  C9_9 
ROOT
HETATM    1  C1  UNL     1     -32.975   4.488   3.317  1.00 20.00    -0.019 C 
HETATM    2  C3  UNL     1     -33.667   4.001   4.375  1.00 20.00    -0.087 C 
HETATM    3  C5  UNL     1     -35.003   4.736   4.567  1.00 20.00     0.039 C 
HETATM    4  C8  UNL     1     -33.874   5.421   2.592  1.00 20.00     0.021 C 
HETATM    5  C10 UNL     1     -34.585   5.993   3.848  1.00 20.00     0.005 C 
HETATM    6  C11 UNL     1     -33.249   2.921   5.304  1.00 20.00     0.043 C 
ENDROOT
BRANCH   4   7
HETATM    7  C9  UNL     1     -33.767   6.701   1.724  1.00 20.00     0.022 C 
HETATM    8  C4  UNL     1     -32.272   7.026   1.815  1.00 20.00    -0.082 C 
HETATM    9  C2  UNL     1     -31.604   6.045   1.177  1.00 20.00    -0.019 C 
HETATM   10  C12 UNL     1     -31.741   8.178   2.578  1.00 20.00     0.043 C 
HETATM   11  C7  UNL     1     -32.627   5.127   0.550  1.00 20.00     0.014 C 
HETATM   12  C6  UNL     1     -33.711   6.214   0.267  1.00 20.00     0.018 C 
ENDBRANCH   4   7
TORSDOF 2
ENDMDL
MODEL 4
REMARK VINA RESULT:       3.3      1.365      4.310
REMARK  2 active torsions:
REMARK  status: ('A' for Active; 'I' for Inactive)
REMARK    1  A    between atoms: C7_7  and  C10_10 
REMARK    2  A    between atoms: C8_8  and  C9_9 
ROOT
HETATM    1  C1  UNL     1     -34.219   7.325   2.804  1.00 20.00    -0.019 C 
HETATM    2  C3  UNL     1     -34.516   6.189   3.481  1.00 20.00    -0.087 C 
HETATM    3  C5  UNL     1     -33.470   5.090   3.234  1.00 20.00     0.039 C 
HETATM    4  C8  UNL     1     -32.856   7.157   2.237  1.00 20.00     0.021 C 
HETATM    5  C10 UNL     1     -32.982   5.643   1.919  1.00 20.00     0.005 C 
HETATM    6  C11 UNL     1     -35.697   5.939   4.345  1.00 20.00     0.043 C 
ENDROOT
BRANCH   4   7
HETATM    7  C9  UNL     1     -32.042   7.634   1.007  1.00 20.00     0.022 C 
HETATM    8  C4  UNL     1     -32.375   9.129   0.962  1.00 20.00    -0.082 C 
HETATM    9  C2  UNL     1     -31.831   9.699   2.056  1.00 20.00    -0.019 C 
HETATM   10  C12 UNL     1     -33.235   9.735  -0.079  1.00 20.00     0.043 C 
HETATM   11  C7  UNL     1     -31.031   8.638   2.776  1.00 20.00     0.014 C 
HETATM   12  C6  UNL     1     -30.603   7.830   1.510  1.00 20.00     0.018 C 
ENDBRANCH   4   7
TORSDOF 2
ENDMDL
MODEL 5
REMARK VINA RESULT:       3.4      1.178      4.627
REMARK  2 active torsions:
REMARK  status: ('A' for Active; 'I' for Inactive)
REMARK    1  A    between atoms: C7_7  and  C10_10 
REMARK    2  A    between atoms: C8_8  and  C9_9 
ROOT
HETATM    1  C1  UNL     1     -32.732   6.681   1.823  1.00 20.00    -0.019 C 
HETATM    2  C3  UNL     1     -33.514   6.367   2.884  1.00 20.00    -0.087 C 
HETATM    3  C5  UNL     1     -33.774   7.588   3.781  1.00 20.00     0.039 C 
HETATM    4  C8  UNL     1     -32.590   8.159   1.802  1.00 20.00     0.021 C 
HETATM    5  C10 UNL     1     -32.554   8.356   3.341  1.00 20.00     0.005 C 
HETATM    6  C11 UNL     1     -34.066   5.033   3.231  1.00 20.00     0.043 C 
ENDROOT
BRANCH   4   7
HETATM    7  C9  UNL     1     -31.551   9.222   1.359  1.00 20.00     0.022 C 
HETATM    8  C4  UNL     1     -31.565   9.069  -0.165  1.00 20.00    -0.082 C 
HETATM    9  C2  UNL     1     -32.774   9.476  -0.602  1.00 20.00    -0.019 C 
HETATM   10  C12 UNL     1     -30.446   8.475  -0.929  1.00 20.00     0.043 C 
HETATM   11  C7  UNL     1     -33.533  10.017   0.587  1.00 20.00     0.014 C 
HETATM   12  C6  UNL     1     -32.298  10.565   1.369  1.00 20.00     0.018 C 
ENDBRANCH   4   7
TORSDOF 2
ENDMDL
MODEL 6
REMARK VINA RESULT:       3.8      1.649      3.234
REMARK  2 active torsions:
REMARK  status: ('A' for Active; 'I' for Inactive)
REMARK    1  A    between atoms: C7_7  and  C10_10 
REMARK    2  A    between atoms: C8_8  and  C9_9 
ROOT
HETATM    1  C1  UNL     1     -33.314   5.570   1.653  1.00 20.00    -0.019 C 
HETATM    2  C3  UNL     1     -32.075   5.555   1.105  1.00 20.00    -0.087 C 
HETATM    3  C5  UNL     1     -31.274   6.813   1.475  1.00 20.00     0.039 C 
HETATM    4  C8  UNL     1     -33.364   6.713   2.602  1.00 20.00     0.021 C 
HETATM    5  C10 UNL     1     -32.477   7.674   1.766  1.00 20.00     0.005 C 
HETATM    6  C11 UNL     1     -31.497   4.513   0.220  1.00 20.00     0.043 C 
ENDROOT
BRANCH   4   7
HETATM    7  C9  UNL     1     -34.406   7.713   3.165  1.00 20.00     0.022 C 
HETATM    8  C4  UNL     1     -35.603   6.800   3.453  1.00 20.00    -0.082 C 
HETATM    9  C2  UNL     1     -35.249   5.973   4.457  1.00 20.00    -0.019 C 
HETATM   10  C12 UNL     1     -36.848   6.822   2.654  1.00 20.00     0.043 C 
HETATM   11  C7  UNL     1     -33.878   6.392   4.935  1.00 20.00     0.014 C 
HETATM   12  C6  UNL     1     -34.032   7.918   4.642  1.00 20.00     0.018 C 
ENDBRANCH   4   7
TORSDOF 2
ENDMDL
MODEL 7
REMARK VINA RESULT:       4.0      1.189      4.250
REMARK  2 active torsions:
REMARK  status: ('A' for Active; 'I' for Inactive)
REMARK    1  A    between atoms: C7_7  and  C10_10 
REMARK    2  A    between atoms: C8_8  and  C9_9 
ROOT
HETATM    1  C1  UNL     1     -33.165   8.157   3.817  1.00 20.00    -0.019 C 
HETATM    2  C3  UNL     1     -33.903   7.787   4.891  1.00 20.00    -0.087 C 
HETATM    3  C5  UNL     1     -34.855   6.628   4.555  1.00 20.00     0.039 C 
HETATM    4  C8  UNL     1     -33.398   7.148   2.752  1.00 20.00     0.021 C 
HETATM    5  C10 UNL     1     -34.895   6.896   3.072  1.00 20.00     0.005 C 
HETATM    6  C11 UNL     1     -33.883   8.391   6.247  1.00 20.00     0.043 C 
ENDROOT
BRANCH   4   7
HETATM    7  C9  UNL     1     -33.427   7.076   1.203  1.00 20.00     0.022 C 
HETATM    8  C4  UNL     1     -32.196   7.905   0.821  1.00 20.00    -0.082 C 
HETATM    9  C2  UNL     1     -31.107   7.230   1.239  1.00 20.00    -0.019 C 
HETATM   10  C12 UNL     1     -32.286   9.245   0.199  1.00 20.00     0.043 C 
HETATM   11  C7  UNL     1     -31.572   5.902   1.787  1.00 20.00     0.014 C 
HETATM   12  C6  UNL     1     -32.798   5.722   0.837  1.00 20.00     0.018 C 
ENDBRANCH   4   7
TORSDOF 2
ENDMDL
MODEL 8
REMARK VINA RESULT:       4.7      2.155      3.565
REMARK  2 active torsions:
REMARK  status: ('A' for Active; 'I' for Inactive)
REMARK    1  A    between atoms: C7_7  and  C10_10 
REMARK    2  A    between atoms: C8_8  and  C9_9 
ROOT
HETATM    1  C1  UNL     1     -32.863   7.971   0.353  1.00 20.00    -0.019 C 
HETATM    2  C3  UNL     1     -32.332   9.068   0.946  1.00 20.00    -0.087 C 
HETATM    3  C5  UNL     1     -31.924   8.787   2.401  1.00 20.00     0.039 C 
HETATM    4  C8  UNL     1     -32.652   6.826   1.276  1.00 20.00     0.021 C 
HETATM    5  C10 UNL     1     -32.857   7.619   2.593  1.00 20.00     0.005 C 
HETATM    6  C11 UNL     1     -32.161  10.417   0.351  1.00 20.00     0.043 C 
ENDROOT
BRANCH   4   7
HETATM    7  C9  UNL     1     -33.342   5.487   1.645  1.00 20.00     0.022 C 
HETATM    8  C4  UNL     1     -33.126   4.654   0.377  1.00 20.00    -0.082 C 
HETATM    9  C2  UNL     1     -31.803   4.414   0.271  1.00 20.00    -0.019 C 
HETATM   10  C12 UNL     1     -34.218   4.309  -0.560  1.00 20.00     0.043 C 
HETATM   11  C7  UNL     1     -31.136   4.965   1.510  1.00 20.00     0.014 C 
HETATM   12  C6  UNL     1     -32.322   4.712   2.494  1.00 20.00     0.018 C 
ENDBRANCH   4   7
TORSDOF 2
ENDMDL
MODEL 9
REMARK VINA RESULT:       4.8      2.156      4.850
REMARK  2 active torsions:
REMARK  status: ('A' for Active; 'I' for Inactive)
REMARK    1  A    between atoms: C7_7  and  C10_10 
REMARK    2  A    between atoms: C8_8  and  C9_9 
ROOT
HETATM    1  C1  UNL     1     -33.946   4.971   3.588  1.00 20.00    -0.019 C 
HETATM    2  C3  UNL     1     -34.929   5.544   4.324  1.00 20.00    -0.087 C 
HETATM    3  C5  UNL     1     -35.017   7.058   4.075  1.00 20.00     0.039 C 
HETATM    4  C8  UNL     1     -33.452   5.998   2.635  1.00 20.00     0.021 C 
HETATM    5  C10 UNL     1     -33.597   7.211   3.592  1.00 20.00     0.005 C 
HETATM    6  C11 UNL     1     -35.828   4.876   5.298  1.00 20.00     0.043 C 
ENDROOT
BRANCH   4   7
HETATM    7  C9  UNL     1     -32.135   6.372   1.907  1.00 20.00     0.022 C 
HETATM    8  C4  UNL     1     -31.896   5.142   1.025  1.00 20.00    -0.082 C 
HETATM    9  C2  UNL     1     -32.877   5.109   0.101  1.00 20.00    -0.019 C 
HETATM   10  C12 UNL     1     -30.816   4.162   1.280  1.00 20.00     0.043 C 
HETATM   11  C7  UNL     1     -33.704   6.363   0.265  1.00 20.00     0.014 C 
HETATM   12  C6  UNL     1     -32.547   7.293   0.747  1.00 20.00     0.018 C 
ENDBRANCH   4   7
TORSDOF 2
ENDMDL
