MODEL 1
REMARK VINA RESULT:       4.1      0.000      0.000
REMARK  0 active torsions:
REMARK  status: ('A' for Active; 'I' for Inactive)
ROOT
HETATM    1  C1  UNL     1     -30.755   8.038   2.129  1.00 20.00    -0.019 A 
HETATM    2  C2  UNL     1     -31.125   6.921   1.476  1.00 20.00    -0.019 A 
HETATM    3  C3  UNL     1     -33.859   7.862   4.187  1.00 20.00    -0.023 C 
HETATM    4  C4  UNL     1     -34.238   6.744   3.544  1.00 20.00    -0.086 C 
HETATM    5  C5  UNL     1     -32.507   8.475   3.960  1.00 20.00     0.042 C 
HETATM    6  C6  UNL     1     -33.291   6.078   2.576  1.00 20.00     0.048 C 
HETATM    7  C7  UNL     1     -32.421   9.774   0.267  1.00 20.00     0.001 C 
HETATM    8  C8  UNL     1     -32.848   8.502  -0.468  1.00 20.00     0.001 C 
HETATM    9  C9  UNL     1     -32.676   9.758   1.772  1.00 20.00     0.015 C 
HETATM   10  C10 UNL     1     -33.454   7.420   0.423  1.00 20.00     0.015 C 
HETATM   11  C11 UNL     1     -32.188   8.464   2.451  1.00 20.00    -0.009 A 
HETATM   12  C12 UNL     1     -32.622   7.152   1.692  1.00 20.00    -0.008 A 
HETATM   13  C13 UNL     1     -35.568   6.094   3.765  1.00 20.00     0.043 C 
ENDROOT
TORSDOF 0
ENDMDL
MODEL 2
REMARK VINA RESULT:       5.0      1.128      2.067
REMARK  0 active torsions:
REMARK  status: ('A' for Active; 'I' for Inactive)
ROOT
HETATM    1  C1  UNL     1     -31.623   8.858   3.402  1.00 20.00    -0.019 A 
HETATM    2  C2  UNL     1     -30.727   8.421   2.500  1.00 20.00    -0.019 A 
HETATM    3  C3  UNL     1     -33.948   6.113   2.424  1.00 20.00    -0.023 C 
HETATM    4  C4  UNL     1     -33.059   5.664   1.521  1.00 20.00    -0.086 C 
HETATM    5  C5  UNL     1     -33.600   7.214   3.384  1.00 20.00     0.042 C 
HETATM    6  C6  UNL     1     -31.677   6.266   1.466  1.00 20.00     0.048 C 
HETATM    7  C7  UNL     1     -33.086  10.477   1.282  1.00 20.00     0.001 C 
HETATM    8  C8  UNL     1     -32.071   9.970   0.255  1.00 20.00     0.001 C 
HETATM    9  C9  UNL     1     -33.798   9.381   2.070  1.00 20.00     0.015 C 
HETATM   10  C10 UNL     1     -31.930   8.451   0.191  1.00 20.00     0.015 C 
HETATM   11  C11 UNL     1     -32.832   8.321   2.635  1.00 20.00    -0.009 A 
HETATM   12  C12 UNL     1     -31.781   7.802   1.580  1.00 20.00    -0.008 A 
HETATM   13  C13 UNL     1     -33.366   4.553   0.566  1.00 20.00     0.043 C 
ENDROOT
TORSDOF 0
ENDMDL
MODEL 3
REMARK VINA RESULT:       5.8      1.772      3.839
REMARK  0 active torsions:
REMARK  status: ('A' for Active; 'I' for Inactive)
ROOT
HETATM    1  C1  UNL     1     -34.986   6.980   2.049  1.00 20.00    -0.019 A 
HETATM    2  C2  UNL     1     -35.583   6.901   3.252  1.00 20.00    -0.019 A 
HETATM    3  C3  UNL     1     -32.922   3.987   2.878  1.00 20.00    -0.023 C 
HETATM    4  C4  UNL     1     -33.515   3.896   4.082  1.00 20.00    -0.086 C 
HETATM    5  C5  UNL     1     -33.398   4.968   1.845  1.00 20.00     0.042 C 
HETATM    6  C6  UNL     1     -34.687   4.787   4.410  1.00 20.00     0.048 C 
HETATM    7  C7  UNL     1     -32.664   8.560   3.218  1.00 20.00     0.001 C 
HETATM    8  C8  UNL     1     -33.341   8.461   4.587  1.00 20.00     0.001 C 
HETATM    9  C9  UNL     1     -32.437   7.222   2.520  1.00 20.00     0.015 C 
HETATM   10  C10 UNL     1     -33.685   7.040   5.029  1.00 20.00     0.015 C 
HETATM   11  C11 UNL     1     -33.687   6.323   2.521  1.00 20.00    -0.009 A 
HETATM   12  C12 UNL     1     -34.391   6.223   3.929  1.00 20.00    -0.008 A 
HETATM   13  C13 UNL     1     -33.082   2.914   5.125  1.00 20.00     0.043 C 
ENDROOT
TORSDOF 0
ENDMDL
MODEL 4
REMARK VINA RESULT:       6.4      0.999      3.937
REMARK  0 active torsions:
REMARK  status: ('A' for Active; 'I' for Inactive)
ROOT
HETATM    1  C1  UNL     1     -30.957   7.689   2.969  1.00 20.00    -0.019 A 
HETATM    2  C2  UNL     1     -31.619   8.712   3.538  1.00 20.00    -0.019 A 
HETATM    3  C3  UNL     1     -32.034   8.865  -0.401  1.00 20.00    -0.023 C 
HETATM    4  C4  UNL     1     -32.697   9.893   0.156  1.00 20.00    -0.086 C 
HETATM    5  C5  UNL     1     -31.157   7.964   0.421  1.00 20.00     0.042 C 
HETATM    6  C6  UNL     1     -32.560  10.162   1.634  1.00 20.00     0.048 C 
HETATM    7  C7  UNL     1     -33.484   5.998   2.881  1.00 20.00     0.001 C 
HETATM    8  C8  UNL     1     -34.238   7.167   3.519  1.00 20.00     0.001 C 
HETATM    9  C9  UNL     1     -32.723   6.349   1.605  1.00 20.00     0.015 C 
HETATM   10  C10 UNL     1     -34.101   8.496   2.780  1.00 20.00     0.015 C 
HETATM   11  C11 UNL     1     -31.871   7.625   1.744  1.00 20.00    -0.009 A 
HETATM   12  C12 UNL     1     -32.644   8.829   2.408  1.00 20.00    -0.008 A 
HETATM   13  C13 UNL     1     -33.560  10.825  -0.637  1.00 20.00     0.043 C 
ENDROOT
TORSDOF 0
ENDMDL
MODEL 5
REMARK VINA RESULT:       6.9      0.919      4.002
REMARK  0 active torsions:
REMARK  status: ('A' for Active; 'I' for Inactive)
ROOT
HETATM    1  C1  UNL     1     -32.340   5.576   1.720  1.00 20.00    -0.019 A 
HETATM    2  C2  UNL     1     -31.418   6.299   2.381  1.00 20.00    -0.019 A 
HETATM    3  C3  UNL     1     -33.305   8.596  -0.240  1.00 20.00    -0.023 C 
HETATM    4  C4  UNL     1     -32.385   9.329   0.411  1.00 20.00    -0.086 C 
HETATM    5  C5  UNL     1     -33.396   7.109  -0.053  1.00 20.00     0.042 C 
HETATM    6  C6  UNL     1     -31.413   8.653   1.346  1.00 20.00     0.048 C 
HETATM    7  C7  UNL     1     -34.527   6.464   3.639  1.00 20.00     0.001 C 
HETATM    8  C8  UNL     1     -33.478   7.294   4.384  1.00 20.00     0.001 C 
HETATM    9  C9  UNL     1     -34.624   6.751   2.144  1.00 20.00     0.015 C 
HETATM   10  C10 UNL     1     -32.695   8.269   3.508  1.00 20.00     0.015 C 
HETATM   11  C11 UNL     1     -33.251   6.773   1.445  1.00 20.00    -0.009 A 
HETATM   12  C12 UNL     1     -32.167   7.622   2.213  1.00 20.00    -0.008 A 
HETATM   13  C13 UNL     1     -32.251  10.809   0.230  1.00 20.00     0.043 C 
ENDROOT
TORSDOF 0
ENDMDL
