MODEL 1
REMARK VINA RESULT:      -0.1      0.000      0.000
REMARK  0 active torsions:
REMARK  status: ('A' for Active; 'I' for Inactive)
ROOT
HETATM    1  C1  UNL     1     -34.057   4.714   3.566  1.00 20.00     0.131 C 
HETATM    2  C2  UNL     1     -33.281   4.447   2.241  1.00 20.00     0.083 C 
HETATM    3  C3  UNL     1     -34.320   7.219   4.732  1.00 20.00     0.013 C 
HETATM    4  C4  UNL     1     -33.817   8.499   3.949  1.00 20.00     0.006 C 
HETATM    5  C5  UNL     1     -31.934   6.643   1.103  1.00 20.00     0.006 C 
HETATM    6  C6  UNL     1     -32.137   8.125   1.703  1.00 20.00     0.005 C 
HETATM    7  C7  UNL     1     -34.543   6.162   3.648  1.00 20.00     0.060 C 
HETATM    8  C8  UNL     1     -32.546   5.758   2.195  1.00 20.00    -0.002 C 
HETATM    9  C9  UNL     1     -32.814   7.839   3.044  1.00 20.00    -0.009 C 
HETATM   10  C10 UNL     1     -33.660   6.694   2.564  1.00 20.00     0.005 C 
HETATM   11  O11 UNL     1     -34.309   3.856   4.400  1.00 20.00    -0.298 OA
ENDROOT
TORSDOF 0
ENDMDL
MODEL 2
REMARK VINA RESULT:       0.2      1.078      2.718
REMARK  0 active torsions:
REMARK  status: ('A' for Active; 'I' for Inactive)
ROOT
HETATM    1  C1  UNL     1     -34.604   6.281   3.885  1.00 20.00     0.131 C 
HETATM    2  C2  UNL     1     -34.152   7.736   4.216  1.00 20.00     0.083 C 
HETATM    3  C3  UNL     1     -33.524   4.750   1.838  1.00 20.00     0.013 C 
HETATM    4  C4  UNL     1     -32.258   5.282   1.053  1.00 20.00     0.006 C 
HETATM    5  C5  UNL     1     -32.252   8.891   2.490  1.00 20.00     0.006 C 
HETATM    6  C6  UNL     1     -31.541   8.004   1.347  1.00 20.00     0.005 C 
HETATM    7  C7  UNL     1     -33.500   5.501   3.171  1.00 20.00     0.060 C 
HETATM    8  C8  UNL     1     -33.411   7.991   2.934  1.00 20.00    -0.002 C 
HETATM    9  C9  UNL     1     -32.420   6.754   1.318  1.00 20.00    -0.009 C 
HETATM   10  C10 UNL     1     -32.673   6.690   2.797  1.00 20.00     0.005 C 
HETATM   11  O11 UNL     1     -35.679   5.802   4.220  1.00 20.00    -0.298 OA
ENDROOT
TORSDOF 0
ENDMDL
MODEL 3
REMARK VINA RESULT:       0.4      2.081      3.277
REMARK  0 active torsions:
REMARK  status: ('A' for Active; 'I' for Inactive)
ROOT
HETATM    1  C1  UNL     1     -32.319   8.236   1.574  1.00 20.00     0.131 C 
HETATM    2  C2  UNL     1     -31.800   6.864   1.049  1.00 20.00     0.083 C 
HETATM    3  C3  UNL     1     -34.158   8.513   3.634  1.00 20.00     0.013 C 
HETATM    4  C4  UNL     1     -34.597   7.239   4.463  1.00 20.00     0.006 C 
HETATM    5  C5  UNL     1     -32.968   4.560   2.170  1.00 20.00     0.006 C 
HETATM    6  C6  UNL     1     -33.972   4.682   3.425  1.00 20.00     0.005 C 
HETATM    7  C7  UNL     1     -32.810   8.133   3.019  1.00 20.00     0.060 C 
HETATM    8  C8  UNL     1     -32.859   6.013   1.692  1.00 20.00    -0.002 C 
HETATM    9  C9  UNL     1     -34.282   6.179   3.444  1.00 20.00    -0.009 C 
HETATM   10  C10 UNL     1     -32.906   6.641   3.055  1.00 20.00     0.005 C 
HETATM   11  O11 UNL     1     -32.271   9.279   0.937  1.00 20.00    -0.298 OA
ENDROOT
TORSDOF 0
ENDMDL
MODEL 4
REMARK VINA RESULT:       0.4      1.551      2.851
REMARK  0 active torsions:
REMARK  status: ('A' for Active; 'I' for Inactive)
ROOT
HETATM    1  C1  UNL     1     -33.994   7.575   4.158  1.00 20.00     0.131 C 
HETATM    2  C2  UNL     1     -34.658   6.189   3.893  1.00 20.00     0.083 C 
HETATM    3  C3  UNL     1     -31.895   8.600   2.661  1.00 20.00     0.013 C 
HETATM    4  C4  UNL     1     -31.432   7.846   1.350  1.00 20.00     0.006 C 
HETATM    5  C5  UNL     1     -33.497   4.600   1.879  1.00 20.00     0.006 C 
HETATM    6  C6  UNL     1     -32.336   5.197   0.934  1.00 20.00     0.005 C 
HETATM    7  C7  UNL     1     -33.331   8.128   2.896  1.00 20.00     0.060 C 
HETATM    8  C8  UNL     1     -33.579   5.640   3.002  1.00 20.00    -0.002 C 
HETATM    9  C9  UNL     1     -31.937   6.469   1.683  1.00 20.00    -0.009 C 
HETATM   10  C10 UNL     1     -33.320   6.840   2.136  1.00 20.00     0.005 C 
HETATM   11  O11 UNL     1     -34.061   8.177   5.221  1.00 20.00    -0.298 OA
ENDROOT
TORSDOF 0
ENDMDL
MODEL 5
REMARK VINA RESULT:       0.8      2.024      3.984
REMARK  0 active torsions:
REMARK  status: ('A' for Active; 'I' for Inactive)
ROOT
HETATM    1  C1  UNL     1     -31.944   7.790   1.710  1.00 20.00     0.131 C 
HETATM    2  C2  UNL     1     -32.827   8.697   2.619  1.00 20.00     0.083 C 
HETATM    3  C3  UNL     1     -32.205   5.032   1.548  1.00 20.00     0.013 C 
HETATM    4  C4  UNL     1     -33.420   4.321   2.270  1.00 20.00     0.006 C 
HETATM    5  C5  UNL     1     -34.658   7.386   4.309  1.00 20.00     0.006 C 
HETATM    6  C6  UNL     1     -34.897   5.797   4.179  1.00 20.00     0.005 C 
HETATM    7  C7  UNL     1     -32.656   6.482   1.362  1.00 20.00     0.060 C 
HETATM    8  C8  UNL     1     -33.387   7.599   3.479  1.00 20.00    -0.002 C 
HETATM    9  C9  UNL     1     -33.716   5.365   3.311  1.00 20.00    -0.009 C 
HETATM   10  C10 UNL     1     -33.705   6.578   2.424  1.00 20.00     0.005 C 
HETATM   11  O11 UNL     1     -30.850   8.115   1.269  1.00 20.00    -0.298 OA
ENDROOT
TORSDOF 0
ENDMDL
MODEL 6
REMARK VINA RESULT:       0.9      1.549      3.019
REMARK  0 active torsions:
REMARK  status: ('A' for Active; 'I' for Inactive)
ROOT
HETATM    1  C1  UNL     1     -32.192   5.688   1.490  1.00 20.00     0.131 C 
HETATM    2  C2  UNL     1     -32.027   7.238   1.470  1.00 20.00     0.083 C 
HETATM    3  C3  UNL     1     -33.847   4.326   3.253  1.00 20.00     0.013 C 
HETATM    4  C4  UNL     1     -34.826   5.142   4.189  1.00 20.00     0.006 C 
HETATM    5  C5  UNL     1     -33.373   8.675   3.483  1.00 20.00     0.006 C 
HETATM    6  C6  UNL     1     -34.409   7.928   4.466  1.00 20.00     0.005 C 
HETATM    7  C7  UNL     1     -33.535   5.275   2.094  1.00 20.00     0.060 C 
HETATM    8  C8  UNL     1     -32.648   7.502   2.814  1.00 20.00    -0.002 C 
HETATM    9  C9  UNL     1     -34.092   6.455   4.207  1.00 20.00    -0.009 C 
HETATM   10  C10 UNL     1     -33.840   6.593   2.733  1.00 20.00     0.005 C 
HETATM   11  O11 UNL     1     -31.382   4.905   1.014  1.00 20.00    -0.298 OA
ENDROOT
TORSDOF 0
ENDMDL
MODEL 7
REMARK VINA RESULT:       1.2      1.586      2.946
REMARK  0 active torsions:
REMARK  status: ('A' for Active; 'I' for Inactive)
ROOT
HETATM    1  C1  UNL     1     -32.691   5.203   1.334  1.00 20.00     0.131 C 
HETATM    2  C2  UNL     1     -33.630   4.655   2.451  1.00 20.00     0.083 C 
HETATM    3  C3  UNL     1     -31.869   7.847   1.158  1.00 20.00     0.013 C 
HETATM    4  C4  UNL     1     -32.210   8.849   2.334  1.00 20.00     0.006 C 
HETATM    5  C5  UNL     1     -34.669   6.542   4.263  1.00 20.00     0.006 C 
HETATM    6  C6  UNL     1     -34.146   8.067   4.244  1.00 20.00     0.005 C 
HETATM    7  C7  UNL     1     -31.948   6.458   1.794  1.00 20.00     0.060 C 
HETATM    8  C8  UNL     1     -34.120   5.988   2.944  1.00 20.00    -0.002 C 
HETATM    9  C9  UNL     1     -33.401   8.134   2.911  1.00 20.00    -0.009 C 
HETATM   10  C10 UNL     1     -32.825   6.747   2.970  1.00 20.00     0.005 C 
HETATM   11  O11 UNL     1     -32.514   4.655   0.255  1.00 20.00    -0.298 OA
ENDROOT
TORSDOF 0
ENDMDL
MODEL 8
REMARK VINA RESULT:       2.7      0.976      2.680
REMARK  0 active torsions:
REMARK  status: ('A' for Active; 'I' for Inactive)
ROOT
HETATM    1  C1  UNL     1     -33.845   4.098   3.657  1.00 20.00     0.131 C 
HETATM    2  C2  UNL     1     -34.667   4.993   4.634  1.00 20.00     0.083 C 
HETATM    3  C3  UNL     1     -32.337   5.085   1.547  1.00 20.00     0.013 C 
HETATM    4  C4  UNL     1     -32.133   6.646   1.398  1.00 20.00     0.006 C 
HETATM    5  C5  UNL     1     -34.733   7.749   4.065  1.00 20.00     0.006 C 
HETATM    6  C6  UNL     1     -33.802   8.367   2.903  1.00 20.00     0.005 C 
HETATM    7  C7  UNL     1     -32.693   4.876   3.020  1.00 20.00     0.060 C 
HETATM    8  C8  UNL     1     -34.639   6.242   3.799  1.00 20.00    -0.002 C 
HETATM    9  C9  UNL     1     -33.344   7.112   2.158  1.00 20.00    -0.009 C 
HETATM   10  C10 UNL     1     -33.199   6.239   3.372  1.00 20.00     0.005 C 
HETATM   11  O11 UNL     1     -34.050   2.905   3.480  1.00 20.00    -0.298 OA
ENDROOT
TORSDOF 0
ENDMDL
