MODEL 1
REMARK VINA RESULT:      -0.8      0.000      0.000
REMARK  0 active torsions:
REMARK  status: ('A' for Active; 'I' for Inactive)
ROOT
HETATM    1  C1  UNL     1     -31.871   7.527   1.593  1.00 20.00    -0.021 C 
HETATM    2  C2  UNL     1     -32.276   8.422   4.058  1.00 20.00    -0.021 C 
HETATM    3  C3  UNL     1     -32.401   6.279   1.530  1.00 20.00    -0.023 C 
HETATM    4  C4  UNL     1     -33.221   7.844   4.844  1.00 20.00    -0.023 C 
HETATM    5  C5  UNL     1     -32.614   8.434   2.575  1.00 20.00     0.035 C 
HETATM    6  C6  UNL     1     -33.193   6.139   2.745  1.00 20.00     0.033 C 
HETATM    7  C7  UNL     1     -34.394   7.339   4.038  1.00 20.00     0.033 C 
HETATM    8  C8  UNL     1     -33.883   7.624   2.636  1.00 20.00     0.015 C 
HETATM    9  C9  UNL     1     -34.514   5.848   3.419  1.00 20.00     0.098 C 
HETATM   10 CL10 UNL     1     -34.607   4.473   4.569  1.00 20.00    -0.124 Cl
ENDROOT
TORSDOF 0
ENDMDL
MODEL 2
REMARK VINA RESULT:       0.3      2.343      3.174
REMARK  0 active torsions:
REMARK  status: ('A' for Active; 'I' for Inactive)
ROOT
HETATM    1  C1  UNL     1     -33.377   4.874   2.163  1.00 20.00    -0.021 C 
HETATM    2  C2  UNL     1     -34.650   6.723   3.576  1.00 20.00    -0.021 C 
HETATM    3  C3  UNL     1     -32.734   5.515   1.154  1.00 20.00    -0.023 C 
HETATM    4  C4  UNL     1     -34.283   8.026   3.477  1.00 20.00    -0.023 C 
HETATM    5  C5  UNL     1     -33.505   5.735   3.420  1.00 20.00     0.035 C 
HETATM    6  C6  UNL     1     -32.808   6.930   1.493  1.00 20.00     0.033 C 
HETATM    7  C7  UNL     1     -32.801   8.178   3.224  1.00 20.00     0.033 C 
HETATM    8  C8  UNL     1     -32.417   6.716   3.073  1.00 20.00     0.015 C 
HETATM    9  C9  UNL     1     -32.119   8.249   1.759  1.00 20.00     0.098 C 
HETATM   10 CL10 UNL     1     -32.523   9.654   0.716  1.00 20.00    -0.124 Cl
ENDROOT
TORSDOF 0
ENDMDL
MODEL 3
REMARK VINA RESULT:       0.6      2.089      3.596
REMARK  0 active torsions:
REMARK  status: ('A' for Active; 'I' for Inactive)
ROOT
HETATM    1  C1  UNL     1     -34.672   6.947   4.690  1.00 20.00    -0.021 C 
HETATM    2  C2  UNL     1     -33.605   4.832   3.494  1.00 20.00    -0.021 C 
HETATM    3  C3  UNL     1     -33.922   8.023   4.340  1.00 20.00    -0.023 C 
HETATM    4  C4  UNL     1     -32.776   4.998   2.432  1.00 20.00    -0.023 C 
HETATM    5  C5  UNL     1     -34.707   5.874   3.600  1.00 20.00     0.035 C 
HETATM    6  C6  UNL     1     -33.072   7.558   3.251  1.00 20.00     0.033 C 
HETATM    7  C7  UNL     1     -33.154   6.204   1.604  1.00 20.00     0.033 C 
HETATM    8  C8  UNL     1     -34.274   6.764   2.464  1.00 20.00     0.015 C 
HETATM    9  C9  UNL     1     -32.573   7.697   1.831  1.00 20.00     0.098 C 
HETATM   10 CL10 UNL     1     -30.818   7.960   1.560  1.00 20.00    -0.124 Cl
ENDROOT
TORSDOF 0
ENDMDL
MODEL 4
REMARK VINA RESULT:       0.7      1.700      2.918
REMARK  0 active torsions:
REMARK  status: ('A' for Active; 'I' for Inactive)
ROOT
HETATM    1  C1  UNL     1     -34.069   7.796   4.123  1.00 20.00    -0.021 C 
HETATM    2  C2  UNL     1     -32.629   8.867   2.168  1.00 20.00    -0.021 C 
HETATM    3  C3  UNL     1     -34.582   6.632   3.649  1.00 20.00    -0.023 C 
HETATM    4  C4  UNL     1     -32.206   8.094   1.135  1.00 20.00    -0.023 C 
HETATM    5  C5  UNL     1     -32.715   8.139   3.501  1.00 20.00     0.035 C 
HETATM    6  C6  UNL     1     -33.868   6.379   2.404  1.00 20.00     0.033 C 
HETATM    7  C7  UNL     1     -31.926   6.674   1.567  1.00 20.00     0.033 C 
HETATM    8  C8  UNL     1     -32.389   6.752   3.012  1.00 20.00     0.015 C 
HETATM    9  C9  UNL     1     -33.012   5.474   1.548  1.00 20.00     0.098 C 
HETATM   10 CL10 UNL     1     -33.647   4.949  -0.047  1.00 20.00    -0.124 Cl
ENDROOT
TORSDOF 0
ENDMDL
MODEL 5
REMARK VINA RESULT:       0.9      1.839      3.252
REMARK  0 active torsions:
REMARK  status: ('A' for Active; 'I' for Inactive)
ROOT
HETATM    1  C1  UNL     1     -34.267   7.707   4.510  1.00 20.00    -0.021 C 
HETATM    2  C2  UNL     1     -34.521   5.066   4.515  1.00 20.00    -0.021 C 
HETATM    3  C3  UNL     1     -33.238   8.007   3.678  1.00 20.00    -0.023 C 
HETATM    4  C4  UNL     1     -33.979   4.330   3.511  1.00 20.00    -0.023 C 
HETATM    5  C5  UNL     1     -35.014   6.440   4.090  1.00 20.00     0.035 C 
HETATM    6  C6  UNL     1     -32.952   6.770   2.962  1.00 20.00     0.033 C 
HETATM    7  C7  UNL     1     -33.993   5.071   2.195  1.00 20.00     0.033 C 
HETATM    8  C8  UNL     1     -34.527   6.414   2.664  1.00 20.00     0.015 C 
HETATM    9  C9  UNL     1     -32.795   6.019   1.660  1.00 20.00     0.098 C 
HETATM   10 CL10 UNL     1     -31.215   5.246   1.300  1.00 20.00    -0.124 Cl
ENDROOT
TORSDOF 0
ENDMDL
MODEL 6
REMARK VINA RESULT:       1.3      1.666      2.744
REMARK  0 active torsions:
REMARK  status: ('A' for Active; 'I' for Inactive)
ROOT
HETATM    1  C1  UNL     1     -33.279   4.482   2.316  1.00 20.00    -0.021 C 
HETATM    2  C2  UNL     1     -31.767   6.536   1.581  1.00 20.00    -0.021 C 
HETATM    3  C3  UNL     1     -33.804   4.788   3.529  1.00 20.00    -0.023 C 
HETATM    4  C4  UNL     1     -31.938   7.748   2.168  1.00 20.00    -0.023 C 
HETATM    5  C5  UNL     1     -33.043   5.718   1.448  1.00 20.00     0.035 C 
HETATM    6  C6  UNL     1     -33.529   6.206   3.719  1.00 20.00     0.033 C 
HETATM    7  C7  UNL     1     -33.377   7.991   2.557  1.00 20.00     0.033 C 
HETATM    8  C8  UNL     1     -33.970   6.639   2.198  1.00 20.00     0.015 C 
HETATM    9  C9  UNL     1     -34.020   7.609   3.992  1.00 20.00     0.098 C 
HETATM   10 CL10 UNL     1     -33.399   8.469   5.441  1.00 20.00    -0.124 Cl
ENDROOT
TORSDOF 0
ENDMDL
MODEL 7
REMARK VINA RESULT:       1.6      1.284      2.557
REMARK  0 active torsions:
REMARK  status: ('A' for Active; 'I' for Inactive)
ROOT
HETATM    1  C1  UNL     1     -32.067   8.807   1.078  1.00 20.00    -0.021 C 
HETATM    2  C2  UNL     1     -32.189   6.170   0.816  1.00 20.00    -0.021 C 
HETATM    3  C3  UNL     1     -33.121   9.181   1.848  1.00 20.00    -0.023 C 
HETATM    4  C4  UNL     1     -32.925   5.434   1.688  1.00 20.00    -0.023 C 
HETATM    5  C5  UNL     1     -31.552   7.410   1.423  1.00 20.00     0.035 C 
HETATM    6  C6  UNL     1     -33.646   7.941   2.403  1.00 20.00     0.033 C 
HETATM    7  C7  UNL     1     -32.936   6.042   3.071  1.00 20.00     0.033 C 
HETATM    8  C8  UNL     1     -32.174   7.326   2.792  1.00 20.00     0.015 C 
HETATM    9  C9  UNL     1     -34.035   7.105   3.602  1.00 20.00     0.098 C 
HETATM   10 CL10 UNL     1     -35.736   6.548   3.745  1.00 20.00    -0.124 Cl
ENDROOT
TORSDOF 0
ENDMDL
