MODEL 1
REMARK VINA RESULT:      -3.1      0.000      0.000
REMARK  1 active torsions:
REMARK  status: ('A' for Active; 'I' for Inactive)
REMARK    1  A    between atoms: C1_1  and  C2_2 
ROOT
HETATM    1  C2  UNL     1     -32.115   7.932   1.937  1.00 20.00     0.363 C 
HETATM    2  F4  UNL     1     -31.621   8.442   3.094  1.00 20.00    -0.183 F 
HETATM    3  F5  UNL     1     -31.171   7.080   1.457  1.00 20.00    -0.183 F 
HETATM    4 CL7  UNL     1     -32.359   9.236   0.763  1.00 20.00    -0.044 Cl
ENDROOT
BRANCH   1   5
HETATM    5  C1  UNL     1     -33.382   7.147   2.216  1.00 20.00     0.353 C 
HETATM    6  F3  UNL     1     -33.101   5.823   2.062  1.00 20.00    -0.225 F 
HETATM    7 CL6  UNL     1     -33.988   7.396   3.868  1.00 20.00    -0.082 Cl
ENDBRANCH   1   5
TORSDOF 1
ENDMDL
MODEL 2
REMARK VINA RESULT:      -2.8      2.507      3.779
REMARK  1 active torsions:
REMARK  status: ('A' for Active; 'I' for Inactive)
REMARK    1  A    between atoms: C1_1  and  C2_2 
ROOT
HETATM    1  C2  UNL     1     -34.626   6.465   3.731  1.00 20.00     0.363 C 
HETATM    2  F4  UNL     1     -34.457   7.251   4.825  1.00 20.00    -0.183 F 
HETATM    3  F5  UNL     1     -35.934   6.570   3.379  1.00 20.00    -0.183 F 
HETATM    4 CL7  UNL     1     -34.281   4.777   4.147  1.00 20.00    -0.044 Cl
ENDROOT
BRANCH   1   5
HETATM    5  C1  UNL     1     -33.771   6.976   2.589  1.00 20.00     0.353 C 
HETATM    6  F3  UNL     1     -32.847   7.834   3.104  1.00 20.00    -0.225 F 
HETATM    7 CL6  UNL     1     -32.906   5.671   1.749  1.00 20.00    -0.082 Cl
ENDBRANCH   1   5
TORSDOF 1
ENDMDL
MODEL 3
REMARK VINA RESULT:      -2.8      1.942      2.140
REMARK  1 active torsions:
REMARK  status: ('A' for Active; 'I' for Inactive)
REMARK    1  A    between atoms: C1_1  and  C2_2 
ROOT
HETATM    1  C2  UNL     1     -32.941   6.209   1.800  1.00 20.00     0.363 C 
HETATM    2  F4  UNL     1     -32.042   5.199   1.907  1.00 20.00    -0.183 F 
HETATM    3  F5  UNL     1     -33.559   6.050   0.600  1.00 20.00    -0.183 F 
HETATM    4 CL7  UNL     1     -32.097   7.767   1.806  1.00 20.00    -0.044 Cl
ENDROOT
BRANCH   1   5
HETATM    5  C1  UNL     1     -33.979   6.098   2.900  1.00 20.00     0.353 C 
HETATM    6  F3  UNL     1     -33.690   4.992   3.642  1.00 20.00    -0.225 F 
HETATM    7 CL6  UNL     1     -33.978   7.507   3.982  1.00 20.00    -0.082 Cl
ENDBRANCH   1   5
TORSDOF 1
ENDMDL
MODEL 4
REMARK VINA RESULT:      -2.7      2.029      3.398
REMARK  1 active torsions:
REMARK  status: ('A' for Active; 'I' for Inactive)
REMARK    1  A    between atoms: C1_1  and  C2_2 
ROOT
HETATM    1  C2  UNL     1     -34.254   6.623   3.521  1.00 20.00     0.363 C 
HETATM    2  F4  UNL     1     -35.594   6.645   3.308  1.00 20.00    -0.183 F 
HETATM    3  F5  UNL     1     -33.945   5.358   3.908  1.00 20.00    -0.183 F 
HETATM    4 CL7  UNL     1     -33.836   7.740   4.831  1.00 20.00    -0.044 Cl
ENDROOT
BRANCH   1   5
HETATM    5  C1  UNL     1     -33.520   6.930   2.230  1.00 20.00     0.353 C 
HETATM    6  F3  UNL     1     -32.584   7.885   2.493  1.00 20.00    -0.225 F 
HETATM    7 CL6  UNL     1     -32.687   5.508   1.566  1.00 20.00    -0.082 Cl
ENDBRANCH   1   5
TORSDOF 1
ENDMDL
MODEL 5
REMARK VINA RESULT:      -2.7      1.903      3.127
REMARK  1 active torsions:
REMARK  status: ('A' for Active; 'I' for Inactive)
REMARK    1  A    between atoms: C1_1  and  C2_2 
ROOT
HETATM    1  C2  UNL     1     -34.010   7.402   3.765  1.00 20.00     0.363 C 
HETATM    2  F4  UNL     1     -33.478   7.834   4.937  1.00 20.00    -0.183 F 
HETATM    3  F5  UNL     1     -34.579   8.487   3.177  1.00 20.00    -0.183 F 
HETATM    4 CL7  UNL     1     -35.270   6.199   4.086  1.00 20.00    -0.044 Cl
ENDROOT
BRANCH   1   5
HETATM    5  C1  UNL     1     -32.912   6.877   2.861  1.00 20.00     0.353 C 
HETATM    6  F3  UNL     1     -33.469   5.984   1.995  1.00 20.00    -0.225 F 
HETATM    7 CL6  UNL     1     -32.141   8.164   1.909  1.00 20.00    -0.082 Cl
ENDBRANCH   1   5
TORSDOF 1
ENDMDL
MODEL 6
REMARK VINA RESULT:      -2.6      2.759      3.098
REMARK  1 active torsions:
REMARK  status: ('A' for Active; 'I' for Inactive)
REMARK    1  A    between atoms: C1_1  and  C2_2 
ROOT
HETATM    1  C2  UNL     1     -34.000   7.307   3.672  1.00 20.00     0.363 C 
HETATM    2  F4  UNL     1     -34.680   8.413   3.277  1.00 20.00    -0.183 F 
HETATM    3  F5  UNL     1     -33.179   7.699   4.682  1.00 20.00    -0.183 F 
HETATM    4 CL7  UNL     1     -33.011   6.701   2.334  1.00 20.00    -0.044 Cl
ENDROOT
BRANCH   1   5
HETATM    5  C1  UNL     1     -34.967   6.269   4.207  1.00 20.00     0.353 C 
HETATM    6  F3  UNL     1     -36.129   6.371   3.501  1.00 20.00    -0.225 F 
HETATM    7 CL6  UNL     1     -34.354   4.611   4.026  1.00 20.00    -0.082 Cl
ENDBRANCH   1   5
TORSDOF 1
ENDMDL
MODEL 7
REMARK VINA RESULT:      -2.6      2.820      3.985
REMARK  1 active torsions:
REMARK  status: ('A' for Active; 'I' for Inactive)
REMARK    1  A    between atoms: C1_1  and  C2_2 
ROOT
HETATM    1  C2  UNL     1     -35.101   6.248   3.907  1.00 20.00     0.363 C 
HETATM    2  F4  UNL     1     -36.156   6.658   3.156  1.00 20.00    -0.183 F 
HETATM    3  F5  UNL     1     -35.622   5.690   5.031  1.00 20.00    -0.183 F 
HETATM    4 CL7  UNL     1     -34.114   7.645   4.367  1.00 20.00    -0.044 Cl
ENDROOT
BRANCH   1   5
HETATM    5  C1  UNL     1     -34.313   5.191   3.159  1.00 20.00     0.353 C 
HETATM    6  F3  UNL     1     -33.196   5.781   2.648  1.00 20.00    -0.225 F 
HETATM    7 CL6  UNL     1     -33.801   3.853   4.209  1.00 20.00    -0.082 Cl
ENDBRANCH   1   5
TORSDOF 1
ENDMDL
MODEL 8
REMARK VINA RESULT:      -2.6      2.053      3.221
REMARK  1 active torsions:
REMARK  status: ('A' for Active; 'I' for Inactive)
REMARK    1  A    between atoms: C1_1  and  C2_2 
ROOT
HETATM    1  C2  UNL     1     -33.776   7.457   3.664  1.00 20.00     0.363 C 
HETATM    2  F4  UNL     1     -32.969   7.778   4.707  1.00 20.00    -0.183 F 
HETATM    3  F5  UNL     1     -34.776   8.378   3.652  1.00 20.00    -0.183 F 
HETATM    4 CL7  UNL     1     -34.481   5.852   3.922  1.00 20.00    -0.044 Cl
ENDROOT
BRANCH   1   5
HETATM    5  C1  UNL     1     -33.006   7.558   2.362  1.00 20.00     0.353 C 
HETATM    6  F3  UNL     1     -31.794   8.121   2.632  1.00 20.00    -0.225 F 
HETATM    7 CL6  UNL     1     -32.725   5.973   1.612  1.00 20.00    -0.082 Cl
ENDBRANCH   1   5
TORSDOF 1
ENDMDL
MODEL 9
REMARK VINA RESULT:      -2.6      2.812      3.882
REMARK  1 active torsions:
REMARK  status: ('A' for Active; 'I' for Inactive)
REMARK    1  A    between atoms: C1_1  and  C2_2 
ROOT
HETATM    1  C2  UNL     1     -34.525   6.348   3.671  1.00 20.00     0.363 C 
HETATM    2  F4  UNL     1     -33.792   6.053   2.567  1.00 20.00    -0.183 F 
HETATM    3  F5  UNL     1     -35.789   6.599   3.240  1.00 20.00    -0.183 F 
HETATM    4 CL7  UNL     1     -33.884   7.807   4.445  1.00 20.00    -0.044 Cl
ENDROOT
BRANCH   1   5
HETATM    5  C1  UNL     1     -34.559   5.153   4.605  1.00 20.00     0.353 C 
HETATM    6  F3  UNL     1     -35.863   4.823   4.821  1.00 20.00    -0.225 F 
HETATM    7 CL6  UNL     1     -33.734   3.734   3.925  1.00 20.00    -0.082 Cl
ENDBRANCH   1   5
TORSDOF 1
ENDMDL
