MODEL 1
REMARK VINA RESULT:       0.7      0.000      0.000
REMARK  0 active torsions:
REMARK  status: ('A' for Active; 'I' for Inactive)
ROOT
HETATM    1  C1  UNL     1     -34.217   6.511   3.522  1.00 20.00     0.136 C 
HETATM    2  C2  UNL     1     -33.407   5.403   2.881  1.00 20.00     0.088 C 
HETATM    3  C3  UNL     1     -33.477   7.763   3.912  1.00 20.00     0.152 C 
HETATM    4  C4  UNL     1     -31.880   7.111   1.767  1.00 20.00     0.083 C 
HETATM    5  C5  UNL     1     -32.741   5.843   1.563  1.00 20.00    -0.033 C 
HETATM    6  C6  UNL     1     -33.809   6.063   0.471  1.00 20.00     0.016 C 
HETATM    7  C7  UNL     1     -31.813   4.706   1.090  1.00 20.00     0.016 C 
HETATM    8  O8  UNL     1     -35.415   6.371   3.766  1.00 20.00    -0.297 OA
HETATM    9  S9  UNL     1     -32.793   8.540   2.434  1.00 20.00    -0.161 SA
ENDROOT
TORSDOF 0
ENDMDL
MODEL 2
REMARK VINA RESULT:       1.4      1.761      2.832
REMARK  0 active torsions:
REMARK  status: ('A' for Active; 'I' for Inactive)
ROOT
HETATM    1  C1  UNL     1     -33.953   7.547   3.853  1.00 20.00     0.136 C 
HETATM    2  C2  UNL     1     -33.623   8.513   2.734  1.00 20.00     0.088 C 
HETATM    3  C3  UNL     1     -34.343   6.148   3.457  1.00 20.00     0.152 C 
HETATM    4  C4  UNL     1     -32.661   6.619   1.329  1.00 20.00     0.083 C 
HETATM    5  C5  UNL     1     -32.429   8.044   1.880  1.00 20.00    -0.033 C 
HETATM    6  C6  UNL     1     -31.123   8.121   2.697  1.00 20.00     0.016 C 
HETATM    7  C7  UNL     1     -32.290   9.003   0.680  1.00 20.00     0.016 C 
HETATM    8  O8  UNL     1     -33.958   7.907   5.030  1.00 20.00    -0.297 OA
HETATM    9  S9  UNL     1     -32.959   5.357   2.611  1.00 20.00    -0.161 SA
ENDROOT
TORSDOF 0
ENDMDL
MODEL 3
REMARK VINA RESULT:       1.6      1.852      3.208
REMARK  0 active torsions:
REMARK  status: ('A' for Active; 'I' for Inactive)
ROOT
HETATM    1  C1  UNL     1     -32.540   6.331   1.608  1.00 20.00     0.136 C 
HETATM    2  C2  UNL     1     -33.972   6.031   1.999  1.00 20.00     0.088 C 
HETATM    3  C3  UNL     1     -32.062   7.746   1.794  1.00 20.00     0.152 C 
HETATM    4  C4  UNL     1     -33.860   7.746   3.878  1.00 20.00     0.083 C 
HETATM    5  C5  UNL     1     -34.247   6.301   3.491  1.00 20.00    -0.033 C 
HETATM    6  C6  UNL     1     -33.506   5.270   4.367  1.00 20.00     0.016 C 
HETATM    7  C7  UNL     1     -35.759   6.128   3.740  1.00 20.00     0.016 C 
HETATM    8  O8  UNL     1     -31.818   5.470   1.106  1.00 20.00    -0.297 OA
HETATM    9  S9  UNL     1     -32.119   8.173   3.547  1.00 20.00    -0.161 SA
ENDROOT
TORSDOF 0
ENDMDL
MODEL 4
REMARK VINA RESULT:       1.8      2.296      3.689
REMARK  0 active torsions:
REMARK  status: ('A' for Active; 'I' for Inactive)
ROOT
HETATM    1  C1  UNL     1     -32.169   8.054   1.674  1.00 20.00     0.136 C 
HETATM    2  C2  UNL     1     -32.408   8.324   3.145  1.00 20.00     0.088 C 
HETATM    3  C3  UNL     1     -31.862   6.634   1.280  1.00 20.00     0.152 C 
HETATM    4  C4  UNL     1     -33.456   6.021   3.440  1.00 20.00     0.083 C 
HETATM    5  C5  UNL     1     -33.608   7.536   3.705  1.00 20.00    -0.033 C 
HETATM    6  C6  UNL     1     -34.926   8.077   3.114  1.00 20.00     0.016 C 
HETATM    7  C7  UNL     1     -33.655   7.752   5.232  1.00 20.00     0.016 C 
HETATM    8  O8  UNL     1     -32.170   8.964   0.846  1.00 20.00    -0.297 OA
HETATM    9  S9  UNL     1     -33.272   5.581   1.680  1.00 20.00    -0.161 SA
ENDROOT
TORSDOF 0
ENDMDL
MODEL 5
REMARK VINA RESULT:       1.8      1.922      2.949
REMARK  0 active torsions:
REMARK  status: ('A' for Active; 'I' for Inactive)
ROOT
HETATM    1  C1  UNL     1     -33.021   5.630   1.588  1.00 20.00     0.136 C 
HETATM    2  C2  UNL     1     -31.800   6.517   1.713  1.00 20.00     0.088 C 
HETATM    3  C3  UNL     1     -33.800   5.356   2.847  1.00 20.00     0.152 C 
HETATM    4  C4  UNL     1     -32.917   7.862   3.566  1.00 20.00     0.083 C 
HETATM    5  C5  UNL     1     -32.143   7.927   2.230  1.00 20.00    -0.033 C 
HETATM    6  C6  UNL     1     -32.935   8.710   1.162  1.00 20.00     0.016 C 
HETATM    7  C7  UNL     1     -30.821   8.682   2.479  1.00 20.00     0.016 C 
HETATM    8  O8  UNL     1     -33.330   5.111   0.516  1.00 20.00    -0.297 OA
HETATM    9  S9  UNL     1     -34.466   6.904   3.490  1.00 20.00    -0.161 SA
ENDROOT
TORSDOF 0
ENDMDL
MODEL 6
REMARK VINA RESULT:       2.5      2.209      3.273
REMARK  0 active torsions:
REMARK  status: ('A' for Active; 'I' for Inactive)
ROOT
HETATM    1  C1  UNL     1     -32.585   8.032   2.358  1.00 20.00     0.136 C 
HETATM    2  C2  UNL     1     -33.364   7.683   3.609  1.00 20.00     0.088 C 
HETATM    3  C3  UNL     1     -31.698   6.960   1.783  1.00 20.00     0.152 C 
HETATM    4  C4  UNL     1     -33.591   5.265   2.842  1.00 20.00     0.083 C 
HETATM    5  C5  UNL     1     -34.332   6.504   3.394  1.00 20.00    -0.033 C 
HETATM    6  C6  UNL     1     -35.489   6.923   2.464  1.00 20.00     0.016 C 
HETATM    7  C7  UNL     1     -34.941   6.126   4.760  1.00 20.00     0.016 C 
HETATM    8  O8  UNL     1     -32.631   9.159   1.868  1.00 20.00    -0.297 OA
HETATM    9  S9  UNL     1     -32.709   5.555   1.273  1.00 20.00    -0.161 SA
ENDROOT
TORSDOF 0
ENDMDL
MODEL 7
REMARK VINA RESULT:       2.8      1.602      3.247
REMARK  0 active torsions:
REMARK  status: ('A' for Active; 'I' for Inactive)
ROOT
HETATM    1  C1  UNL     1     -33.858   5.142   3.280  1.00 20.00     0.136 C 
HETATM    2  C2  UNL     1     -34.686   6.377   3.570  1.00 20.00     0.088 C 
HETATM    3  C3  UNL     1     -33.156   5.087   1.949  1.00 20.00     0.152 C 
HETATM    4  C4  UNL     1     -33.071   7.823   2.233  1.00 20.00     0.083 C 
HETATM    5  C5  UNL     1     -33.846   7.669   3.561  1.00 20.00    -0.033 C 
HETATM    6  C6  UNL     1     -32.890   7.694   4.773  1.00 20.00     0.016 C 
HETATM    7  C7  UNL     1     -34.807   8.868   3.697  1.00 20.00     0.016 C 
HETATM    8  O8  UNL     1     -33.809   4.202   4.072  1.00 20.00    -0.297 OA
HETATM    9  S9  UNL     1     -31.958   6.432   1.847  1.00 20.00    -0.161 SA
ENDROOT
TORSDOF 0
ENDMDL
MODEL 8
REMARK VINA RESULT:       3.0      1.995      2.489
REMARK  0 active torsions:
REMARK  status: ('A' for Active; 'I' for Inactive)
ROOT
HETATM    1  C1  UNL     1     -33.773   4.298   3.820  1.00 20.00     0.136 C 
HETATM    2  C2  UNL     1     -32.616   5.058   3.205  1.00 20.00     0.088 C 
HETATM    3  C3  UNL     1     -34.720   5.079   4.690  1.00 20.00     0.152 C 
HETATM    4  C4  UNL     1     -34.044   7.159   3.018  1.00 20.00     0.083 C 
HETATM    5  C5  UNL     1     -33.082   6.199   2.281  1.00 20.00    -0.033 C 
HETATM    6  C6  UNL     1     -33.734   5.624   1.007  1.00 20.00     0.016 C 
HETATM    7  C7  UNL     1     -31.840   7.006   1.850  1.00 20.00     0.016 C 
HETATM    8  O8  UNL     1     -33.899   3.084   3.661  1.00 20.00    -0.297 OA
HETATM    9  S9  UNL     1     -35.529   6.354   3.702  1.00 20.00    -0.161 SA
ENDROOT
TORSDOF 0
ENDMDL
MODEL 9
REMARK VINA RESULT:       3.2      2.044      2.675
REMARK  0 active torsions:
REMARK  status: ('A' for Active; 'I' for Inactive)
ROOT
HETATM    1  C1  UNL     1     -32.297   8.014   2.588  1.00 20.00     0.136 C 
HETATM    2  C2  UNL     1     -32.496   7.228   1.309  1.00 20.00     0.088 C 
HETATM    3  C3  UNL     1     -33.488   8.151   3.499  1.00 20.00     0.152 C 
HETATM    4  C4  UNL     1     -34.167   5.692   2.465  1.00 20.00     0.083 C 
HETATM    5  C5  UNL     1     -32.910   5.767   1.569  1.00 20.00    -0.033 C 
HETATM    6  C6  UNL     1     -31.735   4.981   2.188  1.00 20.00     0.016 C 
HETATM    7  C7  UNL     1     -33.249   5.114   0.214  1.00 20.00     0.016 C 
HETATM    8  O8  UNL     1     -31.227   8.564   2.843  1.00 20.00    -0.297 OA
HETATM    9  S9  UNL     1     -33.989   6.518   4.080  1.00 20.00    -0.161 SA
ENDROOT
TORSDOF 0
ENDMDL
