MODEL 1
REMARK VINA RESULT:      -2.0      0.000      0.000
REMARK  1 active torsions:
REMARK  status: ('A' for Active; 'I' for Inactive)
REMARK    1  A    between atoms: C4_4  and  C5_5 
ROOT
HETATM    1  C1  UNL     1     -34.759   6.499   4.040  1.00 20.00     0.059 C 
HETATM    2  C5  UNL     1     -33.808   7.588   3.835  1.00 20.00     0.132 C 
HETATM    3  N6  UNL     1     -35.517   5.639   4.224  1.00 20.00    -0.197 NA
ENDROOT
BRANCH   2   4
HETATM    4  C4  UNL     1     -33.401   7.474   2.382  1.00 20.00     0.046 C 
HETATM    5  C2  UNL     1     -32.916   6.099   1.910  1.00 20.00     0.175 C 
HETATM    6  O7  UNL     1     -31.695   6.670   1.380  1.00 20.00    -0.390 OA
HETATM    7  C3  UNL     1     -31.983   7.933   2.026  1.00 20.00     0.175 C 
ENDBRANCH   2   4
TORSDOF 1
ENDMDL
MODEL 2
REMARK VINA RESULT:      -1.9      2.746      3.481
REMARK  1 active torsions:
REMARK  status: ('A' for Active; 'I' for Inactive)
REMARK    1  A    between atoms: C4_4  and  C5_5 
ROOT
HETATM    1  C1  UNL     1     -32.761   7.699   2.643  1.00 20.00     0.059 C 
HETATM    2  C5  UNL     1     -33.719   7.535   3.732  1.00 20.00     0.132 C 
HETATM    3  N6  UNL     1     -31.991   7.848   1.787  1.00 20.00    -0.197 NA
ENDROOT
BRANCH   2   4
HETATM    4  C4  UNL     1     -34.498   6.287   3.374  1.00 20.00     0.046 C 
HETATM    5  C2  UNL     1     -35.411   5.710   4.461  1.00 20.00     0.175 C 
HETATM    6  O7  UNL     1     -34.802   4.403   4.331  1.00 20.00    -0.390 OA
HETATM    7  C3  UNL     1     -33.756   4.953   3.495  1.00 20.00     0.175 C 
ENDBRANCH   2   4
TORSDOF 1
ENDMDL
MODEL 3
REMARK VINA RESULT:      -1.9      0.631      1.256
REMARK  1 active torsions:
REMARK  status: ('A' for Active; 'I' for Inactive)
REMARK    1  A    between atoms: C4_4  and  C5_5 
ROOT
HETATM    1  C1  UNL     1     -34.984   6.077   4.123  1.00 20.00     0.059 C 
HETATM    2  C5  UNL     1     -34.427   7.358   3.697  1.00 20.00     0.132 C 
HETATM    3  N6  UNL     1     -35.447   5.069   4.467  1.00 20.00    -0.197 NA
ENDROOT
BRANCH   2   4
HETATM    4  C4  UNL     1     -33.036   7.025   3.200  1.00 20.00     0.046 C 
HETATM    5  C2  UNL     1     -32.313   8.113   2.400  1.00 20.00     0.175 C 
HETATM    6  O7  UNL     1     -32.057   7.195   1.310  1.00 20.00    -0.390 OA
HETATM    7  C3  UNL     1     -32.943   6.216   1.903  1.00 20.00     0.175 C 
ENDBRANCH   2   4
TORSDOF 1
ENDMDL
MODEL 4
REMARK VINA RESULT:      -1.8      2.884      3.718
REMARK  1 active torsions:
REMARK  status: ('A' for Active; 'I' for Inactive)
REMARK    1  A    between atoms: C4_4  and  C5_5 
ROOT
HETATM    1  C1  UNL     1     -32.197   9.076   0.861  1.00 20.00     0.059 C 
HETATM    2  C5  UNL     1     -31.905   8.048   1.856  1.00 20.00     0.132 C 
HETATM    3  N6  UNL     1     -32.407   9.899   0.070  1.00 20.00    -0.197 NA
ENDROOT
BRANCH   2   4
HETATM    4  C4  UNL     1     -33.227   7.346   2.082  1.00 20.00     0.046 C 
HETATM    5  C2  UNL     1     -33.742   7.296   3.525  1.00 20.00     0.175 C 
HETATM    6  O7  UNL     1     -33.899   5.858   3.459  1.00 20.00    -0.390 OA
HETATM    7  C3  UNL     1     -33.185   5.819   2.200  1.00 20.00     0.175 C 
ENDBRANCH   2   4
TORSDOF 1
ENDMDL
MODEL 5
REMARK VINA RESULT:      -1.8      2.893      3.684
REMARK  1 active torsions:
REMARK  status: ('A' for Active; 'I' for Inactive)
REMARK    1  A    between atoms: C4_4  and  C5_5 
ROOT
HETATM    1  C1  UNL     1     -32.439   7.130   1.831  1.00 20.00     0.059 C 
HETATM    2  C5  UNL     1     -33.269   5.936   1.960  1.00 20.00     0.132 C 
HETATM    3  N6  UNL     1     -31.776   8.076   1.706  1.00 20.00    -0.197 NA
ENDROOT
BRANCH   2   4
HETATM    4  C4  UNL     1     -33.668   5.902   3.420  1.00 20.00     0.046 C 
HETATM    5  C2  UNL     1     -34.282   4.596   3.935  1.00 20.00     0.175 C 
HETATM    6  O7  UNL     1     -35.432   5.300   4.461  1.00 20.00    -0.390 OA
HETATM    7  C3  UNL     1     -35.028   6.510   3.778  1.00 20.00     0.175 C 
ENDBRANCH   2   4
TORSDOF 1
ENDMDL
MODEL 6
REMARK VINA RESULT:      -1.6      1.832      2.431
REMARK  1 active torsions:
REMARK  status: ('A' for Active; 'I' for Inactive)
REMARK    1  A    between atoms: C4_4  and  C5_5 
ROOT
HETATM    1  C1  UNL     1     -34.352   4.363   4.325  1.00 20.00     0.059 C 
HETATM    2  C5  UNL     1     -35.342   5.421   4.502  1.00 20.00     0.132 C 
HETATM    3  N6  UNL     1     -33.576   3.508   4.199  1.00 20.00    -0.197 NA
ENDROOT
BRANCH   2   4
HETATM    4  C4  UNL     1     -34.895   6.525   3.568  1.00 20.00     0.046 C 
HETATM    5  C2  UNL     1     -33.623   6.264   2.753  1.00 20.00     0.175 C 
HETATM    6  O7  UNL     1     -33.029   7.502   3.213  1.00 20.00    -0.390 OA
HETATM    7  C3  UNL     1     -34.085   7.668   4.189  1.00 20.00     0.175 C 
ENDBRANCH   2   4
TORSDOF 1
ENDMDL
MODEL 7
REMARK VINA RESULT:      -1.1      2.802      3.584
REMARK  1 active torsions:
REMARK  status: ('A' for Active; 'I' for Inactive)
REMARK    1  A    between atoms: C4_4  and  C5_5 
ROOT
HETATM    1  C1  UNL     1     -32.709   5.894   1.687  1.00 20.00     0.059 C 
HETATM    2  C5  UNL     1     -33.653   6.830   2.293  1.00 20.00     0.132 C 
HETATM    3  N6  UNL     1     -31.958   5.163   1.187  1.00 20.00    -0.197 NA
ENDROOT
BRANCH   2   4
HETATM    4  C4  UNL     1     -33.934   6.258   3.665  1.00 20.00     0.046 C 
HETATM    5  C2  UNL     1     -34.042   4.732   3.766  1.00 20.00     0.175 C 
HETATM    6  O7  UNL     1     -35.331   4.829   4.418  1.00 20.00    -0.390 OA
HETATM    7  C3  UNL     1     -35.397   6.245   4.120  1.00 20.00     0.175 C 
ENDBRANCH   2   4
TORSDOF 1
ENDMDL
MODEL 8
REMARK VINA RESULT:      -0.9      2.913      3.740
REMARK  1 active torsions:
REMARK  status: ('A' for Active; 'I' for Inactive)
REMARK    1  A    between atoms: C4_4  and  C5_5 
ROOT
HETATM    1  C1  UNL     1     -32.300   9.560   0.597  1.00 20.00     0.059 C 
HETATM    2  C5  UNL     1     -31.714   8.237   0.400  1.00 20.00     0.132 C 
HETATM    3  N6  UNL     1     -32.762  10.616   0.733  1.00 20.00    -0.197 NA
ENDROOT
BRANCH   2   4
HETATM    4  C4  UNL     1     -31.882   7.540   1.733  1.00 20.00     0.046 C 
HETATM    5  C2  UNL     1     -32.503   6.139   1.703  1.00 20.00     0.175 C 
HETATM    6  O7  UNL     1     -33.502   6.520   2.678  1.00 20.00    -0.390 OA
HETATM    7  C3  UNL     1     -33.121   7.911   2.553  1.00 20.00     0.175 C 
ENDBRANCH   2   4
TORSDOF 1
ENDMDL
MODEL 9
REMARK VINA RESULT:      -0.9      2.834      3.456
REMARK  1 active torsions:
REMARK  status: ('A' for Active; 'I' for Inactive)
REMARK    1  A    between atoms: C4_4  and  C5_5 
ROOT
HETATM    1  C1  UNL     1     -32.338   6.805   1.692  1.00 20.00     0.059 C 
HETATM    2  C5  UNL     1     -31.829   8.169   1.810  1.00 20.00     0.132 C 
HETATM    3  N6  UNL     1     -32.727   5.714   1.614  1.00 20.00    -0.197 NA
ENDROOT
BRANCH   2   4
HETATM    4  C4  UNL     1     -32.720   8.991   0.904  1.00 20.00     0.046 C 
HETATM    5  C2  UNL     1     -32.186   9.287  -0.502  1.00 20.00     0.175 C 
HETATM    6  O7  UNL     1     -32.403  10.707  -0.326  1.00 20.00    -0.390 OA
HETATM    7  C3  UNL     1     -32.670  10.512   1.083  1.00 20.00     0.175 C 
ENDBRANCH   2   4
TORSDOF 1
ENDMDL
