MODEL 1
REMARK VINA RESULT:      -0.8      0.000      0.000
REMARK  1 active torsions:
REMARK  status: ('A' for Active; 'I' for Inactive)
REMARK    1  A    between atoms: C3_3  and  C5_5 
ROOT
HETATM    1  C1  UNL     1     -32.283   6.298   1.260  1.00 20.00     0.144 A 
HETATM    2  C2  UNL     1     -32.558   7.560   1.744  1.00 20.00     0.071 A 
HETATM    3  C3  UNL     1     -33.528   5.731   2.973  1.00 20.00     0.103 A 
HETATM    4  N7  UNL     1     -32.838   5.248   1.963  1.00 20.00    -0.251 NA
HETATM    5  S8  UNL     1     -33.552   7.439   3.136  1.00 20.00    -0.061 SA
HETATM    6 BR9  UNL     1     -31.942   9.186   0.998  1.00 20.00    -0.041 Br
ENDROOT
BRANCH   3   7
HETATM    7  C5  UNL     1     -34.257   4.951   3.943  1.00 20.00    -0.035 C 
HETATM    8  C4  UNL     1     -35.405   5.464   4.425  1.00 20.00     0.021 C 
HETATM    9  C6  UNL     1     -33.785   3.606   4.443  1.00 20.00     0.050 C 
ENDBRANCH   3   7
TORSDOF 1
ENDMDL
MODEL 2
REMARK VINA RESULT:      -0.4      1.387      1.580
REMARK  1 active torsions:
REMARK  status: ('A' for Active; 'I' for Inactive)
REMARK    1  A    between atoms: C3_3  and  C5_5 
ROOT
HETATM    1  C1  UNL     1     -32.923   8.311   3.033  1.00 20.00     0.144 A 
HETATM    2  C2  UNL     1     -32.474   7.729   1.865  1.00 20.00     0.071 A 
HETATM    3  C3  UNL     1     -33.689   6.281   3.358  1.00 20.00     0.103 A 
HETATM    4  N7  UNL     1     -33.620   7.482   3.890  1.00 20.00    -0.251 NA
HETATM    5  S8  UNL     1     -32.937   6.078   1.830  1.00 20.00    -0.061 SA
HETATM    6 BR9  UNL     1     -31.497   8.604   0.502  1.00 20.00    -0.041 Br
ENDROOT
BRANCH   3   7
HETATM    7  C5  UNL     1     -34.337   5.137   3.949  1.00 20.00    -0.035 C 
HETATM    8  C4  UNL     1     -35.568   5.312   4.468  1.00 20.00     0.021 C 
HETATM    9  C6  UNL     1     -33.697   3.771   4.022  1.00 20.00     0.050 C 
ENDBRANCH   3   7
TORSDOF 1
ENDMDL
MODEL 3
REMARK VINA RESULT:       0.2      2.791      4.727
REMARK  1 active torsions:
REMARK  status: ('A' for Active; 'I' for Inactive)
REMARK    1  A    between atoms: C3_3  and  C5_5 
ROOT
HETATM    1  C1  UNL     1     -33.886   7.217   3.840  1.00 20.00     0.144 A 
HETATM    2  C2  UNL     1     -33.644   5.982   3.276  1.00 20.00     0.071 A 
HETATM    3  C3  UNL     1     -32.812   7.877   2.045  1.00 20.00     0.103 A 
HETATM    4  N7  UNL     1     -33.410   8.305   3.135  1.00 20.00    -0.251 NA
HETATM    5  S8  UNL     1     -32.786   6.178   1.804  1.00 20.00    -0.061 SA
HETATM    6 BR9  UNL     1     -34.170   4.316   4.003  1.00 20.00    -0.041 Br
ENDROOT
BRANCH   3   7
HETATM    7  C5  UNL     1     -32.184   8.709   1.049  1.00 20.00    -0.035 C 
HETATM    8  C4  UNL     1     -31.076   8.237   0.446  1.00 20.00     0.021 C 
HETATM    9  C6  UNL     1     -32.703  10.075   0.667  1.00 20.00     0.050 C 
ENDBRANCH   3   7
TORSDOF 1
ENDMDL
MODEL 4
REMARK VINA RESULT:       0.6      2.795      4.599
REMARK  1 active torsions:
REMARK  status: ('A' for Active; 'I' for Inactive)
REMARK    1  A    between atoms: C3_3  and  C5_5 
ROOT
HETATM    1  C1  UNL     1     -33.826   7.244   3.829  1.00 20.00     0.144 A 
HETATM    2  C2  UNL     1     -33.610   6.015   3.240  1.00 20.00     0.071 A 
HETATM    3  C3  UNL     1     -32.795   7.921   2.016  1.00 20.00     0.103 A 
HETATM    4  N7  UNL     1     -33.359   8.338   3.128  1.00 20.00    -0.251 NA
HETATM    5  S8  UNL     1     -32.791   6.226   1.748  1.00 20.00    -0.061 SA
HETATM    6 BR9  UNL     1     -34.132   4.343   3.955  1.00 20.00    -0.041 Br
ENDROOT
BRANCH   3   7
HETATM    7  C5  UNL     1     -32.187   8.763   1.016  1.00 20.00    -0.035 C 
HETATM    8  C4  UNL     1     -32.709   9.991   0.828  1.00 20.00     0.021 C 
HETATM    9  C6  UNL     1     -31.013   8.328   0.172  1.00 20.00     0.050 C 
ENDBRANCH   3   7
TORSDOF 1
ENDMDL
MODEL 5
REMARK VINA RESULT:       0.8      2.501      4.326
REMARK  1 active torsions:
REMARK  status: ('A' for Active; 'I' for Inactive)
REMARK    1  A    between atoms: C3_3  and  C5_5 
ROOT
HETATM    1  C1  UNL     1     -33.638   5.316   2.323  1.00 20.00     0.144 A 
HETATM    2  C2  UNL     1     -34.202   5.915   3.430  1.00 20.00     0.071 A 
HETATM    3  C3  UNL     1     -32.757   7.312   2.102  1.00 20.00     0.103 A 
HETATM    4  N7  UNL     1     -32.810   6.114   1.560  1.00 20.00    -0.251 NA
HETATM    5  S8  UNL     1     -33.679   7.546   3.530  1.00 20.00    -0.061 SA
HETATM    6 BR9  UNL     1     -35.372   5.082   4.661  1.00 20.00    -0.041 Br
ENDROOT
BRANCH   3   7
HETATM    7  C5  UNL     1     -31.997   8.429   1.599  1.00 20.00    -0.035 C 
HETATM    8  C4  UNL     1     -30.813   8.696   2.183  1.00 20.00     0.021 C 
HETATM    9  C6  UNL     1     -32.473   9.308   0.467  1.00 20.00     0.050 C 
ENDBRANCH   3   7
TORSDOF 1
ENDMDL
MODEL 6
REMARK VINA RESULT:       1.1      2.508      2.822
REMARK  1 active torsions:
REMARK  status: ('A' for Active; 'I' for Inactive)
REMARK    1  A    between atoms: C3_3  and  C5_5 
ROOT
HETATM    1  C1  UNL     1     -31.859   6.876   1.317  1.00 20.00     0.144 A 
HETATM    2  C2  UNL     1     -32.106   5.519   1.312  1.00 20.00     0.071 A 
HETATM    3  C3  UNL     1     -33.340   6.803   2.933  1.00 20.00     0.103 A 
HETATM    4  N7  UNL     1     -32.565   7.614   2.246  1.00 20.00    -0.251 NA
HETATM    5  S8  UNL     1     -33.268   5.141   2.515  1.00 20.00    -0.061 SA
HETATM    6 BR9  UNL     1     -31.296   4.255   0.161  1.00 20.00    -0.041 Br
ENDROOT
BRANCH   3   7
HETATM    7  C5  UNL     1     -34.233   7.194   3.995  1.00 20.00    -0.035 C 
HETATM    8  C4  UNL     1     -35.421   6.563   4.079  1.00 20.00     0.021 C 
HETATM    9  C6  UNL     1     -33.903   8.276   4.996  1.00 20.00     0.050 C 
ENDBRANCH   3   7
TORSDOF 1
ENDMDL
MODEL 7
REMARK VINA RESULT:       1.2      1.525      1.823
REMARK  1 active torsions:
REMARK  status: ('A' for Active; 'I' for Inactive)
REMARK    1  A    between atoms: C3_3  and  C5_5 
ROOT
HETATM    1  C1  UNL     1     -32.230   6.537   1.062  1.00 20.00     0.144 A 
HETATM    2  C2  UNL     1     -31.952   7.888   1.073  1.00 20.00     0.071 A 
HETATM    3  C3  UNL     1     -33.374   7.097   2.848  1.00 20.00     0.103 A 
HETATM    4  N7  UNL     1     -33.046   6.082   2.079  1.00 20.00    -0.251 NA
HETATM    5  S8  UNL     1     -32.738   8.628   2.406  1.00 20.00    -0.061 SA
HETATM    6 BR9  UNL     1     -30.870   8.802  -0.182  1.00 20.00    -0.041 Br
ENDROOT
BRANCH   3   7
HETATM    7  C5  UNL     1     -34.215   7.027   4.017  1.00 20.00    -0.035 C 
HETATM    8  C4  UNL     1     -33.974   7.901   5.014  1.00 20.00     0.021 C 
HETATM    9  C6  UNL     1     -35.330   6.021   4.174  1.00 20.00     0.050 C 
ENDBRANCH   3   7
TORSDOF 1
ENDMDL
MODEL 8
REMARK VINA RESULT:       1.3      2.485      4.352
REMARK  1 active torsions:
REMARK  status: ('A' for Active; 'I' for Inactive)
REMARK    1  A    between atoms: C3_3  and  C5_5 
ROOT
HETATM    1  C1  UNL     1     -33.123   5.536   2.189  1.00 20.00     0.144 A 
HETATM    2  C2  UNL     1     -33.887   6.145   3.162  1.00 20.00     0.071 A 
HETATM    3  C3  UNL     1     -32.682   7.626   1.694  1.00 20.00     0.103 A 
HETATM    4  N7  UNL     1     -32.431   6.383   1.346  1.00 20.00    -0.251 NA
HETATM    5  S8  UNL     1     -33.741   7.849   3.026  1.00 20.00    -0.061 SA
HETATM    6 BR9  UNL     1     -34.941   5.255   4.457  1.00 20.00    -0.041 Br
ENDROOT
BRANCH   3   7
HETATM    7  C5  UNL     1     -32.146   8.802   1.054  1.00 20.00    -0.035 C 
HETATM    8  C4  UNL     1     -32.759   9.978   1.290  1.00 20.00     0.021 C 
HETATM    9  C6  UNL     1     -30.950   8.768   0.133  1.00 20.00     0.050 C 
ENDBRANCH   3   7
TORSDOF 1
ENDMDL
MODEL 9
REMARK VINA RESULT:       2.1      2.698      3.333
REMARK  1 active torsions:
REMARK  status: ('A' for Active; 'I' for Inactive)
REMARK    1  A    between atoms: C3_3  and  C5_5 
ROOT
HETATM    1  C1  UNL     1     -32.333   8.018   2.546  1.00 20.00     0.144 A 
HETATM    2  C2  UNL     1     -33.188   7.450   3.468  1.00 20.00     0.071 A 
HETATM    3  C3  UNL     1     -32.670   6.096   1.545  1.00 20.00     0.103 A 
HETATM    4  N7  UNL     1     -32.034   7.243   1.443  1.00 20.00    -0.251 NA
HETATM    5  S8  UNL     1     -33.644   5.883   2.941  1.00 20.00    -0.061 SA
HETATM    6 BR9  UNL     1     -33.779   8.262   5.071  1.00 20.00    -0.041 Br
ENDROOT
BRANCH   3   7
HETATM    7  C5  UNL     1     -32.614   5.018   0.589  1.00 20.00    -0.035 C 
HETATM    8  C4  UNL     1     -33.752   4.690  -0.054  1.00 20.00     0.021 C 
HETATM    9  C6  UNL     1     -31.353   4.241   0.293  1.00 20.00     0.050 C 
ENDBRANCH   3   7
TORSDOF 1
ENDMDL
