MODEL 1
REMARK VINA RESULT:       0.6      0.000      0.000
REMARK  1 active torsions:
REMARK  status: ('A' for Active; 'I' for Inactive)
REMARK    1  A    between atoms: C3_3  and  C9_9 
ROOT
HETATM    1  C1  UNL     1     -32.507   6.301   1.437  1.00 20.00     0.017 A 
HETATM    2  C2  UNL     1     -33.378   5.455   2.183  1.00 20.00     0.028 A 
HETATM    3  C3  UNL     1     -32.473   7.583   1.939  1.00 20.00    -0.012 A 
HETATM    4  C4  UNL     1     -33.978   6.125   3.228  1.00 20.00     0.051 A 
HETATM    5  S10 UNL     1     -33.490   7.765   3.304  1.00 20.00    -0.087 SA
HETATM    6 BR11 UNL     1     -35.203   5.337   4.447  1.00 20.00    -0.043 Br
ENDROOT
BRANCH   3   7
HETATM    7  C9  UNL     1     -31.680   8.771   1.437  1.00 20.00     0.026 C 
HETATM    8  C7  UNL     1     -32.427  10.100   1.595  1.00 20.00     0.010 C 
HETATM    9  C5  UNL     1     -33.166  10.280   0.279  1.00 20.00     0.001 C 
HETATM   10  C6  UNL     1     -32.220   9.719  -0.773  1.00 20.00     0.001 C 
HETATM   11  C8  UNL     1     -31.301   8.729  -0.051  1.00 20.00     0.010 C 
ENDBRANCH   3   7
TORSDOF 1
ENDMDL
MODEL 2
REMARK VINA RESULT:       1.2      1.111      1.451
REMARK  1 active torsions:
REMARK  status: ('A' for Active; 'I' for Inactive)
REMARK    1  A    between atoms: C3_3  and  C9_9 
ROOT
HETATM    1  C1  UNL     1     -33.542   8.306   3.306  1.00 20.00     0.017 A 
HETATM    2  C2  UNL     1     -34.133   7.141   3.876  1.00 20.00     0.028 A 
HETATM    3  C3  UNL     1     -32.637   7.996   2.315  1.00 20.00    -0.012 A 
HETATM    4  C4  UNL     1     -33.655   5.985   3.299  1.00 20.00     0.051 A 
HETATM    5  S10 UNL     1     -32.500   6.306   2.076  1.00 20.00    -0.087 SA
HETATM    6 BR11 UNL     1     -34.202   4.233   3.790  1.00 20.00    -0.043 Br
ENDROOT
BRANCH   3   7
HETATM    7  C9  UNL     1     -31.804   8.937   1.472  1.00 20.00     0.026 C 
HETATM    8  C7  UNL     1     -32.430  10.329   1.328  1.00 20.00     0.010 C 
HETATM    9  C5  UNL     1     -33.268  10.242   0.063  1.00 20.00     0.001 C 
HETATM   10  C6  UNL     1     -32.464   9.345  -0.868  1.00 20.00     0.001 C 
HETATM   11  C8  UNL     1     -31.563   8.485   0.023  1.00 20.00     0.010 C 
ENDBRANCH   3   7
TORSDOF 1
ENDMDL
MODEL 3
REMARK VINA RESULT:       2.4      2.844      5.645
REMARK  1 active torsions:
REMARK  status: ('A' for Active; 'I' for Inactive)
REMARK    1  A    between atoms: C3_3  and  C9_9 
ROOT
HETATM    1  C1  UNL     1     -34.125   6.993   3.960  1.00 20.00     0.017 A 
HETATM    2  C2  UNL     1     -33.475   8.079   3.306  1.00 20.00     0.028 A 
HETATM    3  C3  UNL     1     -33.878   5.790   3.338  1.00 20.00    -0.012 A 
HETATM    4  C4  UNL     1     -32.756   7.664   2.207  1.00 20.00     0.051 A 
HETATM    5  S10 UNL     1     -32.866   5.971   1.969  1.00 20.00    -0.087 SA
HETATM    6 BR11 UNL     1     -31.755   8.818   1.078  1.00 20.00    -0.043 Br
ENDROOT
BRANCH   3   7
HETATM    7  C9  UNL     1     -34.379   4.412   3.717  1.00 20.00     0.026 C 
HETATM    8  C7  UNL     1     -34.549   4.231   5.229  1.00 20.00     0.010 C 
HETATM    9  C5  UNL     1     -33.218   3.668   5.699  1.00 20.00     0.001 C 
HETATM   10  C6  UNL     1     -32.769   2.751   4.570  1.00 20.00     0.001 C 
HETATM   11  C8  UNL     1     -33.470   3.245   3.301  1.00 20.00     0.010 C 
ENDBRANCH   3   7
TORSDOF 1
ENDMDL
MODEL 4
REMARK VINA RESULT:       2.8      2.213      3.090
REMARK  1 active torsions:
REMARK  status: ('A' for Active; 'I' for Inactive)
REMARK    1  A    between atoms: C3_3  and  C9_9 
ROOT
HETATM    1  C1  UNL     1     -35.054   6.044   4.095  1.00 20.00     0.017 A 
HETATM    2  C2  UNL     1     -34.984   4.707   4.581  1.00 20.00     0.028 A 
HETATM    3  C3  UNL     1     -33.957   6.377   3.332  1.00 20.00    -0.012 A 
HETATM    4  C4  UNL     1     -33.835   4.068   4.170  1.00 20.00     0.051 A 
HETATM    5  S10 UNL     1     -32.847   5.079   3.204  1.00 20.00    -0.087 SA
HETATM    6 BR11 UNL     1     -33.383   2.277   4.615  1.00 20.00    -0.043 Br
ENDROOT
BRANCH   3   7
HETATM    7  C9  UNL     1     -33.652   7.688   2.640  1.00 20.00     0.026 C 
HETATM    8  C7  UNL     1     -33.136   7.506   1.209  1.00 20.00     0.010 C 
HETATM    9  C5  UNL     1     -31.624   7.449   1.352  1.00 20.00     0.001 C 
HETATM   10  C6  UNL     1     -31.308   8.432   2.471  1.00 20.00     0.001 C 
HETATM   11  C8  UNL     1     -32.579   8.556   3.316  1.00 20.00     0.010 C 
ENDBRANCH   3   7
TORSDOF 1
ENDMDL
MODEL 5
REMARK VINA RESULT:       3.0      2.701      4.746
REMARK  1 active torsions:
REMARK  status: ('A' for Active; 'I' for Inactive)
REMARK    1  A    between atoms: C3_3  and  C9_9 
ROOT
HETATM    1  C1  UNL     1     -31.783   7.223   1.517  1.00 20.00     0.017 A 
HETATM    2  C2  UNL     1     -31.602   8.147   0.448  1.00 20.00     0.028 A 
HETATM    3  C3  UNL     1     -32.634   7.709   2.484  1.00 20.00    -0.012 A 
HETATM    4  C4  UNL     1     -32.323   9.305   0.639  1.00 20.00     0.051 A 
HETATM    5  S10 UNL     1     -33.212   9.275   2.102  1.00 20.00    -0.087 SA
HETATM    6 BR11 UNL     1     -32.340  10.772  -0.568  1.00 20.00    -0.043 Br
ENDROOT
BRANCH   3   7
HETATM    7  C9  UNL     1     -33.082   7.043   3.768  1.00 20.00     0.026 C 
HETATM    8  C7  UNL     1     -33.263   5.528   3.627  1.00 20.00     0.010 C 
HETATM    9  C5  UNL     1     -34.725   5.352   3.249  1.00 20.00     0.001 C 
HETATM   10  C6  UNL     1     -35.456   6.434   4.031  1.00 20.00     0.001 C 
HETATM   11  C8  UNL     1     -34.428   7.530   4.327  1.00 20.00     0.010 C 
ENDBRANCH   3   7
TORSDOF 1
ENDMDL
