MODEL 1
REMARK VINA RESULT:      -0.4      0.000      0.000
REMARK  1 active torsions:
REMARK  status: ('A' for Active; 'I' for Inactive)
REMARK    1  A    between atoms: C2_2  and  C6_6 
ROOT
HETATM    1  C1  UNL     1     -34.636   6.361   4.007  1.00 20.00     0.167 A 
HETATM    2  C2  UNL     1     -32.954   7.456   2.674  1.00 20.00     0.024 A 
HETATM    3  C3  UNL     1     -33.175   6.125   2.389  1.00 20.00     0.116 A 
HETATM    4  N7  UNL     1     -34.137   5.495   3.153  1.00 20.00    -0.245 NA
HETATM    5  S8  UNL     1     -33.992   7.950   3.946  1.00 20.00    -0.084 SA
HETATM    6 BR9  UNL     1     -32.250   5.152   1.046  1.00 20.00    -0.028 Br
ENDROOT
BRANCH   2   7
HETATM    7  C6  UNL     1     -31.946   8.387   1.979  1.00 20.00     0.028 A 
HETATM    8  C4  UNL     1     -32.473   9.469   1.066  1.00 20.00     0.010 A 
HETATM    9  C5  UNL     1     -31.775   8.280   0.482  1.00 20.00     0.010 A 
ENDBRANCH   2   7
TORSDOF 1
ENDMDL
MODEL 2
REMARK VINA RESULT:      -0.1      1.673      3.674
REMARK  1 active torsions:
REMARK  status: ('A' for Active; 'I' for Inactive)
REMARK    1  A    between atoms: C2_2  and  C6_6 
ROOT
HETATM    1  C1  UNL     1     -32.512   8.332   2.727  1.00 20.00     0.167 A 
HETATM    2  C2  UNL     1     -33.546   6.166   2.927  1.00 20.00     0.024 A 
HETATM    3  C3  UNL     1     -32.637   6.305   1.900  1.00 20.00     0.116 A 
HETATM    4  N7  UNL     1     -32.043   7.546   1.782  1.00 20.00    -0.245 NA
HETATM    5  S8  UNL     1     -33.669   7.643   3.789  1.00 20.00    -0.084 SA
HETATM    6 BR9  UNL     1     -32.178   4.921   0.683  1.00 20.00    -0.028 Br
ENDROOT
BRANCH   2   7
HETATM    7  C6  UNL     1     -34.344   4.899   3.278  1.00 20.00     0.028 A 
HETATM    8  C4  UNL     1     -34.990   4.806   4.641  1.00 20.00     0.010 A 
HETATM    9  C5  UNL     1     -33.793   3.963   4.328  1.00 20.00     0.010 A 
ENDBRANCH   2   7
TORSDOF 1
ENDMDL
MODEL 3
REMARK VINA RESULT:       0.1      2.218      2.302
REMARK  1 active torsions:
REMARK  status: ('A' for Active; 'I' for Inactive)
REMARK    1  A    between atoms: C2_2  and  C6_6 
ROOT
HETATM    1  C1  UNL     1     -33.512   5.025   2.304  1.00 20.00     0.167 A 
HETATM    2  C2  UNL     1     -32.589   7.239   2.087  1.00 20.00     0.024 A 
HETATM    3  C3  UNL     1     -33.346   7.011   3.217  1.00 20.00     0.116 A 
HETATM    4  N7  UNL     1     -33.877   5.743   3.343  1.00 20.00    -0.245 NA
HETATM    5  S8  UNL     1     -32.530   5.813   1.138  1.00 20.00    -0.084 SA
HETATM    6 BR9  UNL     1     -33.680   8.312   4.560  1.00 20.00    -0.028 Br
ENDROOT
BRANCH   2   7
HETATM    7  C6  UNL     1     -31.887   8.553   1.704  1.00 20.00     0.028 A 
HETATM    8  C4  UNL     1     -32.608   9.517   0.792  1.00 20.00     0.010 A 
HETATM    9  C5  UNL     1     -31.435   8.743   0.275  1.00 20.00     0.010 A 
ENDBRANCH   2   7
TORSDOF 1
ENDMDL
MODEL 4
REMARK VINA RESULT:       0.3      2.162      2.571
REMARK  1 active torsions:
REMARK  status: ('A' for Active; 'I' for Inactive)
REMARK    1  A    between atoms: C2_2  and  C6_6 
ROOT
HETATM    1  C1  UNL     1     -35.671   5.996   4.439  1.00 20.00     0.167 A 
HETATM    2  C2  UNL     1     -33.650   5.541   3.210  1.00 20.00     0.024 A 
HETATM    3  C3  UNL     1     -34.090   4.530   4.039  1.00 20.00     0.116 A 
HETATM    4  N7  UNL     1     -35.248   4.789   4.745  1.00 20.00    -0.245 NA
HETATM    5  S8  UNL     1     -34.724   6.873   3.309  1.00 20.00    -0.084 SA
HETATM    6 BR9  UNL     1     -33.211   2.860   4.248  1.00 20.00    -0.028 Br
ENDROOT
BRANCH   2   7
HETATM    7  C6  UNL     1     -32.398   5.513   2.317  1.00 20.00     0.028 A 
HETATM    8  C4  UNL     1     -32.062   6.743   1.505  1.00 20.00     0.010 A 
HETATM    9  C5  UNL     1     -32.577   5.517   0.817  1.00 20.00     0.010 A 
ENDBRANCH   2   7
TORSDOF 1
ENDMDL
MODEL 5
REMARK VINA RESULT:       0.5      2.777      4.334
REMARK  1 active torsions:
REMARK  status: ('A' for Active; 'I' for Inactive)
REMARK    1  A    between atoms: C2_2  and  C6_6 
ROOT
HETATM    1  C1  UNL     1     -32.028   7.242   1.420  1.00 20.00     0.167 A 
HETATM    2  C2  UNL     1     -33.397   5.872   2.853  1.00 20.00     0.024 A 
HETATM    3  C3  UNL     1     -33.241   7.184   3.247  1.00 20.00     0.116 A 
HETATM    4  N7  UNL     1     -32.456   7.971   2.427  1.00 20.00    -0.245 NA
HETATM    5  S8  UNL     1     -32.532   5.602   1.398  1.00 20.00    -0.084 SA
HETATM    6 BR9  UNL     1     -34.026   7.934   4.805  1.00 20.00    -0.028 Br
ENDROOT
BRANCH   2   7
HETATM    7  C6  UNL     1     -34.214   4.789   3.578  1.00 20.00     0.028 A 
HETATM    8  C4  UNL     1     -33.689   4.242   4.885  1.00 20.00     0.010 A 
HETATM    9  C5  UNL     1     -33.653   3.389   3.656  1.00 20.00     0.010 A 
ENDBRANCH   2   7
TORSDOF 1
ENDMDL
MODEL 6
REMARK VINA RESULT:       0.9      2.383      3.558
REMARK  1 active torsions:
REMARK  status: ('A' for Active; 'I' for Inactive)
REMARK    1  A    between atoms: C2_2  and  C6_6 
ROOT
HETATM    1  C1  UNL     1     -31.909   4.972   1.302  1.00 20.00     0.167 A 
HETATM    2  C2  UNL     1     -33.279   6.616   2.407  1.00 20.00     0.024 A 
HETATM    3  C3  UNL     1     -32.328   7.111   1.540  1.00 20.00     0.116 A 
HETATM    4  N7  UNL     1     -31.541   6.170   0.906  1.00 20.00    -0.245 NA
HETATM    5  S8  UNL     1     -33.195   4.904   2.435  1.00 20.00    -0.084 SA
HETATM    6 BR9  UNL     1     -32.060   8.958   1.188  1.00 20.00    -0.028 Br
ENDROOT
BRANCH   2   7
HETATM    7  C6  UNL     1     -34.280   7.439   3.236  1.00 20.00     0.028 A 
HETATM    8  C4  UNL     1     -34.015   7.625   4.712  1.00 20.00     0.010 A 
HETATM    9  C5  UNL     1     -35.126   6.727   4.265  1.00 20.00     0.010 A 
ENDBRANCH   2   7
TORSDOF 1
ENDMDL
MODEL 7
REMARK VINA RESULT:       1.0      1.602      3.442
REMARK  1 active torsions:
REMARK  status: ('A' for Active; 'I' for Inactive)
REMARK    1  A    between atoms: C2_2  and  C6_6 
ROOT
HETATM    1  C1  UNL     1     -31.683   8.435   2.093  1.00 20.00     0.167 A 
HETATM    2  C2  UNL     1     -33.265   6.766   2.807  1.00 20.00     0.024 A 
HETATM    3  C3  UNL     1     -32.545   6.464   1.671  1.00 20.00     0.116 A 
HETATM    4  N7  UNL     1     -31.637   7.420   1.259  1.00 20.00    -0.245 NA
HETATM    5  S8  UNL     1     -32.794   8.306   3.394  1.00 20.00    -0.084 SA
HETATM    6 BR9  UNL     1     -32.733   4.854   0.681  1.00 20.00    -0.028 Br
ENDROOT
BRANCH   2   7
HETATM    7  C6  UNL     1     -34.332   5.883   3.476  1.00 20.00     0.028 A 
HETATM    8  C4  UNL     1     -35.782   6.294   3.368  1.00 20.00     0.010 A 
HETATM    9  C5  UNL     1     -35.069   6.424   4.679  1.00 20.00     0.010 A 
ENDBRANCH   2   7
TORSDOF 1
ENDMDL
MODEL 8
REMARK VINA RESULT:       1.3      2.413      3.259
REMARK  1 active torsions:
REMARK  status: ('A' for Active; 'I' for Inactive)
REMARK    1  A    between atoms: C2_2  and  C6_6 
ROOT
HETATM    1  C1  UNL     1     -32.636   8.651   3.182  1.00 20.00     0.167 A 
HETATM    2  C2  UNL     1     -33.036   6.433   2.332  1.00 20.00     0.024 A 
HETATM    3  C3  UNL     1     -33.830   6.823   3.389  1.00 20.00     0.116 A 
HETATM    4  N7  UNL     1     -33.601   8.094   3.879  1.00 20.00    -0.245 NA
HETATM    5  S8  UNL     1     -31.958   7.702   1.924  1.00 20.00    -0.084 SA
HETATM    6 BR9  UNL     1     -35.174   5.737   4.176  1.00 20.00    -0.028 Br
ENDROOT
BRANCH   2   7
HETATM    7  C6  UNL     1     -33.082   5.080   1.603  1.00 20.00     0.028 A 
HETATM    8  C4  UNL     1     -32.032   4.786   0.557  1.00 20.00     0.010 A 
HETATM    9  C5  UNL     1     -33.442   5.059   0.136  1.00 20.00     0.010 A 
ENDBRANCH   2   7
TORSDOF 1
ENDMDL
MODEL 9
REMARK VINA RESULT:       1.3      2.642      4.335
REMARK  1 active torsions:
REMARK  status: ('A' for Active; 'I' for Inactive)
REMARK    1  A    between atoms: C2_2  and  C6_6 
ROOT
HETATM    1  C1  UNL     1     -35.420   6.516   3.885  1.00 20.00     0.167 A 
HETATM    2  C2  UNL     1     -33.766   4.767   3.810  1.00 20.00     0.024 A 
HETATM    3  C3  UNL     1     -33.598   5.792   2.903  1.00 20.00     0.116 A 
HETATM    4  N7  UNL     1     -34.545   6.795   2.944  1.00 20.00    -0.245 NA
HETATM    5  S8  UNL     1     -35.163   5.063   4.759  1.00 20.00    -0.084 SA
HETATM    6 BR9  UNL     1     -32.177   5.886   1.648  1.00 20.00    -0.028 Br
ENDROOT
BRANCH   2   7
HETATM    7  C6  UNL     1     -32.862   3.534   3.977  1.00 20.00     0.028 A 
HETATM    8  C4  UNL     1     -33.489   2.232   4.418  1.00 20.00     0.010 A 
HETATM    9  C5  UNL     1     -32.620   2.996   5.368  1.00 20.00     0.010 A 
ENDBRANCH   2   7
TORSDOF 1
ENDMDL
