MODEL 1
REMARK VINA RESULT:      -0.3      0.000      0.000
REMARK  0 active torsions:
REMARK  status: ('A' for Active; 'I' for Inactive)
ROOT
HETATM    1  C1  UNL     1     -34.209   4.828   4.037  1.00 20.00     0.223 A 
HETATM    2  C2  UNL     1     -35.865   6.513   3.795  1.00 20.00     0.128 A 
HETATM    3  C3  UNL     1     -33.685   5.781   3.026  1.00 20.00     0.092 A 
HETATM    4  C4  UNL     1     -34.730   6.864   2.882  1.00 20.00     0.026 A 
HETATM    5  C5  UNL     1     -33.327   7.216   3.352  1.00 20.00    -0.029 A 
HETATM    6  C6  UNL     1     -33.087   7.625   4.782  1.00 20.00     0.016 C 
HETATM    7  C7  UNL     1     -32.442   7.941   2.369  1.00 20.00     0.016 C 
HETATM    8  N8  UNL     1     -35.459   5.274   4.426  1.00 20.00    -0.360 N 
HETATM    9  O9  UNL     1     -33.597   3.840   4.410  1.00 20.00    -0.273 OA
HETATM   10  H20 UNL     1     -36.040   4.778   5.094  1.00 20.00     0.162 HD
ENDROOT
TORSDOF 0
ENDMDL
MODEL 2
REMARK VINA RESULT:       0.3      3.043      3.895
REMARK  0 active torsions:
REMARK  status: ('A' for Active; 'I' for Inactive)
ROOT
HETATM    1  C1  UNL     1     -32.472   8.333   1.421  1.00 20.00     0.223 A 
HETATM    2  C2  UNL     1     -31.718   6.144   1.954  1.00 20.00     0.128 A 
HETATM    3  C3  UNL     1     -33.659   7.598   1.924  1.00 20.00     0.092 A 
HETATM    4  C4  UNL     1     -33.179   6.209   2.280  1.00 20.00     0.026 A 
HETATM    5  C5  UNL     1     -33.781   7.105   3.350  1.00 20.00    -0.029 A 
HETATM    6  C6  UNL     1     -32.907   7.693   4.428  1.00 20.00     0.016 C 
HETATM    7  C7  UNL     1     -35.164   6.750   3.836  1.00 20.00     0.016 C 
HETATM    8  N8  UNL     1     -31.399   7.458   1.435  1.00 20.00    -0.360 N 
HETATM    9  O9  UNL     1     -32.504   9.500   1.066  1.00 20.00    -0.273 OA
HETATM   10  H20 UNL     1     -30.472   7.715   1.111  1.00 20.00     0.162 HD
ENDROOT
TORSDOF 0
ENDMDL
MODEL 3
REMARK VINA RESULT:       0.7      2.200      3.239
REMARK  0 active torsions:
REMARK  status: ('A' for Active; 'I' for Inactive)
ROOT
HETATM    1  C1  UNL     1     -32.954   6.274   1.863  1.00 20.00     0.223 A 
HETATM    2  C2  UNL     1     -33.009   8.141   3.330  1.00 20.00     0.128 A 
HETATM    3  C3  UNL     1     -33.504   5.773   3.148  1.00 20.00     0.092 A 
HETATM    4  C4  UNL     1     -33.557   6.963   4.079  1.00 20.00     0.026 A 
HETATM    5  C5  UNL     1     -34.835   6.229   3.709  1.00 20.00    -0.029 A 
HETATM    6  C6  UNL     1     -35.850   6.880   2.805  1.00 20.00     0.016 C 
HETATM    7  C7  UNL     1     -35.458   5.366   4.777  1.00 20.00     0.016 C 
HETATM    8  N8  UNL     1     -32.667   7.618   2.024  1.00 20.00    -0.360 N 
HETATM    9  O9  UNL     1     -32.801   5.571   0.878  1.00 20.00    -0.273 OA
HETATM   10  H20 UNL     1     -32.254   8.187   1.291  1.00 20.00     0.162 HD
ENDROOT
TORSDOF 0
ENDMDL
MODEL 4
REMARK VINA RESULT:       1.0      2.021      2.601
REMARK  0 active torsions:
REMARK  status: ('A' for Active; 'I' for Inactive)
ROOT
HETATM    1  C1  UNL     1     -32.735   5.769   1.824  1.00 20.00     0.223 A 
HETATM    2  C2  UNL     1     -33.830   7.105   3.455  1.00 20.00     0.128 A 
HETATM    3  C3  UNL     1     -32.963   7.091   1.189  1.00 20.00     0.092 A 
HETATM    4  C4  UNL     1     -33.645   7.950   2.230  1.00 20.00     0.026 A 
HETATM    5  C5  UNL     1     -32.294   8.362   1.668  1.00 20.00    -0.029 A 
HETATM    6  C6  UNL     1     -31.059   8.285   2.527  1.00 20.00     0.016 C 
HETATM    7  C7  UNL     1     -32.282   9.530   0.713  1.00 20.00     0.016 C 
HETATM    8  N8  UNL     1     -33.265   5.819   3.102  1.00 20.00    -0.360 N 
HETATM    9  O9  UNL     1     -32.178   4.840   1.262  1.00 20.00    -0.273 OA
HETATM   10  H20 UNL     1     -33.259   5.025   3.735  1.00 20.00     0.162 HD
ENDROOT
TORSDOF 0
ENDMDL
MODEL 5
REMARK VINA RESULT:       1.1      2.942      3.819
REMARK  0 active torsions:
REMARK  status: ('A' for Active; 'I' for Inactive)
ROOT
HETATM    1  C1  UNL     1     -32.543   7.874   2.028  1.00 20.00     0.223 A 
HETATM    2  C2  UNL     1     -33.785   6.278   3.273  1.00 20.00     0.128 A 
HETATM    3  C3  UNL     1     -31.939   6.553   1.724  1.00 20.00     0.092 A 
HETATM    4  C4  UNL     1     -32.739   5.532   2.501  1.00 20.00     0.026 A 
HETATM    5  C5  UNL     1     -32.679   5.458   0.984  1.00 20.00    -0.029 A 
HETATM    6  C6  UNL     1     -33.895   5.796   0.160  1.00 20.00     0.016 C 
HETATM    7  C7  UNL     1     -31.846   4.351   0.388  1.00 20.00     0.016 C 
HETATM    8  N8  UNL     1     -33.572   7.668   2.930  1.00 20.00    -0.360 N 
HETATM    9  O9  UNL     1     -32.149   8.921   1.541  1.00 20.00    -0.273 OA
HETATM   10  H20 UNL     1     -34.128   8.425   3.316  1.00 20.00     0.162 HD
ENDROOT
TORSDOF 0
ENDMDL
MODEL 6
REMARK VINA RESULT:       1.4      2.033      2.911
REMARK  0 active torsions:
REMARK  status: ('A' for Active; 'I' for Inactive)
ROOT
HETATM    1  C1  UNL     1     -34.376   6.794   3.530  1.00 20.00     0.223 A 
HETATM    2  C2  UNL     1     -32.366   7.949   3.010  1.00 20.00     0.128 A 
HETATM    3  C3  UNL     1     -34.062   6.462   2.117  1.00 20.00     0.092 A 
HETATM    4  C4  UNL     1     -32.774   7.182   1.788  1.00 20.00     0.026 A 
HETATM    5  C5  UNL     1     -32.841   5.666   1.708  1.00 20.00    -0.029 A 
HETATM    6  C6  UNL     1     -32.119   4.819   2.725  1.00 20.00     0.016 C 
HETATM    7  C7  UNL     1     -32.852   5.056   0.329  1.00 20.00     0.016 C 
HETATM    8  N8  UNL     1     -33.397   7.659   3.985  1.00 20.00    -0.360 N 
HETATM    9  O9  UNL     1     -35.346   6.354   4.124  1.00 20.00    -0.273 OA
HETATM   10  H20 UNL     1     -33.400   8.055   4.920  1.00 20.00     0.162 HD
ENDROOT
TORSDOF 0
ENDMDL
MODEL 7
REMARK VINA RESULT:       1.4      2.589      3.514
REMARK  0 active torsions:
REMARK  status: ('A' for Active; 'I' for Inactive)
ROOT
HETATM    1  C1  UNL     1     -32.172   7.675   2.585  1.00 20.00     0.223 A 
HETATM    2  C2  UNL     1     -32.814   5.947   1.088  1.00 20.00     0.128 A 
HETATM    3  C3  UNL     1     -33.617   7.434   2.828  1.00 20.00     0.092 A 
HETATM    4  C4  UNL     1     -34.025   6.321   1.889  1.00 20.00     0.026 A 
HETATM    5  C5  UNL     1     -34.152   6.134   3.392  1.00 20.00    -0.029 A 
HETATM    6  C6  UNL     1     -33.228   5.192   4.120  1.00 20.00     0.016 C 
HETATM    7  C7  UNL     1     -35.547   6.160   3.965  1.00 20.00     0.016 C 
HETATM    8  N8  UNL     1     -31.768   6.823   1.572  1.00 20.00    -0.360 N 
HETATM    9  O9  UNL     1     -31.516   8.500   3.199  1.00 20.00    -0.273 OA
HETATM   10  H20 UNL     1     -30.823   6.814   1.202  1.00 20.00     0.162 HD
ENDROOT
TORSDOF 0
ENDMDL
MODEL 8
REMARK VINA RESULT:       1.6      2.281      3.249
REMARK  0 active torsions:
REMARK  status: ('A' for Active; 'I' for Inactive)
ROOT
HETATM    1  C1  UNL     1     -33.328   7.414   3.354  1.00 20.00     0.223 A 
HETATM    2  C2  UNL     1     -33.014   5.838   1.605  1.00 20.00     0.128 A 
HETATM    3  C3  UNL     1     -32.083   7.817   2.654  1.00 20.00     0.092 A 
HETATM    4  C4  UNL     1     -31.890   6.826   1.528  1.00 20.00     0.026 A 
HETATM    5  C5  UNL     1     -32.064   8.304   1.220  1.00 20.00    -0.029 A 
HETATM    6  C6  UNL     1     -33.333   8.800   0.576  1.00 20.00     0.016 C 
HETATM    7  C7  UNL     1     -30.836   9.054   0.768  1.00 20.00     0.016 C 
HETATM    8  N8  UNL     1     -33.807   6.272   2.736  1.00 20.00    -0.360 N 
HETATM    9  O9  UNL     1     -33.791   8.021   4.305  1.00 20.00    -0.273 OA
HETATM   10  H20 UNL     1     -34.640   5.782   3.049  1.00 20.00     0.162 HD
ENDROOT
TORSDOF 0
ENDMDL
MODEL 9
REMARK VINA RESULT:       1.6      1.721      2.573
REMARK  0 active torsions:
REMARK  status: ('A' for Active; 'I' for Inactive)
ROOT
HETATM    1  C1  UNL     1     -35.058   6.039   3.682  1.00 20.00     0.223 A 
HETATM    2  C2  UNL     1     -33.448   4.300   3.843  1.00 20.00     0.128 A 
HETATM    3  C3  UNL     1     -33.760   6.640   3.287  1.00 20.00     0.092 A 
HETATM    4  C4  UNL     1     -32.735   5.532   3.371  1.00 20.00     0.026 A 
HETATM    5  C5  UNL     1     -33.001   6.223   2.044  1.00 20.00    -0.029 A 
HETATM    6  C6  UNL     1     -33.715   5.490   0.937  1.00 20.00     0.016 C 
HETATM    7  C7  UNL     1     -31.937   7.166   1.542  1.00 20.00     0.016 C 
HETATM    8  N8  UNL     1     -34.825   4.715   4.011  1.00 20.00    -0.360 N 
HETATM    9  O9  UNL     1     -36.109   6.659   3.699  1.00 20.00    -0.273 OA
HETATM   10  H20 UNL     1     -35.554   4.091   4.341  1.00 20.00     0.162 HD
ENDROOT
TORSDOF 0
ENDMDL
