MODEL 1
REMARK VINA RESULT:       0.6      0.000      0.000
REMARK  0 active torsions:
REMARK  status: ('A' for Active; 'I' for Inactive)
ROOT
HETATM    1  C1  UNL     1     -33.500   8.368   2.694  1.00 20.00     0.050 A 
HETATM    2  C2  UNL     1     -31.925   7.182   1.260  1.00 20.00     0.062 A 
HETATM    3  C3  UNL     1     -33.331   5.974   2.741  1.00 20.00     0.034 A 
HETATM    4  C4  UNL     1     -33.912   7.147   3.206  1.00 20.00    -0.040 A 
HETATM    5  C5  UNL     1     -32.500   8.380   1.716  1.00 20.00     0.118 A 
HETATM    6  C6  UNL     1     -32.341   5.955   1.775  1.00 20.00     0.028 A 
HETATM    7  C7  UNL     1     -33.944   4.856   3.439  1.00 20.00     0.161 A 
HETATM    8  C8  UNL     1     -34.955   6.905   4.248  1.00 20.00     0.047 A 
HETATM    9  C9  UNL     1     -34.979   5.374   4.407  1.00 20.00     0.088 A 
HETATM   10  O10 UNL     1     -33.673   3.680   3.279  1.00 20.00    -0.292 OA
HETATM   11  F11 UNL     1     -32.086   9.548   1.206  1.00 20.00    -0.206 F 
HETATM   12 BR12 UNL     1     -31.530   4.381   1.119  1.00 20.00    -0.050 Br
ENDROOT
TORSDOF 0
ENDMDL
MODEL 2
REMARK VINA RESULT:       1.4      2.666      3.188
REMARK  0 active torsions:
REMARK  status: ('A' for Active; 'I' for Inactive)
ROOT
HETATM    1  C1  UNL     1     -32.842   4.539   1.927  1.00 20.00     0.050 A 
HETATM    2  C2  UNL     1     -31.806   6.540   0.999  1.00 20.00     0.062 A 
HETATM    3  C3  UNL     1     -33.393   6.725   2.752  1.00 20.00     0.034 A 
HETATM    4  C4  UNL     1     -33.561   5.346   2.795  1.00 20.00    -0.040 A 
HETATM    5  C5  UNL     1     -31.961   5.144   1.026  1.00 20.00     0.118 A 
HETATM    6  C6  UNL     1     -32.530   7.351   1.872  1.00 20.00     0.028 A 
HETATM    7  C7  UNL     1     -34.258   7.319   3.758  1.00 20.00     0.161 A 
HETATM    8  C8  UNL     1     -34.549   4.914   3.830  1.00 20.00     0.047 A 
HETATM    9  C9  UNL     1     -35.017   6.230   4.475  1.00 20.00     0.088 A 
HETATM   10  O10 UNL     1     -34.364   8.509   3.995  1.00 20.00    -0.292 OA
HETATM   11  F11 UNL     1     -31.254   4.384   0.178  1.00 20.00    -0.206 F 
HETATM   12 BR12 UNL     1     -32.275   9.220   1.786  1.00 20.00    -0.050 Br
ENDROOT
TORSDOF 0
ENDMDL
MODEL 3
REMARK VINA RESULT:       2.2      2.609      3.684
REMARK  0 active torsions:
REMARK  status: ('A' for Active; 'I' for Inactive)
ROOT
HETATM    1  C1  UNL     1     -34.616   6.596   4.169  1.00 20.00     0.050 A 
HETATM    2  C2  UNL     1     -33.754   4.644   2.991  1.00 20.00     0.062 A 
HETATM    3  C3  UNL     1     -32.966   6.812   2.438  1.00 20.00     0.034 A 
HETATM    4  C4  UNL     1     -33.790   7.395   3.393  1.00 20.00    -0.040 A 
HETATM    5  C5  UNL     1     -34.594   5.213   3.963  1.00 20.00     0.118 A 
HETATM    6  C6  UNL     1     -32.924   5.448   2.212  1.00 20.00     0.028 A 
HETATM    7  C7  UNL     1     -32.217   7.868   1.778  1.00 20.00     0.161 A 
HETATM    8  C8  UNL     1     -33.655   8.883   3.445  1.00 20.00     0.047 A 
HETATM    9  C9  UNL     1     -32.605   9.203   2.366  1.00 20.00     0.088 A 
HETATM   10  O10 UNL     1     -31.401   7.715   0.887  1.00 20.00    -0.292 OA
HETATM   11  F11 UNL     1     -35.383   4.421   4.702  1.00 20.00    -0.206 F 
HETATM   12 BR12 UNL     1     -31.817   4.621   0.925  1.00 20.00    -0.050 Br
ENDROOT
TORSDOF 0
ENDMDL
MODEL 4
REMARK VINA RESULT:       2.6      2.784      3.782
REMARK  0 active torsions:
REMARK  status: ('A' for Active; 'I' for Inactive)
ROOT
HETATM    1  C1  UNL     1     -32.032   6.344   1.028  1.00 20.00     0.050 A 
HETATM    2  C2  UNL     1     -33.851   5.043   1.998  1.00 20.00     0.062 A 
HETATM    3  C3  UNL     1     -33.094   7.019   3.072  1.00 20.00     0.034 A 
HETATM    4  C4  UNL     1     -32.142   7.235   2.085  1.00 20.00    -0.040 A 
HETATM    5  C5  UNL     1     -32.894   5.244   0.990  1.00 20.00     0.118 A 
HETATM    6  C6  UNL     1     -33.960   5.940   3.060  1.00 20.00     0.028 A 
HETATM    7  C7  UNL     1     -32.990   8.093   4.046  1.00 20.00     0.161 A 
HETATM    8  C8  UNL     1     -31.329   8.467   2.321  1.00 20.00     0.047 A 
HETATM    9  C9  UNL     1     -31.893   9.043   3.632  1.00 20.00     0.088 A 
HETATM   10  O10 UNL     1     -33.675   8.219   5.045  1.00 20.00    -0.292 OA
HETATM   11  F11 UNL     1     -32.808   4.369  -0.023  1.00 20.00    -0.206 F 
HETATM   12 BR12 UNL     1     -35.267   5.616   4.384  1.00 20.00    -0.050 Br
ENDROOT
TORSDOF 0
ENDMDL
MODEL 5
REMARK VINA RESULT:       2.6      3.246      4.525
REMARK  0 active torsions:
REMARK  status: ('A' for Active; 'I' for Inactive)
ROOT
HETATM    1  C1  UNL     1     -33.883   4.519   3.334  1.00 20.00     0.050 A 
HETATM    2  C2  UNL     1     -34.916   6.496   4.318  1.00 20.00     0.062 A 
HETATM    3  C3  UNL     1     -33.276   6.729   2.620  1.00 20.00     0.034 A 
HETATM    4  C4  UNL     1     -33.127   5.351   2.523  1.00 20.00    -0.040 A 
HETATM    5  C5  UNL     1     -34.781   5.100   4.235  1.00 20.00     0.118 A 
HETATM    6  C6  UNL     1     -34.155   7.331   3.501  1.00 20.00     0.028 A 
HETATM    7  C7  UNL     1     -32.373   7.351   1.666  1.00 20.00     0.161 A 
HETATM    8  C8  UNL     1     -32.116   4.947   1.499  1.00 20.00     0.047 A 
HETATM    9  C9  UNL     1     -31.609   6.282   0.924  1.00 20.00     0.088 A 
HETATM   10  O10 UNL     1     -32.242   8.548   1.484  1.00 20.00    -0.292 OA
HETATM   11  F11 UNL     1     -35.524   4.316   5.029  1.00 20.00    -0.206 F 
HETATM   12 BR12 UNL     1     -34.384   9.199   3.660  1.00 20.00    -0.050 Br
ENDROOT
TORSDOF 0
ENDMDL
MODEL 6
REMARK VINA RESULT:       3.1      2.128      3.378
REMARK  0 active torsions:
REMARK  status: ('A' for Active; 'I' for Inactive)
ROOT
HETATM    1  C1  UNL     1     -33.227   8.564   3.601  1.00 20.00     0.050 A 
HETATM    2  C2  UNL     1     -34.159   6.539   4.588  1.00 20.00     0.062 A 
HETATM    3  C3  UNL     1     -32.987   6.430   2.528  1.00 20.00     0.034 A 
HETATM    4  C4  UNL     1     -32.753   7.799   2.547  1.00 20.00    -0.040 A 
HETATM    5  C5  UNL     1     -33.934   7.925   4.625  1.00 20.00     0.118 A 
HETATM    6  C6  UNL     1     -33.682   5.772   3.526  1.00 20.00     0.028 A 
HETATM    7  C7  UNL     1     -32.386   5.883   1.323  1.00 20.00     0.161 A 
HETATM    8  C8  UNL     1     -31.980   8.272   1.357  1.00 20.00     0.047 A 
HETATM    9  C9  UNL     1     -31.734   6.993   0.537  1.00 20.00     0.088 A 
HETATM   10  O10 UNL     1     -32.401   4.712   0.986  1.00 20.00    -0.292 OA
HETATM   11  F11 UNL     1     -34.400   8.643   5.656  1.00 20.00    -0.206 F 
HETATM   12 BR12 UNL     1     -34.018   3.913   3.535  1.00 20.00    -0.050 Br
ENDROOT
TORSDOF 0
ENDMDL
MODEL 7
REMARK VINA RESULT:       3.2      2.821      3.742
REMARK  0 active torsions:
REMARK  status: ('A' for Active; 'I' for Inactive)
ROOT
HETATM    1  C1  UNL     1     -34.377   5.075   4.448  1.00 20.00     0.050 A 
HETATM    2  C2  UNL     1     -32.957   3.938   2.825  1.00 20.00     0.062 A 
HETATM    3  C3  UNL     1     -33.220   6.294   2.734  1.00 20.00     0.034 A 
HETATM    4  C4  UNL     1     -34.070   6.279   3.833  1.00 20.00    -0.040 A 
HETATM    5  C5  UNL     1     -33.815   3.901   3.937  1.00 20.00     0.118 A 
HETATM    6  C6  UNL     1     -32.650   5.150   2.208  1.00 20.00     0.028 A 
HETATM    7  C7  UNL     1     -33.073   7.671   2.294  1.00 20.00     0.161 A 
HETATM    8  C8  UNL     1     -34.556   7.641   4.210  1.00 20.00     0.047 A 
HETATM    9  C9  UNL     1     -33.892   8.575   3.182  1.00 20.00     0.088 A 
HETATM   10  O10 UNL     1     -32.398   8.051   1.354  1.00 20.00    -0.292 OA
HETATM   11  F11 UNL     1     -34.096   2.725   4.516  1.00 20.00    -0.206 F 
HETATM   12 BR12 UNL     1     -31.489   5.133   0.718  1.00 20.00    -0.050 Br
ENDROOT
TORSDOF 0
ENDMDL
MODEL 8
REMARK VINA RESULT:       3.4      2.039      2.754
REMARK  0 active torsions:
REMARK  status: ('A' for Active; 'I' for Inactive)
ROOT
HETATM    1  C1  UNL     1     -31.992   7.103   0.787  1.00 20.00     0.050 A 
HETATM    2  C2  UNL     1     -32.550   8.698   2.543  1.00 20.00     0.062 A 
HETATM    3  C3  UNL     1     -33.197   6.425   2.750  1.00 20.00     0.034 A 
HETATM    4  C4  UNL     1     -32.620   6.111   1.526  1.00 20.00    -0.040 A 
HETATM    5  C5  UNL     1     -31.960   8.402   1.303  1.00 20.00     0.118 A 
HETATM    6  C6  UNL     1     -33.181   7.700   3.285  1.00 20.00     0.028 A 
HETATM    7  C7  UNL     1     -33.777   5.212   3.302  1.00 20.00     0.161 A 
HETATM    8  C8  UNL     1     -32.770   4.668   1.166  1.00 20.00     0.047 A 
HETATM    9  C9  UNL     1     -33.544   4.064   2.352  1.00 20.00     0.088 A 
HETATM   10  O10 UNL     1     -34.365   5.123   4.365  1.00 20.00    -0.292 OA
HETATM   11  F11 UNL     1     -31.358   9.376   0.608  1.00 20.00    -0.206 F 
HETATM   12 BR12 UNL     1     -33.953   8.163   4.945  1.00 20.00    -0.050 Br
ENDROOT
TORSDOF 0
ENDMDL
