MODEL 1
REMARK VINA RESULT:      -2.3      0.000      0.000
REMARK  0 active torsions:
REMARK  status: ('A' for Active; 'I' for Inactive)
ROOT
HETATM    1  C1  UNL     1     -33.028   7.467   2.798  1.00 20.00    -0.037 C 
HETATM    2  C2  UNL     1     -33.006   6.041   2.339  1.00 20.00     0.040 C 
HETATM    3  C3  UNL     1     -34.613   5.369   3.881  1.00 20.00     0.243 C 
HETATM    4  C4  UNL     1     -32.421   8.448   2.118  1.00 20.00    -0.022 C 
HETATM    5  C5  UNL     1     -33.814   7.711   4.049  1.00 20.00     0.049 C 
HETATM    6  C6  UNL     1     -35.035   6.811   4.062  1.00 20.00     0.110 C 
HETATM    7  C7  UNL     1     -32.093   5.645   1.199  1.00 20.00     0.071 C 
HETATM    8  C8  UNL     1     -31.666   8.238   0.850  1.00 20.00     0.036 C 
HETATM    9  N9  UNL     1     -33.733   5.097   2.856  1.00 20.00    -0.219 NA
HETATM   10  O10 UNL     1     -35.106   4.489   4.586  1.00 20.00    -0.271 OA
ENDROOT
TORSDOF 0
ENDMDL
MODEL 2
REMARK VINA RESULT:      -0.6      2.450      4.250
REMARK  0 active torsions:
REMARK  status: ('A' for Active; 'I' for Inactive)
ROOT
HETATM    1  C1  UNL     1     -33.454   5.746   2.984  1.00 20.00    -0.037 C 
HETATM    2  C2  UNL     1     -33.452   7.209   3.308  1.00 20.00     0.040 C 
HETATM    3  C3  UNL     1     -32.034   7.744   1.544  1.00 20.00     0.243 C 
HETATM    4  C4  UNL     1     -34.301   4.885   3.563  1.00 20.00    -0.022 C 
HETATM    5  C5  UNL     1     -32.466   5.334   1.937  1.00 20.00     0.049 C 
HETATM    6  C6  UNL     1     -32.362   6.422   0.885  1.00 20.00     0.110 C 
HETATM    7  C7  UNL     1     -34.272   7.708   4.479  1.00 20.00     0.071 C 
HETATM    8  C8  UNL     1     -35.321   5.276   4.578  1.00 20.00     0.036 C 
HETATM    9  N9  UNL     1     -32.788   8.103   2.640  1.00 20.00    -0.219 NA
HETATM   10  O10 UNL     1     -31.177   8.480   1.056  1.00 20.00    -0.271 OA
ENDROOT
TORSDOF 0
ENDMDL
MODEL 3
REMARK VINA RESULT:      -0.5      2.428      3.631
REMARK  0 active torsions:
REMARK  status: ('A' for Active; 'I' for Inactive)
ROOT
HETATM    1  C1  UNL     1     -33.723   6.185   3.295  1.00 20.00    -0.037 C 
HETATM    2  C2  UNL     1     -32.880   5.964   2.076  1.00 20.00     0.040 C 
HETATM    3  C3  UNL     1     -32.385   8.223   1.832  1.00 20.00     0.243 C 
HETATM    4  C4  UNL     1     -34.155   5.176   4.061  1.00 20.00    -0.022 C 
HETATM    5  C5  UNL     1     -34.008   7.622   3.607  1.00 20.00     0.049 C 
HETATM    6  C6  UNL     1     -32.792   8.463   3.269  1.00 20.00     0.110 C 
HETATM    7  C7  UNL     1     -32.686   4.554   1.558  1.00 20.00     0.071 C 
HETATM    8  C8  UNL     1     -33.852   3.740   3.795  1.00 20.00     0.036 C 
HETATM    9  N9  UNL     1     -32.285   6.912   1.419  1.00 20.00    -0.219 NA
HETATM   10  O10 UNL     1     -32.089   9.173   1.107  1.00 20.00    -0.271 OA
ENDROOT
TORSDOF 0
ENDMDL
MODEL 4
REMARK VINA RESULT:      -0.0      1.168      2.211
REMARK  0 active torsions:
REMARK  status: ('A' for Active; 'I' for Inactive)
ROOT
HETATM    1  C1  UNL     1     -33.071   6.338   2.309  1.00 20.00    -0.037 C 
HETATM    2  C2  UNL     1     -33.886   7.111   3.301  1.00 20.00     0.040 C 
HETATM    3  C3  UNL     1     -34.814   5.198   4.245  1.00 20.00     0.243 C 
HETATM    4  C4  UNL     1     -32.115   6.910   1.566  1.00 20.00    -0.022 C 
HETATM    5  C5  UNL     1     -33.382   4.874   2.246  1.00 20.00     0.049 C 
HETATM    6  C6  UNL     1     -33.705   4.366   3.639  1.00 20.00     0.110 C 
HETATM    7  C7  UNL     1     -33.791   8.621   3.318  1.00 20.00     0.071 C 
HETATM    8  C8  UNL     1     -31.758   8.356   1.639  1.00 20.00     0.036 C 
HETATM    9  N9  UNL     1     -34.683   6.568   4.170  1.00 20.00    -0.219 NA
HETATM   10  O10 UNL     1     -35.743   4.650   4.837  1.00 20.00    -0.271 OA
ENDROOT
TORSDOF 0
ENDMDL
MODEL 5
REMARK VINA RESULT:       0.4      1.789      3.306
REMARK  0 active torsions:
REMARK  status: ('A' for Active; 'I' for Inactive)
ROOT
HETATM    1  C1  UNL     1     -32.997   7.587   3.112  1.00 20.00    -0.037 C 
HETATM    2  C2  UNL     1     -33.864   6.365   3.087  1.00 20.00     0.040 C 
HETATM    3  C3  UNL     1     -32.797   5.469   1.225  1.00 20.00     0.243 C 
HETATM    4  C4  UNL     1     -32.996   8.444   4.140  1.00 20.00    -0.022 C 
HETATM    5  C5  UNL     1     -32.107   7.747   1.918  1.00 20.00     0.049 C 
HETATM    6  C6  UNL     1     -31.617   6.385   1.466  1.00 20.00     0.110 C 
HETATM    7  C7  UNL     1     -34.935   6.198   4.144  1.00 20.00     0.071 C 
HETATM    8  C8  UNL     1     -33.843   8.286   5.357  1.00 20.00     0.036 C 
HETATM    9  N9  UNL     1     -33.760   5.414   2.209  1.00 20.00    -0.219 NA
HETATM   10  O10 UNL     1     -32.832   4.761   0.219  1.00 20.00    -0.271 OA
ENDROOT
TORSDOF 0
ENDMDL
