MODEL 1
REMARK VINA RESULT:       1.5      0.000      0.000
REMARK  1 active torsions:
REMARK  status: ('A' for Active; 'I' for Inactive)
REMARK    1  A    between atoms: C4_4  and  C5_5 
ROOT
HETATM    1  C5  UNL     1     -33.474   6.635   2.685  1.00 20.00     0.039 C 
HETATM    2  C6  UNL     1     -34.507   7.109   3.696  1.00 20.00     0.060 C 
HETATM    3  C7  UNL     1     -35.358   5.982   4.246  1.00 20.00     0.008 C 
HETATM    4  C8  UNL     1     -34.468   4.795   4.551  1.00 20.00     0.022 C 
HETATM    5  C9  UNL     1     -33.809   4.328   3.267  1.00 20.00     0.149 C 
HETATM    6  N10 UNL     1     -33.152   5.398   2.521  1.00 20.00    -0.293 NA
ENDROOT
BRANCH   1   7
HETATM    7  C4  UNL     1     -32.772   7.671   1.860  1.00 20.00    -0.005 A 
HETATM    8  C1  UNL     1     -31.488   7.520   1.262  1.00 20.00     0.021 A 
HETATM    9  C2  UNL     1     -31.106   8.646   0.566  1.00 20.00     0.050 A 
HETATM   10  S11 UNL     1     -32.293   9.879   0.636  1.00 20.00    -0.113 SA
HETATM   11  C3  UNL     1     -33.323   8.907   1.599  1.00 20.00     0.063 A 
ENDBRANCH   1   7
TORSDOF 1
ENDMDL
MODEL 2
REMARK VINA RESULT:       1.8      0.986      1.562
REMARK  1 active torsions:
REMARK  status: ('A' for Active; 'I' for Inactive)
REMARK    1  A    between atoms: C4_4  and  C5_5 
ROOT
HETATM    1  C5  UNL     1     -33.438   7.049   2.702  1.00 20.00     0.039 C 
HETATM    2  C6  UNL     1     -33.343   5.552   2.446  1.00 20.00     0.060 C 
HETATM    3  C7  UNL     1     -33.824   4.721   3.618  1.00 20.00     0.008 C 
HETATM    4  C8  UNL     1     -35.098   5.330   4.166  1.00 20.00     0.022 C 
HETATM    5  C9  UNL     1     -34.803   6.736   4.654  1.00 20.00     0.149 C 
HETATM    6  N10 UNL     1     -34.112   7.566   3.670  1.00 20.00    -0.293 NA
ENDROOT
BRANCH   1   7
HETATM    7  C4  UNL     1     -32.734   7.969   1.750  1.00 20.00    -0.005 A 
HETATM    8  C1  UNL     1     -31.492   7.698   1.107  1.00 20.00     0.021 A 
HETATM    9  C2  UNL     1     -31.096   8.736   0.290  1.00 20.00     0.050 A 
HETATM   10  S11 UNL     1     -32.219  10.029   0.303  1.00 20.00    -0.113 SA
HETATM   11  C3  UNL     1     -33.240   9.203   1.403  1.00 20.00     0.063 A 
ENDBRANCH   1   7
TORSDOF 1
ENDMDL
MODEL 3
REMARK VINA RESULT:       1.9      1.266      2.033
REMARK  1 active torsions:
REMARK  status: ('A' for Active; 'I' for Inactive)
REMARK    1  A    between atoms: C4_4  and  C5_5 
ROOT
HETATM    1  C5  UNL     1     -33.356   7.235   2.588  1.00 20.00     0.039 C 
HETATM    2  C6  UNL     1     -33.335   5.741   2.300  1.00 20.00     0.060 C 
HETATM    3  C7  UNL     1     -33.786   4.905   3.482  1.00 20.00     0.008 C 
HETATM    4  C8  UNL     1     -35.004   5.552   4.108  1.00 20.00     0.022 C 
HETATM    5  C9  UNL     1     -34.627   6.936   4.604  1.00 20.00     0.149 C 
HETATM    6  N10 UNL     1     -33.957   7.758   3.600  1.00 20.00    -0.293 NA
ENDROOT
BRANCH   1   7
HETATM    7  C4  UNL     1     -32.667   8.146   1.617  1.00 20.00    -0.005 A 
HETATM    8  C1  UNL     1     -33.096   9.460   1.271  1.00 20.00     0.021 A 
HETATM    9  C2  UNL     1     -32.259  10.050   0.349  1.00 20.00     0.050 A 
HETATM   10  S11 UNL     1     -30.964   9.022  -0.096  1.00 20.00    -0.113 SA
HETATM   11  C3  UNL     1     -31.521   7.781   0.946  1.00 20.00     0.063 A 
ENDBRANCH   1   7
TORSDOF 1
ENDMDL
MODEL 4
REMARK VINA RESULT:       2.1      2.263      4.775
REMARK  1 active torsions:
REMARK  status: ('A' for Active; 'I' for Inactive)
REMARK    1  A    between atoms: C4_4  and  C5_5 
ROOT
HETATM    1  C5  UNL     1     -32.870   8.053   1.815  1.00 20.00     0.039 C 
HETATM    2  C6  UNL     1     -33.552   9.409   1.720  1.00 20.00     0.060 C 
HETATM    3  C7  UNL     1     -32.681  10.464   1.067  1.00 20.00     0.008 C 
HETATM    4  C8  UNL     1     -31.995   9.860  -0.141  1.00 20.00     0.022 C 
HETATM    5  C9  UNL     1     -31.113   8.712   0.315  1.00 20.00     0.149 C 
HETATM    6  N10 UNL     1     -31.801   7.744   1.165  1.00 20.00    -0.293 NA
ENDROOT
BRANCH   1   7
HETATM    7  C4  UNL     1     -33.501   7.010   2.688  1.00 20.00    -0.005 A 
HETATM    8  C1  UNL     1     -34.461   7.261   3.711  1.00 20.00     0.021 A 
HETATM    9  C2  UNL     1     -34.855   6.102   4.344  1.00 20.00     0.050 A 
HETATM   10  S11 UNL     1     -34.069   4.721   3.707  1.00 20.00    -0.113 SA
HETATM   11  C3  UNL     1     -33.198   5.671   2.579  1.00 20.00     0.063 A 
ENDBRANCH   1   7
TORSDOF 1
ENDMDL
MODEL 5
REMARK VINA RESULT:       2.6      2.242      4.614
REMARK  1 active torsions:
REMARK  status: ('A' for Active; 'I' for Inactive)
REMARK    1  A    between atoms: C4_4  and  C5_5 
ROOT
HETATM    1  C5  UNL     1     -32.877   7.980   1.832  1.00 20.00     0.039 C 
HETATM    2  C6  UNL     1     -33.551   9.344   1.807  1.00 20.00     0.060 C 
HETATM    3  C7  UNL     1     -32.689  10.418   1.174  1.00 20.00     0.008 C 
HETATM    4  C8  UNL     1     -32.038   9.857  -0.073  1.00 20.00     0.022 C 
HETATM    5  C9  UNL     1     -31.153   8.687   0.315  1.00 20.00     0.149 C 
HETATM    6  N10 UNL     1     -31.827   7.691   1.144  1.00 20.00    -0.293 NA
ENDROOT
BRANCH   1   7
HETATM    7  C4  UNL     1     -33.494   6.909   2.680  1.00 20.00    -0.005 A 
HETATM    8  C1  UNL     1     -33.174   5.521   2.619  1.00 20.00     0.021 A 
HETATM    9  C2  UNL     1     -33.908   4.782   3.521  1.00 20.00     0.050 A 
HETATM   10  S11 UNL     1     -34.978   5.759   4.434  1.00 20.00    -0.113 SA
HETATM   11  C3  UNL     1     -34.460   7.177   3.624  1.00 20.00     0.063 A 
ENDBRANCH   1   7
TORSDOF 1
ENDMDL
MODEL 6
REMARK VINA RESULT:       2.9      2.419      4.928
REMARK  1 active torsions:
REMARK  status: ('A' for Active; 'I' for Inactive)
REMARK    1  A    between atoms: C4_4  and  C5_5 
ROOT
HETATM    1  C5  UNL     1     -32.993   7.436   2.117  1.00 20.00     0.039 C 
HETATM    2  C6  UNL     1     -31.801   6.931   1.318  1.00 20.00     0.060 C 
HETATM    3  C7  UNL     1     -31.357   7.903   0.242  1.00 20.00     0.008 C 
HETATM    4  C8  UNL     1     -31.366   9.307   0.810  1.00 20.00     0.022 C 
HETATM    5  C9  UNL     1     -32.780   9.660   1.233  1.00 20.00     0.149 C 
HETATM    6  N10 UNL     1     -33.403   8.657   2.093  1.00 20.00    -0.293 NA
ENDROOT
BRANCH   1   7
HETATM    7  C4  UNL     1     -33.704   6.461   3.007  1.00 20.00    -0.005 A 
HETATM    8  C1  UNL     1     -34.877   6.739   3.766  1.00 20.00     0.021 A 
HETATM    9  C2  UNL     1     -35.297   5.643   4.489  1.00 20.00     0.050 A 
HETATM   10  S11 UNL     1     -34.278   4.288   4.252  1.00 20.00    -0.113 SA
HETATM   11  C3  UNL     1     -33.271   5.164   3.179  1.00 20.00     0.063 A 
ENDBRANCH   1   7
TORSDOF 1
ENDMDL
MODEL 7
REMARK VINA RESULT:       3.4      2.371      4.776
REMARK  1 active torsions:
REMARK  status: ('A' for Active; 'I' for Inactive)
REMARK    1  A    between atoms: C4_4  and  C5_5 
ROOT
HETATM    1  C5  UNL     1     -32.982   7.322   2.157  1.00 20.00     0.039 C 
HETATM    2  C6  UNL     1     -31.800   6.849   1.324  1.00 20.00     0.060 C 
HETATM    3  C7  UNL     1     -31.381   7.855   0.270  1.00 20.00     0.008 C 
HETATM    4  C8  UNL     1     -31.389   9.242   0.878  1.00 20.00     0.022 C 
HETATM    5  C9  UNL     1     -32.798   9.572   1.335  1.00 20.00     0.149 C 
HETATM    6  N10 UNL     1     -33.400   8.541   2.175  1.00 20.00    -0.293 NA
ENDROOT
BRANCH   1   7
HETATM    7  C4  UNL     1     -33.672   6.317   3.029  1.00 20.00    -0.005 A 
HETATM    8  C1  UNL     1     -33.297   4.949   3.169  1.00 20.00     0.021 A 
HETATM    9  C2  UNL     1     -34.123   4.274   4.041  1.00 20.00     0.050 A 
HETATM   10  S11 UNL     1     -35.344   5.286   4.685  1.00 20.00    -0.113 SA
HETATM   11  C3  UNL     1     -34.770   6.634   3.798  1.00 20.00     0.063 A 
ENDBRANCH   1   7
TORSDOF 1
ENDMDL
