MODEL 1
REMARK VINA RESULT:      -2.7      0.000      0.000
REMARK  3 active torsions:
REMARK  status: ('A' for Active; 'I' for Inactive)
REMARK    1  A    between atoms: C5_5  and  C8_8 
REMARK    2  A    between atoms: C7_7  and  N9_9 
REMARK    3  A    between atoms: C8_8  and  N9_9 
ROOT
HETATM    1  C1  UNL     1     -32.476   9.910   0.017  1.00 20.00     0.013 C 
HETATM    2  C2  UNL     1     -32.196   9.041   0.796  1.00 20.00    -0.087 C 
HETATM    3  C7  UNL     1     -31.850   7.983   1.749  1.00 20.00     0.362 C 
ENDROOT
BRANCH   3   4
HETATM    4  N9  UNL     1     -32.492   6.722   1.377  1.00 20.00     0.094 N 
HETATM    5  H22 UNL     1     -31.794   6.129   0.915  1.00 20.00     0.317 HD
BRANCH   4   6
HETATM    6  C8  UNL     1     -33.041   6.047   2.521  1.00 20.00     0.275 C 
BRANCH   6   7
HETATM    7  C5  UNL     1     -34.353   6.634   2.914  1.00 20.00     0.018 A 
HETATM    8  C3  UNL     1     -35.055   6.161   4.160  1.00 20.00     0.011 A 
HETATM    9  C4  UNL     1     -34.505   7.561   4.096  1.00 20.00    -0.013 A 
HETATM   10  C6  UNL     1     -33.354   7.958   4.957  1.00 20.00     0.010 C 
ENDBRANCH   6   7
ENDBRANCH   4   6
ENDBRANCH   3   4
TORSDOF 3
ENDMDL
MODEL 2
REMARK VINA RESULT:      -2.6      1.004      1.572
REMARK  3 active torsions:
REMARK  status: ('A' for Active; 'I' for Inactive)
REMARK    1  A    between atoms: C5_5  and  C8_8 
REMARK    2  A    between atoms: C7_7  and  N9_9 
REMARK    3  A    between atoms: C8_8  and  N9_9 
ROOT
HETATM    1  C1  UNL     1     -32.454   9.874   0.046  1.00 20.00     0.013 C 
HETATM    2  C2  UNL     1     -32.262   9.100   0.943  1.00 20.00    -0.087 C 
HETATM    3  C7  UNL     1     -32.025   8.160   2.042  1.00 20.00     0.362 C 
ENDROOT
BRANCH   3   4
HETATM    4  N9  UNL     1     -32.075   6.779   1.560  1.00 20.00     0.094 N 
HETATM    5  H22 UNL     1     -31.299   6.261   1.986  1.00 20.00     0.317 HD
BRANCH   4   6
HETATM    6  C8  UNL     1     -33.328   6.151   1.877  1.00 20.00     0.275 C 
BRANCH   6   7
HETATM    7  C5  UNL     1     -33.805   6.554   3.230  1.00 20.00     0.018 A 
HETATM    8  C3  UNL     1     -35.246   6.351   3.620  1.00 20.00     0.011 A 
HETATM    9  C4  UNL     1     -34.167   5.547   4.296  1.00 20.00    -0.013 A 
HETATM   10  C6  UNL     1     -34.074   4.076   4.073  1.00 20.00     0.010 C 
ENDBRANCH   6   7
ENDBRANCH   4   6
ENDBRANCH   3   4
TORSDOF 3
ENDMDL
MODEL 3
REMARK VINA RESULT:      -2.4      1.734      4.494
REMARK  3 active torsions:
REMARK  status: ('A' for Active; 'I' for Inactive)
REMARK    1  A    between atoms: C5_5  and  C8_8 
REMARK    2  A    between atoms: C7_7  and  N9_9 
REMARK    3  A    between atoms: C8_8  and  N9_9 
ROOT
HETATM    1  C1  UNL     1     -33.867   3.786   4.255  1.00 20.00     0.013 C 
HETATM    2  C2  UNL     1     -34.493   4.804   4.153  1.00 20.00    -0.087 C 
HETATM    3  C7  UNL     1     -35.263   6.045   4.026  1.00 20.00     0.362 C 
ENDROOT
BRANCH   3   4
HETATM    4  N9  UNL     1     -34.420   7.207   4.309  1.00 20.00     0.094 N 
HETATM    5  H22 UNL     1     -33.612   6.893   4.860  1.00 20.00     0.317 HD
BRANCH   4   6
HETATM    6  C8  UNL     1     -33.980   7.851   3.102  1.00 20.00     0.275 C 
BRANCH   6   7
HETATM    7  C5  UNL     1     -32.584   7.459   2.761  1.00 20.00     0.018 A 
HETATM    8  C3  UNL     1     -32.301   6.666   1.512  1.00 20.00     0.011 A 
HETATM    9  C4  UNL     1     -31.820   8.089   1.620  1.00 20.00    -0.013 A 
HETATM   10  C6  UNL     1     -32.407   9.149   0.753  1.00 20.00     0.010 C 
ENDBRANCH   6   7
ENDBRANCH   4   6
ENDBRANCH   3   4
TORSDOF 3
ENDMDL
MODEL 4
REMARK VINA RESULT:      -2.3      1.842      4.504
REMARK  3 active torsions:
REMARK  status: ('A' for Active; 'I' for Inactive)
REMARK    1  A    between atoms: C5_5  and  C8_8 
REMARK    2  A    between atoms: C7_7  and  N9_9 
REMARK    3  A    between atoms: C8_8  and  N9_9 
ROOT
HETATM    1  C1  UNL     1     -33.951   3.899   4.387  1.00 20.00     0.013 C 
HETATM    2  C2  UNL     1     -34.558   4.907   4.152  1.00 20.00    -0.087 C 
HETATM    3  C7  UNL     1     -35.302   6.136   3.862  1.00 20.00     0.362 C 
ENDROOT
BRANCH   3   4
HETATM    4  N9  UNL     1     -34.531   7.314   4.258  1.00 20.00     0.094 N 
HETATM    5  H22 UNL     1     -34.540   7.376   5.283  1.00 20.00     0.317 HD
BRANCH   4   6
HETATM    6  C8  UNL     1     -33.178   7.250   3.776  1.00 20.00     0.275 C 
BRANCH   6   7
HETATM    7  C5  UNL     1     -33.087   7.723   2.366  1.00 20.00     0.018 A 
HETATM    8  C3  UNL     1     -31.745   8.005   1.744  1.00 20.00     0.011 A 
HETATM    9  C4  UNL     1     -32.570   6.847   1.249  1.00 20.00    -0.013 A 
HETATM   10  C6  UNL     1     -32.113   5.447   1.475  1.00 20.00     0.010 C 
ENDBRANCH   6   7
ENDBRANCH   4   6
ENDBRANCH   3   4
TORSDOF 3
ENDMDL
MODEL 5
REMARK VINA RESULT:      -1.9      1.522      2.580
REMARK  3 active torsions:
REMARK  status: ('A' for Active; 'I' for Inactive)
REMARK    1  A    between atoms: C5_5  and  C8_8 
REMARK    2  A    between atoms: C7_7  and  N9_9 
REMARK    3  A    between atoms: C8_8  and  N9_9 
ROOT
HETATM    1  C1  UNL     1     -32.317   5.152   1.086  1.00 20.00     0.013 C 
HETATM    2  C2  UNL     1     -32.155   6.294   1.414  1.00 20.00    -0.087 C 
HETATM    3  C7  UNL     1     -31.952   7.690   1.812  1.00 20.00     0.362 C 
ENDROOT
BRANCH   3   4
HETATM    4  N9  UNL     1     -33.068   8.162   2.631  1.00 20.00     0.094 N 
HETATM    5  H22 UNL     1     -33.934   8.052   2.091  1.00 20.00     0.317 HD
BRANCH   4   6
HETATM    6  C8  UNL     1     -33.160   7.440   3.870  1.00 20.00     0.275 C 
BRANCH   6   7
HETATM    7  C5  UNL     1     -34.580   7.178   4.237  1.00 20.00     0.018 A 
HETATM    8  C3  UNL     1     -35.550   6.667   3.204  1.00 20.00     0.011 A 
HETATM    9  C4  UNL     1     -35.143   5.781   4.351  1.00 20.00    -0.013 A 
HETATM   10  C6  UNL     1     -34.320   4.563   4.106  1.00 20.00     0.010 C 
ENDBRANCH   6   7
ENDBRANCH   4   6
ENDBRANCH   3   4
TORSDOF 3
ENDMDL
MODEL 6
REMARK VINA RESULT:      -1.5      1.062      1.803
REMARK  3 active torsions:
REMARK  status: ('A' for Active; 'I' for Inactive)
REMARK    1  A    between atoms: C5_5  and  C8_8 
REMARK    2  A    between atoms: C7_7  and  N9_9 
REMARK    3  A    between atoms: C8_8  and  N9_9 
ROOT
HETATM    1  C1  UNL     1     -32.593  10.273   0.131  1.00 20.00     0.013 C 
HETATM    2  C2  UNL     1     -32.240   9.292   0.726  1.00 20.00    -0.087 C 
HETATM    3  C7  UNL     1     -31.808   8.092   1.448  1.00 20.00     0.362 C 
ENDROOT
BRANCH   3   4
HETATM    4  N9  UNL     1     -32.239   8.146   2.845  1.00 20.00     0.094 N 
HETATM    5  H22 UNL     1     -31.873   9.010   3.262  1.00 20.00     0.317 HD
BRANCH   4   6
HETATM    6  C8  UNL     1     -33.671   8.104   2.962  1.00 20.00     0.275 C 
BRANCH   6   7
HETATM    7  C5  UNL     1     -34.094   7.171   4.044  1.00 20.00     0.018 A 
HETATM    8  C3  UNL     1     -35.381   6.398   3.921  1.00 20.00     0.011 A 
HETATM    9  C4  UNL     1     -34.064   5.670   3.878  1.00 20.00    -0.013 A 
HETATM   10  C6  UNL     1     -33.608   5.012   2.621  1.00 20.00     0.010 C 
ENDBRANCH   6   7
ENDBRANCH   4   6
ENDBRANCH   3   4
TORSDOF 3
ENDMDL
MODEL 7
REMARK VINA RESULT:      -1.5      0.808      4.225
REMARK  3 active torsions:
REMARK  status: ('A' for Active; 'I' for Inactive)
REMARK    1  A    between atoms: C5_5  and  C8_8 
REMARK    2  A    between atoms: C7_7  and  N9_9 
REMARK    3  A    between atoms: C8_8  and  N9_9 
ROOT
HETATM    1  C1  UNL     1     -34.312   7.275   4.069  1.00 20.00     0.013 C 
HETATM    2  C2  UNL     1     -33.807   6.732   3.126  1.00 20.00    -0.087 C 
HETATM    3  C7  UNL     1     -33.194   6.065   1.974  1.00 20.00     0.362 C 
ENDROOT
BRANCH   3   4
HETATM    4  N9  UNL     1     -31.934   6.715   1.611  1.00 20.00     0.094 N 
HETATM    5  H22 UNL     1     -31.707   6.460   0.642  1.00 20.00     0.317 HD
BRANCH   4   6
HETATM    6  C8  UNL     1     -32.016   8.144   1.743  1.00 20.00     0.275 C 
BRANCH   6   7
HETATM    7  C5  UNL     1     -31.626   8.825   0.477  1.00 20.00     0.018 A 
HETATM    8  C3  UNL     1     -32.629   8.997  -0.633  1.00 20.00     0.011 A 
HETATM    9  C4  UNL     1     -32.123  10.204   0.111  1.00 20.00    -0.013 A 
HETATM   10  C6  UNL     1     -33.040  10.984   0.991  1.00 20.00     0.010 C 
ENDBRANCH   6   7
ENDBRANCH   4   6
ENDBRANCH   3   4
TORSDOF 3
ENDMDL
MODEL 8
REMARK VINA RESULT:      -1.2      1.173      1.705
REMARK  3 active torsions:
REMARK  status: ('A' for Active; 'I' for Inactive)
REMARK    1  A    between atoms: C5_5  and  C8_8 
REMARK    2  A    between atoms: C7_7  and  N9_9 
REMARK    3  A    between atoms: C8_8  and  N9_9 
ROOT
HETATM    1  C1  UNL     1     -32.604  10.429  -0.030  1.00 20.00     0.013 C 
HETATM    2  C2  UNL     1     -32.279   9.394   0.483  1.00 20.00    -0.087 C 
HETATM    3  C7  UNL     1     -31.884   8.127   1.105  1.00 20.00     0.362 C 
ENDROOT
BRANCH   3   4
HETATM    4  N9  UNL     1     -31.743   8.284   2.552  1.00 20.00     0.094 N 
HETATM    5  H22 UNL     1     -31.609   9.280   2.758  1.00 20.00     0.317 HD
BRANCH   4   6
HETATM    6  C8  UNL     1     -32.892   7.781   3.255  1.00 20.00     0.275 C 
BRANCH   6   7
HETATM    7  C5  UNL     1     -33.440   6.566   2.590  1.00 20.00     0.018 A 
HETATM    8  C3  UNL     1     -33.261   5.209   3.219  1.00 20.00     0.011 A 
HETATM    9  C4  UNL     1     -34.636   5.816   3.129  1.00 20.00    -0.013 A 
HETATM   10  C6  UNL     1     -35.355   6.238   4.365  1.00 20.00     0.010 C 
ENDBRANCH   6   7
ENDBRANCH   4   6
ENDBRANCH   3   4
TORSDOF 3
ENDMDL
MODEL 9
REMARK VINA RESULT:      -1.2      2.471      4.644
REMARK  3 active torsions:
REMARK  status: ('A' for Active; 'I' for Inactive)
REMARK    1  A    between atoms: C5_5  and  C8_8 
REMARK    2  A    between atoms: C7_7  and  N9_9 
REMARK    3  A    between atoms: C8_8  and  N9_9 
ROOT
HETATM    1  C1  UNL     1     -32.824   2.711   5.295  1.00 20.00     0.013 C 
HETATM    2  C2  UNL     1     -33.467   3.423   4.575  1.00 20.00    -0.087 C 
HETATM    3  C7  UNL     1     -34.249   4.291   3.690  1.00 20.00     0.362 C 
ENDROOT
BRANCH   3   4
HETATM    4  N9  UNL     1     -34.905   5.352   4.455  1.00 20.00     0.094 N 
HETATM    5  H22 UNL     1     -34.257   5.673   5.183  1.00 20.00     0.317 HD
BRANCH   4   6
HETATM    6  C8  UNL     1     -35.293   6.451   3.614  1.00 20.00     0.275 C 
BRANCH   6   7
HETATM    7  C5  UNL     1     -34.472   7.661   3.897  1.00 20.00     0.018 A 
HETATM    8  C3  UNL     1     -33.138   7.531   4.586  1.00 20.00     0.011 A 
HETATM    9  C4  UNL     1     -33.198   7.970   3.147  1.00 20.00    -0.013 A 
HETATM   10  C6  UNL     1     -32.669   7.087   2.068  1.00 20.00     0.010 C 
ENDBRANCH   6   7
ENDBRANCH   4   6
ENDBRANCH   3   4
TORSDOF 3
ENDMDL
