MODEL 1
REMARK VINA RESULT:      -1.7      0.000      0.000
REMARK  0 active torsions:
REMARK  status: ('A' for Active; 'I' for Inactive)
ROOT
HETATM    1  C1  UNL     1     -32.702   9.733   0.189  1.00 20.00     0.012 C 
HETATM    2  C2  UNL     1     -32.230   8.935   0.952  1.00 20.00    -0.113 C 
HETATM    3  C3  UNL     1     -32.127   6.536   1.567  1.00 20.00     0.047 C 
HETATM    4  C4  UNL     1     -31.996   8.311   3.341  1.00 20.00     0.047 C 
HETATM    5  C5  UNL     1     -33.583   6.294   1.980  1.00 20.00     0.273 C 
HETATM    6  C6  UNL     1     -33.457   8.006   3.690  1.00 20.00     0.273 C 
HETATM    7  C7  UNL     1     -31.651   7.955   1.890  1.00 20.00     0.067 C 
HETATM    8  C8  UNL     1     -35.169   6.315   3.792  1.00 20.00     0.309 C 
HETATM    9  N9  UNL     1     -33.790   6.605   3.400  1.00 20.00     0.084 N 
ENDROOT
TORSDOF 0
ENDMDL
MODEL 2
REMARK VINA RESULT:      -0.4      2.462      3.673
REMARK  0 active torsions:
REMARK  status: ('A' for Active; 'I' for Inactive)
ROOT
HETATM    1  C1  UNL     1     -33.161   8.410   5.037  1.00 20.00     0.012 C 
HETATM    2  C2  UNL     1     -33.762   7.725   4.255  1.00 20.00    -0.113 C 
HETATM    3  C3  UNL     1     -35.503   5.976   4.013  1.00 20.00     0.047 C 
HETATM    4  C4  UNL     1     -33.535   6.036   2.452  1.00 20.00     0.047 C 
HETATM    5  C5  UNL     1     -34.828   4.811   4.746  1.00 20.00     0.273 C 
HETATM    6  C6  UNL     1     -32.931   4.870   3.241  1.00 20.00     0.273 C 
HETATM    7  C7  UNL     1     -34.498   6.881   3.294  1.00 20.00     0.067 C 
HETATM    8  C8  UNL     1     -33.388   2.892   4.537  1.00 20.00     0.309 C 
HETATM    9  N9  UNL     1     -33.979   4.032   3.836  1.00 20.00     0.084 N 
ENDROOT
TORSDOF 0
ENDMDL
MODEL 3
REMARK VINA RESULT:      -0.0      1.694      4.052
REMARK  0 active torsions:
REMARK  status: ('A' for Active; 'I' for Inactive)
ROOT
HETATM    1  C1  UNL     1     -33.187   3.521   4.729  1.00 20.00     0.012 C 
HETATM    2  C2  UNL     1     -33.794   4.293   4.037  1.00 20.00    -0.113 C 
HETATM    3  C3  UNL     1     -33.887   5.376   1.808  1.00 20.00     0.047 C 
HETATM    4  C4  UNL     1     -34.642   6.617   3.858  1.00 20.00     0.047 C 
HETATM    5  C5  UNL     1     -32.592   6.194   1.845  1.00 20.00     0.273 C 
HETATM    6  C6  UNL     1     -33.320   7.390   3.822  1.00 20.00     0.273 C 
HETATM    7  C7  UNL     1     -34.539   5.242   3.188  1.00 20.00     0.067 C 
HETATM    8  C8  UNL     1     -31.584   8.303   2.424  1.00 20.00     0.309 C 
HETATM    9  N9  UNL     1     -32.815   7.515   2.448  1.00 20.00     0.084 N 
ENDROOT
TORSDOF 0
ENDMDL
MODEL 4
REMARK VINA RESULT:       1.2      1.225      3.807
REMARK  0 active torsions:
REMARK  status: ('A' for Active; 'I' for Inactive)
ROOT
HETATM    1  C1  UNL     1     -36.716   6.795   2.974  1.00 20.00     0.012 C 
HETATM    2  C2  UNL     1     -35.613   6.575   3.396  1.00 20.00    -0.113 C 
HETATM    3  C3  UNL     1     -33.528   7.607   4.252  1.00 20.00     0.047 C 
HETATM    4  C4  UNL     1     -33.439   5.486   2.907  1.00 20.00     0.047 C 
HETATM    5  C5  UNL     1     -33.062   8.365   3.004  1.00 20.00     0.273 C 
HETATM    6  C6  UNL     1     -32.977   6.320   1.707  1.00 20.00     0.273 C 
HETATM    7  C7  UNL     1     -34.258   6.304   3.912  1.00 20.00     0.067 C 
HETATM    8  C8  UNL     1     -31.753   8.265   0.986  1.00 20.00     0.309 C 
HETATM    9  N9  UNL     1     -32.235   7.511   2.142  1.00 20.00     0.084 N 
ENDROOT
TORSDOF 0
ENDMDL
