MODEL 1
REMARK VINA RESULT:      -0.9      0.000      0.000
REMARK  0 active torsions:
REMARK  status: ('A' for Active; 'I' for Inactive)
ROOT
HETATM    1  C1  UNL     1     -32.734   7.504   2.538  1.00 20.00     0.075 C 
HETATM    2  C2  UNL     1     -33.737   7.623   3.683  1.00 20.00     0.273 C 
HETATM    3  C3  UNL     1     -33.673   5.368   3.065  1.00 20.00     0.312 C 
HETATM    4  C4  UNL     1     -32.994   6.128   1.942  1.00 20.00     0.127 C 
HETATM    5  C5  UNL     1     -31.760   5.444   1.391  1.00 20.00     0.053 C 
HETATM    6  N6  UNL     1     -34.534   6.397   3.650  1.00 20.00     0.086 N 
HETATM    7  F7  UNL     1     -33.890   6.266   0.920  1.00 20.00    -0.241 F 
HETATM    8  H17 UNL     1     -34.837   6.133   4.584  1.00 20.00     0.316 HD
ENDROOT
TORSDOF 0
ENDMDL
MODEL 2
REMARK VINA RESULT:      -0.8      1.747      2.739
REMARK  0 active torsions:
REMARK  status: ('A' for Active; 'I' for Inactive)
ROOT
HETATM    1  C1  UNL     1     -33.715   5.957   2.581  1.00 20.00     0.075 C 
HETATM    2  C2  UNL     1     -32.869   7.222   2.455  1.00 20.00     0.273 C 
HETATM    3  C3  UNL     1     -34.044   7.386   4.471  1.00 20.00     0.312 C 
HETATM    4  C4  UNL     1     -34.710   6.270   3.689  1.00 20.00     0.127 C 
HETATM    5  C5  UNL     1     -35.101   5.073   4.532  1.00 20.00     0.053 C 
HETATM    6  N6  UNL     1     -33.435   8.181   3.404  1.00 20.00     0.086 N 
HETATM    7  F7  UNL     1     -35.846   6.770   3.117  1.00 20.00    -0.241 F 
HETATM    8  H17 UNL     1     -32.715   8.799   3.772  1.00 20.00     0.316 HD
ENDROOT
TORSDOF 0
ENDMDL
MODEL 3
REMARK VINA RESULT:      -0.8      1.830      2.623
REMARK  0 active torsions:
REMARK  status: ('A' for Active; 'I' for Inactive)
ROOT
HETATM    1  C1  UNL     1     -32.265   6.545   1.223  1.00 20.00     0.075 C 
HETATM    2  C2  UNL     1     -33.121   5.691   2.155  1.00 20.00     0.273 C 
HETATM    3  C3  UNL     1     -33.509   7.924   2.731  1.00 20.00     0.312 C 
HETATM    4  C4  UNL     1     -32.267   7.928   1.861  1.00 20.00     0.127 C 
HETATM    5  C5  UNL     1     -32.210   9.071   0.869  1.00 20.00     0.053 C 
HETATM    6  N6  UNL     1     -33.500   6.563   3.267  1.00 20.00     0.086 N 
HETATM    7  F7  UNL     1     -31.176   8.025   2.678  1.00 20.00    -0.241 F 
HETATM    8  H17 UNL     1     -34.413   6.308   3.636  1.00 20.00     0.316 HD
ENDROOT
TORSDOF 0
ENDMDL
MODEL 4
REMARK VINA RESULT:      -0.7      1.931      2.652
REMARK  0 active torsions:
REMARK  status: ('A' for Active; 'I' for Inactive)
ROOT
HETATM    1  C1  UNL     1     -33.304   7.646   3.678  1.00 20.00     0.075 C 
HETATM    2  C2  UNL     1     -32.305   7.841   2.539  1.00 20.00     0.273 C 
HETATM    3  C3  UNL     1     -33.794   6.171   1.859  1.00 20.00     0.312 C 
HETATM    4  C4  UNL     1     -34.004   6.334   3.352  1.00 20.00     0.127 C 
HETATM    5  C5  UNL     1     -35.456   6.279   3.783  1.00 20.00     0.053 C 
HETATM    6  N6  UNL     1     -32.424   6.655   1.691  1.00 20.00     0.086 N 
HETATM    7  F7  UNL     1     -33.339   5.324   3.988  1.00 20.00    -0.241 F 
HETATM    8  H17 UNL     1     -32.232   6.882   0.718  1.00 20.00     0.316 HD
ENDROOT
TORSDOF 0
ENDMDL
MODEL 5
REMARK VINA RESULT:      -0.6      1.741      3.027
REMARK  0 active torsions:
REMARK  status: ('A' for Active; 'I' for Inactive)
ROOT
HETATM    1  C1  UNL     1     -33.721   6.089   3.206  1.00 20.00     0.075 C 
HETATM    2  C2  UNL     1     -32.949   5.891   1.904  1.00 20.00     0.273 C 
HETATM    3  C3  UNL     1     -32.313   7.971   2.764  1.00 20.00     0.312 C 
HETATM    4  C4  UNL     1     -33.561   7.568   3.527  1.00 20.00     0.127 C 
HETATM    5  C5  UNL     1     -33.508   7.882   5.008  1.00 20.00     0.053 C 
HETATM    6  N6  UNL     1     -32.462   7.217   1.520  1.00 20.00     0.086 N 
HETATM    7  F7  UNL     1     -34.622   8.240   2.992  1.00 20.00    -0.241 F 
HETATM    8  H17 UNL     1     -31.576   7.150   1.023  1.00 20.00     0.316 HD
ENDROOT
TORSDOF 0
ENDMDL
MODEL 6
REMARK VINA RESULT:      -0.5      2.016      2.658
REMARK  0 active torsions:
REMARK  status: ('A' for Active; 'I' for Inactive)
ROOT
HETATM    1  C1  UNL     1     -33.372   5.315   3.568  1.00 20.00     0.075 C 
HETATM    2  C2  UNL     1     -34.553   4.571   4.188  1.00 20.00     0.273 C 
HETATM    3  C3  UNL     1     -35.351   6.656   3.491  1.00 20.00     0.312 C 
HETATM    4  C4  UNL     1     -33.838   6.761   3.470  1.00 20.00     0.127 C 
HETATM    5  C5  UNL     1     -33.287   7.513   2.276  1.00 20.00     0.053 C 
HETATM    6  N6  UNL     1     -35.568   5.588   4.466  1.00 20.00     0.086 N 
HETATM    7  F7  UNL     1     -33.442   7.417   4.600  1.00 20.00    -0.241 F 
HETATM    8  H17 UNL     1     -36.505   5.200   4.384  1.00 20.00     0.316 HD
ENDROOT
TORSDOF 0
ENDMDL
MODEL 7
REMARK VINA RESULT:      -0.4      1.749      2.130
REMARK  0 active torsions:
REMARK  status: ('A' for Active; 'I' for Inactive)
ROOT
HETATM    1  C1  UNL     1     -33.672   6.154   2.854  1.00 20.00     0.075 C 
HETATM    2  C2  UNL     1     -33.315   7.475   3.531  1.00 20.00     0.273 C 
HETATM    3  C3  UNL     1     -32.353   7.520   1.399  1.00 20.00     0.312 C 
HETATM    4  C4  UNL     1     -32.744   6.076   1.650  1.00 20.00     0.127 C 
HETATM    5  C5  UNL     1     -33.343   5.380   0.445  1.00 20.00     0.053 C 
HETATM    6  N6  UNL     1     -32.204   8.035   2.760  1.00 20.00     0.086 N 
HETATM    7  F7  UNL     1     -31.622   5.390   2.018  1.00 20.00    -0.241 F 
HETATM    8  H17 UNL     1     -32.227   9.052   2.773  1.00 20.00     0.316 HD
ENDROOT
TORSDOF 0
ENDMDL
MODEL 8
REMARK VINA RESULT:      -0.2      1.996      2.813
REMARK  0 active torsions:
REMARK  status: ('A' for Active; 'I' for Inactive)
ROOT
HETATM    1  C1  UNL     1     -33.410   6.616   2.083  1.00 20.00     0.075 C 
HETATM    2  C2  UNL     1     -32.126   7.425   1.914  1.00 20.00     0.273 C 
HETATM    3  C3  UNL     1     -32.848   7.746   4.116  1.00 20.00     0.312 C 
HETATM    4  C4  UNL     1     -34.024   7.136   3.376  1.00 20.00     0.127 C 
HETATM    5  C5  UNL     1     -34.780   6.091   4.171  1.00 20.00     0.053 C 
HETATM    6  N6  UNL     1     -32.099   8.374   3.028  1.00 20.00     0.086 N 
HETATM    7  F7  UNL     1     -34.896   8.139   3.063  1.00 20.00    -0.241 F 
HETATM    8  H17 UNL     1     -31.142   8.577   3.311  1.00 20.00     0.316 HD
ENDROOT
TORSDOF 0
ENDMDL
MODEL 9
REMARK VINA RESULT:       0.0      2.140      2.859
REMARK  0 active torsions:
REMARK  status: ('A' for Active; 'I' for Inactive)
ROOT
HETATM    1  C1  UNL     1     -33.478   8.518   2.499  1.00 20.00     0.075 C 
HETATM    2  C2  UNL     1     -32.349   8.277   1.498  1.00 20.00     0.273 C 
HETATM    3  C3  UNL     1     -32.938   6.190   2.375  1.00 20.00     0.312 C 
HETATM    4  C4  UNL     1     -33.571   7.221   3.291  1.00 20.00     0.127 C 
HETATM    5  C5  UNL     1     -34.972   6.868   3.744  1.00 20.00     0.053 C 
HETATM    6  N6  UNL     1     -31.827   6.943   1.795  1.00 20.00     0.086 N 
HETATM    7  F7  UNL     1     -32.787   7.341   4.403  1.00 20.00    -0.241 F 
HETATM    8  H17 UNL     1     -31.479   6.492   0.951  1.00 20.00     0.316 HD
ENDROOT
TORSDOF 0
ENDMDL
