MODEL 1
REMARK VINA RESULT:      -0.8      0.000      0.000
REMARK  0 active torsions:
REMARK  status: ('A' for Active; 'I' for Inactive)
ROOT
HETATM    1  C1  UNL     1     -32.455   8.122   2.044  1.00 20.00    -0.057 C 
HETATM    2  C2  UNL     1     -33.938   6.649   3.376  1.00 20.00    -0.057 C 
HETATM    3  C3  UNL     1     -32.463   9.313   1.428  1.00 20.00     0.016 C 
HETATM    4  C4  UNL     1     -35.184   6.612   3.873  1.00 20.00     0.016 C 
HETATM    5  C5  UNL     1     -33.099   7.904   3.391  1.00 20.00     0.070 C 
HETATM    6  C6  UNL     1     -31.822   6.892   1.431  1.00 20.00     0.306 C 
HETATM    7  C7  UNL     1     -33.278   5.447   2.739  1.00 20.00     0.306 C 
HETATM    8  C8  UNL     1     -32.142   4.587   0.789  1.00 20.00     0.310 C 
HETATM    9  N9  UNL     1     -32.771   5.763   1.390  1.00 20.00     0.091 N 
ENDROOT
TORSDOF 0
ENDMDL
MODEL 2
REMARK VINA RESULT:      -0.7      0.915      3.443
REMARK  0 active torsions:
REMARK  status: ('A' for Active; 'I' for Inactive)
ROOT
HETATM    1  C1  UNL     1     -32.481   5.574   1.482  1.00 20.00    -0.057 C 
HETATM    2  C2  UNL     1     -32.316   8.023   1.826  1.00 20.00    -0.057 C 
HETATM    3  C3  UNL     1     -32.541   4.670   0.493  1.00 20.00     0.016 C 
HETATM    4  C4  UNL     1     -32.238   9.163   1.124  1.00 20.00     0.016 C 
HETATM    5  C5  UNL     1     -31.567   6.774   1.426  1.00 20.00     0.070 C 
HETATM    6  C6  UNL     1     -33.337   5.479   2.725  1.00 20.00     0.306 C 
HETATM    7  C7  UNL     1     -33.175   7.883   3.063  1.00 20.00     0.306 C 
HETATM    8  C8  UNL     1     -34.913   6.615   4.160  1.00 20.00     0.310 C 
HETATM    9  N9  UNL     1     -34.087   6.728   2.958  1.00 20.00     0.091 N 
ENDROOT
TORSDOF 0
ENDMDL
MODEL 3
REMARK VINA RESULT:      -0.5      1.259      3.010
REMARK  0 active torsions:
REMARK  status: ('A' for Active; 'I' for Inactive)
ROOT
HETATM    1  C1  UNL     1     -33.967   5.263   3.325  1.00 20.00    -0.057 C 
HETATM    2  C2  UNL     1     -33.952   7.622   4.086  1.00 20.00    -0.057 C 
HETATM    3  C3  UNL     1     -33.895   4.018   3.817  1.00 20.00     0.016 C 
HETATM    4  C4  UNL     1     -33.867   8.346   5.213  1.00 20.00     0.016 C 
HETATM    5  C5  UNL     1     -34.765   6.353   3.998  1.00 20.00     0.070 C 
HETATM    6  C6  UNL     1     -33.237   5.687   2.070  1.00 20.00     0.306 C 
HETATM    7  C7  UNL     1     -33.222   8.002   2.817  1.00 20.00     0.306 C 
HETATM    8  C8  UNL     1     -31.705   7.272   1.085  1.00 20.00     0.310 C 
HETATM    9  N9  UNL     1     -32.406   6.882   2.308  1.00 20.00     0.091 N 
ENDROOT
TORSDOF 0
ENDMDL
MODEL 4
REMARK VINA RESULT:      -0.3      0.931      3.376
REMARK  0 active torsions:
REMARK  status: ('A' for Active; 'I' for Inactive)
ROOT
HETATM    1  C1  UNL     1     -34.033   6.485   3.413  1.00 20.00    -0.057 C 
HETATM    2  C2  UNL     1     -32.681   5.520   1.573  1.00 20.00    -0.057 C 
HETATM    3  C3  UNL     1     -35.271   6.430   3.925  1.00 20.00     0.016 C 
HETATM    4  C4  UNL     1     -32.791   4.658   0.551  1.00 20.00     0.016 C 
HETATM    5  C5  UNL     1     -33.305   5.258   2.923  1.00 20.00     0.070 C 
HETATM    6  C6  UNL     1     -33.271   7.784   3.261  1.00 20.00     0.306 C 
HETATM    7  C7  UNL     1     -31.944   6.835   1.455  1.00 20.00     0.306 C 
HETATM    8  C8  UNL     1     -32.065   9.229   1.749  1.00 20.00     0.310 C 
HETATM    9  N9  UNL     1     -32.792   7.967   1.877  1.00 20.00     0.091 N 
ENDROOT
TORSDOF 0
ENDMDL
MODEL 5
REMARK VINA RESULT:      -0.1      1.279      2.936
REMARK  0 active torsions:
REMARK  status: ('A' for Active; 'I' for Inactive)
ROOT
HETATM    1  C1  UNL     1     -32.465   8.076   2.919  1.00 20.00    -0.057 C 
HETATM    2  C2  UNL     1     -32.576   5.994   1.579  1.00 20.00    -0.057 C 
HETATM    3  C3  UNL     1     -31.571   8.863   3.536  1.00 20.00     0.016 C 
HETATM    4  C4  UNL     1     -31.774   5.043   1.077  1.00 20.00     0.016 C 
HETATM    5  C5  UNL     1     -32.201   7.457   1.568  1.00 20.00     0.070 C 
HETATM    6  C6  UNL     1     -33.802   7.726   3.533  1.00 20.00     0.306 C 
HETATM    7  C7  UNL     1     -33.911   5.682   2.217  1.00 20.00     0.306 C 
HETATM    8  C8  UNL     1     -35.305   5.947   4.172  1.00 20.00     0.310 C 
HETATM    9  N9  UNL     1     -34.011   6.266   3.569  1.00 20.00     0.091 N 
ENDROOT
TORSDOF 0
ENDMDL
MODEL 6
REMARK VINA RESULT:       0.5      1.409      2.966
REMARK  0 active torsions:
REMARK  status: ('A' for Active; 'I' for Inactive)
ROOT
HETATM    1  C1  UNL     1     -33.970   7.557   4.012  1.00 20.00    -0.057 C 
HETATM    2  C2  UNL     1     -32.666   6.997   1.980  1.00 20.00    -0.057 C 
HETATM    3  C3  UNL     1     -33.913   8.350   5.091  1.00 20.00     0.016 C 
HETATM    4  C4  UNL     1     -31.520   7.323   1.363  1.00 20.00     0.016 C 
HETATM    5  C5  UNL     1     -33.551   8.026   2.640  1.00 20.00     0.070 C 
HETATM    6  C6  UNL     1     -34.437   6.120   4.081  1.00 20.00     0.306 C 
HETATM    7  C7  UNL     1     -33.156   5.570   2.086  1.00 20.00     0.306 C 
HETATM    8  C8  UNL     1     -33.912   3.819   3.569  1.00 20.00     0.310 C 
HETATM    9  N9  UNL     1     -33.445   5.203   3.486  1.00 20.00     0.091 N 
ENDROOT
TORSDOF 0
ENDMDL
MODEL 7
REMARK VINA RESULT:       0.8      1.393      2.885
REMARK  0 active torsions:
REMARK  status: ('A' for Active; 'I' for Inactive)
ROOT
HETATM    1  C1  UNL     1     -32.734   6.100   1.627  1.00 20.00    -0.057 C 
HETATM    2  C2  UNL     1     -34.416   6.407   3.421  1.00 20.00    -0.057 C 
HETATM    3  C3  UNL     1     -32.025   5.132   1.029  1.00 20.00     0.016 C 
HETATM    4  C4  UNL     1     -35.112   5.695   4.320  1.00 20.00     0.016 C 
HETATM    5  C5  UNL     1     -34.183   5.922   2.010  1.00 20.00     0.070 C 
HETATM    6  C6  UNL     1     -32.137   7.443   1.987  1.00 20.00     0.306 C 
HETATM    7  C7  UNL     1     -33.789   7.744   3.749  1.00 20.00     0.306 C 
HETATM    8  C8  UNL     1     -31.763   9.059   3.742  1.00 20.00     0.310 C 
HETATM    9  N9  UNL     1     -32.352   7.761   3.412  1.00 20.00     0.091 N 
ENDROOT
TORSDOF 0
ENDMDL
MODEL 8
REMARK VINA RESULT:       1.0      1.692      3.227
REMARK  0 active torsions:
REMARK  status: ('A' for Active; 'I' for Inactive)
ROOT
HETATM    1  C1  UNL     1     -32.805   5.777   1.813  1.00 20.00    -0.057 C 
HETATM    2  C2  UNL     1     -33.934   4.548   3.645  1.00 20.00    -0.057 C 
HETATM    3  C3  UNL     1     -31.674   5.751   1.094  1.00 20.00     0.016 C 
HETATM    4  C4  UNL     1     -33.745   3.495   4.455  1.00 20.00     0.016 C 
HETATM    5  C5  UNL     1     -33.557   4.522   2.184  1.00 20.00     0.070 C 
HETATM    6  C6  UNL     1     -33.411   7.062   2.332  1.00 20.00     0.306 C 
HETATM    7  C7  UNL     1     -34.519   5.855   4.131  1.00 20.00     0.306 C 
HETATM    8  C8  UNL     1     -34.227   8.249   4.271  1.00 20.00     0.310 C 
HETATM    9  N9  UNL     1     -33.648   6.995   3.787  1.00 20.00     0.091 N 
ENDROOT
TORSDOF 0
ENDMDL
MODEL 9
REMARK VINA RESULT:       1.3      1.832      2.698
REMARK  0 active torsions:
REMARK  status: ('A' for Active; 'I' for Inactive)
ROOT
HETATM    1  C1  UNL     1     -32.849   5.746   2.320  1.00 20.00    -0.057 C 
HETATM    2  C2  UNL     1     -34.883   6.182   3.667  1.00 20.00    -0.057 C 
HETATM    3  C3  UNL     1     -32.404   5.839   1.058  1.00 20.00     0.016 C 
HETATM    4  C4  UNL     1     -36.136   6.640   3.529  1.00 20.00     0.016 C 
HETATM    5  C5  UNL     1     -33.709   6.811   2.955  1.00 20.00     0.070 C 
HETATM    6  C6  UNL     1     -32.545   4.557   3.205  1.00 20.00     0.306 C 
HETATM    7  C7  UNL     1     -34.542   4.986   4.527  1.00 20.00     0.306 C 
HETATM    8  C8  UNL     1     -33.465   2.825   4.613  1.00 20.00     0.310 C 
HETATM    9  N9  UNL     1     -33.779   3.976   3.767  1.00 20.00     0.091 N 
ENDROOT
TORSDOF 0
ENDMDL
