MODEL 1
REMARK VINA RESULT:      -2.1      0.000      0.000
REMARK  1 active torsions:
REMARK  status: ('A' for Active; 'I' for Inactive)
REMARK    1  A    between atoms: C2_2  and  C3_3 
ROOT
HETATM    1  C1  UNL     1     -32.968   8.028   3.294  1.00 20.00     0.080 C 
HETATM    2  C2  UNL     1     -32.290   7.593   2.006  1.00 20.00     0.272 C 
HETATM    3  F4  UNL     1     -30.944   7.581   2.219  1.00 20.00    -0.216 F 
HETATM    4 CL8  UNL     1     -32.642   8.769   0.712  1.00 20.00    -0.073 Cl
ENDROOT
BRANCH   2   5
HETATM    5  C3  UNL     1     -32.709   6.202   1.576  1.00 20.00     0.437 C 
HETATM    6  F5  UNL     1     -31.638   5.440   1.265  1.00 20.00    -0.166 F 
HETATM    7  F6  UNL     1     -33.379   5.574   2.568  1.00 20.00    -0.166 F 
HETATM    8  F7  UNL     1     -33.519   6.236   0.496  1.00 20.00    -0.166 F 
ENDBRANCH   2   5
TORSDOF 1
ENDMDL
MODEL 2
REMARK VINA RESULT:      -2.1      1.798      2.618
REMARK  1 active torsions:
REMARK  status: ('A' for Active; 'I' for Inactive)
REMARK    1  A    between atoms: C2_2  and  C3_3 
ROOT
HETATM    1  C1  UNL     1     -32.081   5.306   1.749  1.00 20.00     0.080 C 
HETATM    2  C2  UNL     1     -33.027   6.487   1.901  1.00 20.00     0.272 C 
HETATM    3  F4  UNL     1     -33.876   6.489   0.836  1.00 20.00    -0.216 F 
HETATM    4 CL8  UNL     1     -32.097   8.009   1.880  1.00 20.00    -0.073 Cl
ENDROOT
BRANCH   2   5
HETATM    5  C3  UNL     1     -33.857   6.399   3.165  1.00 20.00     0.437 C 
HETATM    6  F5  UNL     1     -33.724   5.192   3.757  1.00 20.00    -0.166 F 
HETATM    7  F6  UNL     1     -33.471   7.335   4.061  1.00 20.00    -0.166 F 
HETATM    8  F7  UNL     1     -35.170   6.593   2.915  1.00 20.00    -0.166 F 
ENDBRANCH   2   5
TORSDOF 1
ENDMDL
MODEL 3
REMARK VINA RESULT:      -2.0      1.985      2.523
REMARK  1 active torsions:
REMARK  status: ('A' for Active; 'I' for Inactive)
REMARK    1  A    between atoms: C2_2  and  C3_3 
ROOT
HETATM    1  C1  UNL     1     -32.692   8.802   1.210  1.00 20.00     0.080 C 
HETATM    2  C2  UNL     1     -32.323   7.752   2.247  1.00 20.00     0.272 C 
HETATM    3  F4  UNL     1     -31.168   8.145   2.854  1.00 20.00    -0.216 F 
HETATM    4 CL8  UNL     1     -32.029   6.188   1.441  1.00 20.00    -0.073 Cl
ENDROOT
BRANCH   2   5
HETATM    5  C3  UNL     1     -33.386   7.600   3.314  1.00 20.00     0.437 C 
HETATM    6  F5  UNL     1     -33.877   6.341   3.342  1.00 20.00    -0.166 F 
HETATM    7  F6  UNL     1     -32.879   7.864   4.540  1.00 20.00    -0.166 F 
HETATM    8  F7  UNL     1     -34.422   8.442   3.112  1.00 20.00    -0.166 F 
ENDBRANCH   2   5
TORSDOF 1
ENDMDL
MODEL 4
REMARK VINA RESULT:      -2.0      1.878      2.849
REMARK  1 active torsions:
REMARK  status: ('A' for Active; 'I' for Inactive)
REMARK    1  A    between atoms: C2_2  and  C3_3 
ROOT
HETATM    1  C1  UNL     1     -33.738   6.171   3.021  1.00 20.00     0.080 C 
HETATM    2  C2  UNL     1     -32.907   6.437   1.776  1.00 20.00     0.272 C 
HETATM    3  F4  UNL     1     -33.753   6.522   0.712  1.00 20.00    -0.216 F 
HETATM    4 CL8  UNL     1     -31.789   5.076   1.497  1.00 20.00    -0.073 Cl
ENDROOT
BRANCH   2   5
HETATM    5  C3  UNL     1     -32.135   7.738   1.867  1.00 20.00     0.437 C 
HETATM    6  F5  UNL     1     -32.238   8.285   3.098  1.00 20.00    -0.166 F 
HETATM    7  F6  UNL     1     -30.820   7.536   1.623  1.00 20.00    -0.166 F 
HETATM    8  F7  UNL     1     -32.580   8.647   0.973  1.00 20.00    -0.166 F 
ENDBRANCH   2   5
TORSDOF 1
ENDMDL
MODEL 5
REMARK VINA RESULT:      -1.9      2.407      2.919
REMARK  1 active torsions:
REMARK  status: ('A' for Active; 'I' for Inactive)
REMARK    1  A    between atoms: C2_2  and  C3_3 
ROOT
HETATM    1  C1  UNL     1     -33.853   7.444   4.290  1.00 20.00     0.080 C 
HETATM    2  C2  UNL     1     -34.197   6.347   3.296  1.00 20.00     0.272 C 
HETATM    3  F4  UNL     1     -35.453   6.582   2.824  1.00 20.00    -0.216 F 
HETATM    4 CL8  UNL     1     -34.194   4.765   4.120  1.00 20.00    -0.073 Cl
ENDROOT
BRANCH   2   5
HETATM    5  C3  UNL     1     -33.248   6.323   2.115  1.00 20.00     0.437 C 
HETATM    6  F5  UNL     1     -32.470   7.427   2.088  1.00 20.00    -0.166 F 
HETATM    7  F6  UNL     1     -32.427   5.251   2.179  1.00 20.00    -0.166 F 
HETATM    8  F7  UNL     1     -33.912   6.258   0.941  1.00 20.00    -0.166 F 
ENDBRANCH   2   5
TORSDOF 1
ENDMDL
MODEL 6
REMARK VINA RESULT:      -1.8      1.545      2.115
REMARK  1 active torsions:
REMARK  status: ('A' for Active; 'I' for Inactive)
REMARK    1  A    between atoms: C2_2  and  C3_3 
ROOT
HETATM    1  C1  UNL     1     -31.286   7.846   2.145  1.00 20.00     0.080 C 
HETATM    2  C2  UNL     1     -32.700   7.322   1.950  1.00 20.00     0.272 C 
HETATM    3  F4  UNL     1     -33.273   8.020   0.931  1.00 20.00    -0.216 F 
HETATM    4 CL8  UNL     1     -33.655   7.603   3.430  1.00 20.00    -0.073 Cl
ENDROOT
BRANCH   2   5
HETATM    5  C3  UNL     1     -32.723   5.852   1.584  1.00 20.00     0.437 C 
HETATM    6  F5  UNL     1     -33.221   5.103   2.593  1.00 20.00    -0.166 F 
HETATM    7  F6  UNL     1     -33.501   5.639   0.499  1.00 20.00    -0.166 F 
HETATM    8  F7  UNL     1     -31.488   5.389   1.297  1.00 20.00    -0.166 F 
ENDBRANCH   2   5
TORSDOF 1
ENDMDL
MODEL 7
REMARK VINA RESULT:      -1.7      2.221      2.835
REMARK  1 active torsions:
REMARK  status: ('A' for Active; 'I' for Inactive)
REMARK    1  A    between atoms: C2_2  and  C3_3 
ROOT
HETATM    1  C1  UNL     1     -33.077   8.019   4.824  1.00 20.00     0.080 C 
HETATM    2  C2  UNL     1     -33.546   7.631   3.431  1.00 20.00     0.272 C 
HETATM    3  F4  UNL     1     -34.626   8.401   3.118  1.00 20.00    -0.216 F 
HETATM    4 CL8  UNL     1     -34.054   5.922   3.421  1.00 20.00    -0.073 Cl
ENDROOT
BRANCH   2   5
HETATM    5  C3  UNL     1     -32.481   7.866   2.379  1.00 20.00     0.437 C 
HETATM    6  F5  UNL     1     -31.326   8.291   2.937  1.00 20.00    -0.166 F 
HETATM    7  F6  UNL     1     -32.210   6.726   1.705  1.00 20.00    -0.166 F 
HETATM    8  F7  UNL     1     -32.867   8.792   1.475  1.00 20.00    -0.166 F 
ENDBRANCH   2   5
TORSDOF 1
ENDMDL
MODEL 8
REMARK VINA RESULT:      -1.7      1.920      2.908
REMARK  1 active torsions:
REMARK  status: ('A' for Active; 'I' for Inactive)
REMARK    1  A    between atoms: C2_2  and  C3_3 
ROOT
HETATM    1  C1  UNL     1     -33.564   5.951   0.397  1.00 20.00     0.080 C 
HETATM    2  C2  UNL     1     -32.722   6.115   1.653  1.00 20.00     0.272 C 
HETATM    3  F4  UNL     1     -31.610   5.338   1.522  1.00 20.00    -0.216 F 
HETATM    4 CL8  UNL     1     -33.640   5.545   3.071  1.00 20.00    -0.073 Cl
ENDROOT
BRANCH   2   5
HETATM    5  C3  UNL     1     -32.273   7.546   1.861  1.00 20.00     0.437 C 
HETATM    6  F5  UNL     1     -32.799   8.066   2.992  1.00 20.00    -0.166 F 
HETATM    7  F6  UNL     1     -30.927   7.617   1.970  1.00 20.00    -0.166 F 
HETATM    8  F7  UNL     1     -32.641   8.340   0.832  1.00 20.00    -0.166 F 
ENDBRANCH   2   5
TORSDOF 1
ENDMDL
MODEL 9
REMARK VINA RESULT:      -1.6      2.957      3.636
REMARK  1 active torsions:
REMARK  status: ('A' for Active; 'I' for Inactive)
REMARK    1  A    between atoms: C2_2  and  C3_3 
ROOT
HETATM    1  C1  UNL     1     -32.943   7.281   2.630  1.00 20.00     0.080 C 
HETATM    2  C2  UNL     1     -33.978   7.592   3.699  1.00 20.00     0.272 C 
HETATM    3  F4  UNL     1     -34.711   8.661   3.279  1.00 20.00    -0.216 F 
HETATM    4 CL8  UNL     1     -33.158   8.037   5.219  1.00 20.00    -0.073 Cl
ENDROOT
BRANCH   2   5
HETATM    5  C3  UNL     1     -34.926   6.435   3.935  1.00 20.00     0.437 C 
HETATM    6  F5  UNL     1     -35.428   6.461   5.189  1.00 20.00    -0.166 F 
HETATM    7  F6  UNL     1     -35.972   6.487   3.080  1.00 20.00    -0.166 F 
HETATM    8  F7  UNL     1     -34.315   5.244   3.760  1.00 20.00    -0.166 F 
ENDBRANCH   2   5
TORSDOF 1
ENDMDL
