MODEL 1
REMARK VINA RESULT:       1.7      0.000      0.000
REMARK  1 active torsions:
REMARK  status: ('A' for Active; 'I' for Inactive)
REMARK    1  A    between atoms: C4_4  and  C8_8 
ROOT
HETATM    1  C5  UNL     1     -33.062   5.113   1.738  1.00 20.00     0.033 C 
HETATM    2  C6  UNL     1     -31.939   6.097   1.442  1.00 20.00     0.042 C 
HETATM    3  C7  UNL     1     -33.654   5.627   3.035  1.00 20.00     0.273 C 
HETATM    4  C8  UNL     1     -32.313   7.377   2.211  1.00 20.00     0.256 C 
HETATM    5  C9  UNL     1     -33.852   7.809   4.067  1.00 20.00     0.310 C 
HETATM    6  N10 UNL     1     -33.619   7.074   2.830  1.00 20.00     0.093 N 
ENDROOT
BRANCH   4   7
HETATM    7  C4  UNL     1     -32.360   8.601   1.320  1.00 20.00    -0.018 A 
HETATM    8  C1  UNL     1     -31.831   8.642  -0.002  1.00 20.00     0.017 A 
HETATM    9  C2  UNL     1     -32.005   9.875  -0.591  1.00 20.00     0.050 A 
HETATM   10  S11 UNL     1     -32.803  10.978   0.449  1.00 20.00    -0.113 SA
HETATM   11  C3  UNL     1     -32.919   9.804   1.693  1.00 20.00     0.058 A 
ENDBRANCH   4   7
TORSDOF 1
ENDMDL
MODEL 2
REMARK VINA RESULT:       1.7      0.635      1.226
REMARK  1 active torsions:
REMARK  status: ('A' for Active; 'I' for Inactive)
REMARK    1  A    between atoms: C4_4  and  C8_8 
ROOT
HETATM    1  C5  UNL     1     -33.054   5.149   1.741  1.00 20.00     0.033 C 
HETATM    2  C6  UNL     1     -31.938   6.145   1.459  1.00 20.00     0.042 C 
HETATM    3  C7  UNL     1     -33.669   5.659   3.029  1.00 20.00     0.273 C 
HETATM    4  C8  UNL     1     -32.335   7.422   2.221  1.00 20.00     0.256 C 
HETATM    5  C9  UNL     1     -33.902   7.839   4.056  1.00 20.00     0.310 C 
HETATM    6  N10 UNL     1     -33.646   7.106   2.823  1.00 20.00     0.093 N 
ENDROOT
BRANCH   4   7
HETATM    7  C4  UNL     1     -32.383   8.644   1.328  1.00 20.00    -0.018 A 
HETATM    8  C1  UNL     1     -32.862   9.918   1.748  1.00 20.00     0.017 A 
HETATM    9  C2  UNL     1     -32.797  10.855   0.741  1.00 20.00     0.050 A 
HETATM   10  S11 UNL     1     -32.161  10.198  -0.707  1.00 20.00    -0.113 SA
HETATM   11  C3  UNL     1     -31.969   8.655   0.013  1.00 20.00     0.058 A 
ENDBRANCH   4   7
TORSDOF 1
ENDMDL
MODEL 3
REMARK VINA RESULT:       2.2      1.125      1.490
REMARK  1 active torsions:
REMARK  status: ('A' for Active; 'I' for Inactive)
REMARK    1  A    between atoms: C4_4  and  C8_8 
ROOT
HETATM    1  C5  UNL     1     -34.897   5.839   3.239  1.00 20.00     0.033 C 
HETATM    2  C6  UNL     1     -33.583   5.869   2.471  1.00 20.00     0.042 C 
HETATM    3  C7  UNL     1     -34.606   6.665   4.476  1.00 20.00     0.273 C 
HETATM    4  C8  UNL     1     -32.850   7.124   2.978  1.00 20.00     0.256 C 
HETATM    5  C9  UNL     1     -33.122   8.512   4.978  1.00 20.00     0.310 C 
HETATM    6  N10 UNL     1     -33.789   7.748   3.930  1.00 20.00     0.093 N 
ENDROOT
BRANCH   4   7
HETATM    7  C4  UNL     1     -32.450   8.060   1.856  1.00 20.00    -0.018 A 
HETATM    8  C1  UNL     1     -31.372   7.811   0.959  1.00 20.00     0.017 A 
HETATM    9  C2  UNL     1     -31.223   8.821   0.034  1.00 20.00     0.050 A 
HETATM   10  S11 UNL     1     -32.381  10.065   0.250  1.00 20.00    -0.113 SA
HETATM   11  C3  UNL     1     -33.086   9.252   1.584  1.00 20.00     0.058 A 
ENDBRANCH   4   7
TORSDOF 1
ENDMDL
MODEL 4
REMARK VINA RESULT:       2.4      3.087      4.993
REMARK  1 active torsions:
REMARK  status: ('A' for Active; 'I' for Inactive)
REMARK    1  A    between atoms: C4_4  and  C8_8 
ROOT
HETATM    1  C5  UNL     1     -31.624   7.280   1.408  1.00 20.00     0.033 C 
HETATM    2  C6  UNL     1     -32.645   6.155   1.326  1.00 20.00     0.042 C 
HETATM    3  C7  UNL     1     -32.324   8.337   2.240  1.00 20.00     0.273 C 
HETATM    4  C8  UNL     1     -33.574   6.364   2.536  1.00 20.00     0.256 C 
HETATM    5  C9  UNL     1     -34.001   8.291   3.986  1.00 20.00     0.310 C 
HETATM    6  N10 UNL     1     -33.005   7.525   3.249  1.00 20.00     0.093 N 
ENDROOT
BRANCH   4   7
HETATM    7  C4  UNL     1     -33.675   5.135   3.414  1.00 20.00    -0.018 A 
HETATM    8  C1  UNL     1     -34.729   4.906   4.345  1.00 20.00     0.017 A 
HETATM    9  C2  UNL     1     -34.580   3.712   5.015  1.00 20.00     0.050 A 
HETATM   10  S11 UNL     1     -33.172   2.871   4.522  1.00 20.00    -0.113 SA
HETATM   11  C3  UNL     1     -32.758   4.105   3.408  1.00 20.00     0.058 A 
ENDBRANCH   4   7
TORSDOF 1
ENDMDL
MODEL 5
REMARK VINA RESULT:       2.6      2.657      4.633
REMARK  1 active torsions:
REMARK  status: ('A' for Active; 'I' for Inactive)
REMARK    1  A    between atoms: C4_4  and  C8_8 
ROOT
HETATM    1  C5  UNL     1     -32.311   9.017   1.127  1.00 20.00     0.033 C 
HETATM    2  C6  UNL     1     -32.364   8.564   2.579  1.00 20.00     0.042 C 
HETATM    3  C7  UNL     1     -31.688   7.837   0.408  1.00 20.00     0.273 C 
HETATM    4  C8  UNL     1     -32.328   7.026   2.522  1.00 20.00     0.256 C 
HETATM    5  C9  UNL     1     -31.654   5.444   0.778  1.00 20.00     0.310 C 
HETATM    6  N10 UNL     1     -32.321   6.704   1.082  1.00 20.00     0.093 N 
ENDROOT
BRANCH   4   7
HETATM    7  C4  UNL     1     -33.490   6.388   3.255  1.00 20.00    -0.018 A 
HETATM    8  C1  UNL     1     -34.657   7.095   3.665  1.00 20.00     0.017 A 
HETATM    9  C2  UNL     1     -35.557   6.278   4.312  1.00 20.00     0.050 A 
HETATM   10  S11 UNL     1     -34.995   4.664   4.425  1.00 20.00    -0.113 SA
HETATM   11  C3  UNL     1     -33.542   5.056   3.605  1.00 20.00     0.058 A 
ENDBRANCH   4   7
TORSDOF 1
ENDMDL
MODEL 6
REMARK VINA RESULT:       3.4      2.090      3.282
REMARK  1 active torsions:
REMARK  status: ('A' for Active; 'I' for Inactive)
REMARK    1  A    between atoms: C4_4  and  C8_8 
ROOT
HETATM    1  C5  UNL     1     -35.631   6.008   4.893  1.00 20.00     0.033 C 
HETATM    2  C6  UNL     1     -35.444   6.441   3.446  1.00 20.00     0.042 C 
HETATM    3  C7  UNL     1     -35.045   4.610   4.925  1.00 20.00     0.273 C 
HETATM    4  C8  UNL     1     -34.297   5.566   2.909  1.00 20.00     0.256 C 
HETATM    5  C9  UNL     1     -33.307   3.466   3.686  1.00 20.00     0.310 C 
HETATM    6  N10 UNL     1     -33.871   4.755   4.066  1.00 20.00     0.093 N 
ENDROOT
BRANCH   4   7
HETATM    7  C4  UNL     1     -33.165   6.384   2.322  1.00 20.00    -0.018 A 
HETATM    8  C1  UNL     1     -32.269   5.901   1.325  1.00 20.00     0.017 A 
HETATM    9  C2  UNL     1     -31.333   6.846   0.968  1.00 20.00     0.050 A 
HETATM   10  S11 UNL     1     -31.537   8.311   1.832  1.00 20.00    -0.113 SA
HETATM   11  C3  UNL     1     -32.881   7.682   2.688  1.00 20.00     0.058 A 
ENDBRANCH   4   7
TORSDOF 1
ENDMDL
MODEL 7
REMARK VINA RESULT:       3.6      2.266      4.444
REMARK  1 active torsions:
REMARK  status: ('A' for Active; 'I' for Inactive)
REMARK    1  A    between atoms: C4_4  and  C8_8 
ROOT
HETATM    1  C5  UNL     1     -33.168  10.817   0.313  1.00 20.00     0.033 C 
HETATM    2  C6  UNL     1     -32.928  10.200   1.683  1.00 20.00     0.042 C 
HETATM    3  C7  UNL     1     -32.023  10.283  -0.525  1.00 20.00     0.273 C 
HETATM    4  C8  UNL     1     -32.064   8.954   1.418  1.00 20.00     0.256 C 
HETATM    5  C9  UNL     1     -30.684   8.266  -0.485  1.00 20.00     0.310 C 
HETATM    6  N10 UNL     1     -31.921   8.903  -0.051  1.00 20.00     0.093 N 
ENDROOT
BRANCH   4   7
HETATM    7  C4  UNL     1     -32.672   7.689   1.987  1.00 20.00    -0.018 A 
HETATM    8  C1  UNL     1     -32.480   6.393   1.429  1.00 20.00     0.017 A 
HETATM    9  C2  UNL     1     -33.144   5.419   2.141  1.00 20.00     0.050 A 
HETATM   10  S11 UNL     1     -33.995   6.067   3.478  1.00 20.00    -0.113 SA
HETATM   11  C3  UNL     1     -33.475   7.657   3.107  1.00 20.00     0.058 A 
ENDBRANCH   4   7
TORSDOF 1
ENDMDL
MODEL 8
REMARK VINA RESULT:       3.6      2.111      3.405
REMARK  1 active torsions:
REMARK  status: ('A' for Active; 'I' for Inactive)
REMARK    1  A    between atoms: C4_4  and  C8_8 
ROOT
HETATM    1  C5  UNL     1     -35.649   5.730   4.938  1.00 20.00     0.033 C 
HETATM    2  C6  UNL     1     -35.486   6.324   3.546  1.00 20.00     0.042 C 
HETATM    3  C7  UNL     1     -34.920   4.404   4.846  1.00 20.00     0.273 C 
HETATM    4  C8  UNL     1     -34.245   5.631   2.955  1.00 20.00     0.256 C 
HETATM    5  C9  UNL     1     -33.052   3.576   3.547  1.00 20.00     0.310 C 
HETATM    6  N10 UNL     1     -33.754   4.756   4.037  1.00 20.00     0.093 N 
ENDROOT
BRANCH   4   7
HETATM    7  C4  UNL     1     -33.196   6.616   2.481  1.00 20.00    -0.018 A 
HETATM    8  C1  UNL     1     -32.869   7.821   3.168  1.00 20.00     0.017 A 
HETATM    9  C2  UNL     1     -31.883   8.533   2.523  1.00 20.00     0.050 A 
HETATM   10  S11 UNL     1     -31.354   7.750   1.094  1.00 20.00    -0.113 SA
HETATM   11  C3  UNL     1     -32.447   6.453   1.336  1.00 20.00     0.058 A 
ENDBRANCH   4   7
TORSDOF 1
ENDMDL
MODEL 9
REMARK VINA RESULT:       3.7      2.681      3.790
REMARK  1 active torsions:
REMARK  status: ('A' for Active; 'I' for Inactive)
REMARK    1  A    between atoms: C4_4  and  C8_8 
ROOT
HETATM    1  C5  UNL     1     -32.376   8.455   4.163  1.00 20.00     0.033 C 
HETATM    2  C6  UNL     1     -32.437   8.302   2.650  1.00 20.00     0.042 C 
HETATM    3  C7  UNL     1     -33.715   7.920   4.630  1.00 20.00     0.273 C 
HETATM    4  C8  UNL     1     -33.489   7.207   2.398  1.00 20.00     0.256 C 
HETATM    5  C9  UNL     1     -35.274   6.269   3.788  1.00 20.00     0.310 C 
HETATM    6  N10 UNL     1     -33.906   6.772   3.745  1.00 20.00     0.093 N 
ENDROOT
BRANCH   4   7
HETATM    7  C4  UNL     1     -32.955   6.067   1.557  1.00 20.00    -0.018 A 
HETATM    8  C1  UNL     1     -33.735   5.345   0.608  1.00 20.00     0.017 A 
HETATM    9  C2  UNL     1     -33.007   4.359  -0.020  1.00 20.00     0.050 A 
HETATM   10  S11 UNL     1     -31.387   4.305   0.535  1.00 20.00    -0.113 SA
HETATM   11  C3  UNL     1     -31.658   5.605   1.618  1.00 20.00     0.058 A 
ENDBRANCH   4   7
TORSDOF 1
ENDMDL
