MODEL 1
REMARK VINA RESULT:      -1.3      0.000      0.000
REMARK  0 active torsions:
REMARK  status: ('A' for Active; 'I' for Inactive)
ROOT
HETATM    1  C1  UNL     1     -34.233   7.767   4.183  1.00 20.00     0.034 A 
HETATM    2  C2  UNL     1     -32.905   5.554   1.790  1.00 20.00     0.027 A 
HETATM    3  C3  UNL     1     -34.966   6.502   4.336  1.00 20.00     0.118 A 
HETATM    4  C4  UNL     1     -32.384   8.213   2.510  1.00 20.00     0.124 A 
HETATM    5  C5  UNL     1     -33.415   7.428   3.192  1.00 20.00     0.011 A 
HETATM    6  C6  UNL     1     -33.631   6.080   2.777  1.00 20.00     0.066 A 
HETATM    7  C7  UNL     1     -31.843   6.366   1.090  1.00 20.00     0.178 A 
HETATM    8  N8  UNL     1     -34.629   5.532   3.536  1.00 20.00    -0.261 NA
HETATM    9  N9  UNL     1     -31.651   7.762   1.552  1.00 20.00    -0.297 NA
ENDROOT
TORSDOF 0
ENDMDL
MODEL 2
REMARK VINA RESULT:      -1.1      1.097      1.979
REMARK  0 active torsions:
REMARK  status: ('A' for Active; 'I' for Inactive)
ROOT
HETATM    1  C1  UNL     1     -34.559   5.464   3.474  1.00 20.00     0.034 A 
HETATM    2  C2  UNL     1     -32.554   8.250   2.694  1.00 20.00     0.027 A 
HETATM    3  C3  UNL     1     -34.985   6.547   4.374  1.00 20.00     0.118 A 
HETATM    4  C4  UNL     1     -32.736   5.626   1.724  1.00 20.00     0.124 A 
HETATM    5  C5  UNL     1     -33.607   6.100   2.801  1.00 20.00     0.011 A 
HETATM    6  C6  UNL     1     -33.463   7.447   3.250  1.00 20.00     0.066 A 
HETATM    7  C7  UNL     1     -31.659   7.757   1.584  1.00 20.00     0.178 A 
HETATM    8  N8  UNL     1     -34.364   7.684   4.252  1.00 20.00    -0.261 NA
HETATM    9  N9  UNL     1     -31.841   6.351   1.148  1.00 20.00    -0.297 NA
ENDROOT
TORSDOF 0
ENDMDL
MODEL 3
REMARK VINA RESULT:      -1.1      0.767      3.639
REMARK  0 active torsions:
REMARK  status: ('A' for Active; 'I' for Inactive)
ROOT
HETATM    1  C1  UNL     1     -32.114   5.955   1.506  1.00 20.00     0.034 A 
HETATM    2  C2  UNL     1     -34.170   7.603   3.839  1.00 20.00     0.027 A 
HETATM    3  C3  UNL     1     -31.767   7.382   1.430  1.00 20.00     0.118 A 
HETATM    4  C4  UNL     1     -33.857   4.936   3.035  1.00 20.00     0.124 A 
HETATM    5  C5  UNL     1     -33.054   6.008   2.444  1.00 20.00     0.011 A 
HETATM    6  C6  UNL     1     -33.263   7.345   2.897  1.00 20.00     0.066 A 
HETATM    7  C7  UNL     1     -34.996   6.496   4.447  1.00 20.00     0.178 A 
HETATM    8  N8  UNL     1     -32.419   8.183   2.221  1.00 20.00    -0.261 NA
HETATM    9  N9  UNL     1     -34.747   5.121   3.947  1.00 20.00    -0.297 NA
ENDROOT
TORSDOF 0
ENDMDL
MODEL 4
REMARK VINA RESULT:      -0.8      1.070      3.084
REMARK  0 active torsions:
REMARK  status: ('A' for Active; 'I' for Inactive)
ROOT
HETATM    1  C1  UNL     1     -32.261   8.131   2.138  1.00 20.00     0.034 A 
HETATM    2  C2  UNL     1     -33.905   5.129   2.957  1.00 20.00     0.027 A 
HETATM    3  C3  UNL     1     -31.709   7.099   1.247  1.00 20.00     0.118 A 
HETATM    4  C4  UNL     1     -34.044   7.766   3.898  1.00 20.00     0.124 A 
HETATM    5  C5  UNL     1     -33.126   7.390   2.822  1.00 20.00     0.011 A 
HETATM    6  C6  UNL     1     -33.104   6.031   2.389  1.00 20.00     0.066 A 
HETATM    7  C7  UNL     1     -34.850   5.520   4.067  1.00 20.00     0.178 A 
HETATM    8  N8  UNL     1     -32.185   5.896   1.384  1.00 20.00    -0.261 NA
HETATM    9  N9  UNL     1     -34.841   6.943   4.486  1.00 20.00    -0.297 NA
ENDROOT
TORSDOF 0
ENDMDL
MODEL 5
REMARK VINA RESULT:      -0.2      1.039      2.101
REMARK  0 active torsions:
REMARK  status: ('A' for Active; 'I' for Inactive)
ROOT
HETATM    1  C1  UNL     1     -33.815   4.420   3.352  1.00 20.00     0.034 A 
HETATM    2  C2  UNL     1     -33.507   7.919   3.116  1.00 20.00     0.027 A 
HETATM    3  C3  UNL     1     -34.780   4.987   4.306  1.00 20.00     0.118 A 
HETATM    4  C4  UNL     1     -32.259   5.747   1.857  1.00 20.00     0.124 A 
HETATM    5  C5  UNL     1     -33.299   5.545   2.868  1.00 20.00     0.011 A 
HETATM    6  C6  UNL     1     -33.894   6.693   3.472  1.00 20.00     0.066 A 
HETATM    7  C7  UNL     1     -32.436   8.122   2.073  1.00 20.00     0.178 A 
HETATM    8  N8  UNL     1     -34.832   6.285   4.380  1.00 20.00    -0.261 NA
HETATM    9  N9  UNL     1     -31.843   6.903   1.472  1.00 20.00    -0.297 NA
ENDROOT
TORSDOF 0
ENDMDL
MODEL 6
REMARK VINA RESULT:       0.5      0.912      3.552
REMARK  0 active torsions:
REMARK  status: ('A' for Active; 'I' for Inactive)
ROOT
HETATM    1  C1  UNL     1     -33.014   4.840   1.549  1.00 20.00     0.034 A 
HETATM    2  C2  UNL     1     -32.988   7.995   3.110  1.00 20.00     0.027 A 
HETATM    3  C3  UNL     1     -31.959   5.622   0.887  1.00 20.00     0.118 A 
HETATM    4  C4  UNL     1     -34.492   5.652   3.438  1.00 20.00     0.124 A 
HETATM    5  C5  UNL     1     -33.437   5.742   2.428  1.00 20.00     0.011 A 
HETATM    6  C6  UNL     1     -32.708   6.964   2.311  1.00 20.00     0.066 A 
HETATM    7  C7  UNL     1     -34.077   7.897   4.151  1.00 20.00     0.178 A 
HETATM    8  N8  UNL     1     -31.778   6.837   1.316  1.00 20.00    -0.261 NA
HETATM    9  N9  UNL     1     -34.809   6.610   4.238  1.00 20.00    -0.297 NA
ENDROOT
TORSDOF 0
ENDMDL
MODEL 7
REMARK VINA RESULT:       1.1      1.365      3.152
REMARK  0 active torsions:
REMARK  status: ('A' for Active; 'I' for Inactive)
ROOT
HETATM    1  C1  UNL     1     -34.624   7.872   3.831  1.00 20.00     0.034 A 
HETATM    2  C2  UNL     1     -33.072   4.820   3.016  1.00 20.00     0.027 A 
HETATM    3  C3  UNL     1     -33.501   8.203   2.941  1.00 20.00     0.118 A 
HETATM    4  C4  UNL     1     -35.271   5.546   4.596  1.00 20.00     0.124 A 
HETATM    5  C5  UNL     1     -34.484   6.552   3.880  1.00 20.00     0.011 A 
HETATM    6  C6  UNL     1     -33.376   6.116   3.093  1.00 20.00     0.066 A 
HETATM    7  C7  UNL     1     -33.886   3.786   3.755  1.00 20.00     0.178 A 
HETATM    8  N8  UNL     1     -32.782   7.205   2.514  1.00 20.00    -0.261 NA
HETATM    9  N9  UNL     1     -35.028   4.282   4.561  1.00 20.00    -0.297 NA
ENDROOT
TORSDOF 0
ENDMDL
MODEL 8
REMARK VINA RESULT:       1.5      0.971      3.117
REMARK  0 active torsions:
REMARK  status: ('A' for Active; 'I' for Inactive)
ROOT
HETATM    1  C1  UNL     1     -32.553   9.302   2.380  1.00 20.00     0.034 A 
HETATM    2  C2  UNL     1     -32.400   5.833   1.806  1.00 20.00     0.027 A 
HETATM    3  C3  UNL     1     -31.629   9.108   1.252  1.00 20.00     0.118 A 
HETATM    4  C4  UNL     1     -33.769   7.464   3.628  1.00 20.00     0.124 A 
HETATM    5  C5  UNL     1     -32.874   8.035   2.621  1.00 20.00     0.011 A 
HETATM    6  C6  UNL     1     -32.206   7.149   1.722  1.00 20.00     0.066 A 
HETATM    7  C7  UNL     1     -33.324   5.248   2.846  1.00 20.00     0.178 A 
HETATM    8  N8  UNL     1     -31.425   7.881   0.870  1.00 20.00    -0.261 NA
HETATM    9  N9  UNL     1     -33.997   6.204   3.759  1.00 20.00    -0.297 NA
ENDROOT
TORSDOF 0
ENDMDL
