MODEL 1
REMARK VINA RESULT:      -2.8      0.000      0.000
REMARK  3 active torsions:
REMARK  status: ('A' for Active; 'I' for Inactive)
REMARK    1  A    between atoms: C5_5  and  C8_8 
REMARK    2  A    between atoms: C7_7  and  N9_9 
REMARK    3  A    between atoms: C8_8  and  N9_9 
ROOT
HETATM    1  C1  UNL     1     -32.449   9.774  -0.042  1.00 20.00     0.013 C 
HETATM    2  C2  UNL     1     -32.138   8.971   0.794  1.00 20.00    -0.087 C 
HETATM    3  C7  UNL     1     -31.758   7.994   1.817  1.00 20.00     0.362 C 
ENDROOT
BRANCH   3   4
HETATM    4  N9  UNL     1     -32.073   6.634   1.377  1.00 20.00     0.094 N 
HETATM    5  H22 UNL     1     -31.965   6.593   0.357  1.00 20.00     0.317 HD
BRANCH   4   6
HETATM    6  C8  UNL     1     -33.407   6.251   1.750  1.00 20.00     0.275 C 
BRANCH   6   7
HETATM    7  C5  UNL     1     -33.596   6.323   3.226  1.00 20.00     0.018 A 
HETATM    8  C3  UNL     1     -34.978   6.237   3.817  1.00 20.00     0.011 A 
HETATM    9  C4  UNL     1     -34.226   7.542   3.849  1.00 20.00    -0.013 A 
HETATM   10  C6  UNL     1     -33.707   8.076   5.139  1.00 20.00     0.010 C 
ENDBRANCH   6   7
ENDBRANCH   4   6
ENDBRANCH   3   4
TORSDOF 3
ENDMDL
MODEL 2
REMARK VINA RESULT:      -2.6      1.811      4.469
REMARK  3 active torsions:
REMARK  status: ('A' for Active; 'I' for Inactive)
REMARK    1  A    between atoms: C5_5  and  C8_8 
REMARK    2  A    between atoms: C7_7  and  N9_9 
REMARK    3  A    between atoms: C8_8  and  N9_9 
ROOT
HETATM    1  C1  UNL     1     -33.935   3.898   4.363  1.00 20.00     0.013 C 
HETATM    2  C2  UNL     1     -34.498   4.926   4.101  1.00 20.00    -0.087 C 
HETATM    3  C7  UNL     1     -35.188   6.177   3.781  1.00 20.00     0.362 C 
ENDROOT
BRANCH   3   4
HETATM    4  N9  UNL     1     -34.476   7.322   4.353  1.00 20.00     0.094 N 
HETATM    5  H22 UNL     1     -35.006   8.173   4.132  1.00 20.00     0.317 HD
BRANCH   4   6
HETATM    6  C8  UNL     1     -33.137   7.424   3.841  1.00 20.00     0.275 C 
BRANCH   6   7
HETATM    7  C5  UNL     1     -33.138   7.596   2.361  1.00 20.00     0.018 A 
HETATM    8  C3  UNL     1     -32.202   6.785   1.505  1.00 20.00     0.011 A 
HETATM    9  C4  UNL     1     -31.972   8.264   1.678  1.00 20.00    -0.013 A 
HETATM   10  C6  UNL     1     -32.206   9.196   0.540  1.00 20.00     0.010 C 
ENDBRANCH   6   7
ENDBRANCH   4   6
ENDBRANCH   3   4
TORSDOF 3
ENDMDL
MODEL 3
REMARK VINA RESULT:      -2.5      1.248      1.983
REMARK  3 active torsions:
REMARK  status: ('A' for Active; 'I' for Inactive)
REMARK    1  A    between atoms: C5_5  and  C8_8 
REMARK    2  A    between atoms: C7_7  and  N9_9 
REMARK    3  A    between atoms: C8_8  and  N9_9 
ROOT
HETATM    1  C1  UNL     1     -32.371   9.913   0.205  1.00 20.00     0.013 C 
HETATM    2  C2  UNL     1     -32.315   8.937   0.902  1.00 20.00    -0.087 C 
HETATM    3  C7  UNL     1     -32.246   7.744   1.749  1.00 20.00     0.362 C 
ENDROOT
BRANCH   3   4
HETATM    4  N9  UNL     1     -32.224   8.116   3.165  1.00 20.00     0.094 N 
HETATM    5  H22 UNL     1     -31.495   7.564   3.631  1.00 20.00     0.317 HD
BRANCH   4   6
HETATM    6  C8  UNL     1     -33.496   7.887   3.793  1.00 20.00     0.275 C 
BRANCH   6   7
HETATM    7  C5  UNL     1     -34.091   6.595   3.352  1.00 20.00     0.018 A 
HETATM    8  C3  UNL     1     -35.485   6.219   3.779  1.00 20.00     0.011 A 
HETATM    9  C4  UNL     1     -34.300   5.481   4.345  1.00 20.00    -0.013 A 
HETATM   10  C6  UNL     1     -34.040   4.068   3.951  1.00 20.00     0.010 C 
ENDBRANCH   6   7
ENDBRANCH   4   6
ENDBRANCH   3   4
TORSDOF 3
ENDMDL
MODEL 4
REMARK VINA RESULT:      -2.5      0.994      1.577
REMARK  3 active torsions:
REMARK  status: ('A' for Active; 'I' for Inactive)
REMARK    1  A    between atoms: C5_5  and  C8_8 
REMARK    2  A    between atoms: C7_7  and  N9_9 
REMARK    3  A    between atoms: C8_8  and  N9_9 
ROOT
HETATM    1  C1  UNL     1     -32.927  10.720   0.257  1.00 20.00     0.013 C 
HETATM    2  C2  UNL     1     -32.311   9.697   0.372  1.00 20.00    -0.087 C 
HETATM    3  C7  UNL     1     -31.556   8.449   0.509  1.00 20.00     0.362 C 
ENDROOT
BRANCH   3   4
HETATM    4  N9  UNL     1     -31.710   7.897   1.857  1.00 20.00     0.094 N 
HETATM    5  H22 UNL     1     -30.781   7.641   2.208  1.00 20.00     0.317 HD
BRANCH   4   6
HETATM    6  C8  UNL     1     -32.576   6.750   1.864  1.00 20.00     0.275 C 
BRANCH   6   7
HETATM    7  C5  UNL     1     -33.838   7.031   2.605  1.00 20.00     0.018 A 
HETATM    8  C3  UNL     1     -33.793   7.745   3.930  1.00 20.00     0.011 A 
HETATM    9  C4  UNL     1     -34.152   6.282   3.874  1.00 20.00    -0.013 A 
HETATM   10  C6  UNL     1     -35.546   5.842   4.157  1.00 20.00     0.010 C 
ENDBRANCH   6   7
ENDBRANCH   4   6
ENDBRANCH   3   4
TORSDOF 3
ENDMDL
MODEL 5
REMARK VINA RESULT:      -2.3      1.894      4.557
REMARK  3 active torsions:
REMARK  status: ('A' for Active; 'I' for Inactive)
REMARK    1  A    between atoms: C5_5  and  C8_8 
REMARK    2  A    between atoms: C7_7  and  N9_9 
REMARK    3  A    between atoms: C8_8  and  N9_9 
ROOT
HETATM    1  C1  UNL     1     -33.882   3.739   4.227  1.00 20.00     0.013 C 
HETATM    2  C2  UNL     1     -34.509   4.761   4.165  1.00 20.00    -0.087 C 
HETATM    3  C7  UNL     1     -35.278   6.005   4.090  1.00 20.00     0.362 C 
ENDROOT
BRANCH   3   4
HETATM    4  N9  UNL     1     -34.454   7.147   4.492  1.00 20.00     0.094 N 
HETATM    5  H22 UNL     1     -35.022   7.759   5.089  1.00 20.00     0.317 HD
BRANCH   4   6
HETATM    6  C8  UNL     1     -33.968   7.877   3.353  1.00 20.00     0.275 C 
BRANCH   6   7
HETATM    7  C5  UNL     1     -32.713   7.274   2.823  1.00 20.00     0.018 A 
HETATM    8  C3  UNL     1     -31.982   7.932   1.683  1.00 20.00     0.011 A 
HETATM    9  C4  UNL     1     -32.703   6.627   1.462  1.00 20.00    -0.013 A 
HETATM   10  C6  UNL     1     -31.930   5.374   1.235  1.00 20.00     0.010 C 
ENDBRANCH   6   7
ENDBRANCH   4   6
ENDBRANCH   3   4
TORSDOF 3
ENDMDL
MODEL 6
REMARK VINA RESULT:      -2.1      2.521      4.706
REMARK  3 active torsions:
REMARK  status: ('A' for Active; 'I' for Inactive)
REMARK    1  A    between atoms: C5_5  and  C8_8 
REMARK    2  A    between atoms: C7_7  and  N9_9 
REMARK    3  A    between atoms: C8_8  and  N9_9 
ROOT
HETATM    1  C1  UNL     1     -32.888   2.714   5.287  1.00 20.00     0.013 C 
HETATM    2  C2  UNL     1     -33.490   3.429   4.534  1.00 20.00    -0.087 C 
HETATM    3  C7  UNL     1     -34.222   4.299   3.611  1.00 20.00     0.362 C 
ENDROOT
BRANCH   3   4
HETATM    4  N9  UNL     1     -35.236   5.075   4.328  1.00 20.00     0.094 N 
HETATM    5  H22 UNL     1     -36.161   4.712   4.071  1.00 20.00     0.317 HD
BRANCH   4   6
HETATM    6  C8  UNL     1     -35.149   6.476   4.017  1.00 20.00     0.275 C 
BRANCH   6   7
HETATM    7  C5  UNL     1     -33.733   6.905   3.852  1.00 20.00     0.018 A 
HETATM    8  C3  UNL     1     -33.298   8.272   4.312  1.00 20.00     0.011 A 
HETATM    9  C4  UNL     1     -33.376   7.962   2.840  1.00 20.00    -0.013 A 
HETATM   10  C6  UNL     1     -32.129   7.837   2.034  1.00 20.00     0.010 C 
ENDBRANCH   6   7
ENDBRANCH   4   6
ENDBRANCH   3   4
TORSDOF 3
ENDMDL
MODEL 7
REMARK VINA RESULT:      -1.7      1.192      4.668
REMARK  3 active torsions:
REMARK  status: ('A' for Active; 'I' for Inactive)
REMARK    1  A    between atoms: C5_5  and  C8_8 
REMARK    2  A    between atoms: C7_7  and  N9_9 
REMARK    3  A    between atoms: C8_8  and  N9_9 
ROOT
HETATM    1  C1  UNL     1     -35.508   5.455   4.391  1.00 20.00     0.013 C 
HETATM    2  C2  UNL     1     -34.781   6.341   4.035  1.00 20.00    -0.087 C 
HETATM    3  C7  UNL     1     -33.895   7.425   3.604  1.00 20.00     0.362 C 
ENDROOT
BRANCH   3   4
HETATM    4  N9  UNL     1     -32.995   6.967   2.544  1.00 20.00     0.094 N 
HETATM    5  H22 UNL     1     -32.515   6.122   2.873  1.00 20.00     0.317 HD
BRANCH   4   6
HETATM    6  C8  UNL     1     -32.035   7.977   2.191  1.00 20.00     0.275 C 
BRANCH   6   7
HETATM    7  C5  UNL     1     -32.251   8.463   0.800  1.00 20.00     0.018 A 
HETATM    8  C3  UNL     1     -31.098   9.015   0.004  1.00 20.00     0.011 A 
HETATM    9  C4  UNL     1     -32.183   9.937   0.495  1.00 20.00    -0.013 A 
HETATM   10  C6  UNL     1     -33.141  10.547  -0.469  1.00 20.00     0.010 C 
ENDBRANCH   6   7
ENDBRANCH   4   6
ENDBRANCH   3   4
TORSDOF 3
ENDMDL
MODEL 8
REMARK VINA RESULT:      -1.5      0.972      3.814
REMARK  3 active torsions:
REMARK  status: ('A' for Active; 'I' for Inactive)
REMARK    1  A    between atoms: C5_5  and  C8_8 
REMARK    2  A    between atoms: C7_7  and  N9_9 
REMARK    3  A    between atoms: C8_8  and  N9_9 
ROOT
HETATM    1  C1  UNL     1     -34.710   7.444   4.191  1.00 20.00     0.013 C 
HETATM    2  C2  UNL     1     -34.296   6.400   3.768  1.00 20.00    -0.087 C 
HETATM    3  C7  UNL     1     -33.796   5.123   3.252  1.00 20.00     0.362 C 
ENDROOT
BRANCH   3   4
HETATM    4  N9  UNL     1     -32.608   5.330   2.423  1.00 20.00     0.094 N 
HETATM    5  H22 UNL     1     -31.915   5.846   2.976  1.00 20.00     0.317 HD
BRANCH   4   6
HETATM    6  C8  UNL     1     -32.920   6.054   1.220  1.00 20.00     0.275 C 
BRANCH   6   7
HETATM    7  C5  UNL     1     -32.033   7.239   1.058  1.00 20.00     0.018 A 
HETATM    8  C3  UNL     1     -31.665   8.078   2.253  1.00 20.00     0.011 A 
HETATM    9  C4  UNL     1     -32.595   8.629   1.203  1.00 20.00    -0.013 A 
HETATM   10  C6  UNL     1     -32.138   9.719   0.297  1.00 20.00     0.010 C 
ENDBRANCH   6   7
ENDBRANCH   4   6
ENDBRANCH   3   4
TORSDOF 3
ENDMDL
MODEL 9
REMARK VINA RESULT:      -1.5      1.533      2.705
REMARK  3 active torsions:
REMARK  status: ('A' for Active; 'I' for Inactive)
REMARK    1  A    between atoms: C5_5  and  C8_8 
REMARK    2  A    between atoms: C7_7  and  N9_9 
REMARK    3  A    between atoms: C8_8  and  N9_9 
ROOT
HETATM    1  C1  UNL     1     -32.013   5.392   1.048  1.00 20.00     0.013 C 
HETATM    2  C2  UNL     1     -32.184   6.512   1.445  1.00 20.00    -0.087 C 
HETATM    3  C7  UNL     1     -32.394   7.880   1.925  1.00 20.00     0.362 C 
ENDROOT
BRANCH   3   4
HETATM    4  N9  UNL     1     -32.505   7.905   3.384  1.00 20.00     0.094 N 
HETATM    5  H22 UNL     1     -31.927   7.146   3.764  1.00 20.00     0.317 HD
BRANCH   4   6
HETATM    6  C8  UNL     1     -33.867   7.754   3.816  1.00 20.00     0.275 C 
BRANCH   6   7
HETATM    7  C5  UNL     1     -34.397   6.406   3.469  1.00 20.00     0.018 A 
HETATM    8  C3  UNL     1     -35.620   5.871   4.166  1.00 20.00     0.011 A 
HETATM    9  C4  UNL     1     -34.269   5.268   4.449  1.00 20.00    -0.013 A 
HETATM   10  C6  UNL     1     -33.945   3.897   3.966  1.00 20.00     0.010 C 
ENDBRANCH   6   7
ENDBRANCH   4   6
ENDBRANCH   3   4
TORSDOF 3
ENDMDL
