MODEL 1
REMARK VINA RESULT:       2.3      0.000      0.000
REMARK  1 active torsions:
REMARK  status: ('A' for Active; 'I' for Inactive)
REMARK    1  A    between atoms: C9_9  and  S11_11 
ROOT
HETATM    1  C1  UNL     1     -35.062   5.944   4.435  1.00 20.00     0.015 A 
HETATM    2  C2  UNL     1     -34.451   8.013   3.275  1.00 20.00     0.016 A 
HETATM    3  C3  UNL     1     -34.835   4.592   4.680  1.00 20.00     0.025 A 
HETATM    4  C4  UNL     1     -33.626   8.684   2.383  1.00 20.00     0.039 A 
HETATM    5  C5  UNL     1     -32.978   4.649   3.139  1.00 20.00     0.056 A 
HETATM    6  C6  UNL     1     -34.244   6.652   3.539  1.00 20.00    -0.007 A 
HETATM    7  C7  UNL     1     -33.183   6.000   2.876  1.00 20.00     0.070 A 
HETATM    8  C8  UNL     1     -33.791   3.945   4.030  1.00 20.00     0.036 A 
HETATM    9  C9  UNL     1     -32.614   7.961   1.784  1.00 20.00     0.091 A 
HETATM   10  N10 UNL     1     -32.381   6.649   2.010  1.00 20.00    -0.242 NA
HETATM   11 CL12 UNL     1     -33.499   2.274   4.325  1.00 20.00    -0.084 Cl
ENDROOT
BRANCH   9  12
HETATM   12  S11 UNL     1     -31.524   8.774   0.629  1.00 20.00    -0.123 SA
HETATM   13  H18 UNL     1     -32.467   9.436  -0.058  1.00 20.00     0.108 HD
ENDBRANCH   9  12
TORSDOF 1
ENDMDL
MODEL 2
REMARK VINA RESULT:       2.5      3.257      4.434
REMARK  1 active torsions:
REMARK  status: ('A' for Active; 'I' for Inactive)
REMARK    1  A    between atoms: C9_9  and  S11_11 
ROOT
HETATM    1  C1  UNL     1     -34.219   8.237   2.959  1.00 20.00     0.015 A 
HETATM    2  C2  UNL     1     -34.955   6.265   4.212  1.00 20.00     0.016 A 
HETATM    3  C3  UNL     1     -33.334   8.828   2.061  1.00 20.00     0.025 A 
HETATM    4  C4  UNL     1     -34.787   4.926   4.541  1.00 20.00     0.039 A 
HETATM    5  C5  UNL     1     -32.164   6.725   1.866  1.00 20.00     0.056 A 
HETATM    6  C6  UNL     1     -34.078   6.883   3.311  1.00 20.00    -0.007 A 
HETATM    7  C7  UNL     1     -33.035   6.110   2.760  1.00 20.00     0.070 A 
HETATM    8  C8  UNL     1     -32.305   8.070   1.515  1.00 20.00     0.036 A 
HETATM    9  C9  UNL     1     -33.738   4.252   3.950  1.00 20.00     0.091 A 
HETATM   10  N10 UNL     1     -32.870   4.811   3.078  1.00 20.00    -0.242 NA
HETATM   11 CL12 UNL     1     -31.205   8.789   0.404  1.00 20.00    -0.084 Cl
ENDROOT
BRANCH   9  12
HETATM   12  S11 UNL     1     -33.477   2.530   4.338  1.00 20.00    -0.123 SA
HETATM   13  H18 UNL     1     -34.378   2.024   3.483  1.00 20.00     0.108 HD
ENDBRANCH   9  12
TORSDOF 1
ENDMDL
MODEL 3
REMARK VINA RESULT:       2.8      1.599      2.432
REMARK  1 active torsions:
REMARK  status: ('A' for Active; 'I' for Inactive)
REMARK    1  A    between atoms: C9_9  and  S11_11 
ROOT
HETATM    1  C1  UNL     1     -32.853   4.712   2.611  1.00 20.00     0.015 A 
HETATM    2  C2  UNL     1     -31.770   6.378   1.179  1.00 20.00     0.016 A 
HETATM    3  C3  UNL     1     -33.803   4.395   3.578  1.00 20.00     0.025 A 
HETATM    4  C4  UNL     1     -31.660   7.693   0.747  1.00 20.00     0.039 A 
HETATM    5  C5  UNL     1     -34.485   6.710   3.633  1.00 20.00     0.056 A 
HETATM    6  C6  UNL     1     -32.718   6.033   2.151  1.00 20.00    -0.007 A 
HETATM    7  C7  UNL     1     -33.543   7.054   2.667  1.00 20.00     0.070 A 
HETATM    8  C8  UNL     1     -34.620   5.397   4.089  1.00 20.00     0.036 A 
HETATM    9  C9  UNL     1     -32.512   8.622   1.310  1.00 20.00     0.091 A 
HETATM   10  N10 UNL     1     -33.439   8.331   2.250  1.00 20.00    -0.242 NA
HETATM   11 CL12 UNL     1     -35.798   5.018   5.285  1.00 20.00    -0.084 Cl
ENDROOT
BRANCH   9  12
HETATM   12  S11 UNL     1     -32.414  10.327   0.791  1.00 20.00    -0.123 SA
HETATM   13  H18 UNL     1     -32.253  10.096  -0.520  1.00 20.00     0.108 HD
ENDBRANCH   9  12
TORSDOF 1
ENDMDL
MODEL 4
REMARK VINA RESULT:       3.4      3.641      5.272
REMARK  1 active torsions:
REMARK  status: ('A' for Active; 'I' for Inactive)
REMARK    1  A    between atoms: C9_9  and  S11_11 
ROOT
HETATM    1  C1  UNL     1     -31.462   7.483   0.545  1.00 20.00     0.015 A 
HETATM    2  C2  UNL     1     -32.350   5.546   1.753  1.00 20.00     0.016 A 
HETATM    3  C3  UNL     1     -31.459   8.855   0.312  1.00 20.00     0.025 A 
HETATM    4  C4  UNL     1     -33.219   5.025   2.702  1.00 20.00     0.039 A 
HETATM    5  C5  UNL     1     -33.183   9.118   1.982  1.00 20.00     0.056 A 
HETATM    6  C6  UNL     1     -32.328   6.924   1.500  1.00 20.00    -0.007 A 
HETATM    7  C7  UNL     1     -33.206   7.749   2.233  1.00 20.00     0.070 A 
HETATM    8  C8  UNL     1     -32.322   9.674   1.033  1.00 20.00     0.036 A 
HETATM    9  C9  UNL     1     -34.040   5.912   3.370  1.00 20.00     0.091 A 
HETATM   10  N10 UNL     1     -34.050   7.246   3.155  1.00 20.00    -0.242 NA
HETATM   11 CL12 UNL     1     -32.327  11.372   0.755  1.00 20.00    -0.084 Cl
ENDROOT
BRANCH   9  12
HETATM   12  S11 UNL     1     -35.176   5.296   4.600  1.00 20.00    -0.123 SA
HETATM   13  H18 UNL     1     -35.570   4.200   3.935  1.00 20.00     0.108 HD
ENDBRANCH   9  12
TORSDOF 1
ENDMDL
MODEL 5
REMARK VINA RESULT:       4.1      1.811      2.892
REMARK  1 active torsions:
REMARK  status: ('A' for Active; 'I' for Inactive)
REMARK    1  A    between atoms: C9_9  and  S11_11 
ROOT
HETATM    1  C1  UNL     1     -31.975   5.406   1.489  1.00 20.00     0.015 A 
HETATM    2  C2  UNL     1     -31.312   7.477   0.361  1.00 20.00     0.016 A 
HETATM    3  C3  UNL     1     -32.764   4.752   2.431  1.00 20.00     0.025 A 
HETATM    4  C4  UNL     1     -31.451   8.849   0.202  1.00 20.00     0.039 A 
HETATM    5  C5  UNL     1     -33.788   6.861   3.005  1.00 20.00     0.056 A 
HETATM    6  C6  UNL     1     -32.093   6.795   1.303  1.00 20.00    -0.007 A 
HETATM    7  C7  UNL     1     -33.012   7.540   2.071  1.00 20.00     0.070 A 
HETATM    8  C8  UNL     1     -33.672   5.481   3.190  1.00 20.00     0.036 A 
HETATM    9  C9  UNL     1     -32.377   9.492   0.999  1.00 20.00     0.091 A 
HETATM   10  N10 UNL     1     -33.150   8.871   1.918  1.00 20.00    -0.242 NA
HETATM   11 CL12 UNL     1     -34.652   4.683   4.358  1.00 20.00    -0.084 Cl
ENDROOT
BRANCH   9  12
HETATM   12  S11 UNL     1     -32.597  11.255   0.836  1.00 20.00    -0.123 SA
HETATM   13  H18 UNL     1     -33.334  11.232  -0.284  1.00 20.00     0.108 HD
ENDBRANCH   9  12
TORSDOF 1
ENDMDL
