MODEL 1
REMARK VINA RESULT:      -1.8      0.000      0.000
REMARK  1 active torsions:
REMARK  status: ('A' for Active; 'I' for Inactive)
REMARK    1  A    between atoms: C3_3  and  C5_5 
ROOT
HETATM    1  C1  UNL     1     -34.173   7.010   3.958  1.00 20.00     0.022 A 
HETATM    2  C2  UNL     1     -33.530   8.072   3.258  1.00 20.00     0.028 A 
HETATM    3  C3  UNL     1     -33.905   5.782   3.395  1.00 20.00     0.048 A 
HETATM    4  C4  UNL     1     -32.794   7.615   2.189  1.00 20.00     0.052 A 
HETATM    5  S8  UNL     1     -32.880   5.912   2.029  1.00 20.00    -0.082 SA
HETATM    6 BR9  UNL     1     -31.795   8.728   1.017  1.00 20.00    -0.043 Br
ENDROOT
BRANCH   3   7
HETATM    7  C5  UNL     1     -34.381   4.449   3.823  1.00 20.00     0.393 C 
HETATM    8  F6  UNL     1     -35.337   4.551   4.789  1.00 20.00    -0.208 F 
HETATM    9  F7  UNL     1     -33.371   3.715   4.372  1.00 20.00    -0.208 F 
ENDBRANCH   3   7
TORSDOF 1
ENDMDL
MODEL 2
REMARK VINA RESULT:      -1.5      1.283      1.918
REMARK  1 active torsions:
REMARK  status: ('A' for Active; 'I' for Inactive)
REMARK    1  A    between atoms: C3_3  and  C5_5 
ROOT
HETATM    1  C1  UNL     1     -33.122   5.410   2.147  1.00 20.00     0.022 A 
HETATM    2  C2  UNL     1     -32.455   6.348   1.307  1.00 20.00     0.028 A 
HETATM    3  C3  UNL     1     -33.740   6.020   3.216  1.00 20.00     0.048 A 
HETATM    4  C4  UNL     1     -32.589   7.639   1.766  1.00 20.00     0.052 A 
HETATM    5  S8  UNL     1     -33.514   7.718   3.205  1.00 20.00    -0.082 SA
HETATM    6 BR9  UNL     1     -31.841   9.165   0.917  1.00 20.00    -0.043 Br
ENDROOT
BRANCH   3   7
HETATM    7  C5  UNL     1     -34.527   5.398   4.303  1.00 20.00     0.393 C 
HETATM    8  F6  UNL     1     -34.460   4.037   4.246  1.00 20.00    -0.208 F 
HETATM    9  F7  UNL     1     -35.849   5.713   4.200  1.00 20.00    -0.208 F 
ENDBRANCH   3   7
TORSDOF 1
ENDMDL
MODEL 3
REMARK VINA RESULT:      -1.2      4.000      4.690
REMARK  1 active torsions:
REMARK  status: ('A' for Active; 'I' for Inactive)
REMARK    1  A    between atoms: C3_3  and  C5_5 
ROOT
HETATM    1  C1  UNL     1     -32.430   6.368   1.402  1.00 20.00     0.022 A 
HETATM    2  C2  UNL     1     -33.265   5.508   2.173  1.00 20.00     0.028 A 
HETATM    3  C3  UNL     1     -32.478   7.670   1.847  1.00 20.00     0.048 A 
HETATM    4  C4  UNL     1     -33.919   6.186   3.177  1.00 20.00     0.052 A 
HETATM    5  S8  UNL     1     -33.526   7.852   3.189  1.00 20.00    -0.082 SA
HETATM    6 BR9  UNL     1     -35.118   5.383   4.413  1.00 20.00    -0.043 Br
ENDROOT
BRANCH   3   7
HETATM    7  C5  UNL     1     -31.762   8.851   1.317  1.00 20.00     0.393 C 
HETATM    8  F6  UNL     1     -32.633   9.808   0.889  1.00 20.00    -0.208 F 
HETATM    9  F7  UNL     1     -31.002   8.524   0.233  1.00 20.00    -0.208 F 
ENDBRANCH   3   7
TORSDOF 1
ENDMDL
MODEL 4
REMARK VINA RESULT:      -1.0      3.737      4.346
REMARK  1 active torsions:
REMARK  status: ('A' for Active; 'I' for Inactive)
REMARK    1  A    between atoms: C3_3  and  C5_5 
ROOT
HETATM    1  C1  UNL     1     -33.472   8.237   3.245  1.00 20.00     0.022 A 
HETATM    2  C2  UNL     1     -34.028   7.111   3.919  1.00 20.00     0.028 A 
HETATM    3  C3  UNL     1     -32.699   7.865   2.168  1.00 20.00     0.048 A 
HETATM    4  C4  UNL     1     -33.659   5.922   3.330  1.00 20.00     0.052 A 
HETATM    5  S8  UNL     1     -32.645   6.165   1.972  1.00 20.00    -0.082 SA
HETATM    6 BR9  UNL     1     -34.200   4.206   3.940  1.00 20.00    -0.043 Br
ENDROOT
BRANCH   3   7
HETATM    7  C5  UNL     1     -31.958   8.731   1.225  1.00 20.00     0.393 C 
HETATM    8  F6  UNL     1     -32.784   9.245   0.270  1.00 20.00    -0.208 F 
HETATM    9  F7  UNL     1     -31.001   8.028   0.554  1.00 20.00    -0.208 F 
ENDBRANCH   3   7
TORSDOF 1
ENDMDL
MODEL 5
REMARK VINA RESULT:      -0.9      3.767      4.464
REMARK  1 active torsions:
REMARK  status: ('A' for Active; 'I' for Inactive)
REMARK    1  A    between atoms: C3_3  and  C5_5 
ROOT
HETATM    1  C1  UNL     1     -33.550   8.072   3.084  1.00 20.00     0.022 A 
HETATM    2  C2  UNL     1     -34.005   6.984   3.884  1.00 20.00     0.028 A 
HETATM    3  C3  UNL     1     -32.871   7.643   1.965  1.00 20.00     0.048 A 
HETATM    4  C4  UNL     1     -33.658   5.766   3.346  1.00 20.00     0.052 A 
HETATM    5  S8  UNL     1     -32.785   5.934   1.883  1.00 20.00    -0.082 SA
HETATM    6 BR9  UNL     1     -34.087   4.086   4.122  1.00 20.00    -0.043 Br
ENDROOT
BRANCH   3   7
HETATM    7  C5  UNL     1     -32.248   8.456   0.898  1.00 20.00     0.393 C 
HETATM    8  F6  UNL     1     -30.892   8.322   0.900  1.00 20.00    -0.208 F 
HETATM    9  F7  UNL     1     -32.495   9.784   1.080  1.00 20.00    -0.208 F 
ENDBRANCH   3   7
TORSDOF 1
ENDMDL
MODEL 6
REMARK VINA RESULT:      -0.9      2.351      2.943
REMARK  1 active torsions:
REMARK  status: ('A' for Active; 'I' for Inactive)
REMARK    1  A    between atoms: C3_3  and  C5_5 
ROOT
HETATM    1  C1  UNL     1     -32.544   7.935   2.374  1.00 20.00     0.022 A 
HETATM    2  C2  UNL     1     -31.842   7.119   1.440  1.00 20.00     0.028 A 
HETATM    3  C3  UNL     1     -33.477   7.217   3.089  1.00 20.00     0.048 A 
HETATM    4  C4  UNL     1     -32.264   5.809   1.478  1.00 20.00     0.052 A 
HETATM    5  S8  UNL     1     -33.503   5.566   2.634  1.00 20.00    -0.082 SA
HETATM    6 BR9  UNL     1     -31.567   4.423   0.383  1.00 20.00    -0.043 Br
ENDROOT
BRANCH   3   7
HETATM    7  C5  UNL     1     -34.398   7.697   4.143  1.00 20.00     0.393 C 
HETATM    8  F6  UNL     1     -33.714   8.130   5.240  1.00 20.00    -0.208 F 
HETATM    9  F7  UNL     1     -35.214   6.697   4.580  1.00 20.00    -0.208 F 
ENDBRANCH   3   7
TORSDOF 1
ENDMDL
MODEL 7
REMARK VINA RESULT:      -0.9      1.168      1.638
REMARK  1 active torsions:
REMARK  status: ('A' for Active; 'I' for Inactive)
REMARK    1  A    between atoms: C3_3  and  C5_5 
ROOT
HETATM    1  C1  UNL     1     -32.786   5.104   1.894  1.00 20.00     0.022 A 
HETATM    2  C2  UNL     1     -32.190   6.233   1.262  1.00 20.00     0.028 A 
HETATM    3  C3  UNL     1     -33.631   5.470   2.918  1.00 20.00     0.048 A 
HETATM    4  C4  UNL     1     -32.603   7.419   1.826  1.00 20.00     0.052 A 
HETATM    5  S8  UNL     1     -33.704   7.170   3.113  1.00 20.00    -0.082 SA
HETATM    6 BR9  UNL     1     -32.030   9.138   1.256  1.00 20.00    -0.043 Br
ENDROOT
BRANCH   3   7
HETATM    7  C5  UNL     1     -34.430   4.600   3.809  1.00 20.00     0.393 C 
HETATM    8  F6  UNL     1     -35.254   5.333   4.610  1.00 20.00    -0.208 F 
HETATM    9  F7  UNL     1     -33.631   3.884   4.649  1.00 20.00    -0.208 F 
ENDBRANCH   3   7
TORSDOF 1
ENDMDL
MODEL 8
REMARK VINA RESULT:      -0.5      1.932      2.266
REMARK  1 active torsions:
REMARK  status: ('A' for Active; 'I' for Inactive)
REMARK    1  A    between atoms: C3_3  and  C5_5 
ROOT
HETATM    1  C1  UNL     1     -33.222   5.685   2.181  1.00 20.00     0.022 A 
HETATM    2  C2  UNL     1     -32.328   6.319   1.270  1.00 20.00     0.028 A 
HETATM    3  C3  UNL     1     -33.787   6.581   3.060  1.00 20.00     0.048 A 
HETATM    4  C4  UNL     1     -32.247   7.677   1.487  1.00 20.00     0.052 A 
HETATM    5  S8  UNL     1     -33.242   8.181   2.785  1.00 20.00    -0.082 SA
HETATM    6 BR9  UNL     1     -31.162   8.864   0.475  1.00 20.00    -0.043 Br
ENDROOT
BRANCH   3   7
HETATM    7  C5  UNL     1     -34.756   6.318   4.148  1.00 20.00     0.393 C 
HETATM    8  F6  UNL     1     -36.030   6.243   3.669  1.00 20.00    -0.208 F 
HETATM    9  F7  UNL     1     -34.758   7.328   5.063  1.00 20.00    -0.208 F 
ENDBRANCH   3   7
TORSDOF 1
ENDMDL
MODEL 9
REMARK VINA RESULT:       0.1      3.113      3.584
REMARK  1 active torsions:
REMARK  status: ('A' for Active; 'I' for Inactive)
REMARK    1  A    between atoms: C3_3  and  C5_5 
ROOT
HETATM    1  C1  UNL     1     -32.005   6.966   1.329  1.00 20.00     0.022 A 
HETATM    2  C2  UNL     1     -32.332   7.888   2.365  1.00 20.00     0.028 A 
HETATM    3  C3  UNL     1     -32.616   5.745   1.510  1.00 20.00     0.048 A 
HETATM    4  C4  UNL     1     -33.181   7.336   3.298  1.00 20.00     0.052 A 
HETATM    5  S8  UNL     1     -33.580   5.713   2.925  1.00 20.00    -0.082 SA
HETATM    6 BR9  UNL     1     -33.842   8.253   4.825  1.00 20.00    -0.043 Br
ENDROOT
BRANCH   3   7
HETATM    7  C5  UNL     1     -32.529   4.536   0.661  1.00 20.00     0.393 C 
HETATM    8  F6  UNL     1     -31.350   4.494  -0.021  1.00 20.00    -0.208 F 
HETATM    9  F7  UNL     1     -33.510   4.524  -0.285  1.00 20.00    -0.208 F 
ENDBRANCH   3   7
TORSDOF 1
ENDMDL
