MODEL 1
REMARK VINA RESULT:      -1.7      0.000      0.000
REMARK  1 active torsions:
REMARK  status: ('A' for Active; 'I' for Inactive)
REMARK    1  A    between atoms: C2_2  and  C6_6 
ROOT
HETATM    1  C1  UNL     1     -34.922   6.488   4.196  1.00 20.00     0.119 A 
HETATM    2  C2  UNL     1     -33.215   7.262   3.008  1.00 20.00     0.043 A 
HETATM    3  C3  UNL     1     -34.162   7.754   4.036  1.00 20.00     0.105 A 
HETATM    4  N7  UNL     1     -34.497   5.529   3.439  1.00 20.00    -0.167 NA
HETATM    5  N8  UNL     1     -33.395   6.026   2.672  1.00 20.00    -0.159 NA
ENDROOT
BRANCH   2   6
HETATM    6  C6  UNL     1     -32.162   8.107   2.430  1.00 20.00     0.035 A 
HETATM    7  C4  UNL     1     -31.482   7.670   1.162  1.00 20.00     0.011 A 
HETATM    8  C5  UNL     1     -32.427   8.832   1.140  1.00 20.00     0.011 A 
ENDBRANCH   2   6
TORSDOF 1
ENDMDL
MODEL 2
REMARK VINA RESULT:      -1.5      1.151      1.338
REMARK  1 active torsions:
REMARK  status: ('A' for Active; 'I' for Inactive)
REMARK    1  A    between atoms: C2_2  and  C6_6 
ROOT
HETATM    1  C1  UNL     1     -34.630   5.630   3.592  1.00 20.00     0.119 A 
HETATM    2  C2  UNL     1     -33.252   7.293   3.083  1.00 20.00     0.043 A 
HETATM    3  C3  UNL     1     -33.466   5.878   2.702  1.00 20.00     0.105 A 
HETATM    4  N7  UNL     1     -34.974   6.660   4.294  1.00 20.00    -0.167 NA
HETATM    5  N8  UNL     1     -34.088   7.735   3.967  1.00 20.00    -0.159 NA
ENDROOT
BRANCH   2   6
HETATM    6  C6  UNL     1     -32.187   8.120   2.500  1.00 20.00     0.035 A 
HETATM    7  C4  UNL     1     -31.478   7.641   1.264  1.00 20.00     0.011 A 
HETATM    8  C5  UNL     1     -32.424   8.799   1.179  1.00 20.00     0.011 A 
ENDBRANCH   2   6
TORSDOF 1
ENDMDL
MODEL 3
REMARK VINA RESULT:      -1.5      1.776      3.690
REMARK  1 active torsions:
REMARK  status: ('A' for Active; 'I' for Inactive)
REMARK    1  A    between atoms: C2_2  and  C6_6 
ROOT
HETATM    1  C1  UNL     1     -31.952   6.838   1.201  1.00 20.00     0.119 A 
HETATM    2  C2  UNL     1     -33.318   7.089   2.931  1.00 20.00     0.043 A 
HETATM    3  C3  UNL     1     -33.030   6.080   1.887  1.00 20.00     0.105 A 
HETATM    4  N7  UNL     1     -31.706   7.988   1.738  1.00 20.00    -0.167 NA
HETATM    5  N8  UNL     1     -32.585   8.153   2.855  1.00 20.00    -0.159 NA
ENDROOT
BRANCH   2   6
HETATM    6  C6  UNL     1     -34.343   6.893   3.965  1.00 20.00     0.035 A 
HETATM    7  C4  UNL     1     -35.736   6.503   3.555  1.00 20.00     0.011 A 
HETATM    8  C5  UNL     1     -34.853   5.505   4.239  1.00 20.00     0.011 A 
ENDBRANCH   2   6
TORSDOF 1
ENDMDL
MODEL 4
REMARK VINA RESULT:      -1.4      1.019      3.485
REMARK  1 active torsions:
REMARK  status: ('A' for Active; 'I' for Inactive)
REMARK    1  A    between atoms: C2_2  and  C6_6 
ROOT
HETATM    1  C1  UNL     1     -31.751   7.655   1.539  1.00 20.00     0.119 A 
HETATM    2  C2  UNL     1     -33.358   6.964   2.905  1.00 20.00     0.043 A 
HETATM    3  C3  UNL     1     -32.555   8.186   2.670  1.00 20.00     0.105 A 
HETATM    4  N7  UNL     1     -32.041   6.434   1.227  1.00 20.00    -0.167 NA
HETATM    5  N8  UNL     1     -33.079   5.986   2.105  1.00 20.00    -0.159 NA
ENDROOT
BRANCH   2   6
HETATM    6  C6  UNL     1     -34.385   6.878   3.951  1.00 20.00     0.035 A 
HETATM    7  C4  UNL     1     -35.800   6.545   3.567  1.00 20.00     0.011 A 
HETATM    8  C5  UNL     1     -34.968   5.537   4.299  1.00 20.00     0.011 A 
ENDBRANCH   2   6
TORSDOF 1
ENDMDL
MODEL 5
REMARK VINA RESULT:      -1.4      1.661      2.157
REMARK  1 active torsions:
REMARK  status: ('A' for Active; 'I' for Inactive)
REMARK    1  A    between atoms: C2_2  and  C6_6 
ROOT
HETATM    1  C1  UNL     1     -33.197   5.777   2.329  1.00 20.00     0.119 A 
HETATM    2  C2  UNL     1     -32.471   7.802   1.787  1.00 20.00     0.043 A 
HETATM    3  C3  UNL     1     -32.383   6.419   1.265  1.00 20.00     0.105 A 
HETATM    4  N7  UNL     1     -33.630   6.607   3.222  1.00 20.00    -0.167 NA
HETATM    5  N8  UNL     1     -33.163   7.915   2.874  1.00 20.00    -0.159 NA
ENDROOT
BRANCH   2   6
HETATM    6  C6  UNL     1     -31.831   8.944   1.121  1.00 20.00     0.035 A 
HETATM    7  C4  UNL     1     -32.194   9.263  -0.304  1.00 20.00     0.011 A 
HETATM    8  C5  UNL     1     -32.652  10.164   0.802  1.00 20.00     0.011 A 
ENDBRANCH   2   6
TORSDOF 1
ENDMDL
MODEL 6
REMARK VINA RESULT:      -1.2      1.190      1.629
REMARK  1 active torsions:
REMARK  status: ('A' for Active; 'I' for Inactive)
REMARK    1  A    between atoms: C2_2  and  C6_6 
ROOT
HETATM    1  C1  UNL     1     -35.208   5.341   4.603  1.00 20.00     0.119 A 
HETATM    2  C2  UNL     1     -33.906   5.956   2.914  1.00 20.00     0.043 A 
HETATM    3  C3  UNL     1     -34.946   6.552   3.784  1.00 20.00     0.105 A 
HETATM    4  N7  UNL     1     -34.486   4.322   4.265  1.00 20.00    -0.167 NA
HETATM    5  N8  UNL     1     -33.645   4.716   3.177  1.00 20.00    -0.159 NA
ENDROOT
BRANCH   2   6
HETATM    6  C6  UNL     1     -33.230   6.712   1.853  1.00 20.00     0.035 A 
HETATM    7  C4  UNL     1     -32.300   7.833   2.226  1.00 20.00     0.011 A 
HETATM    8  C5  UNL     1     -31.745   6.557   1.672  1.00 20.00     0.011 A 
ENDBRANCH   2   6
TORSDOF 1
ENDMDL
MODEL 7
REMARK VINA RESULT:      -1.0      1.606      3.736
REMARK  1 active torsions:
REMARK  status: ('A' for Active; 'I' for Inactive)
REMARK    1  A    between atoms: C2_2  and  C6_6 
ROOT
HETATM    1  C1  UNL     1     -31.781   7.618   1.671  1.00 20.00     0.119 A 
HETATM    2  C2  UNL     1     -33.450   6.562   2.682  1.00 20.00     0.043 A 
HETATM    3  C3  UNL     1     -32.561   6.364   1.514  1.00 20.00     0.105 A 
HETATM    4  N7  UNL     1     -32.151   8.335   2.682  1.00 20.00    -0.167 NA
HETATM    5  N8  UNL     1     -33.227   7.656   3.337  1.00 20.00    -0.159 NA
ENDROOT
BRANCH   2   6
HETATM    6  C6  UNL     1     -34.488   5.595   3.064  1.00 20.00     0.035 A 
HETATM    7  C4  UNL     1     -34.245   4.676   4.229  1.00 20.00     0.011 A 
HETATM    8  C5  UNL     1     -35.237   5.792   4.352  1.00 20.00     0.011 A 
ENDBRANCH   2   6
TORSDOF 1
ENDMDL
MODEL 8
REMARK VINA RESULT:      -0.9      1.760      1.960
REMARK  1 active torsions:
REMARK  status: ('A' for Active; 'I' for Inactive)
REMARK    1  A    between atoms: C2_2  and  C6_6 
ROOT
HETATM    1  C1  UNL     1     -35.400   5.831   4.545  1.00 20.00     0.119 A 
HETATM    2  C2  UNL     1     -33.783   5.829   3.025  1.00 20.00     0.043 A 
HETATM    3  C3  UNL     1     -34.744   6.788   3.617  1.00 20.00     0.105 A 
HETATM    4  N7  UNL     1     -34.917   4.633   4.479  1.00 20.00    -0.167 NA
HETATM    5  N8  UNL     1     -33.872   4.629   3.500  1.00 20.00    -0.159 NA
ENDROOT
BRANCH   2   6
HETATM    6  C6  UNL     1     -32.811   6.214   1.993  1.00 20.00     0.035 A 
HETATM    7  C4  UNL     1     -31.844   5.186   1.474  1.00 20.00     0.011 A 
HETATM    8  C5  UNL     1     -32.963   5.667   0.601  1.00 20.00     0.011 A 
ENDBRANCH   2   6
TORSDOF 1
ENDMDL
MODEL 9
REMARK VINA RESULT:      -0.8      2.809      4.242
REMARK  1 active torsions:
REMARK  status: ('A' for Active; 'I' for Inactive)
REMARK    1  A    between atoms: C2_2  and  C6_6 
ROOT
HETATM    1  C1  UNL     1     -34.441   6.646   3.365  1.00 20.00     0.119 A 
HETATM    2  C2  UNL     1     -34.216   4.558   4.080  1.00 20.00     0.043 A 
HETATM    3  C3  UNL     1     -33.456   5.538   3.270  1.00 20.00     0.105 A 
HETATM    4  N7  UNL     1     -35.491   6.348   4.059  1.00 20.00    -0.167 NA
HETATM    5  N8  UNL     1     -35.348   5.002   4.523  1.00 20.00    -0.159 NA
ENDROOT
BRANCH   2   6
HETATM    6  C6  UNL     1     -33.720   3.203   4.358  1.00 20.00     0.035 A 
HETATM    7  C4  UNL     1     -32.249   2.919   4.233  1.00 20.00     0.011 A 
HETATM    8  C5  UNL     1     -32.888   2.964   5.587  1.00 20.00     0.011 A 
ENDBRANCH   2   6
TORSDOF 1
ENDMDL
