MODEL 1
REMARK VINA RESULT:      -1.3      0.000      0.000
REMARK  1 active torsions:
REMARK  status: ('A' for Active; 'I' for Inactive)
REMARK    1  A    between atoms: C3_3  and  C4_4 
ROOT
HETATM    1  C1  UNL     1     -33.159   5.979   2.503  1.00 20.00     0.067 A 
HETATM    2  C2  UNL     1     -33.742   7.024   3.172  1.00 20.00     0.080 A 
HETATM    3  C3  UNL     1     -32.381   7.759   1.718  1.00 20.00     0.208 A 
HETATM    4  C5  UNL     1     -33.483   4.564   2.780  1.00 20.00     0.062 C 
HETATM    5  C6  UNL     1     -34.722   6.970   4.270  1.00 20.00     0.067 C 
HETATM    6  C7  UNL     1     -34.221   4.442   4.135  1.00 20.00     0.006 C 
HETATM    7  C8  UNL     1     -35.299   5.537   4.337  1.00 20.00     0.007 C 
HETATM    8  N9  UNL     1     -32.289   6.452   1.564  1.00 20.00    -0.224 NA
HETATM    9  O11 UNL     1     -33.250   8.189   2.684  1.00 20.00    -0.292 OA
ENDROOT
BRANCH   3  10
HETATM   10  C4  UNL     1     -31.658   8.723   0.963  1.00 20.00     0.316 C 
HETATM   11  O10 UNL     1     -32.189   9.637   0.292  1.00 20.00    -0.298 OA
ENDBRANCH   3  10
TORSDOF 1
ENDMDL
MODEL 2
REMARK VINA RESULT:      -1.0      0.978      1.862
REMARK  1 active torsions:
REMARK  status: ('A' for Active; 'I' for Inactive)
REMARK    1  A    between atoms: C3_3  and  C4_4 
ROOT
HETATM    1  C1  UNL     1     -33.732   7.139   3.186  1.00 20.00     0.067 A 
HETATM    2  C2  UNL     1     -33.165   6.077   2.529  1.00 20.00     0.080 A 
HETATM    3  C3  UNL     1     -32.413   7.902   1.746  1.00 20.00     0.208 A 
HETATM    4  C5  UNL     1     -34.704   6.980   4.286  1.00 20.00     0.062 C 
HETATM    5  C6  UNL     1     -33.415   4.641   2.733  1.00 20.00     0.067 C 
HETATM    6  C7  UNL     1     -35.261   5.535   4.300  1.00 20.00     0.006 C 
HETATM    7  C8  UNL     1     -34.164   4.464   4.075  1.00 20.00     0.007 C 
HETATM    8  N9  UNL     1     -33.244   8.312   2.685  1.00 20.00    -0.224 NA
HETATM    9  O11 UNL     1     -32.310   6.546   1.588  1.00 20.00    -0.292 OA
ENDROOT
BRANCH   3  10
HETATM   10  C4  UNL     1     -31.639   8.754   0.912  1.00 20.00     0.316 C 
HETATM   11  O10 UNL     1     -32.121   9.621   0.147  1.00 20.00    -0.298 OA
ENDBRANCH   3  10
TORSDOF 1
ENDMDL
MODEL 3
REMARK VINA RESULT:       0.3      0.946      1.045
REMARK  1 active torsions:
REMARK  status: ('A' for Active; 'I' for Inactive)
REMARK    1  A    between atoms: C3_3  and  C4_4 
ROOT
HETATM    1  C1  UNL     1     -32.755   6.694   1.865  1.00 20.00     0.067 A 
HETATM    2  C2  UNL     1     -33.466   7.478   2.735  1.00 20.00     0.080 A 
HETATM    3  C3  UNL     1     -32.503   8.692   1.284  1.00 20.00     0.208 A 
HETATM    4  C5  UNL     1     -32.716   5.220   1.956  1.00 20.00     0.062 C 
HETATM    5  C6  UNL     1     -34.260   7.057   3.901  1.00 20.00     0.067 C 
HETATM    6  C7  UNL     1     -33.228   4.758   3.342  1.00 20.00     0.006 C 
HETATM    7  C8  UNL     1     -34.488   5.530   3.808  1.00 20.00     0.007 C 
HETATM    8  N9  UNL     1     -32.140   7.474   0.928  1.00 20.00    -0.224 NA
HETATM    9  O11 UNL     1     -33.315   8.778   2.382  1.00 20.00    -0.292 OA
ENDROOT
BRANCH   3  10
HETATM   10  C4  UNL     1     -32.116   9.886   0.617  1.00 20.00     0.316 C 
HETATM   11  O10 UNL     1     -32.467  10.190  -0.547  1.00 20.00    -0.298 OA
ENDBRANCH   3  10
TORSDOF 1
ENDMDL
MODEL 4
REMARK VINA RESULT:       0.9      2.236      4.577
REMARK  1 active torsions:
REMARK  status: ('A' for Active; 'I' for Inactive)
REMARK    1  A    between atoms: C3_3  and  C4_4 
ROOT
HETATM    1  C1  UNL     1     -33.171   7.627   2.957  1.00 20.00     0.067 A 
HETATM    2  C2  UNL     1     -33.009   6.467   2.245  1.00 20.00     0.080 A 
HETATM    3  C3  UNL     1     -34.498   6.204   3.736  1.00 20.00     0.208 A 
HETATM    4  C5  UNL     1     -32.409   8.860   2.672  1.00 20.00     0.062 C 
HETATM    5  C6  UNL     1     -32.073   6.198   1.142  1.00 20.00     0.067 C 
HETATM    6  C7  UNL     1     -31.186   8.536   1.781  1.00 20.00     0.006 C 
HETATM    7  C8  UNL     1     -31.520   7.549   0.633  1.00 20.00     0.007 C 
HETATM    8  N9  UNL     1     -34.133   7.459   3.912  1.00 20.00    -0.224 NA
HETATM    9  O11 UNL     1     -33.856   5.528   2.734  1.00 20.00    -0.292 OA
ENDROOT
BRANCH   3  10
HETATM   10  C4  UNL     1     -35.491   5.528   4.498  1.00 20.00     0.316 C 
HETATM   11  O10 UNL     1     -35.377   4.355   4.922  1.00 20.00    -0.298 OA
ENDBRANCH   3  10
TORSDOF 1
ENDMDL
MODEL 5
REMARK VINA RESULT:       1.2      1.929      4.234
REMARK  1 active torsions:
REMARK  status: ('A' for Active; 'I' for Inactive)
REMARK    1  A    between atoms: C3_3  and  C4_4 
ROOT
HETATM    1  C1  UNL     1     -33.006   6.437   2.199  1.00 20.00     0.067 A 
HETATM    2  C2  UNL     1     -33.108   7.606   2.908  1.00 20.00     0.080 A 
HETATM    3  C3  UNL     1     -34.480   6.173   3.666  1.00 20.00     0.208 A 
HETATM    4  C5  UNL     1     -32.047   6.248   1.091  1.00 20.00     0.062 C 
HETATM    5  C6  UNL     1     -32.366   8.861   2.708  1.00 20.00     0.067 C 
HETATM    6  C7  UNL     1     -31.507   7.619   0.615  1.00 20.00     0.006 C 
HETATM    7  C8  UNL     1     -31.158   8.571   1.787  1.00 20.00     0.007 C 
HETATM    8  N9  UNL     1     -33.884   5.514   2.690  1.00 20.00    -0.224 NA
HETATM    9  O11 UNL     1     -34.061   7.461   3.862  1.00 20.00    -0.292 OA
ENDROOT
BRANCH   3  10
HETATM   10  C4  UNL     1     -35.499   5.644   4.504  1.00 20.00     0.316 C 
HETATM   11  O10 UNL     1     -35.535   4.461   4.911  1.00 20.00    -0.298 OA
ENDBRANCH   3  10
TORSDOF 1
ENDMDL
MODEL 6
REMARK VINA RESULT:       1.4      2.375      4.614
REMARK  1 active torsions:
REMARK  status: ('A' for Active; 'I' for Inactive)
REMARK    1  A    between atoms: C3_3  and  C4_4 
ROOT
HETATM    1  C1  UNL     1     -33.579   6.851   3.211  1.00 20.00     0.067 A 
HETATM    2  C2  UNL     1     -32.770   6.208   2.311  1.00 20.00     0.080 A 
HETATM    3  C3  UNL     1     -33.688   4.795   3.603  1.00 20.00     0.208 A 
HETATM    4  C5  UNL     1     -33.766   8.317   3.224  1.00 20.00     0.062 C 
HETATM    5  C6  UNL     1     -31.932   6.798   1.255  1.00 20.00     0.067 C 
HETATM    6  C7  UNL     1     -32.657   9.001   2.387  1.00 20.00     0.006 C 
HETATM    7  C8  UNL     1     -32.368   8.268   1.053  1.00 20.00     0.007 C 
HETATM    8  N9  UNL     1     -34.173   5.942   4.039  1.00 20.00    -0.224 NA
HETATM    9  O11 UNL     1     -32.821   4.874   2.547  1.00 20.00    -0.292 OA
ENDROOT
BRANCH   3  10
HETATM   10  C4  UNL     1     -34.001   3.518   4.144  1.00 20.00     0.316 C 
HETATM   11  O10 UNL     1     -33.237   2.859   4.886  1.00 20.00    -0.298 OA
ENDBRANCH   3  10
TORSDOF 1
ENDMDL
MODEL 7
REMARK VINA RESULT:       1.6      2.133      4.264
REMARK  1 active torsions:
REMARK  status: ('A' for Active; 'I' for Inactive)
REMARK    1  A    between atoms: C3_3  and  C4_4 
ROOT
HETATM    1  C1  UNL     1     -32.719   6.238   2.192  1.00 20.00     0.067 A 
HETATM    2  C2  UNL     1     -33.432   6.953   3.119  1.00 20.00     0.080 A 
HETATM    3  C3  UNL     1     -33.633   4.873   3.493  1.00 20.00     0.208 A 
HETATM    4  C5  UNL     1     -31.925   6.875   1.120  1.00 20.00     0.062 C 
HETATM    5  C6  UNL     1     -33.589   8.413   3.220  1.00 20.00     0.067 C 
HETATM    6  C7  UNL     1     -32.334   8.359   0.965  1.00 20.00     0.006 C 
HETATM    7  C8  UNL     1     -32.519   9.080   2.324  1.00 20.00     0.007 C 
HETATM    8  N9  UNL     1     -32.844   4.901   2.435  1.00 20.00    -0.224 NA
HETATM    9  O11 UNL     1     -34.037   6.090   3.971  1.00 20.00    -0.292 OA
ENDROOT
BRANCH   3  10
HETATM   10  C4  UNL     1     -34.076   3.692   4.149  1.00 20.00     0.316 C 
HETATM   11  O10 UNL     1     -33.332   2.929   4.808  1.00 20.00    -0.298 OA
ENDBRANCH   3  10
TORSDOF 1
ENDMDL
