MODEL 1
REMARK VINA RESULT:      -2.0      0.000      0.000
REMARK  0 active torsions:
REMARK  status: ('A' for Active; 'I' for Inactive)
ROOT
HETATM    1  C1  UNL     1     -35.265   6.443   4.158  1.00 20.00    -0.002 C 
HETATM    2  C2  UNL     1     -34.443   7.631   4.088  1.00 20.00     0.009 C 
HETATM    3  C3  UNL     1     -34.641   5.412   3.560  1.00 20.00    -0.013 C 
HETATM    4  C4  UNL     1     -32.851   5.647   1.730  1.00 20.00     0.006 C 
HETATM    5  C5  UNL     1     -32.171   6.622   1.095  1.00 20.00     0.113 C 
HETATM    6  C6  UNL     1     -32.389   8.185   2.747  1.00 20.00     0.124 C 
HETATM    7  C7  UNL     1     -33.308   7.297   3.466  1.00 20.00    -0.029 C 
HETATM    8  C8  UNL     1     -33.256   5.833   3.159  1.00 20.00     0.066 C 
HETATM    9  N9  UNL     1     -31.828   7.856   1.621  1.00 20.00    -0.273 NA
ENDROOT
TORSDOF 0
ENDMDL
MODEL 2
REMARK VINA RESULT:      -1.7      1.741      3.630
REMARK  0 active torsions:
REMARK  status: ('A' for Active; 'I' for Inactive)
ROOT
HETATM    1  C1  UNL     1     -32.238   7.042   1.315  1.00 20.00    -0.002 C 
HETATM    2  C2  UNL     1     -32.504   5.670   1.690  1.00 20.00     0.009 C 
HETATM    3  C3  UNL     1     -32.684   7.878   2.270  1.00 20.00    -0.013 C 
HETATM    4  C4  UNL     1     -34.563   7.329   3.935  1.00 20.00     0.006 C 
HETATM    5  C5  UNL     1     -35.352   6.288   4.267  1.00 20.00     0.113 C 
HETATM    6  C6  UNL     1     -33.954   4.662   3.481  1.00 20.00     0.124 C 
HETATM    7  C7  UNL     1     -33.090   5.690   2.892  1.00 20.00    -0.029 C 
HETATM    8  C8  UNL     1     -33.172   7.078   3.444  1.00 20.00     0.066 C 
HETATM    9  N9  UNL     1     -35.028   4.947   4.156  1.00 20.00    -0.273 NA
ENDROOT
TORSDOF 0
ENDMDL
MODEL 3
REMARK VINA RESULT:      -1.3      0.835      2.127
REMARK  0 active torsions:
REMARK  status: ('A' for Active; 'I' for Inactive)
ROOT
HETATM    1  C1  UNL     1     -34.769   4.814   4.415  1.00 20.00    -0.002 C 
HETATM    2  C2  UNL     1     -33.899   4.481   3.308  1.00 20.00     0.009 C 
HETATM    3  C3  UNL     1     -35.044   6.131   4.407  1.00 20.00    -0.013 C 
HETATM    4  C4  UNL     1     -33.554   7.932   3.339  1.00 20.00     0.006 C 
HETATM    5  C5  UNL     1     -32.421   8.012   2.614  1.00 20.00     0.113 C 
HETATM    6  C6  UNL     1     -32.543   5.905   1.740  1.00 20.00     0.124 C 
HETATM    7  C7  UNL     1     -33.677   5.606   2.620  1.00 20.00    -0.029 C 
HETATM    8  C8  UNL     1     -34.462   6.754   3.170  1.00 20.00     0.066 C 
HETATM    9  N9  UNL     1     -31.952   7.063   1.721  1.00 20.00    -0.273 NA
ENDROOT
TORSDOF 0
ENDMDL
MODEL 4
REMARK VINA RESULT:      -1.3      1.976      3.137
REMARK  0 active torsions:
REMARK  status: ('A' for Active; 'I' for Inactive)
ROOT
HETATM    1  C1  UNL     1     -32.394   7.883   2.507  1.00 20.00    -0.002 C 
HETATM    2  C2  UNL     1     -33.588   7.934   3.322  1.00 20.00     0.009 C 
HETATM    3  C3  UNL     1     -32.261   6.662   1.957  1.00 20.00    -0.013 C 
HETATM    4  C4  UNL     1     -33.266   4.504   2.923  1.00 20.00     0.006 C 
HETATM    5  C5  UNL     1     -34.064   4.123   3.940  1.00 20.00     0.113 C 
HETATM    6  C6  UNL     1     -35.115   6.135   4.192  1.00 20.00     0.124 C 
HETATM    7  C7  UNL     1     -34.184   6.741   3.234  1.00 20.00    -0.029 C 
HETATM    8  C8  UNL     1     -33.475   5.837   2.276  1.00 20.00     0.066 C 
HETATM    9  N9  UNL     1     -35.072   4.877   4.517  1.00 20.00    -0.273 NA
ENDROOT
TORSDOF 0
ENDMDL
MODEL 5
REMARK VINA RESULT:      -1.1      0.850      2.021
REMARK  0 active torsions:
REMARK  status: ('A' for Active; 'I' for Inactive)
ROOT
HETATM    1  C1  UNL     1     -34.746   6.389   4.501  1.00 20.00    -0.002 C 
HETATM    2  C2  UNL     1     -34.342   5.434   3.492  1.00 20.00     0.009 C 
HETATM    3  C3  UNL     1     -34.368   7.629   4.142  1.00 20.00    -0.013 C 
HETATM    4  C4  UNL     1     -32.420   8.164   2.553  1.00 20.00     0.006 C 
HETATM    5  C5  UNL     1     -31.529   7.508   1.783  1.00 20.00     0.113 C 
HETATM    6  C6  UNL     1     -32.776   5.610   1.533  1.00 20.00     0.124 C 
HETATM    7  C7  UNL     1     -33.743   6.116   2.511  1.00 20.00    -0.029 C 
HETATM    8  C8  UNL     1     -33.788   7.592   2.757  1.00 20.00     0.066 C 
HETATM    9  N9  UNL     1     -31.724   6.283   1.169  1.00 20.00    -0.273 NA
ENDROOT
TORSDOF 0
ENDMDL
MODEL 6
REMARK VINA RESULT:       0.8      1.371      2.477
REMARK  0 active torsions:
REMARK  status: ('A' for Active; 'I' for Inactive)
ROOT
HETATM    1  C1  UNL     1     -32.843   8.478   4.948  1.00 20.00    -0.002 C 
HETATM    2  C2  UNL     1     -33.823   7.481   4.575  1.00 20.00     0.009 C 
HETATM    3  C3  UNL     1     -32.094   8.812   3.881  1.00 20.00    -0.013 C 
HETATM    4  C4  UNL     1     -31.700   7.304   1.838  1.00 20.00     0.006 C 
HETATM    5  C5  UNL     1     -32.101   6.106   1.369  1.00 20.00     0.113 C 
HETATM    6  C6  UNL     1     -34.066   6.036   2.532  1.00 20.00     0.124 C 
HETATM    7  C7  UNL     1     -33.673   7.241   3.269  1.00 20.00    -0.029 C 
HETATM    8  C8  UNL     1     -32.639   8.133   2.657  1.00 20.00     0.066 C 
HETATM    9  N9  UNL     1     -33.323   5.501   1.608  1.00 20.00    -0.273 NA
ENDROOT
TORSDOF 0
ENDMDL
MODEL 7
REMARK VINA RESULT:       0.9      1.819      2.790
REMARK  0 active torsions:
REMARK  status: ('A' for Active; 'I' for Inactive)
ROOT
HETATM    1  C1  UNL     1     -33.025   6.147   2.310  1.00 20.00    -0.002 C 
HETATM    2  C2  UNL     1     -33.436   7.449   2.787  1.00 20.00     0.009 C 
HETATM    3  C3  UNL     1     -32.041   6.276   1.402  1.00 20.00    -0.013 C 
HETATM    4  C4  UNL     1     -31.635   8.371  -0.030  1.00 20.00     0.006 C 
HETATM    5  C5  UNL     1     -32.127   9.618  -0.165  1.00 20.00     0.113 C 
HETATM    6  C6  UNL     1     -32.975   9.775   1.951  1.00 20.00     0.124 C 
HETATM    7  C7  UNL     1     -32.670   8.359   2.178  1.00 20.00    -0.029 C 
HETATM    8  C8  UNL     1     -31.628   7.718   1.317  1.00 20.00     0.066 C 
HETATM    9  N9  UNL     1     -32.699  10.386   0.836  1.00 20.00    -0.273 NA
ENDROOT
TORSDOF 0
ENDMDL
