MODEL 1
REMARK VINA RESULT:      -0.5      0.000      0.000
REMARK  0 active torsions:
REMARK  status: ('A' for Active; 'I' for Inactive)
ROOT
HETATM    1  C1  UNL     1     -33.637   6.209   2.646  1.00 20.00     0.014 C 
HETATM    2  C2  UNL     1     -32.784   5.888   1.458  1.00 20.00     0.085 C 
HETATM    3  C3  UNL     1     -34.331   7.404   4.473  1.00 20.00     0.034 C 
HETATM    4  C4  UNL     1     -35.075   6.087   4.313  1.00 20.00     0.149 C 
HETATM    5  C5  UNL     1     -31.494   6.711   1.511  1.00 20.00     0.277 C 
HETATM    6  C6  UNL     1     -32.420   8.341   3.052  1.00 20.00     0.282 C 
HETATM    7  C7  UNL     1     -33.773   7.635   3.084  1.00 20.00     0.063 C 
HETATM    8  C8  UNL     1     -32.293   8.856   0.672  1.00 20.00     0.309 C 
HETATM    9  N9  UNL     1     -34.333   5.321   3.289  1.00 20.00    -0.298 NA
HETATM   10  N10 UNL     1     -31.685   8.144   1.792  1.00 20.00     0.085 N 
ENDROOT
TORSDOF 0
ENDMDL
MODEL 2
REMARK VINA RESULT:       1.3      1.005      3.893
REMARK  0 active torsions:
REMARK  status: ('A' for Active; 'I' for Inactive)
ROOT
HETATM    1  C1  UNL     1     -32.884   7.647   2.594  1.00 20.00     0.014 C 
HETATM    2  C2  UNL     1     -33.710   8.334   3.637  1.00 20.00     0.085 C 
HETATM    3  C3  UNL     1     -32.030   5.874   1.422  1.00 20.00     0.034 C 
HETATM    4  C4  UNL     1     -31.395   7.200   1.030  1.00 20.00     0.149 C 
HETATM    5  C5  UNL     1     -34.172   7.316   4.683  1.00 20.00     0.277 C 
HETATM    6  C6  UNL     1     -33.791   5.417   3.221  1.00 20.00     0.282 C 
HETATM    7  C7  UNL     1     -33.323   6.312   2.077  1.00 20.00     0.063 C 
HETATM    8  C8  UNL     1     -36.049   6.290   3.515  1.00 20.00     0.309 C 
HETATM    9  N9  UNL     1     -31.831   8.178   2.051  1.00 20.00    -0.298 NA
HETATM   10  N10 UNL     1     -34.742   6.076   4.131  1.00 20.00     0.085 N 
ENDROOT
TORSDOF 0
ENDMDL
MODEL 3
REMARK VINA RESULT:       1.9      1.475      2.408
REMARK  0 active torsions:
REMARK  status: ('A' for Active; 'I' for Inactive)
ROOT
HETATM    1  C1  UNL     1     -33.163   7.396   3.273  1.00 20.00     0.014 C 
HETATM    2  C2  UNL     1     -31.969   7.869   2.503  1.00 20.00     0.085 C 
HETATM    3  C3  UNL     1     -35.004   6.105   3.712  1.00 20.00     0.034 C 
HETATM    4  C4  UNL     1     -34.834   7.244   4.704  1.00 20.00     0.149 C 
HETATM    5  C5  UNL     1     -32.026   7.321   1.075  1.00 20.00     0.277 C 
HETATM    6  C6  UNL     1     -33.585   5.554   1.654  1.00 20.00     0.282 C 
HETATM    7  C7  UNL     1     -33.615   5.976   3.120  1.00 20.00     0.063 C 
HETATM    8  C8  UNL     1     -31.209   5.052   1.430  1.00 20.00     0.309 C 
HETATM    9  N9  UNL     1     -33.800   8.133   4.131  1.00 20.00    -0.298 NA
HETATM   10  N10 UNL     1     -32.321   5.881   0.974  1.00 20.00     0.085 N 
ENDROOT
TORSDOF 0
ENDMDL
MODEL 4
REMARK VINA RESULT:       2.0      1.602      3.321
REMARK  0 active torsions:
REMARK  status: ('A' for Active; 'I' for Inactive)
ROOT
HETATM    1  C1  UNL     1     -33.193   5.793   2.515  1.00 20.00     0.014 C 
HETATM    2  C2  UNL     1     -34.164   5.443   3.599  1.00 20.00     0.085 C 
HETATM    3  C3  UNL     1     -32.004   7.171   1.124  1.00 20.00     0.034 C 
HETATM    4  C4  UNL     1     -31.822   5.699   0.791  1.00 20.00     0.149 C 
HETATM    5  C5  UNL     1     -35.043   6.656   3.917  1.00 20.00     0.277 C 
HETATM    6  C6  UNL     1     -33.490   8.231   2.917  1.00 20.00     0.282 C 
HETATM    7  C7  UNL     1     -32.506   7.124   2.552  1.00 20.00     0.063 C 
HETATM    8  C8  UNL     1     -33.537   7.943   5.338  1.00 20.00     0.309 C 
HETATM    9  N9  UNL     1     -32.852   4.974   1.567  1.00 20.00    -0.298 NA
HETATM   10  N10 UNL     1     -34.310   7.921   4.100  1.00 20.00     0.085 N 
ENDROOT
TORSDOF 0
ENDMDL
MODEL 5
REMARK VINA RESULT:       2.3      1.252      2.257
REMARK  0 active torsions:
REMARK  status: ('A' for Active; 'I' for Inactive)
ROOT
HETATM    1  C1  UNL     1     -34.187   6.640   3.646  1.00 20.00     0.014 C 
HETATM    2  C2  UNL     1     -33.948   8.082   3.321  1.00 20.00     0.085 C 
HETATM    3  C3  UNL     1     -34.033   4.371   3.370  1.00 20.00     0.034 C 
HETATM    4  C4  UNL     1     -34.976   4.765   4.496  1.00 20.00     0.149 C 
HETATM    5  C5  UNL     1     -33.434   8.210   1.885  1.00 20.00     0.277 C 
HETATM    6  C6  UNL     1     -32.735   5.889   1.769  1.00 20.00     0.282 C 
HETATM    7  C7  UNL     1     -33.188   5.616   3.201  1.00 20.00     0.063 C 
HETATM    8  C8  UNL     1     -31.086   7.634   2.194  1.00 20.00     0.309 C 
HETATM    9  N9  UNL     1     -35.187   6.222   4.360  1.00 20.00    -0.298 NA
HETATM   10  N10 UNL     1     -32.341   7.287   1.533  1.00 20.00     0.085 N 
ENDROOT
TORSDOF 0
ENDMDL
