MODEL 1
REMARK VINA RESULT:      -0.1      0.000      0.000
REMARK  0 active torsions:
REMARK  status: ('A' for Active; 'I' for Inactive)
ROOT
HETATM    1  C1  UNL     1     -32.202   8.273   2.927  1.00 20.00     0.011 C 
HETATM    2  C2  UNL     1     -33.551   7.810   3.478  1.00 20.00     0.017 C 
HETATM    3  C3  UNL     1     -31.961   7.831   1.490  1.00 20.00     0.074 C 
HETATM    4  C4  UNL     1     -33.585   5.680   2.075  1.00 20.00     0.089 C 
HETATM    5  C5  UNL     1     -33.691   6.291   3.466  1.00 20.00     0.067 C 
HETATM    6  S6  UNL     1     -31.964   6.022   1.328  1.00 20.00    -0.168 SA
HETATM    7 BR7  UNL     1     -35.450   5.826   4.208  1.00 20.00    -0.090 Br
ENDROOT
TORSDOF 0
ENDMDL
MODEL 2
REMARK VINA RESULT:       0.2      1.264      2.089
REMARK  0 active torsions:
REMARK  status: ('A' for Active; 'I' for Inactive)
ROOT
HETATM    1  C1  UNL     1     -32.531   5.888   1.204  1.00 20.00     0.011 C 
HETATM    2  C2  UNL     1     -33.371   5.356   2.364  1.00 20.00     0.017 C 
HETATM    3  C3  UNL     1     -31.573   6.996   1.620  1.00 20.00     0.074 C 
HETATM    4  C4  UNL     1     -33.415   7.596   3.583  1.00 20.00     0.089 C 
HETATM    5  C5  UNL     1     -34.226   6.444   3.007  1.00 20.00     0.067 C 
HETATM    6  S6  UNL     1     -32.455   8.436   2.290  1.00 20.00    -0.168 SA
HETATM    7 BR7  UNL     1     -35.265   5.634   4.466  1.00 20.00    -0.090 Br
ENDROOT
TORSDOF 0
ENDMDL
MODEL 3
REMARK VINA RESULT:       0.2      2.467      2.875
REMARK  0 active torsions:
REMARK  status: ('A' for Active; 'I' for Inactive)
ROOT
HETATM    1  C1  UNL     1     -32.732   8.340   2.640  1.00 20.00     0.011 C 
HETATM    2  C2  UNL     1     -32.017   7.202   1.913  1.00 20.00     0.017 C 
HETATM    3  C3  UNL     1     -33.342   7.910   3.968  1.00 20.00     0.074 C 
HETATM    4  C4  UNL     1     -33.574   5.405   2.838  1.00 20.00     0.089 C 
HETATM    5  C5  UNL     1     -32.951   6.037   1.600  1.00 20.00     0.067 C 
HETATM    6  S6  UNL     1     -34.587   6.605   3.750  1.00 20.00    -0.168 SA
HETATM    7 BR7  UNL     1     -31.921   4.654   0.657  1.00 20.00    -0.090 Br
ENDROOT
TORSDOF 0
ENDMDL
MODEL 4
REMARK VINA RESULT:       0.4      2.783      3.672
REMARK  0 active torsions:
REMARK  status: ('A' for Active; 'I' for Inactive)
ROOT
HETATM    1  C1  UNL     1     -33.391   5.371   2.688  1.00 20.00     0.011 C 
HETATM    2  C2  UNL     1     -32.888   6.290   1.576  1.00 20.00     0.017 C 
HETATM    3  C3  UNL     1     -34.495   5.999   3.528  1.00 20.00     0.074 C 
HETATM    4  C4  UNL     1     -33.337   8.422   2.903  1.00 20.00     0.089 C 
HETATM    5  C5  UNL     1     -32.324   7.600   2.118  1.00 20.00     0.067 C 
HETATM    6  S6  UNL     1     -33.936   7.514   4.358  1.00 20.00    -0.168 SA
HETATM    7 BR7  UNL     1     -31.699   8.680   0.600  1.00 20.00    -0.090 Br
ENDROOT
TORSDOF 0
ENDMDL
MODEL 5
REMARK VINA RESULT:       0.5      2.543      3.328
REMARK  0 active torsions:
REMARK  status: ('A' for Active; 'I' for Inactive)
ROOT
HETATM    1  C1  UNL     1     -35.349   6.323   4.012  1.00 20.00     0.011 C 
HETATM    2  C2  UNL     1     -34.241   7.246   3.508  1.00 20.00     0.017 C 
HETATM    3  C3  UNL     1     -34.821   5.019   4.594  1.00 20.00     0.074 C 
HETATM    4  C4  UNL     1     -32.698   5.320   2.860  1.00 20.00     0.089 C 
HETATM    5  C5  UNL     1     -33.399   6.597   2.414  1.00 20.00     0.067 C 
HETATM    6  S6  UNL     1     -33.899   4.053   3.364  1.00 20.00    -0.168 SA
HETATM    7 BR7  UNL     1     -32.027   7.883   1.843  1.00 20.00    -0.090 Br
ENDROOT
TORSDOF 0
ENDMDL
MODEL 6
REMARK VINA RESULT:       1.0      1.461      2.364
REMARK  0 active torsions:
REMARK  status: ('A' for Active; 'I' for Inactive)
ROOT
HETATM    1  C1  UNL     1     -33.403   5.503   1.812  1.00 20.00     0.011 C 
HETATM    2  C2  UNL     1     -33.644   6.053   3.217  1.00 20.00     0.017 C 
HETATM    3  C3  UNL     1     -32.027   5.854   1.261  1.00 20.00     0.074 C 
HETATM    4  C4  UNL     1     -32.170   8.103   2.851  1.00 20.00     0.089 C 
HETATM    5  C5  UNL     1     -33.535   7.574   3.270  1.00 20.00     0.067 C 
HETATM    6  S6  UNL     1     -31.788   7.650   1.134  1.00 20.00    -0.168 SA
HETATM    7 BR7  UNL     1     -33.879   8.155   5.115  1.00 20.00    -0.090 Br
ENDROOT
TORSDOF 0
ENDMDL
MODEL 7
REMARK VINA RESULT:       1.1      2.630      3.614
REMARK  0 active torsions:
REMARK  status: ('A' for Active; 'I' for Inactive)
ROOT
HETATM    1  C1  UNL     1     -34.658   5.002   4.211  1.00 20.00     0.011 C 
HETATM    2  C2  UNL     1     -33.937   4.694   2.899  1.00 20.00     0.017 C 
HETATM    3  C3  UNL     1     -35.293   6.386   4.232  1.00 20.00     0.074 C 
HETATM    4  C4  UNL     1     -33.291   7.127   2.485  1.00 20.00     0.089 C 
HETATM    5  C5  UNL     1     -32.815   5.685   2.608  1.00 20.00     0.067 C 
HETATM    6  S6  UNL     1     -34.056   7.701   4.030  1.00 20.00    -0.168 SA
HETATM    7 BR7  UNL     1     -31.961   5.174   0.914  1.00 20.00    -0.090 Br
ENDROOT
TORSDOF 0
ENDMDL
MODEL 8
REMARK VINA RESULT:       1.1      2.492      3.063
REMARK  0 active torsions:
REMARK  status: ('A' for Active; 'I' for Inactive)
ROOT
HETATM    1  C1  UNL     1     -33.129   6.195   2.141  1.00 20.00     0.011 C 
HETATM    2  C2  UNL     1     -32.713   4.946   2.917  1.00 20.00     0.017 C 
HETATM    3  C3  UNL     1     -33.807   7.242   3.015  1.00 20.00     0.074 C 
HETATM    4  C4  UNL     1     -34.641   5.127   4.578  1.00 20.00     0.089 C 
HETATM    5  C5  UNL     1     -33.900   4.251   3.576  1.00 20.00     0.067 C 
HETATM    6  S6  UNL     1     -35.329   6.605   3.775  1.00 20.00    -0.168 SA
HETATM    7 BR7  UNL     1     -33.240   2.661   4.523  1.00 20.00    -0.090 Br
ENDROOT
TORSDOF 0
ENDMDL
MODEL 9
REMARK VINA RESULT:       1.4      1.460      1.616
REMARK  0 active torsions:
REMARK  status: ('A' for Active; 'I' for Inactive)
ROOT
HETATM    1  C1  UNL     1     -33.838   8.083   3.746  1.00 20.00     0.011 C 
HETATM    2  C2  UNL     1     -34.320   6.643   3.917  1.00 20.00     0.017 C 
HETATM    3  C3  UNL     1     -33.445   8.414   2.312  1.00 20.00     0.074 C 
HETATM    4  C4  UNL     1     -32.817   5.740   2.064  1.00 20.00     0.089 C 
HETATM    5  C5  UNL     1     -33.256   5.625   3.517  1.00 20.00     0.067 C 
HETATM    6  S6  UNL     1     -32.082   7.366   1.725  1.00 20.00    -0.168 SA
HETATM    7 BR7  UNL     1     -33.988   3.823   3.797  1.00 20.00    -0.090 Br
ENDROOT
TORSDOF 0
ENDMDL
