MODEL 1
REMARK VINA RESULT:      -2.6      0.000      0.000
REMARK  1 active torsions:
REMARK  status: ('A' for Active; 'I' for Inactive)
REMARK    1  A    between atoms: C1_1  and  C3_3 
ROOT
HETATM    1  C3  UNL     1     -34.221   7.183   3.829  1.00 20.00     0.408 C 
HETATM    2  F4  UNL     1     -33.247   7.633   4.660  1.00 20.00    -0.167 F 
HETATM    3  F5  UNL     1     -35.204   6.675   4.615  1.00 20.00    -0.167 F 
HETATM    4  F6  UNL     1     -34.741   8.273   3.208  1.00 20.00    -0.167 F 
ENDROOT
BRANCH   1   5
HETATM    5  C1  UNL     1     -33.699   6.159   2.884  1.00 20.00     0.096 C 
HETATM    6  C2  UNL     1     -32.765   6.399   1.959  1.00 20.00     0.060 C 
HETATM    7 BR7  UNL     1     -31.957   8.047   1.692  1.00 20.00    -0.064 Br
ENDBRANCH   1   5
TORSDOF 1
ENDMDL
MODEL 2
REMARK VINA RESULT:      -2.6      0.022      1.429
REMARK  1 active torsions:
REMARK  status: ('A' for Active; 'I' for Inactive)
REMARK    1  A    between atoms: C1_1  and  C3_3 
ROOT
HETATM    1  C3  UNL     1     -34.217   7.169   3.841  1.00 20.00     0.408 C 
HETATM    2  F4  UNL     1     -35.209   6.663   4.618  1.00 20.00    -0.167 F 
HETATM    3  F5  UNL     1     -34.730   8.253   3.206  1.00 20.00    -0.167 F 
HETATM    4  F6  UNL     1     -33.255   7.627   4.683  1.00 20.00    -0.167 F 
ENDROOT
BRANCH   1   5
HETATM    5  C1  UNL     1     -33.718   6.156   2.871  1.00 20.00     0.096 C 
HETATM    6  C2  UNL     1     -32.784   6.400   1.946  1.00 20.00     0.060 C 
HETATM    7 BR7  UNL     1     -31.946   8.038   1.714  1.00 20.00    -0.064 Br
ENDBRANCH   1   5
TORSDOF 1
ENDMDL
MODEL 3
REMARK VINA RESULT:      -2.5      2.600      3.404
REMARK  1 active torsions:
REMARK  status: ('A' for Active; 'I' for Inactive)
REMARK    1  A    between atoms: C1_1  and  C3_3 
ROOT
HETATM    1  C3  UNL     1     -32.020   7.932   1.743  1.00 20.00     0.408 C 
HETATM    2  F4  UNL     1     -32.909   8.878   1.344  1.00 20.00    -0.167 F 
HETATM    3  F5  UNL     1     -30.977   7.984   0.876  1.00 20.00    -0.167 F 
HETATM    4  F6  UNL     1     -31.545   8.325   2.952  1.00 20.00    -0.167 F 
ENDROOT
BRANCH   1   5
HETATM    5  C1  UNL     1     -32.641   6.579   1.764  1.00 20.00     0.096 C 
HETATM    6  C2  UNL     1     -33.580   6.199   2.634  1.00 20.00     0.060 C 
HETATM    7 BR7  UNL     1     -34.276   7.288   3.964  1.00 20.00    -0.064 Br
ENDBRANCH   1   5
TORSDOF 1
ENDMDL
MODEL 4
REMARK VINA RESULT:      -2.5      2.604      3.172
REMARK  1 active torsions:
REMARK  status: ('A' for Active; 'I' for Inactive)
REMARK    1  A    between atoms: C1_1  and  C3_3 
ROOT
HETATM    1  C3  UNL     1     -32.027   7.947   1.724  1.00 20.00     0.408 C 
HETATM    2  F4  UNL     1     -30.981   8.003   0.860  1.00 20.00    -0.167 F 
HETATM    3  F5  UNL     1     -31.550   8.312   2.941  1.00 20.00    -0.167 F 
HETATM    4  F6  UNL     1     -32.903   8.911   1.341  1.00 20.00    -0.167 F 
ENDROOT
BRANCH   1   5
HETATM    5  C1  UNL     1     -32.626   6.585   1.763  1.00 20.00     0.096 C 
HETATM    6  C2  UNL     1     -33.562   6.203   2.637  1.00 20.00     0.060 C 
HETATM    7 BR7  UNL     1     -34.276   7.300   3.950  1.00 20.00    -0.064 Br
ENDBRANCH   1   5
TORSDOF 1
ENDMDL
MODEL 5
REMARK VINA RESULT:      -2.4      3.008      3.463
REMARK  1 active torsions:
REMARK  status: ('A' for Active; 'I' for Inactive)
REMARK    1  A    between atoms: C1_1  and  C3_3 
ROOT
HETATM    1  C3  UNL     1     -32.612   5.783   1.476  1.00 20.00     0.408 C 
HETATM    2  F4  UNL     1     -31.581   5.074   0.950  1.00 20.00    -0.167 F 
HETATM    3  F5  UNL     1     -33.601   5.785   0.547  1.00 20.00    -0.167 F 
HETATM    4  F6  UNL     1     -33.073   5.073   2.539  1.00 20.00    -0.167 F 
ENDROOT
BRANCH   1   5
HETATM    5  C1  UNL     1     -32.194   7.167   1.827  1.00 20.00     0.096 C 
HETATM    6  C2  UNL     1     -32.771   7.905   2.781  1.00 20.00     0.060 C 
HETATM    7 BR7  UNL     1     -34.186   7.333   3.833  1.00 20.00    -0.064 Br
ENDBRANCH   1   5
TORSDOF 1
ENDMDL
MODEL 6
REMARK VINA RESULT:      -2.4      3.008      3.429
REMARK  1 active torsions:
REMARK  status: ('A' for Active; 'I' for Inactive)
REMARK    1  A    between atoms: C1_1  and  C3_3 
ROOT
HETATM    1  C3  UNL     1     -32.618   5.793   1.466  1.00 20.00     0.408 C 
HETATM    2  F4  UNL     1     -33.078   5.104   2.541  1.00 20.00    -0.167 F 
HETATM    3  F5  UNL     1     -31.577   5.084   0.961  1.00 20.00    -0.167 F 
HETATM    4  F6  UNL     1     -33.602   5.764   0.531  1.00 20.00    -0.167 F 
ENDROOT
BRANCH   1   5
HETATM    5  C1  UNL     1     -32.202   7.172   1.842  1.00 20.00     0.096 C 
HETATM    6  C2  UNL     1     -32.787   7.897   2.801  1.00 20.00     0.060 C 
HETATM    7 BR7  UNL     1     -34.215   7.311   3.829  1.00 20.00    -0.064 Br
ENDBRANCH   1   5
TORSDOF 1
ENDMDL
MODEL 7
REMARK VINA RESULT:      -2.3      3.008      3.480
REMARK  1 active torsions:
REMARK  status: ('A' for Active; 'I' for Inactive)
REMARK    1  A    between atoms: C1_1  and  C3_3 
ROOT
HETATM    1  C3  UNL     1     -32.605   5.792   1.469  1.00 20.00     0.408 C 
HETATM    2  F4  UNL     1     -33.600   5.799   0.546  1.00 20.00    -0.167 F 
HETATM    3  F5  UNL     1     -33.071   5.105   2.543  1.00 20.00    -0.167 F 
HETATM    4  F6  UNL     1     -31.589   5.060   0.945  1.00 20.00    -0.167 F 
ENDROOT
BRANCH   1   5
HETATM    5  C1  UNL     1     -32.204   7.176   1.844  1.00 20.00     0.096 C 
HETATM    6  C2  UNL     1     -32.798   7.896   2.800  1.00 20.00     0.060 C 
HETATM    7 BR7  UNL     1     -34.222   7.298   3.827  1.00 20.00    -0.064 Br
ENDBRANCH   1   5
TORSDOF 1
ENDMDL
MODEL 8
REMARK VINA RESULT:      -2.3      2.916      3.385
REMARK  1 active torsions:
REMARK  status: ('A' for Active; 'I' for Inactive)
REMARK    1  A    between atoms: C1_1  and  C3_3 
ROOT
HETATM    1  C3  UNL     1     -32.826   6.178   1.923  1.00 20.00     0.408 C 
HETATM    2  F4  UNL     1     -31.587   6.129   1.371  1.00 20.00    -0.167 F 
HETATM    3  F5  UNL     1     -33.713   6.198   0.896  1.00 20.00    -0.167 F 
HETATM    4  F6  UNL     1     -33.010   5.001   2.577  1.00 20.00    -0.167 F 
ENDROOT
BRANCH   1   5
HETATM    5  C1  UNL     1     -32.983   7.370   2.799  1.00 20.00     0.096 C 
HETATM    6  C2  UNL     1     -33.955   7.512   3.706  1.00 20.00     0.060 C 
HETATM    7 BR7  UNL     1     -35.272   6.248   4.033  1.00 20.00    -0.064 Br
ENDBRANCH   1   5
TORSDOF 1
ENDMDL
MODEL 9
REMARK VINA RESULT:      -2.2      1.763      2.172
REMARK  1 active torsions:
REMARK  status: ('A' for Active; 'I' for Inactive)
REMARK    1  A    between atoms: C1_1  and  C3_3 
ROOT
HETATM    1  C3  UNL     1     -35.017   6.341   3.975  1.00 20.00     0.408 C 
HETATM    2  F4  UNL     1     -35.986   6.478   3.035  1.00 20.00    -0.167 F 
HETATM    3  F5  UNL     1     -35.638   6.339   5.182  1.00 20.00    -0.167 F 
HETATM    4  F6  UNL     1     -34.481   5.104   3.808  1.00 20.00    -0.167 F 
ENDROOT
BRANCH   1   5
HETATM    5  C1  UNL     1     -34.013   7.436   3.884  1.00 20.00     0.096 C 
HETATM    6  C2  UNL     1     -33.035   7.484   2.974  1.00 20.00     0.060 C 
HETATM    7 BR7  UNL     1     -32.760   6.197   1.667  1.00 20.00    -0.064 Br
ENDBRANCH   1   5
TORSDOF 1
ENDMDL
