MODEL 1
REMARK VINA RESULT:       2.0      0.000      0.000
REMARK  0 active torsions:
REMARK  status: ('A' for Active; 'I' for Inactive)
ROOT
HETATM    1  C1  UNL     1     -32.409   6.435   1.765  1.00 20.00     0.136 C 
HETATM    2  C2  UNL     1     -33.481   6.450   2.852  1.00 20.00     0.084 C 
HETATM    3  C3  UNL     1     -32.086   9.835   0.159  1.00 20.00     0.002 C 
HETATM    4  C4  UNL     1     -33.078   9.965   1.334  1.00 20.00     0.006 C 
HETATM    5  C5  UNL     1     -32.254   8.409   3.859  1.00 20.00     0.006 C 
HETATM    6  C6  UNL     1     -31.502   8.404   0.206  1.00 20.00     0.018 C 
HETATM    7  C7  UNL     1     -31.166   8.278   2.779  1.00 20.00     0.018 C 
HETATM    8  C8  UNL     1     -33.538   7.986   3.123  1.00 20.00    -0.002 C 
HETATM    9  C9  UNL     1     -33.344   8.522   1.709  1.00 20.00     0.006 C 
HETATM   10  C10 UNL     1     -31.968   7.862   1.529  1.00 20.00     0.024 C 
HETATM   11  O11 UNL     1     -31.968   5.442   1.211  1.00 20.00    -0.297 OA
ENDROOT
TORSDOF 0
ENDMDL
MODEL 2
REMARK VINA RESULT:       2.5      1.160      3.137
REMARK  0 active torsions:
REMARK  status: ('A' for Active; 'I' for Inactive)
ROOT
HETATM    1  C1  UNL     1     -31.829   5.998   1.673  1.00 20.00     0.136 C 
HETATM    2  C2  UNL     1     -30.948   7.245   1.653  1.00 20.00     0.084 C 
HETATM    3  C3  UNL     1     -34.776   6.481   3.981  1.00 20.00     0.002 C 
HETATM    4  C4  UNL     1     -34.018   7.822   3.903  1.00 20.00     0.006 C 
HETATM    5  C5  UNL     1     -33.027   8.551   1.081  1.00 20.00     0.006 C 
HETATM    6  C6  UNL     1     -34.118   5.521   2.962  1.00 20.00     0.018 C 
HETATM    7  C7  UNL     1     -33.833   7.242   1.037  1.00 20.00     0.018 C 
HETATM    8  C8  UNL     1     -31.983   8.288   2.181  1.00 20.00    -0.002 C 
HETATM    9  C9  UNL     1     -32.731   7.440   3.202  1.00 20.00     0.006 C 
HETATM   10  C10 UNL     1     -33.198   6.406   2.167  1.00 20.00     0.024 C 
HETATM   11  O11 UNL     1     -31.491   4.880   1.322  1.00 20.00    -0.297 OA
ENDROOT
TORSDOF 0
ENDMDL
MODEL 3
REMARK VINA RESULT:       2.6      1.752      2.474
REMARK  0 active torsions:
REMARK  status: ('A' for Active; 'I' for Inactive)
ROOT
HETATM    1  C1  UNL     1     -34.163   5.363   3.668  1.00 20.00     0.136 C 
HETATM    2  C2  UNL     1     -35.410   6.180   3.996  1.00 20.00     0.084 C 
HETATM    3  C3  UNL     1     -31.956   7.215   1.229  1.00 20.00     0.002 C 
HETATM    4  C4  UNL     1     -33.114   8.156   1.620  1.00 20.00     0.006 C 
HETATM    5  C5  UNL     1     -33.856   8.069   4.606  1.00 20.00     0.006 C 
HETATM    6  C6  UNL     1     -32.075   5.949   2.110  1.00 20.00     0.018 C 
HETATM    7  C7  UNL     1     -32.647   7.158   4.336  1.00 20.00     0.018 C 
HETATM    8  C8  UNL     1     -34.897   7.594   3.578  1.00 20.00    -0.002 C 
HETATM    9  C9  UNL     1     -34.064   7.232   2.354  1.00 20.00     0.006 C 
HETATM   10  C10 UNL     1     -33.114   6.312   3.134  1.00 20.00     0.024 C 
HETATM   11  O11 UNL     1     -34.032   4.162   3.836  1.00 20.00    -0.297 OA
ENDROOT
TORSDOF 0
ENDMDL
MODEL 4
REMARK VINA RESULT:       3.1      1.031      3.026
REMARK  0 active torsions:
REMARK  status: ('A' for Active; 'I' for Inactive)
ROOT
HETATM    1  C1  UNL     1     -32.657   6.164   1.542  1.00 20.00     0.136 C 
HETATM    2  C2  UNL     1     -31.285   6.771   1.260  1.00 20.00     0.084 C 
HETATM    3  C3  UNL     1     -34.156   7.647   4.673  1.00 20.00     0.002 C 
HETATM    4  C4  UNL     1     -32.846   8.407   4.376  1.00 20.00     0.006 C 
HETATM    5  C5  UNL     1     -32.398   9.030   1.395  1.00 20.00     0.006 C 
HETATM    6  C6  UNL     1     -34.412   6.690   3.486  1.00 20.00     0.018 C 
HETATM    7  C7  UNL     1     -33.760   8.344   1.592  1.00 20.00     0.018 C 
HETATM    8  C8  UNL     1     -31.415   8.080   2.102  1.00 20.00    -0.002 C 
HETATM    9  C9  UNL     1     -32.204   7.559   3.297  1.00 20.00     0.006 C 
HETATM   10  C10 UNL     1     -33.406   7.113   2.451  1.00 20.00     0.024 C 
HETATM   11  O11 UNL     1     -33.081   5.115   1.089  1.00 20.00    -0.297 OA
ENDROOT
TORSDOF 0
ENDMDL
MODEL 5
REMARK VINA RESULT:       3.5      1.760      3.023
REMARK  0 active torsions:
REMARK  status: ('A' for Active; 'I' for Inactive)
ROOT
HETATM    1  C1  UNL     1     -33.975   6.231   3.164  1.00 20.00     0.136 C 
HETATM    2  C2  UNL     1     -33.288   4.868   3.130  1.00 20.00     0.084 C 
HETATM    3  C3  UNL     1     -31.912   8.813   1.341  1.00 20.00     0.002 C 
HETATM    4  C4  UNL     1     -31.230   7.444   1.141  1.00 20.00     0.006 C 
HETATM    5  C5  UNL     1     -33.187   5.124   0.623  1.00 20.00     0.006 C 
HETATM    6  C6  UNL     1     -33.249   8.559   2.074  1.00 20.00     0.018 C 
HETATM    7  C7  UNL     1     -33.957   6.451   0.731  1.00 20.00     0.018 C 
HETATM    8  C8  UNL     1     -32.342   5.098   1.909  1.00 20.00    -0.002 C 
HETATM    9  C9  UNL     1     -31.962   6.558   2.128  1.00 20.00     0.006 C 
HETATM   10  C10 UNL     1     -33.409   7.064   2.036  1.00 20.00     0.024 C 
HETATM   11  O11 UNL     1     -34.846   6.572   3.946  1.00 20.00    -0.297 OA
ENDROOT
TORSDOF 0
ENDMDL
MODEL 6
REMARK VINA RESULT:       3.6      1.731      3.408
REMARK  0 active torsions:
REMARK  status: ('A' for Active; 'I' for Inactive)
ROOT
HETATM    1  C1  UNL     1     -32.766   9.315   1.241  1.00 20.00     0.136 C 
HETATM    2  C2  UNL     1     -31.843   8.585   0.269  1.00 20.00     0.084 C 
HETATM    3  C3  UNL     1     -34.347   6.888   3.660  1.00 20.00     0.002 C 
HETATM    4  C4  UNL     1     -33.327   6.103   2.810  1.00 20.00     0.006 C 
HETATM    5  C5  UNL     1     -30.694   7.610   2.290  1.00 20.00     0.006 C 
HETATM    6  C6  UNL     1     -34.202   8.382   3.290  1.00 20.00     0.018 C 
HETATM    7  C7  UNL     1     -31.607   8.442   3.206  1.00 20.00     0.018 C 
HETATM    8  C8  UNL     1     -31.599   7.280   1.090  1.00 20.00    -0.002 C 
HETATM    9  C9  UNL     1     -32.977   7.087   1.713  1.00 20.00     0.006 C 
HETATM   10  C10 UNL     1     -32.953   8.432   2.454  1.00 20.00     0.024 C 
HETATM   11  O11 UNL     1     -33.241  10.426   1.077  1.00 20.00    -0.297 OA
ENDROOT
TORSDOF 0
ENDMDL
MODEL 7
REMARK VINA RESULT:       3.7      2.221      3.999
REMARK  0 active torsions:
REMARK  status: ('A' for Active; 'I' for Inactive)
ROOT
HETATM    1  C1  UNL     1     -32.930   7.551   2.924  1.00 20.00     0.136 C 
HETATM    2  C2  UNL     1     -33.663   8.200   4.095  1.00 20.00     0.084 C 
HETATM    3  C3  UNL     1     -33.303   3.797   3.030  1.00 20.00     0.002 C 
HETATM    4  C4  UNL     1     -34.182   4.386   4.152  1.00 20.00     0.006 C 
HETATM    5  C5  UNL     1     -35.712   6.934   3.350  1.00 20.00     0.006 C 
HETATM    6  C6  UNL     1     -32.744   4.984   2.211  1.00 20.00     0.018 C 
HETATM    7  C7  UNL     1     -34.931   6.385   2.144  1.00 20.00     0.018 C 
HETATM    8  C8  UNL     1     -34.641   7.037   4.450  1.00 20.00    -0.002 C 
HETATM    9  C9  UNL     1     -33.740   5.834   4.199  1.00 20.00     0.006 C 
HETATM   10  C10 UNL     1     -33.515   6.172   2.718  1.00 20.00     0.024 C 
HETATM   11  O11 UNL     1     -32.050   8.069   2.257  1.00 20.00    -0.297 OA
ENDROOT
TORSDOF 0
ENDMDL
MODEL 8
REMARK VINA RESULT:       3.8      2.226      3.360
REMARK  0 active torsions:
REMARK  status: ('A' for Active; 'I' for Inactive)
ROOT
HETATM    1  C1  UNL     1     -33.452   7.705   4.670  1.00 20.00     0.136 C 
HETATM    2  C2  UNL     1     -34.437   6.644   5.154  1.00 20.00     0.084 C 
HETATM    3  C3  UNL     1     -32.066   6.796   1.279  1.00 20.00     0.002 C 
HETATM    4  C4  UNL     1     -33.152   5.759   1.634  1.00 20.00     0.006 C 
HETATM    5  C5  UNL     1     -35.653   6.960   2.968  1.00 20.00     0.006 C 
HETATM    6  C6  UNL     1     -32.088   7.881   2.381  1.00 20.00     0.018 C 
HETATM    7  C7  UNL     1     -34.670   8.079   2.586  1.00 20.00     0.018 C 
HETATM    8  C8  UNL     1     -34.784   5.985   3.782  1.00 20.00    -0.002 C 
HETATM    9  C9  UNL     1     -33.424   6.046   3.096  1.00 20.00     0.006 C 
HETATM   10  C10 UNL     1     -33.332   7.578   3.168  1.00 20.00     0.024 C 
HETATM   11  O11 UNL     1     -32.886   8.527   5.372  1.00 20.00    -0.297 OA
ENDROOT
TORSDOF 0
ENDMDL
MODEL 9
REMARK VINA RESULT:       4.1      1.764      3.598
REMARK  0 active torsions:
REMARK  status: ('A' for Active; 'I' for Inactive)
ROOT
HETATM    1  C1  UNL     1     -32.034   8.041   2.682  1.00 20.00     0.136 C 
HETATM    2  C2  UNL     1     -32.116   7.966   1.159  1.00 20.00     0.084 C 
HETATM    3  C3  UNL     1     -35.215   6.759   4.257  1.00 20.00     0.002 C 
HETATM    4  C4  UNL     1     -35.316   6.519   2.736  1.00 20.00     0.006 C 
HETATM    5  C5  UNL     1     -32.706   5.530   1.439  1.00 20.00     0.006 C 
HETATM    6  C6  UNL     1     -33.789   7.283   4.546  1.00 20.00     0.018 C 
HETATM    7  C7  UNL     1     -32.522   5.663   2.960  1.00 20.00     0.018 C 
HETATM    8  C8  UNL     1     -33.255   6.907   1.025  1.00 20.00    -0.002 C 
HETATM    9  C9  UNL     1     -34.146   7.313   2.193  1.00 20.00     0.006 C 
HETATM   10  C10 UNL     1     -33.055   7.081   3.250  1.00 20.00     0.024 C 
HETATM   11  O11 UNL     1     -31.259   8.732   3.322  1.00 20.00    -0.297 OA
ENDROOT
TORSDOF 0
ENDMDL
