MODEL 1
REMARK VINA RESULT:       3.6      0.000      0.000
REMARK  0 active torsions:
REMARK  status: ('A' for Active; 'I' for Inactive)
ROOT
HETATM    1  C1  UNL     1     -32.946   7.927   1.211  1.00 20.00     0.136 C 
HETATM    2  C2  UNL     1     -33.655   6.852   0.420  1.00 20.00     0.084 C 
HETATM    3  C3  UNL     1     -33.857   8.000   4.194  1.00 20.00     0.002 C 
HETATM    4  C4  UNL     1     -34.513   6.872   3.371  1.00 20.00     0.006 C 
HETATM    5  C5  UNL     1     -31.750   5.387   1.173  1.00 20.00     0.006 C 
HETATM    6  C6  UNL     1     -32.396   8.140   3.712  1.00 20.00     0.018 C 
HETATM    7  C7  UNL     1     -31.106   6.541   1.997  1.00 20.00     0.018 C 
HETATM    8  C8  UNL     1     -33.284   5.644   1.303  1.00 20.00    -0.002 C 
HETATM    9  C9  UNL     1     -33.331   6.162   2.736  1.00 20.00     0.006 C 
HETATM   10  C10 UNL     1     -32.342   7.298   2.468  1.00 20.00     0.024 C 
HETATM   11  O11 UNL     1     -32.854   9.098   0.880  1.00 20.00    -0.297 OA
ENDROOT
TORSDOF 0
ENDMDL
MODEL 2
REMARK VINA RESULT:       3.6      2.062      3.611
REMARK  0 active torsions:
REMARK  status: ('A' for Active; 'I' for Inactive)
ROOT
HETATM    1  C1  UNL     1     -33.891   5.172   3.685  1.00 20.00     0.136 C 
HETATM    2  C2  UNL     1     -35.303   5.681   3.856  1.00 20.00     0.084 C 
HETATM    3  C3  UNL     1     -32.884   5.431   0.744  1.00 20.00     0.002 C 
HETATM    4  C4  UNL     1     -34.300   6.000   0.969  1.00 20.00     0.006 C 
HETATM    5  C5  UNL     1     -34.189   7.896   4.296  1.00 20.00     0.006 C 
HETATM    6  C6  UNL     1     -32.044   5.760   1.998  1.00 20.00     0.018 C 
HETATM    7  C7  UNL     1     -32.770   7.299   4.063  1.00 20.00     0.018 C 
HETATM    8  C8  UNL     1     -35.096   7.105   3.302  1.00 20.00    -0.002 C 
HETATM    9  C9  UNL     1     -34.120   6.947   2.141  1.00 20.00     0.006 C 
HETATM   10  C10 UNL     1     -33.057   6.252   2.994  1.00 20.00     0.024 C 
HETATM   11  O11 UNL     1     -33.485   4.084   4.063  1.00 20.00    -0.297 OA
ENDROOT
TORSDOF 0
ENDMDL
MODEL 3
REMARK VINA RESULT:       3.9      1.972      2.906
REMARK  0 active torsions:
REMARK  status: ('A' for Active; 'I' for Inactive)
ROOT
HETATM    1  C1  UNL     1     -33.281   4.980   3.140  1.00 20.00     0.136 C 
HETATM    2  C2  UNL     1     -31.876   4.981   2.584  1.00 20.00     0.084 C 
HETATM    3  C3  UNL     1     -34.050   7.715   4.429  1.00 20.00     0.002 C 
HETATM    4  C4  UNL     1     -32.645   7.700   3.793  1.00 20.00     0.006 C 
HETATM    5  C5  UNL     1     -32.976   5.812   0.476  1.00 20.00     0.006 C 
HETATM    6  C6  UNL     1     -34.978   6.869   3.529  1.00 20.00     0.018 C 
HETATM    7  C7  UNL     1     -34.385   5.819   1.140  1.00 20.00     0.018 C 
HETATM    8  C8  UNL     1     -32.011   6.194   1.641  1.00 20.00    -0.002 C 
HETATM    9  C9  UNL     1     -32.897   7.187   2.387  1.00 20.00     0.006 C 
HETATM   10  C10 UNL     1     -34.036   6.185   2.578  1.00 20.00     0.024 C 
HETATM   11  O11 UNL     1     -33.737   4.136   3.895  1.00 20.00    -0.297 OA
ENDROOT
TORSDOF 0
ENDMDL
MODEL 4
REMARK VINA RESULT:       4.1      1.554      2.731
REMARK  0 active torsions:
REMARK  status: ('A' for Active; 'I' for Inactive)
ROOT
HETATM    1  C1  UNL     1     -32.516   6.536   1.734  1.00 20.00     0.136 C 
HETATM    2  C2  UNL     1     -31.066   6.942   1.853  1.00 20.00     0.084 C 
HETATM    3  C3  UNL     1     -34.176   7.309   4.259  1.00 20.00     0.002 C 
HETATM    4  C4  UNL     1     -32.704   7.766   4.319  1.00 20.00     0.006 C 
HETATM    5  C5  UNL     1     -31.845   9.110   0.836  1.00 20.00     0.006 C 
HETATM    6  C6  UNL     1     -34.657   7.474   2.800  1.00 20.00     0.018 C 
HETATM    7  C7  UNL     1     -33.325   8.628   0.787  1.00 20.00     0.018 C 
HETATM    8  C8  UNL     1     -31.276   8.444   2.128  1.00 20.00    -0.002 C 
HETATM    9  C9  UNL     1     -32.514   8.522   3.016  1.00 20.00     0.006 C 
HETATM   10  C10 UNL     1     -33.396   7.752   2.032  1.00 20.00     0.024 C 
HETATM   11  O11 UNL     1     -32.912   5.423   1.425  1.00 20.00    -0.297 OA
ENDROOT
TORSDOF 0
ENDMDL
MODEL 5
REMARK VINA RESULT:       4.2      1.561      2.863
REMARK  0 active torsions:
REMARK  status: ('A' for Active; 'I' for Inactive)
ROOT
HETATM    1  C1  UNL     1     -34.401   6.214   1.617  1.00 20.00     0.136 C 
HETATM    2  C2  UNL     1     -35.460   6.792   2.526  1.00 20.00     0.084 C 
HETATM    3  C3  UNL     1     -31.708   7.779   1.787  1.00 20.00     0.002 C 
HETATM    4  C4  UNL     1     -32.794   8.302   2.751  1.00 20.00     0.006 C 
HETATM    5  C5  UNL     1     -34.502   5.213   4.238  1.00 20.00     0.006 C 
HETATM    6  C6  UNL     1     -31.834   6.241   1.734  1.00 20.00     0.018 C 
HETATM    7  C7  UNL     1     -33.414   4.701   3.248  1.00 20.00     0.018 C 
HETATM    8  C8  UNL     1     -34.681   6.715   3.854  1.00 20.00    -0.002 C 
HETATM    9  C9  UNL     1     -33.238   7.056   3.494  1.00 20.00     0.006 C 
HETATM   10  C10 UNL     1     -33.134   5.958   2.434  1.00 20.00     0.024 C 
HETATM   11  O11 UNL     1     -34.549   5.970   0.429  1.00 20.00    -0.297 OA
ENDROOT
TORSDOF 0
ENDMDL
MODEL 6
REMARK VINA RESULT:       4.2      1.710      3.298
REMARK  0 active torsions:
REMARK  status: ('A' for Active; 'I' for Inactive)
ROOT
HETATM    1  C1  UNL     1     -33.086   7.444   4.311  1.00 20.00     0.136 C 
HETATM    2  C2  UNL     1     -33.298   6.007   4.728  1.00 20.00     0.084 C 
HETATM    3  C3  UNL     1     -31.843   7.681   1.460  1.00 20.00     0.002 C 
HETATM    4  C4  UNL     1     -32.132   6.229   1.893  1.00 20.00     0.006 C 
HETATM    5  C5  UNL     1     -35.548   6.278   3.628  1.00 20.00     0.006 C 
HETATM    6  C6  UNL     1     -32.986   8.566   2.002  1.00 20.00     0.018 C 
HETATM    7  C7  UNL     1     -35.232   7.742   3.201  1.00 20.00     0.018 C 
HETATM    8  C8  UNL     1     -34.167   5.555   3.538  1.00 20.00    -0.002 C 
HETATM    9  C9  UNL     1     -33.588   6.270   2.321  1.00 20.00     0.006 C 
HETATM   10  C10 UNL     1     -33.732   7.661   2.942  1.00 20.00     0.024 C 
HETATM   11  O11 UNL     1     -32.513   8.292   4.977  1.00 20.00    -0.297 OA
ENDROOT
TORSDOF 0
ENDMDL
MODEL 7
REMARK VINA RESULT:       4.2      1.499      2.249
REMARK  0 active torsions:
REMARK  status: ('A' for Active; 'I' for Inactive)
ROOT
HETATM    1  C1  UNL     1     -33.830   5.992   0.995  1.00 20.00     0.136 C 
HETATM    2  C2  UNL     1     -32.602   5.161   0.706  1.00 20.00     0.084 C 
HETATM    3  C3  UNL     1     -34.931   5.521   3.876  1.00 20.00     0.002 C 
HETATM    4  C4  UNL     1     -33.639   4.736   3.567  1.00 20.00     0.006 C 
HETATM    5  C5  UNL     1     -31.349   7.133   1.647  1.00 20.00     0.006 C 
HETATM    6  C6  UNL     1     -34.815   6.899   3.188  1.00 20.00     0.018 C 
HETATM    7  C7  UNL     1     -32.667   7.905   1.950  1.00 20.00     0.018 C 
HETATM    8  C8  UNL     1     -31.728   5.637   1.883  1.00 20.00    -0.002 C 
HETATM    9  C9  UNL     1     -32.689   5.804   3.056  1.00 20.00     0.006 C 
HETATM   10  C10 UNL     1     -33.611   6.761   2.299  1.00 20.00     0.024 C 
HETATM   11  O11 UNL     1     -34.822   6.053   0.285  1.00 20.00    -0.297 OA
ENDROOT
TORSDOF 0
ENDMDL
MODEL 8
REMARK VINA RESULT:       4.6      0.852      3.135
REMARK  0 active torsions:
REMARK  status: ('A' for Active; 'I' for Inactive)
ROOT
HETATM    1  C1  UNL     1     -32.653   8.026   1.769  1.00 20.00     0.136 C 
HETATM    2  C2  UNL     1     -31.990   8.196   3.116  1.00 20.00     0.084 C 
HETATM    3  C3  UNL     1     -32.339   5.131   0.649  1.00 20.00     0.002 C 
HETATM    4  C4  UNL     1     -31.730   5.324   2.053  1.00 20.00     0.006 C 
HETATM    5  C5  UNL     1     -34.220   7.462   4.030  1.00 20.00     0.006 C 
HETATM    6  C6  UNL     1     -33.636   5.969   0.584  1.00 20.00     0.018 C 
HETATM    7  C7  UNL     1     -34.813   7.274   2.602  1.00 20.00     0.018 C 
HETATM    8  C8  UNL     1     -32.719   7.064   3.868  1.00 20.00    -0.002 C 
HETATM    9  C9  UNL     1     -32.867   5.936   2.852  1.00 20.00     0.006 C 
HETATM   10  C10 UNL     1     -33.584   6.814   1.826  1.00 20.00     0.024 C 
HETATM   11  O11 UNL     1     -32.485   8.757   0.805  1.00 20.00    -0.297 OA
ENDROOT
TORSDOF 0
ENDMDL
MODEL 9
REMARK VINA RESULT:       4.8      1.606      2.972
REMARK  0 active torsions:
REMARK  status: ('A' for Active; 'I' for Inactive)
ROOT
HETATM    1  C1  UNL     1     -32.464   6.421   1.985  1.00 20.00     0.136 C 
HETATM    2  C2  UNL     1     -33.963   6.238   1.931  1.00 20.00     0.084 C 
HETATM    3  C3  UNL     1     -31.539   9.056   0.594  1.00 20.00     0.002 C 
HETATM    4  C4  UNL     1     -33.070   8.868   0.614  1.00 20.00     0.006 C 
HETATM    5  C5  UNL     1     -33.950   7.528   4.094  1.00 20.00     0.006 C 
HETATM    6  C6  UNL     1     -30.985   8.522   1.934  1.00 20.00     0.018 C 
HETATM    7  C7  UNL     1     -32.404   7.706   4.051  1.00 20.00     0.018 C 
HETATM    8  C8  UNL     1     -34.374   7.569   2.592  1.00 20.00    -0.002 C 
HETATM    9  C9  UNL     1     -33.375   8.600   2.077  1.00 20.00     0.006 C 
HETATM   10  C10 UNL     1     -32.155   7.808   2.551  1.00 20.00     0.024 C 
HETATM   11  O11 UNL     1     -31.640   5.583   1.652  1.00 20.00    -0.297 OA
ENDROOT
TORSDOF 0
ENDMDL
