MODEL 1
REMARK VINA RESULT:      -0.3      0.000      0.000
REMARK  2 active torsions:
REMARK  status: ('A' for Active; 'I' for Inactive)
REMARK    1  A    between atoms: C1_1  and  C8_8 
REMARK    2  A    between atoms: C8_8  and  O9_9 
ROOT
HETATM    1  C1  UNL     1     -33.319   5.384   3.620  1.00 20.00     0.026 A 
HETATM    2  C2  UNL     1     -33.304   6.190   2.330  1.00 20.00    -0.034 A 
HETATM    3  C3  UNL     1     -34.206   6.615   3.509  1.00 20.00    -0.034 A 
HETATM    4  C4  UNL     1     -32.051   6.988   2.032  1.00 20.00     0.016 C 
HETATM    5  C5  UNL     1     -33.923   5.634   1.067  1.00 20.00     0.016 C 
HETATM    6  C6  UNL     1     -35.708   6.474   3.401  1.00 20.00     0.016 C 
HETATM    7  C7  UNL     1     -33.818   7.820   4.340  1.00 20.00     0.016 C 
ENDROOT
BRANCH   1   8
HETATM    8  C8  UNL     1     -33.853   3.995   3.712  1.00 20.00     0.170 C 
BRANCH   8   9
HETATM    9  O9  UNL     1     -33.199   3.292   4.767  1.00 20.00    -0.400 OA
HETATM   10  H25 UNL     1     -33.483   2.367   4.697  1.00 20.00     0.209 HD
ENDBRANCH   8   9
ENDBRANCH   1   8
TORSDOF 2
ENDMDL
MODEL 2
REMARK VINA RESULT:       0.7      1.904      3.303
REMARK  2 active torsions:
REMARK  status: ('A' for Active; 'I' for Inactive)
REMARK    1  A    between atoms: C1_1  and  C8_8 
REMARK    2  A    between atoms: C8_8  and  O9_9 
ROOT
HETATM    1  C1  UNL     1     -33.703   7.486   2.449  1.00 20.00     0.026 A 
HETATM    2  C2  UNL     1     -32.380   7.950   1.857  1.00 20.00    -0.034 A 
HETATM    3  C3  UNL     1     -32.890   6.514   1.606  1.00 20.00    -0.034 A 
HETATM    4  C4  UNL     1     -32.447   8.965   0.736  1.00 20.00     0.016 C 
HETATM    5  C5  UNL     1     -31.177   8.179   2.745  1.00 20.00     0.016 C 
HETATM    6  C6  UNL     1     -32.188   5.339   2.249  1.00 20.00     0.016 C 
HETATM    7  C7  UNL     1     -33.446   6.154   0.243  1.00 20.00     0.016 C 
ENDROOT
BRANCH   1   8
HETATM    8  C8  UNL     1     -33.928   7.310   3.912  1.00 20.00     0.170 C 
BRANCH   8   9
HETATM    9  O9  UNL     1     -35.094   6.517   4.132  1.00 20.00    -0.400 OA
HETATM   10  H25 UNL     1     -35.432   6.276   3.255  1.00 20.00     0.209 HD
ENDBRANCH   8   9
ENDBRANCH   1   8
TORSDOF 2
ENDMDL
MODEL 3
REMARK VINA RESULT:       0.7      3.183      4.280
REMARK  2 active torsions:
REMARK  status: ('A' for Active; 'I' for Inactive)
REMARK    1  A    between atoms: C1_1  and  C8_8 
REMARK    2  A    between atoms: C8_8  and  O9_9 
ROOT
HETATM    1  C1  UNL     1     -33.078   8.345   1.422  1.00 20.00     0.026 A 
HETATM    2  C2  UNL     1     -32.328   7.055   1.722  1.00 20.00    -0.034 A 
HETATM    3  C3  UNL     1     -32.832   7.953   2.873  1.00 20.00    -0.034 A 
HETATM    4  C4  UNL     1     -33.049   5.757   1.426  1.00 20.00     0.016 C 
HETATM    5  C5  UNL     1     -30.845   6.945   1.444  1.00 20.00     0.016 C 
HETATM    6  C6  UNL     1     -31.844   8.722   3.720  1.00 20.00     0.016 C 
HETATM    7  C7  UNL     1     -34.036   7.514   3.680  1.00 20.00     0.016 C 
ENDROOT
BRANCH   1   8
HETATM    8  C8  UNL     1     -32.445   9.529   0.776  1.00 20.00     0.170 C 
BRANCH   8   9
HETATM    9  O9  UNL     1     -32.887   9.639  -0.577  1.00 20.00    -0.400 OA
HETATM   10  H25 UNL     1     -33.817   9.914  -0.540  1.00 20.00     0.209 HD
ENDBRANCH   8   9
ENDBRANCH   1   8
TORSDOF 2
ENDMDL
MODEL 4
REMARK VINA RESULT:       0.9      1.959      2.925
REMARK  2 active torsions:
REMARK  status: ('A' for Active; 'I' for Inactive)
REMARK    1  A    between atoms: C1_1  and  C8_8 
REMARK    2  A    between atoms: C8_8  and  O9_9 
ROOT
HETATM    1  C1  UNL     1     -32.952   7.059   2.890  1.00 20.00     0.026 A 
HETATM    2  C2  UNL     1     -32.698   6.369   1.557  1.00 20.00    -0.034 A 
HETATM    3  C3  UNL     1     -32.194   7.808   1.803  1.00 20.00    -0.034 A 
HETATM    4  C4  UNL     1     -31.703   5.227   1.555  1.00 20.00     0.016 C 
HETATM    5  C5  UNL     1     -33.833   6.120   0.589  1.00 20.00     0.016 C 
HETATM    6  C6  UNL     1     -32.836   8.968   1.076  1.00 20.00     0.016 C 
HETATM    7  C7  UNL     1     -30.715   8.044   2.034  1.00 20.00     0.016 C 
ENDROOT
BRANCH   1   8
HETATM    8  C8  UNL     1     -34.310   7.455   3.360  1.00 20.00     0.170 C 
BRANCH   8   9
HETATM    9  O9  UNL     1     -34.969   6.330   3.941  1.00 20.00    -0.400 OA
HETATM   10  H25 UNL     1     -34.467   6.100   4.739  1.00 20.00     0.209 HD
ENDBRANCH   8   9
ENDBRANCH   1   8
TORSDOF 2
ENDMDL
MODEL 5
REMARK VINA RESULT:       1.1      1.387      2.838
REMARK  2 active torsions:
REMARK  status: ('A' for Active; 'I' for Inactive)
REMARK    1  A    between atoms: C1_1  and  C8_8 
REMARK    2  A    between atoms: C8_8  and  O9_9 
ROOT
HETATM    1  C1  UNL     1     -34.626   6.696   2.984  1.00 20.00     0.026 A 
HETATM    2  C2  UNL     1     -33.275   7.322   3.301  1.00 20.00    -0.034 A 
HETATM    3  C3  UNL     1     -33.371   5.843   2.866  1.00 20.00    -0.034 A 
HETATM    4  C4  UNL     1     -32.746   8.348   2.321  1.00 20.00     0.016 C 
HETATM    5  C5  UNL     1     -32.902   7.668   4.725  1.00 20.00     0.016 C 
HETATM    6  C6  UNL     1     -33.092   4.742   3.865  1.00 20.00     0.016 C 
HETATM    7  C7  UNL     1     -32.933   5.453   1.470  1.00 20.00     0.016 C 
ENDROOT
BRANCH   1   8
HETATM    8  C8  UNL     1     -35.680   6.463   4.011  1.00 20.00     0.170 C 
BRANCH   8   9
HETATM    9  O9  UNL     1     -35.683   5.090   4.402  1.00 20.00    -0.400 OA
HETATM   10  H25 UNL     1     -35.055   4.637   3.817  1.00 20.00     0.209 HD
ENDBRANCH   8   9
ENDBRANCH   1   8
TORSDOF 2
ENDMDL
MODEL 6
REMARK VINA RESULT:       1.5      2.228      3.513
REMARK  2 active torsions:
REMARK  status: ('A' for Active; 'I' for Inactive)
REMARK    1  A    between atoms: C1_1  and  C8_8 
REMARK    2  A    between atoms: C8_8  and  O9_9 
ROOT
HETATM    1  C1  UNL     1     -33.762   6.124   1.184  1.00 20.00     0.026 A 
HETATM    2  C2  UNL     1     -33.611   6.016   2.695  1.00 20.00    -0.034 A 
HETATM    3  C3  UNL     1     -32.409   6.423   1.814  1.00 20.00    -0.034 A 
HETATM    4  C4  UNL     1     -34.305   7.069   3.532  1.00 20.00     0.016 C 
HETATM    5  C5  UNL     1     -33.625   4.665   3.375  1.00 20.00     0.016 C 
HETATM    6  C6  UNL     1     -31.248   5.472   1.632  1.00 20.00     0.016 C 
HETATM    7  C7  UNL     1     -31.953   7.868   1.809  1.00 20.00     0.016 C 
ENDROOT
BRANCH   1   8
HETATM    8  C8  UNL     1     -34.011   4.950   0.300  1.00 20.00     0.170 C 
BRANCH   8   9
HETATM    9  O9  UNL     1     -34.843   5.334  -0.794  1.00 20.00    -0.400 OA
HETATM   10  H25 UNL     1     -34.864   6.303  -0.796  1.00 20.00     0.209 HD
ENDBRANCH   8   9
ENDBRANCH   1   8
TORSDOF 2
ENDMDL
MODEL 7
REMARK VINA RESULT:       1.8      2.435      3.801
REMARK  2 active torsions:
REMARK  status: ('A' for Active; 'I' for Inactive)
REMARK    1  A    between atoms: C1_1  and  C8_8 
REMARK    2  A    between atoms: C8_8  and  O9_9 
ROOT
HETATM    1  C1  UNL     1     -32.402   6.729   2.381  1.00 20.00     0.026 A 
HETATM    2  C2  UNL     1     -33.580   5.889   2.854  1.00 20.00    -0.034 A 
HETATM    3  C3  UNL     1     -33.094   5.804   1.390  1.00 20.00    -0.034 A 
HETATM    4  C4  UNL     1     -33.273   4.749   3.802  1.00 20.00     0.016 C 
HETATM    5  C5  UNL     1     -34.909   6.537   3.173  1.00 20.00     0.016 C 
HETATM    6  C6  UNL     1     -33.947   6.369   0.277  1.00 20.00     0.016 C 
HETATM    7  C7  UNL     1     -32.323   4.582   0.937  1.00 20.00     0.016 C 
ENDROOT
BRANCH   1   8
HETATM    8  C8  UNL     1     -32.445   8.216   2.281  1.00 20.00     0.170 C 
BRANCH   8   9
HETATM    9  O9  UNL     1     -31.816   8.639   1.072  1.00 20.00    -0.400 OA
HETATM   10  H25 UNL     1     -30.873   8.435   1.168  1.00 20.00     0.209 HD
ENDBRANCH   8   9
ENDBRANCH   1   8
TORSDOF 2
ENDMDL
MODEL 8
REMARK VINA RESULT:       1.8      2.120      3.409
REMARK  2 active torsions:
REMARK  status: ('A' for Active; 'I' for Inactive)
REMARK    1  A    between atoms: C1_1  and  C8_8 
REMARK    2  A    between atoms: C8_8  and  O9_9 
ROOT
HETATM    1  C1  UNL     1     -33.095   6.887   4.017  1.00 20.00     0.026 A 
HETATM    2  C2  UNL     1     -34.249   6.049   3.485  1.00 20.00    -0.034 A 
HETATM    3  C3  UNL     1     -33.175   6.602   2.524  1.00 20.00    -0.034 A 
HETATM    4  C4  UNL     1     -34.244   4.575   3.832  1.00 20.00     0.016 C 
HETATM    5  C5  UNL     1     -35.655   6.608   3.450  1.00 20.00     0.016 C 
HETATM    6  C6  UNL     1     -33.527   7.702   1.548  1.00 20.00     0.016 C 
HETATM    7  C7  UNL     1     -32.141   5.656   1.948  1.00 20.00     0.016 C 
ENDROOT
BRANCH   1   8
HETATM    8  C8  UNL     1     -33.272   8.247   4.600  1.00 20.00     0.170 C 
BRANCH   8   9
HETATM    9  O9  UNL     1     -31.997   8.839   4.849  1.00 20.00    -0.400 OA
HETATM   10  H25 UNL     1     -31.945   9.624   4.282  1.00 20.00     0.209 HD
ENDBRANCH   8   9
ENDBRANCH   1   8
TORSDOF 2
ENDMDL
MODEL 9
REMARK VINA RESULT:       1.8      0.582      2.751
REMARK  2 active torsions:
REMARK  status: ('A' for Active; 'I' for Inactive)
REMARK    1  A    between atoms: C1_1  and  C8_8 
REMARK    2  A    between atoms: C8_8  and  O9_9 
ROOT
HETATM    1  C1  UNL     1     -33.863   5.015   3.209  1.00 20.00     0.026 A 
HETATM    2  C2  UNL     1     -34.246   6.482   3.345  1.00 20.00    -0.034 A 
HETATM    3  C3  UNL     1     -33.437   5.993   2.123  1.00 20.00    -0.034 A 
HETATM    4  C4  UNL     1     -35.710   6.829   3.172  1.00 20.00     0.016 C 
HETATM    5  C5  UNL     1     -33.586   7.357   4.388  1.00 20.00     0.016 C 
HETATM    6  C6  UNL     1     -31.985   6.389   1.971  1.00 20.00     0.016 C 
HETATM    7  C7  UNL     1     -34.126   5.874   0.780  1.00 20.00     0.016 C 
ENDROOT
BRANCH   1   8
HETATM    8  C8  UNL     1     -32.901   4.333   4.120  1.00 20.00     0.170 C 
BRANCH   8   9
HETATM    9  O9  UNL     1     -33.487   3.140   4.640  1.00 20.00    -0.400 OA
HETATM   10  H25 UNL     1     -33.070   2.402   4.170  1.00 20.00     0.209 HD
ENDBRANCH   8   9
ENDBRANCH   1   8
TORSDOF 2
ENDMDL
