MODEL 1
REMARK VINA RESULT:      -1.1      0.000      0.000
REMARK  1 active torsions:
REMARK  status: ('A' for Active; 'I' for Inactive)
REMARK    1  A    between atoms: C3_3  and  C5_5 
ROOT
HETATM    1  C1  UNL     1     -34.965   5.592   4.172  1.00 20.00     0.221 A 
HETATM    2  C4  UNL     1     -35.136   6.903   3.385  1.00 20.00     0.138 A 
HETATM    3  C5  UNL     1     -33.587   7.016   3.465  1.00 20.00     0.060 A 
HETATM    4  C7  UNL     1     -33.040   8.120   4.353  1.00 20.00     0.044 C 
HETATM    5  N8  UNL     1     -33.613   5.738   4.175  1.00 20.00    -0.348 N 
HETATM    6  O9  UNL     1     -35.694   4.741   4.625  1.00 20.00    -0.273 OA
HETATM    7  H20 UNL     1     -32.895   5.153   4.582  1.00 20.00     0.163 HD
ENDROOT
BRANCH   3   8
HETATM    8  C3  UNL     1     -32.883   6.901   2.170  1.00 20.00    -0.065 C 
HETATM    9  C2  UNL     1     -32.923   5.777   1.437  1.00 20.00     0.016 C 
HETATM   10  C6  UNL     1     -32.122   8.113   1.720  1.00 20.00     0.045 C 
ENDBRANCH   3   8
TORSDOF 1
ENDMDL
MODEL 2
REMARK VINA RESULT:      -0.6      3.215      4.202
REMARK  1 active torsions:
REMARK  status: ('A' for Active; 'I' for Inactive)
REMARK    1  A    between atoms: C3_3  and  C5_5 
ROOT
HETATM    1  C1  UNL     1     -32.417   9.381   0.390  1.00 20.00     0.221 A 
HETATM    2  C4  UNL     1     -31.440   8.238   0.717  1.00 20.00     0.138 A 
HETATM    3  C5  UNL     1     -32.205   8.130   2.067  1.00 20.00     0.060 A 
HETATM    4  C7  UNL     1     -31.441   8.564   3.307  1.00 20.00     0.044 C 
HETATM    5  N8  UNL     1     -33.060   9.209   1.575  1.00 20.00    -0.348 N 
HETATM    6  O9  UNL     1     -32.590  10.149  -0.528  1.00 20.00    -0.273 OA
HETATM    7  H20 UNL     1     -33.844   9.711   1.971  1.00 20.00     0.163 HD
ENDROOT
BRANCH   3   8
HETATM    8  C3  UNL     1     -32.968   6.877   2.256  1.00 20.00    -0.065 C 
HETATM    9  C2  UNL     1     -32.777   5.805   1.473  1.00 20.00     0.016 C 
HETATM   10  C6  UNL     1     -33.969   6.874   3.373  1.00 20.00     0.045 C 
ENDBRANCH   3   8
TORSDOF 1
ENDMDL
MODEL 3
REMARK VINA RESULT:      -0.5      3.195      4.217
REMARK  1 active torsions:
REMARK  status: ('A' for Active; 'I' for Inactive)
REMARK    1  A    between atoms: C3_3  and  C5_5 
ROOT
HETATM    1  C1  UNL     1     -32.424   9.325   0.437  1.00 20.00     0.221 A 
HETATM    2  C4  UNL     1     -31.503   8.151   0.810  1.00 20.00     0.138 A 
HETATM    3  C5  UNL     1     -32.255   8.145   2.171  1.00 20.00     0.060 A 
HETATM    4  C7  UNL     1     -31.456   8.598   3.380  1.00 20.00     0.044 C 
HETATM    5  N8  UNL     1     -33.061   9.242   1.636  1.00 20.00    -0.348 N 
HETATM    6  O9  UNL     1     -32.569  10.057  -0.515  1.00 20.00    -0.273 OA
HETATM    7  H20 UNL     1     -33.814   9.801   2.014  1.00 20.00     0.163 HD
ENDROOT
BRANCH   3   8
HETATM    8  C3  UNL     1     -33.079   6.944   2.426  1.00 20.00    -0.065 C 
HETATM    9  C2  UNL     1     -34.007   6.911   3.393  1.00 20.00     0.016 C 
HETATM   10  C6  UNL     1     -32.817   5.762   1.539  1.00 20.00     0.045 C 
ENDBRANCH   3   8
TORSDOF 1
ENDMDL
MODEL 4
REMARK VINA RESULT:      -0.4      2.797      4.010
REMARK  1 active torsions:
REMARK  status: ('A' for Active; 'I' for Inactive)
REMARK    1  A    between atoms: C3_3  and  C5_5 
ROOT
HETATM    1  C1  UNL     1     -32.351   8.479   1.150  1.00 20.00     0.221 A 
HETATM    2  C4  UNL     1     -33.355   7.367   0.800  1.00 20.00     0.138 A 
HETATM    3  C5  UNL     1     -32.730   6.590   1.993  1.00 20.00     0.060 A 
HETATM    4  C7  UNL     1     -31.904   5.366   1.636  1.00 20.00     0.044 C 
HETATM    5  N8  UNL     1     -31.874   7.757   2.199  1.00 20.00    -0.348 N 
HETATM    6  O9  UNL     1     -32.061   9.568   0.710  1.00 20.00    -0.273 OA
HETATM    7  H20 UNL     1     -31.137   7.973   2.858  1.00 20.00     0.163 HD
ENDROOT
BRANCH   3   8
HETATM    8  C3  UNL     1     -33.635   6.373   3.142  1.00 20.00    -0.065 C 
HETATM    9  C2  UNL     1     -34.150   7.395   3.842  1.00 20.00     0.016 C 
HETATM   10  C6  UNL     1     -33.944   4.945   3.481  1.00 20.00     0.045 C 
ENDBRANCH   3   8
TORSDOF 1
ENDMDL
MODEL 5
REMARK VINA RESULT:      -0.2      2.992      3.832
REMARK  1 active torsions:
REMARK  status: ('A' for Active; 'I' for Inactive)
REMARK    1  A    between atoms: C3_3  and  C5_5 
ROOT
HETATM    1  C1  UNL     1     -32.229   8.838   1.079  1.00 20.00     0.221 A 
HETATM    2  C4  UNL     1     -31.481   8.055   2.171  1.00 20.00     0.138 A 
HETATM    3  C5  UNL     1     -32.868   7.442   2.517  1.00 20.00     0.060 A 
HETATM    4  C7  UNL     1     -33.479   7.870   3.841  1.00 20.00     0.044 C 
HETATM    5  N8  UNL     1     -33.403   8.239   1.413  1.00 20.00    -0.348 N 
HETATM    6  O9  UNL     1     -31.943   9.659   0.238  1.00 20.00    -0.273 OA
HETATM    7  H20 UNL     1     -34.330   8.361   1.029  1.00 20.00     0.163 HD
ENDROOT
BRANCH   3   8
HETATM    8  C3  UNL     1     -32.997   5.994   2.251  1.00 20.00    -0.065 C 
HETATM    9  C2  UNL     1     -32.420   5.413   1.188  1.00 20.00     0.016 C 
HETATM   10  C6  UNL     1     -33.809   5.209   3.238  1.00 20.00     0.045 C 
ENDBRANCH   3   8
TORSDOF 1
ENDMDL
MODEL 6
REMARK VINA RESULT:       0.1      1.341      2.368
REMARK  1 active torsions:
REMARK  status: ('A' for Active; 'I' for Inactive)
REMARK    1  A    between atoms: C3_3  and  C5_5 
ROOT
HETATM    1  C1  UNL     1     -34.013   4.312   3.972  1.00 20.00     0.221 A 
HETATM    2  C4  UNL     1     -33.866   5.137   2.682  1.00 20.00     0.138 A 
HETATM    3  C5  UNL     1     -34.482   6.308   3.501  1.00 20.00     0.060 A 
HETATM    4  C7  UNL     1     -35.885   6.736   3.107  1.00 20.00     0.044 C 
HETATM    5  N8  UNL     1     -34.516   5.387   4.636  1.00 20.00    -0.348 N 
HETATM    6  O9  UNL     1     -33.789   3.174   4.314  1.00 20.00    -0.273 OA
HETATM    7  H20 UNL     1     -34.836   5.472   5.592  1.00 20.00     0.163 HD
ENDROOT
BRANCH   3   8
HETATM    8  C3  UNL     1     -33.569   7.444   3.752  1.00 20.00    -0.065 C 
HETATM    9  C2  UNL     1     -33.583   8.124   4.908  1.00 20.00     0.016 C 
HETATM   10  C6  UNL     1     -32.625   7.793   2.640  1.00 20.00     0.045 C 
ENDBRANCH   3   8
TORSDOF 1
ENDMDL
MODEL 7
REMARK VINA RESULT:       0.1      2.233      3.307
REMARK  1 active torsions:
REMARK  status: ('A' for Active; 'I' for Inactive)
REMARK    1  A    between atoms: C3_3  and  C5_5 
ROOT
HETATM    1  C1  UNL     1     -32.847   5.154   0.765  1.00 20.00     0.221 A 
HETATM    2  C4  UNL     1     -32.014   5.439   2.027  1.00 20.00     0.138 A 
HETATM    3  C5  UNL     1     -32.884   6.721   2.168  1.00 20.00     0.060 A 
HETATM    4  C7  UNL     1     -32.177   8.042   1.921  1.00 20.00     0.044 C 
HETATM    5  N8  UNL     1     -33.591   6.274   0.969  1.00 20.00    -0.348 N 
HETATM    6  O9  UNL     1     -32.876   4.300  -0.091  1.00 20.00    -0.273 OA
HETATM    7  H20 UNL     1     -34.350   6.661   0.424  1.00 20.00     0.163 HD
ENDROOT
BRANCH   3   8
HETATM    8  C3  UNL     1     -33.777   6.744   3.346  1.00 20.00    -0.065 C 
HETATM    9  C2  UNL     1     -34.548   5.696   3.673  1.00 20.00     0.016 C 
HETATM   10  C6  UNL     1     -33.772   8.007   4.156  1.00 20.00     0.045 C 
ENDBRANCH   3   8
TORSDOF 1
ENDMDL
MODEL 8
REMARK VINA RESULT:       0.2      0.998      2.116
REMARK  1 active torsions:
REMARK  status: ('A' for Active; 'I' for Inactive)
REMARK    1  A    between atoms: C3_3  and  C5_5 
ROOT
HETATM    1  C1  UNL     1     -34.852   5.280   4.081  1.00 20.00     0.221 A 
HETATM    2  C4  UNL     1     -33.352   5.108   3.787  1.00 20.00     0.138 A 
HETATM    3  C5  UNL     1     -33.544   6.255   2.754  1.00 20.00     0.060 A 
HETATM    4  C7  UNL     1     -33.440   5.863   1.290  1.00 20.00     0.044 C 
HETATM    5  N8  UNL     1     -34.940   6.298   3.185  1.00 20.00    -0.348 N 
HETATM    6  O9  UNL     1     -35.668   4.755   4.804  1.00 20.00    -0.273 OA
HETATM    7  H20 UNL     1     -35.738   6.853   2.905  1.00 20.00     0.163 HD
ENDROOT
BRANCH   3   8
HETATM    8  C3  UNL     1     -32.839   7.514   3.077  1.00 20.00    -0.065 C 
HETATM    9  C2  UNL     1     -32.972   8.117   4.267  1.00 20.00     0.016 C 
HETATM   10  C6  UNL     1     -31.964   8.078   1.997  1.00 20.00     0.045 C 
ENDBRANCH   3   8
TORSDOF 1
ENDMDL
MODEL 9
REMARK VINA RESULT:       0.6      2.412      3.136
REMARK  1 active torsions:
REMARK  status: ('A' for Active; 'I' for Inactive)
REMARK    1  A    between atoms: C3_3  and  C5_5 
ROOT
HETATM    1  C1  UNL     1     -32.692   6.263   1.708  1.00 20.00     0.221 A 
HETATM    2  C4  UNL     1     -33.409   7.501   2.273  1.00 20.00     0.138 A 
HETATM    3  C5  UNL     1     -32.142   8.289   1.836  1.00 20.00     0.060 A 
HETATM    4  C7  UNL     1     -31.261   8.817   2.956  1.00 20.00     0.044 C 
HETATM    5  N8  UNL     1     -31.630   7.019   1.323  1.00 20.00    -0.348 N 
HETATM    6  O9  UNL     1     -32.928   5.081   1.614  1.00 20.00    -0.273 OA
HETATM    7  H20 UNL     1     -30.767   6.749   0.869  1.00 20.00     0.163 HD
ENDROOT
BRANCH   3   8
HETATM    8  C3  UNL     1     -32.356   9.266   0.747  1.00 20.00    -0.065 C 
HETATM    9  C2  UNL     1     -32.108   8.965  -0.536  1.00 20.00     0.016 C 
HETATM   10  C6  UNL     1     -32.869  10.614   1.159  1.00 20.00     0.045 C 
ENDBRANCH   3   8
TORSDOF 1
ENDMDL
