MODEL 1
REMARK VINA RESULT:       0.4      0.000      0.000
REMARK  0 active torsions:
REMARK  status: ('A' for Active; 'I' for Inactive)
ROOT
HETATM    1  C1  UNL     1     -32.682   5.773   1.764  1.00 20.00     0.272 A 
HETATM    2  C2  UNL     1     -33.806   7.035   3.262  1.00 20.00     0.272 A 
HETATM    3  C3  UNL     1     -32.865   7.074   1.093  1.00 20.00     0.109 A 
HETATM    4  C4  UNL     1     -33.617   7.919   2.096  1.00 20.00     0.109 A 
HETATM    5  C5  UNL     1     -32.255   8.359   1.608  1.00 20.00    -0.021 A 
HETATM    6  C6  UNL     1     -31.071   8.306   2.541  1.00 20.00     0.016 C 
HETATM    7  C7  UNL     1     -32.210   9.528   0.655  1.00 20.00     0.016 C 
HETATM    8  O8  UNL     1     -32.103   4.821   1.265  1.00 20.00    -0.264 OA
HETATM    9  O9  UNL     1     -34.373   7.371   4.290  1.00 20.00    -0.264 OA
HETATM   10  O10 UNL     1     -33.264   5.802   3.006  1.00 20.00    -0.244 OA
ENDROOT
TORSDOF 0
ENDMDL
MODEL 2
REMARK VINA RESULT:       0.6      1.720      3.021
REMARK  0 active torsions:
REMARK  status: ('A' for Active; 'I' for Inactive)
ROOT
HETATM    1  C1  UNL     1     -32.526   7.952   1.961  1.00 20.00     0.272 A 
HETATM    2  C2  UNL     1     -33.784   6.517   3.170  1.00 20.00     0.272 A 
HETATM    3  C3  UNL     1     -31.941   6.624   1.692  1.00 20.00     0.109 A 
HETATM    4  C4  UNL     1     -32.783   5.663   2.500  1.00 20.00     0.109 A 
HETATM    5  C5  UNL     1     -32.700   5.516   0.997  1.00 20.00    -0.021 A 
HETATM    6  C6  UNL     1     -33.898   5.847   0.144  1.00 20.00     0.016 C 
HETATM    7  C7  UNL     1     -31.891   4.359   0.464  1.00 20.00     0.016 C 
HETATM    8  O8  UNL     1     -32.116   8.992   1.472  1.00 20.00    -0.264 OA
HETATM    9  O9  UNL     1     -34.655   6.093   3.912  1.00 20.00    -0.264 OA
HETATM   10  O10 UNL     1     -33.574   7.830   2.837  1.00 20.00    -0.244 OA
ENDROOT
TORSDOF 0
ENDMDL
MODEL 3
REMARK VINA RESULT:       0.7      2.045      3.366
REMARK  0 active torsions:
REMARK  status: ('A' for Active; 'I' for Inactive)
ROOT
HETATM    1  C1  UNL     1     -35.329   6.114   3.641  1.00 20.00     0.272 A 
HETATM    2  C2  UNL     1     -33.869   4.443   4.062  1.00 20.00     0.272 A 
HETATM    3  C3  UNL     1     -34.003   6.697   3.358  1.00 20.00     0.109 A 
HETATM    4  C4  UNL     1     -33.026   5.578   3.639  1.00 20.00     0.109 A 
HETATM    5  C5  UNL     1     -33.099   6.188   2.257  1.00 20.00    -0.021 A 
HETATM    6  C6  UNL     1     -33.681   5.392   1.116  1.00 20.00     0.016 C 
HETATM    7  C7  UNL     1     -31.957   7.081   1.839  1.00 20.00     0.016 C 
HETATM    8  O8  UNL     1     -36.382   6.720   3.520  1.00 20.00    -0.264 OA
HETATM    9  O9  UNL     1     -33.433   3.345   4.369  1.00 20.00    -0.264 OA
HETATM   10  O10 UNL     1     -35.188   4.817   4.064  1.00 20.00    -0.244 OA
ENDROOT
TORSDOF 0
ENDMDL
MODEL 4
REMARK VINA RESULT:       0.9      1.808      3.318
REMARK  0 active torsions:
REMARK  status: ('A' for Active; 'I' for Inactive)
ROOT
HETATM    1  C1  UNL     1     -32.473   8.326   1.435  1.00 20.00     0.272 A 
HETATM    2  C2  UNL     1     -31.908   6.165   1.769  1.00 20.00     0.272 A 
HETATM    3  C3  UNL     1     -33.701   7.695   1.957  1.00 20.00     0.109 A 
HETATM    4  C4  UNL     1     -33.323   6.249   2.181  1.00 20.00     0.109 A 
HETATM    5  C5  UNL     1     -33.793   7.096   3.343  1.00 20.00    -0.021 A 
HETATM    6  C6  UNL     1     -32.813   7.517   4.409  1.00 20.00     0.016 C 
HETATM    7  C7  UNL     1     -35.175   6.818   3.880  1.00 20.00     0.016 C 
HETATM    8  O8  UNL     1     -32.384   9.507   1.139  1.00 20.00    -0.264 OA
HETATM    9  O9  UNL     1     -31.242   5.143   1.815  1.00 20.00    -0.264 OA
HETATM   10  O10 UNL     1     -31.477   7.390   1.328  1.00 20.00    -0.244 OA
ENDROOT
TORSDOF 0
ENDMDL
MODEL 5
REMARK VINA RESULT:       1.3      1.744      3.527
REMARK  0 active torsions:
REMARK  status: ('A' for Active; 'I' for Inactive)
ROOT
HETATM    1  C1  UNL     1     -32.168   7.622   2.478  1.00 20.00     0.272 A 
HETATM    2  C2  UNL     1     -32.752   5.848   1.209  1.00 20.00     0.272 A 
HETATM    3  C3  UNL     1     -33.604   7.423   2.753  1.00 20.00     0.109 A 
HETATM    4  C4  UNL     1     -33.995   6.235   1.905  1.00 20.00     0.109 A 
HETATM    5  C5  UNL     1     -34.150   6.173   3.408  1.00 20.00    -0.021 A 
HETATM    6  C6  UNL     1     -33.237   5.291   4.221  1.00 20.00     0.016 C 
HETATM    7  C7  UNL     1     -35.554   6.244   3.956  1.00 20.00     0.016 C 
HETATM    8  O8  UNL     1     -31.488   8.495   2.992  1.00 20.00    -0.264 OA
HETATM    9  O9  UNL     1     -32.668   4.911   0.431  1.00 20.00    -0.264 OA
HETATM   10  O10 UNL     1     -31.735   6.697   1.563  1.00 20.00    -0.244 OA
ENDROOT
TORSDOF 0
ENDMDL
MODEL 6
REMARK VINA RESULT:       1.5      0.945      2.681
REMARK  0 active torsions:
REMARK  status: ('A' for Active; 'I' for Inactive)
ROOT
HETATM    1  C1  UNL     1     -33.351   7.395   3.225  1.00 20.00     0.272 A 
HETATM    2  C2  UNL     1     -32.852   5.916   1.593  1.00 20.00     0.272 A 
HETATM    3  C3  UNL     1     -32.121   7.924   2.605  1.00 20.00     0.109 A 
HETATM    4  C4  UNL     1     -31.787   6.934   1.512  1.00 20.00     0.109 A 
HETATM    5  C5  UNL     1     -32.056   8.381   1.165  1.00 20.00    -0.021 A 
HETATM    6  C6  UNL     1     -33.323   8.755   0.438  1.00 20.00     0.016 C 
HETATM    7  C7  UNL     1     -30.870   9.224   0.764  1.00 20.00     0.016 C 
HETATM    8  O8  UNL     1     -33.935   7.933   4.151  1.00 20.00    -0.264 OA
HETATM    9  O9  UNL     1     -32.928   4.947   0.854  1.00 20.00    -0.264 OA
HETATM   10  O10 UNL     1     -33.715   6.223   2.613  1.00 20.00    -0.244 OA
ENDROOT
TORSDOF 0
ENDMDL
MODEL 7
REMARK VINA RESULT:       1.5      1.968      2.975
REMARK  0 active torsions:
REMARK  status: ('A' for Active; 'I' for Inactive)
ROOT
HETATM    1  C1  UNL     1     -32.478   6.343   1.586  1.00 20.00     0.272 A 
HETATM    2  C2  UNL     1     -32.470   8.582   1.293  1.00 20.00     0.272 A 
HETATM    3  C3  UNL     1     -32.351   6.897   2.948  1.00 20.00     0.109 A 
HETATM    4  C4  UNL     1     -32.346   8.396   2.752  1.00 20.00     0.109 A 
HETATM    5  C5  UNL     1     -33.422   7.748   3.593  1.00 20.00    -0.021 A 
HETATM    6  C6  UNL     1     -34.839   7.686   3.082  1.00 20.00     0.016 C 
HETATM    7  C7  UNL     1     -33.337   7.942   5.087  1.00 20.00     0.016 C 
HETATM    8  O8  UNL     1     -32.526   5.149   1.335  1.00 20.00    -0.264 OA
HETATM    9  O9  UNL     1     -32.509   9.672   0.744  1.00 20.00    -0.264 OA
HETATM   10  O10 UNL     1     -32.522   7.362   0.669  1.00 20.00    -0.244 OA
ENDROOT
TORSDOF 0
ENDMDL
MODEL 8
REMARK VINA RESULT:       1.5      1.868      3.072
REMARK  0 active torsions:
REMARK  status: ('A' for Active; 'I' for Inactive)
ROOT
HETATM    1  C1  UNL     1     -34.258   6.762   3.453  1.00 20.00     0.272 A 
HETATM    2  C2  UNL     1     -32.389   7.846   2.797  1.00 20.00     0.272 A 
HETATM    3  C3  UNL     1     -34.050   6.336   2.056  1.00 20.00     0.109 A 
HETATM    4  C4  UNL     1     -32.799   7.061   1.617  1.00 20.00     0.109 A 
HETATM    5  C5  UNL     1     -32.838   5.549   1.607  1.00 20.00    -0.021 A 
HETATM    6  C6  UNL     1     -32.033   4.771   2.617  1.00 20.00     0.016 C 
HETATM    7  C7  UNL     1     -32.919   4.872   0.261  1.00 20.00     0.016 C 
HETATM    8  O8  UNL     1     -35.178   6.375   4.156  1.00 20.00    -0.264 OA
HETATM    9  O9  UNL     1     -31.403   8.564   2.831  1.00 20.00    -0.264 OA
HETATM   10  O10 UNL     1     -33.280   7.650   3.821  1.00 20.00    -0.244 OA
ENDROOT
TORSDOF 0
ENDMDL
MODEL 9
REMARK VINA RESULT:       1.5      2.039      2.621
REMARK  0 active torsions:
REMARK  status: ('A' for Active; 'I' for Inactive)
ROOT
HETATM    1  C1  UNL     1     -34.040   4.755   4.035  1.00 20.00     0.272 A 
HETATM    2  C2  UNL     1     -35.661   6.197   3.407  1.00 20.00     0.272 A 
HETATM    3  C3  UNL     1     -33.395   5.631   3.038  1.00 20.00     0.109 A 
HETATM    4  C4  UNL     1     -34.479   6.597   2.619  1.00 20.00     0.109 A 
HETATM    5  C5  UNL     1     -33.206   7.117   3.249  1.00 20.00    -0.021 A 
HETATM    6  C6  UNL     1     -33.239   7.688   4.644  1.00 20.00     0.016 C 
HETATM    7  C7  UNL     1     -32.228   7.821   2.340  1.00 20.00     0.016 C 
HETATM    8  O8  UNL     1     -33.471   3.843   4.613  1.00 20.00    -0.264 OA
HETATM    9  O9  UNL     1     -36.744   6.756   3.347  1.00 20.00    -0.264 OA
HETATM   10  O10 UNL     1     -35.354   5.115   4.192  1.00 20.00    -0.244 OA
ENDROOT
TORSDOF 0
ENDMDL
