MODEL 1
REMARK VINA RESULT:      -2.4      0.000      0.000
REMARK  0 active torsions:
REMARK  status: ('A' for Active; 'I' for Inactive)
ROOT
HETATM    1  C1  UNL     1     -34.106   7.361   3.849  1.00 20.00    -0.019 C 
HETATM    2  C2  UNL     1     -33.131   7.374   2.938  1.00 20.00     0.080 C 
HETATM    3  C3  UNL     1     -35.137   6.285   3.937  1.00 20.00     0.037 C 
HETATM    4 CL4  UNL     1     -32.943   6.150   1.754  1.00 20.00    -0.097 Cl
ENDROOT
TORSDOF 0
ENDMDL
MODEL 2
REMARK VINA RESULT:      -2.1      1.373      1.562
REMARK  0 active torsions:
REMARK  status: ('A' for Active; 'I' for Inactive)
ROOT
HETATM    1  C1  UNL     1     -33.819   6.280   2.978  1.00 20.00    -0.019 C 
HETATM    2  C2  UNL     1     -32.917   6.397   2.001  1.00 20.00     0.080 C 
HETATM    3  C3  UNL     1     -34.140   7.378   3.937  1.00 20.00     0.037 C 
HETATM    4 CL4  UNL     1     -32.015   7.827   1.728  1.00 20.00    -0.097 Cl
ENDROOT
TORSDOF 0
ENDMDL
MODEL 3
REMARK VINA RESULT:      -2.1      1.828      2.609
REMARK  0 active torsions:
REMARK  status: ('A' for Active; 'I' for Inactive)
ROOT
HETATM    1  C1  UNL     1     -35.107   6.415   4.022  1.00 20.00    -0.019 C 
HETATM    2  C2  UNL     1     -35.220   5.127   4.355  1.00 20.00     0.080 C 
HETATM    3  C3  UNL     1     -33.859   7.014   3.463  1.00 20.00     0.037 C 
HETATM    4 CL4  UNL     1     -33.940   4.001   4.179  1.00 20.00    -0.097 Cl
ENDROOT
TORSDOF 0
ENDMDL
MODEL 4
REMARK VINA RESULT:      -2.1      1.961      2.866
REMARK  0 active torsions:
REMARK  status: ('A' for Active; 'I' for Inactive)
ROOT
HETATM    1  C1  UNL     1     -32.743   6.553   1.886  1.00 20.00    -0.019 C 
HETATM    2  C2  UNL     1     -33.657   6.307   2.827  1.00 20.00     0.080 C 
HETATM    3  C3  UNL     1     -32.031   7.858   1.751  1.00 20.00     0.037 C 
HETATM    4 CL4  UNL     1     -34.126   7.465   3.999  1.00 20.00    -0.097 Cl
ENDROOT
TORSDOF 0
ENDMDL
MODEL 5
REMARK VINA RESULT:      -2.0      1.792      2.386
REMARK  0 active torsions:
REMARK  status: ('A' for Active; 'I' for Inactive)
ROOT
HETATM    1  C1  UNL     1     -33.109   7.379   2.916  1.00 20.00    -0.019 C 
HETATM    2  C2  UNL     1     -34.073   7.417   3.839  1.00 20.00     0.080 C 
HETATM    3  C3  UNL     1     -32.978   6.288   1.906  1.00 20.00     0.037 C 
HETATM    4 CL4  UNL     1     -35.283   6.212   3.975  1.00 20.00    -0.097 Cl
ENDROOT
TORSDOF 0
ENDMDL
MODEL 6
REMARK VINA RESULT:      -1.8      1.790      2.393
REMARK  0 active torsions:
REMARK  status: ('A' for Active; 'I' for Inactive)
ROOT
HETATM    1  C1  UNL     1     -35.169   5.118   4.320  1.00 20.00    -0.019 C 
HETATM    2  C2  UNL     1     -35.121   6.425   4.056  1.00 20.00     0.080 C 
HETATM    3  C3  UNL     1     -34.004   4.200   4.150  1.00 20.00     0.037 C 
HETATM    4 CL4  UNL     1     -33.709   7.212   3.488  1.00 20.00    -0.097 Cl
ENDROOT
TORSDOF 0
ENDMDL
MODEL 7
REMARK VINA RESULT:      -1.6      2.174      2.200
REMARK  0 active torsions:
REMARK  status: ('A' for Active; 'I' for Inactive)
ROOT
HETATM    1  C1  UNL     1     -34.094   6.271   3.295  1.00 20.00    -0.019 C 
HETATM    2  C2  UNL     1     -33.397   5.133   3.297  1.00 20.00     0.080 C 
HETATM    3  C3  UNL     1     -35.359   6.463   4.063  1.00 20.00     0.037 C 
HETATM    4 CL4  UNL     1     -33.874   3.747   4.185  1.00 20.00    -0.097 Cl
ENDROOT
TORSDOF 0
ENDMDL
MODEL 8
REMARK VINA RESULT:      -1.5      2.965      3.726
REMARK  0 active torsions:
REMARK  status: ('A' for Active; 'I' for Inactive)
ROOT
HETATM    1  C1  UNL     1     -31.755   8.711   0.711  1.00 20.00    -0.019 C 
HETATM    2  C2  UNL     1     -31.908   7.800   1.674  1.00 20.00     0.080 C 
HETATM    3  C3  UNL     1     -32.636   9.906   0.561  1.00 20.00     0.037 C 
HETATM    4 CL4  UNL     1     -33.140   7.894   2.862  1.00 20.00    -0.097 Cl
ENDROOT
TORSDOF 0
ENDMDL
MODEL 9
REMARK VINA RESULT:      -1.5      2.079      2.079
REMARK  0 active torsions:
REMARK  status: ('A' for Active; 'I' for Inactive)
ROOT
HETATM    1  C1  UNL     1     -34.300   6.459   3.253  1.00 20.00    -0.019 C 
HETATM    2  C2  UNL     1     -33.422   7.421   3.546  1.00 20.00     0.080 C 
HETATM    3  C3  UNL     1     -35.342   5.977   4.206  1.00 20.00     0.037 C 
HETATM    4 CL4  UNL     1     -33.385   8.222   5.061  1.00 20.00    -0.097 Cl
ENDROOT
TORSDOF 0
ENDMDL
