MODEL 1
REMARK VINA RESULT:      -0.8      0.000      0.000
REMARK  1 active torsions:
REMARK  status: ('A' for Active; 'I' for Inactive)
REMARK    1  A    between atoms: C7_7  and  N9_9 
ROOT
HETATM    1  C1  UNL     1     -35.291   6.464   3.868  1.00 20.00     0.031 C 
HETATM    2  C4  UNL     1     -34.875   5.160   4.541  1.00 20.00     0.019 C 
HETATM    3  C5  UNL     1     -34.079   7.221   3.325  1.00 20.00     0.273 C 
HETATM    4  C6  UNL     1     -32.822   5.161   3.070  1.00 20.00     0.288 C 
HETATM    5  C8  UNL     1     -34.001   4.346   3.596  1.00 20.00     0.086 C 
HETATM    6  N9  UNL     1     -33.291   6.387   2.405  1.00 20.00     0.094 N 
HETATM    7 BR10 UNL     1     -33.330   2.768   4.537  1.00 20.00    -0.089 Br
ENDROOT
BRANCH   6   8
HETATM    8  C7  UNL     1     -32.163   7.151   1.813  1.00 20.00     0.223 A 
HETATM    9  C2  UNL     1     -32.416   8.453   1.102  1.00 20.00     0.038 A 
HETATM   10  C3  UNL     1     -31.712   8.446   2.427  1.00 20.00     0.038 A 
ENDBRANCH   6   8
TORSDOF 1
ENDMDL
MODEL 2
REMARK VINA RESULT:       0.1      2.074      2.971
REMARK  1 active torsions:
REMARK  status: ('A' for Active; 'I' for Inactive)
REMARK    1  A    between atoms: C7_7  and  N9_9 
ROOT
HETATM    1  C1  UNL     1     -32.067   5.471   1.432  1.00 20.00     0.031 C 
HETATM    2  C4  UNL     1     -33.350   5.406   2.254  1.00 20.00     0.019 C 
HETATM    3  C5  UNL     1     -31.927   6.822   0.729  1.00 20.00     0.273 C 
HETATM    4  C6  UNL     1     -33.259   7.923   2.432  1.00 20.00     0.288 C 
HETATM    5  C8  UNL     1     -33.429   6.606   3.187  1.00 20.00     0.086 C 
HETATM    6  N9  UNL     1     -31.990   7.936   1.687  1.00 20.00     0.094 N 
HETATM    7 BR10 UNL     1     -35.159   6.602   4.100  1.00 20.00    -0.089 Br
ENDROOT
BRANCH   6   8
HETATM    8  C7  UNL     1     -31.767   9.242   1.015  1.00 20.00     0.223 A 
HETATM    9  C2  UNL     1     -32.442   9.548  -0.295  1.00 20.00     0.038 A 
HETATM   10  C3  UNL     1     -32.866  10.266   0.953  1.00 20.00     0.038 A 
ENDBRANCH   6   8
TORSDOF 1
ENDMDL
MODEL 3
REMARK VINA RESULT:       1.1      1.966      2.630
REMARK  1 active torsions:
REMARK  status: ('A' for Active; 'I' for Inactive)
REMARK    1  A    between atoms: C7_7  and  N9_9 
ROOT
HETATM    1  C1  UNL     1     -33.845   7.078   3.335  1.00 20.00     0.031 C 
HETATM    2  C4  UNL     1     -33.086   5.799   2.994  1.00 20.00     0.019 C 
HETATM    3  C5  UNL     1     -33.076   8.318   2.879  1.00 20.00     0.273 C 
HETATM    4  C6  UNL     1     -31.971   7.068   1.117  1.00 20.00     0.288 C 
HETATM    5  C8  UNL     1     -32.715   5.796   1.518  1.00 20.00     0.086 C 
HETATM    6  N9  UNL     1     -32.768   8.262   1.442  1.00 20.00     0.094 N 
HETATM    7 BR10 UNL     1     -31.590   4.241   1.139  1.00 20.00    -0.089 Br
ENDROOT
BRANCH   6   8
HETATM    8  C7  UNL     1     -32.097   9.505   0.983  1.00 20.00     0.223 A 
HETATM    9  C2  UNL     1     -32.421  10.089  -0.366  1.00 20.00     0.038 A 
HETATM   10  C3  UNL     1     -32.864  10.794   0.882  1.00 20.00     0.038 A 
ENDBRANCH   6   8
TORSDOF 1
ENDMDL
MODEL 4
REMARK VINA RESULT:       1.1      2.428      4.125
REMARK  1 active torsions:
REMARK  status: ('A' for Active; 'I' for Inactive)
REMARK    1  A    between atoms: C7_7  and  N9_9 
ROOT
HETATM    1  C1  UNL     1     -34.547   7.615   4.218  1.00 20.00     0.031 C 
HETATM    2  C4  UNL     1     -33.920   8.236   2.974  1.00 20.00     0.019 C 
HETATM    3  C5  UNL     1     -34.754   6.110   4.043  1.00 20.00     0.273 C 
HETATM    4  C6  UNL     1     -32.923   5.975   2.457  1.00 20.00     0.288 C 
HETATM    5  C8  UNL     1     -32.659   7.473   2.594  1.00 20.00     0.086 C 
HETATM    6  N9  UNL     1     -33.497   5.431   3.698  1.00 20.00     0.094 N 
HETATM    7 BR10 UNL     1     -31.971   8.167   0.900  1.00 20.00    -0.089 Br
ENDROOT
BRANCH   6   8
HETATM    8  C7  UNL     1     -33.681   3.959   3.613  1.00 20.00     0.223 A 
HETATM    9  C2  UNL     1     -32.587   3.029   4.062  1.00 20.00     0.038 A 
HETATM   10  C3  UNL     1     -33.853   3.138   4.860  1.00 20.00     0.038 A 
ENDBRANCH   6   8
TORSDOF 1
ENDMDL
MODEL 5
REMARK VINA RESULT:       1.3      2.533      4.298
REMARK  1 active torsions:
REMARK  status: ('A' for Active; 'I' for Inactive)
REMARK    1  A    between atoms: C7_7  and  N9_9 
ROOT
HETATM    1  C1  UNL     1     -32.817   8.436   4.173  1.00 20.00     0.031 C 
HETATM    2  C4  UNL     1     -32.476   8.950   2.778  1.00 20.00     0.019 C 
HETATM    3  C5  UNL     1     -33.783   7.253   4.108  1.00 20.00     0.273 C 
HETATM    4  C6  UNL     1     -32.990   6.639   1.898  1.00 20.00     0.288 C 
HETATM    5  C8  UNL     1     -31.996   7.799   1.905  1.00 20.00     0.086 C 
HETATM    6  N9  UNL     1     -33.251   6.170   3.268  1.00 20.00     0.094 N 
HETATM    7 BR10 UNL     1     -31.737   8.441   0.075  1.00 20.00    -0.089 Br
ENDROOT
BRANCH   6   8
HETATM    8  C7  UNL     1     -34.149   4.987   3.276  1.00 20.00     0.223 A 
HETATM    9  C2  UNL     1     -33.825   3.791   4.129  1.00 20.00     0.038 A 
HETATM   10  C3  UNL     1     -34.987   4.671   4.483  1.00 20.00     0.038 A 
ENDBRANCH   6   8
TORSDOF 1
ENDMDL
MODEL 6
REMARK VINA RESULT:       1.5      1.828      3.765
REMARK  1 active torsions:
REMARK  status: ('A' for Active; 'I' for Inactive)
REMARK    1  A    between atoms: C7_7  and  N9_9 
ROOT
HETATM    1  C1  UNL     1     -31.842   8.309   2.108  1.00 20.00     0.031 C 
HETATM    2  C4  UNL     1     -31.685   7.208   1.065  1.00 20.00     0.019 C 
HETATM    3  C5  UNL     1     -33.192   8.213   2.819  1.00 20.00     0.273 C 
HETATM    4  C6  UNL     1     -33.311   5.823   2.413  1.00 20.00     0.288 C 
HETATM    5  C8  UNL     1     -31.961   5.851   1.699  1.00 20.00     0.086 C 
HETATM    6  N9  UNL     1     -33.386   6.888   3.427  1.00 20.00     0.094 N 
HETATM    7 BR10 UNL     1     -31.933   4.472   0.312  1.00 20.00    -0.089 Br
ENDROOT
BRANCH   6   8
HETATM    8  C7  UNL     1     -34.659   6.823   4.190  1.00 20.00     0.223 A 
HETATM    9  C2  UNL     1     -35.954   6.521   3.485  1.00 20.00     0.038 A 
HETATM   10  C3  UNL     1     -35.350   5.506   4.412  1.00 20.00     0.038 A 
ENDBRANCH   6   8
TORSDOF 1
ENDMDL
MODEL 7
REMARK VINA RESULT:       1.7      2.756      4.631
REMARK  1 active torsions:
REMARK  status: ('A' for Active; 'I' for Inactive)
REMARK    1  A    between atoms: C7_7  and  N9_9 
ROOT
HETATM    1  C1  UNL     1     -31.963   5.735   1.017  1.00 20.00     0.031 C 
HETATM    2  C4  UNL     1     -31.557   7.175   0.723  1.00 20.00     0.019 C 
HETATM    3  C5  UNL     1     -32.541   5.598   2.426  1.00 20.00     0.273 C 
HETATM    4  C6  UNL     1     -33.270   7.912   2.425  1.00 20.00     0.288 C 
HETATM    5  C8  UNL     1     -32.722   8.112   1.014  1.00 20.00     0.086 C 
HETATM    6  N9  UNL     1     -33.673   6.512   2.634  1.00 20.00     0.094 N 
HETATM    7 BR10 UNL     1     -32.129   9.964   0.805  1.00 20.00    -0.089 Br
ENDROOT
BRANCH   6   8
HETATM    8  C7  UNL     1     -34.288   6.317   3.973  1.00 20.00     0.223 A 
HETATM    9  C2  UNL     1     -35.769   6.086   4.103  1.00 20.00     0.038 A 
HETATM   10  C3  UNL     1     -34.808   4.969   4.385  1.00 20.00     0.038 A 
ENDBRANCH   6   8
TORSDOF 1
ENDMDL
MODEL 8
REMARK VINA RESULT:       2.1      2.017      2.651
REMARK  1 active torsions:
REMARK  status: ('A' for Active; 'I' for Inactive)
REMARK    1  A    between atoms: C7_7  and  N9_9 
ROOT
HETATM    1  C1  UNL     1     -32.344   8.726   4.572  1.00 20.00     0.031 C 
HETATM    2  C4  UNL     1     -33.214   7.527   4.937  1.00 20.00     0.019 C 
HETATM    3  C5  UNL     1     -31.758   8.579   3.167  1.00 20.00     0.273 C 
HETATM    4  C6  UNL     1     -33.610   7.176   2.468  1.00 20.00     0.288 C 
HETATM    5  C8  UNL     1     -34.252   7.290   3.849  1.00 20.00     0.086 C 
HETATM    6  N9  UNL     1     -32.812   8.375   2.163  1.00 20.00     0.094 N 
HETATM    7 BR10 UNL     1     -35.237   5.648   4.243  1.00 20.00    -0.089 Br
ENDROOT
BRANCH   6   8
HETATM    8  C7  UNL     1     -32.249   8.318   0.789  1.00 20.00     0.223 A 
HETATM    9  C2  UNL     1     -32.459   9.461  -0.166  1.00 20.00     0.038 A 
HETATM   10  C3  UNL     1     -31.095   9.199   0.401  1.00 20.00     0.038 A 
ENDBRANCH   6   8
TORSDOF 1
ENDMDL
