MODEL 1
REMARK VINA RESULT:      -1.4      0.000      0.000
REMARK  1 active torsions:
REMARK  status: ('A' for Active; 'I' for Inactive)
REMARK    1  A    between atoms: C5_5  and  O7_7 
ROOT
HETATM    1  C1  UNL     1     -32.517   9.867   0.102  1.00 20.00     0.015 C 
HETATM    2  C2  UNL     1     -32.337   9.017   0.930  1.00 20.00    -0.075 C 
HETATM    3  C3  UNL     1     -33.391   7.484   2.628  1.00 20.00     0.221 A 
HETATM    4  C4  UNL     1     -32.022   6.561   1.385  1.00 20.00     0.221 A 
HETATM    5  C5  UNL     1     -32.122   7.994   1.928  1.00 20.00     0.162 A 
HETATM    6  O6  UNL     1     -33.182   6.140   2.137  1.00 20.00    -0.383 OA
ENDROOT
BRANCH   5   7
HETATM    7  O7  UNL     1     -31.051   8.414   2.796  1.00 20.00    -0.373 OA
HETATM    8  H13 UNL     1     -30.839   9.318   2.530  1.00 20.00     0.212 HD
ENDBRANCH   5   7
TORSDOF 1
ENDMDL
MODEL 2
REMARK VINA RESULT:      -1.0      2.670      4.518
REMARK  1 active torsions:
REMARK  status: ('A' for Active; 'I' for Inactive)
REMARK    1  A    between atoms: C5_5  and  O7_7 
ROOT
HETATM    1  C1  UNL     1     -33.837   3.666   4.449  1.00 20.00     0.015 C 
HETATM    2  C2  UNL     1     -34.136   4.773   4.093  1.00 20.00    -0.075 C 
HETATM    3  C3  UNL     1     -33.770   7.246   4.396  1.00 20.00     0.221 A 
HETATM    4  C4  UNL     1     -33.749   6.620   2.427  1.00 20.00     0.221 A 
HETATM    5  C5  UNL     1     -34.496   6.105   3.666  1.00 20.00     0.162 A 
HETATM    6  O6  UNL     1     -33.164   7.713   3.169  1.00 20.00    -0.383 OA
ENDROOT
BRANCH   5   7
HETATM    7  O7  UNL     1     -35.933   6.203   3.620  1.00 20.00    -0.373 OA
HETATM    8  H13 UNL     1     -36.250   5.303   3.471  1.00 20.00     0.212 HD
ENDBRANCH   5   7
TORSDOF 1
ENDMDL
MODEL 3
REMARK VINA RESULT:      -0.7      1.189      1.366
REMARK  1 active torsions:
REMARK  status: ('A' for Active; 'I' for Inactive)
REMARK    1  A    between atoms: C5_5  and  O7_7 
ROOT
HETATM    1  C1  UNL     1     -32.582   9.944   0.167  1.00 20.00     0.015 C 
HETATM    2  C2  UNL     1     -32.423   9.044   0.946  1.00 20.00    -0.075 C 
HETATM    3  C3  UNL     1     -32.284   8.363   3.366  1.00 20.00     0.221 A 
HETATM    4  C4  UNL     1     -33.491   7.147   2.210  1.00 20.00     0.221 A 
HETATM    5  C5  UNL     1     -32.231   7.962   1.884  1.00 20.00     0.162 A 
HETATM    6  O6  UNL     1     -33.427   7.510   3.607  1.00 20.00    -0.383 OA
ENDROOT
BRANCH   5   7
HETATM    7  O7  UNL     1     -31.076   7.201   1.480  1.00 20.00    -0.373 OA
HETATM    8  H13 UNL     1     -30.313   7.683   1.823  1.00 20.00     0.212 HD
ENDBRANCH   5   7
TORSDOF 1
ENDMDL
MODEL 4
REMARK VINA RESULT:      -0.7      1.902      2.514
REMARK  1 active torsions:
REMARK  status: ('A' for Active; 'I' for Inactive)
REMARK    1  A    between atoms: C5_5  and  O7_7 
ROOT
HETATM    1  C1  UNL     1     -32.012   7.958   1.574  1.00 20.00     0.015 C 
HETATM    2  C2  UNL     1     -32.665   7.702   2.549  1.00 20.00    -0.075 C 
HETATM    3  C3  UNL     1     -34.946   7.734   3.616  1.00 20.00     0.221 A 
HETATM    4  C4  UNL     1     -33.935   5.943   3.824  1.00 20.00     0.221 A 
HETATM    5  C5  UNL     1     -33.450   7.397   3.722  1.00 20.00     0.162 A 
HETATM    6  O6  UNL     1     -35.322   6.349   3.794  1.00 20.00    -0.383 OA
ENDROOT
BRANCH   5   7
HETATM    7  O7  UNL     1     -32.770   7.916   4.881  1.00 20.00    -0.373 OA
HETATM    8  H13 UNL     1     -32.612   7.154   5.454  1.00 20.00     0.212 HD
ENDBRANCH   5   7
TORSDOF 1
ENDMDL
MODEL 5
REMARK VINA RESULT:      -0.5      1.393      3.111
REMARK  1 active torsions:
REMARK  status: ('A' for Active; 'I' for Inactive)
REMARK    1  A    between atoms: C5_5  and  O7_7 
ROOT
HETATM    1  C1  UNL     1     -34.617   6.668   3.813  1.00 20.00     0.015 C 
HETATM    2  C2  UNL     1     -33.765   6.786   2.976  1.00 20.00    -0.075 C 
HETATM    3  C3  UNL     1     -33.072   7.903   0.828  1.00 20.00     0.221 A 
HETATM    4  C4  UNL     1     -31.626   7.930   2.304  1.00 20.00     0.221 A 
HETATM    5  C5  UNL     1     -32.740   6.928   1.968  1.00 20.00     0.162 A 
HETATM    6  O6  UNL     1     -31.954   8.756   1.164  1.00 20.00    -0.383 OA
ENDROOT
BRANCH   5   7
HETATM    7  O7  UNL     1     -32.305   5.615   1.564  1.00 20.00    -0.373 OA
HETATM    8  H13 UNL     1     -32.643   5.010   2.236  1.00 20.00     0.212 HD
ENDBRANCH   5   7
TORSDOF 1
ENDMDL
MODEL 6
REMARK VINA RESULT:      -0.5      1.503      2.876
REMARK  1 active torsions:
REMARK  status: ('A' for Active; 'I' for Inactive)
REMARK    1  A    between atoms: C5_5  and  O7_7 
ROOT
HETATM    1  C1  UNL     1     -34.491   6.865   3.741  1.00 20.00     0.015 C 
HETATM    2  C2  UNL     1     -33.543   7.443   3.285  1.00 20.00    -0.075 C 
HETATM    3  C3  UNL     1     -31.636   7.375   1.642  1.00 20.00     0.221 A 
HETATM    4  C4  UNL     1     -32.719   9.135   1.613  1.00 20.00     0.221 A 
HETATM    5  C5  UNL     1     -32.401   8.136   2.736  1.00 20.00     0.162 A 
HETATM    6  O6  UNL     1     -31.916   8.400   0.662  1.00 20.00    -0.383 OA
ENDROOT
BRANCH   5   7
HETATM    7  O7  UNL     1     -31.603   8.644   3.823  1.00 20.00    -0.373 OA
HETATM    8  H13 UNL     1     -30.951   7.957   4.011  1.00 20.00     0.212 HD
ENDBRANCH   5   7
TORSDOF 1
ENDMDL
MODEL 7
REMARK VINA RESULT:      -0.2      1.959      2.715
REMARK  1 active torsions:
REMARK  status: ('A' for Active; 'I' for Inactive)
REMARK    1  A    between atoms: C5_5  and  O7_7 
ROOT
HETATM    1  C1  UNL     1     -34.249   7.285   4.041  1.00 20.00     0.015 C 
HETATM    2  C2  UNL     1     -33.574   7.097   3.066  1.00 20.00    -0.075 C 
HETATM    3  C3  UNL     1     -31.918   5.587   1.918  1.00 20.00     0.221 A 
HETATM    4  C4  UNL     1     -33.482   6.201   0.715  1.00 20.00     0.221 A 
HETATM    5  C5  UNL     1     -32.760   6.872   1.893  1.00 20.00     0.162 A 
HETATM    6  O6  UNL     1     -32.597   5.059   0.756  1.00 20.00    -0.383 OA
ENDROOT
BRANCH   5   7
HETATM    7  O7  UNL     1     -32.046   8.085   1.586  1.00 20.00    -0.373 OA
HETATM    8  H13 UNL     1     -31.736   8.427   2.435  1.00 20.00     0.212 HD
ENDBRANCH   5   7
TORSDOF 1
ENDMDL
MODEL 8
REMARK VINA RESULT:      -0.2      3.165      3.790
REMARK  1 active torsions:
REMARK  status: ('A' for Active; 'I' for Inactive)
REMARK    1  A    between atoms: C5_5  and  O7_7 
ROOT
HETATM    1  C1  UNL     1     -33.056   8.389   4.805  1.00 20.00     0.015 C 
HETATM    2  C2  UNL     1     -33.538   7.447   4.237  1.00 20.00    -0.075 C 
HETATM    3  C3  UNL     1     -33.984   4.969   4.286  1.00 20.00     0.221 A 
HETATM    4  C4  UNL     1     -35.624   6.118   3.772  1.00 20.00     0.221 A 
HETATM    5  C5  UNL     1     -34.116   6.314   3.553  1.00 20.00     0.162 A 
HETATM    6  O6  UNL     1     -35.420   4.825   4.383  1.00 20.00    -0.383 OA
ENDROOT
BRANCH   5   7
HETATM    7  O7  UNL     1     -33.675   6.327   2.182  1.00 20.00    -0.373 OA
HETATM    8  H13 UNL     1     -34.121   5.583   1.757  1.00 20.00     0.212 HD
ENDBRANCH   5   7
TORSDOF 1
ENDMDL
MODEL 9
REMARK VINA RESULT:      -0.2      2.969      3.576
REMARK  1 active torsions:
REMARK  status: ('A' for Active; 'I' for Inactive)
REMARK    1  A    between atoms: C5_5  and  O7_7 
ROOT
HETATM    1  C1  UNL     1     -32.653   5.699   1.045  1.00 20.00     0.015 C 
HETATM    2  C2  UNL     1     -33.208   5.813   2.104  1.00 20.00    -0.075 C 
HETATM    3  C3  UNL     1     -33.426   7.150   4.227  1.00 20.00     0.221 A 
HETATM    4  C4  UNL     1     -35.228   6.675   3.335  1.00 20.00     0.221 A 
HETATM    5  C5  UNL     1     -33.874   5.950   3.378  1.00 20.00     0.162 A 
HETATM    6  O6  UNL     1     -34.751   7.728   4.200  1.00 20.00    -0.383 OA
ENDROOT
BRANCH   5   7
HETATM    7  O7  UNL     1     -33.866   4.672   4.044  1.00 20.00    -0.373 OA
HETATM    8  H13 UNL     1     -32.955   4.536   4.334  1.00 20.00     0.212 HD
ENDBRANCH   5   7
TORSDOF 1
ENDMDL
