MODEL 1
REMARK VINA RESULT:      -0.6      0.000      0.000
REMARK  3 active torsions:
REMARK  status: ('A' for Active; 'I' for Inactive)
REMARK    1  A    between atoms: C6_6  and  C7_7 
REMARK    2  A    between atoms: C7_7  and  C8_8 
REMARK    3  A    between atoms: C8_8  and  C9_9 
ROOT
HETATM    1  C1  UNL     1     -33.344   7.565   4.312  1.00 20.00     0.069 C 
HETATM    2  C2  UNL     1     -34.272   4.640   4.371  1.00 20.00     0.002 C 
HETATM    3  C3  UNL     1     -35.568   5.450   4.369  1.00 20.00     0.002 C 
HETATM    4  C4  UNL     1     -33.362   5.288   3.328  1.00 20.00     0.024 C 
HETATM    5  C5  UNL     1     -35.382   6.551   3.324  1.00 20.00     0.024 C 
HETATM    6  C6  UNL     1     -33.863   6.733   3.205  1.00 20.00     0.049 C 
HETATM    7  N10 UNL     1     -32.937   8.217   5.181  1.00 20.00    -0.196 NA
ENDROOT
BRANCH   6   8
HETATM    8  C7  UNL     1     -33.467   7.364   1.872  1.00 20.00     0.026 C 
BRANCH   8   9
HETATM    9  C8  UNL     1     -32.063   7.960   1.937  1.00 20.00     0.017 C 
BRANCH   9  10
HETATM   10  C9  UNL     1     -31.708   8.654   0.629  1.00 20.00     0.114 C 
HETATM   11 CL11 UNL     1     -32.613  10.176   0.469  1.00 20.00    -0.130 Cl
ENDBRANCH   9  10
ENDBRANCH   8   9
ENDBRANCH   6   8
TORSDOF 3
ENDMDL
MODEL 2
REMARK VINA RESULT:       0.1      2.812      4.663
REMARK  3 active torsions:
REMARK  status: ('A' for Active; 'I' for Inactive)
REMARK    1  A    between atoms: C6_6  and  C7_7 
REMARK    2  A    between atoms: C7_7  and  C8_8 
REMARK    3  A    between atoms: C8_8  and  C9_9 
ROOT
HETATM    1  C1  UNL     1     -32.732   6.232   1.620  1.00 20.00     0.069 C 
HETATM    2  C2  UNL     1     -31.047   8.769   1.241  1.00 20.00     0.002 C 
HETATM    3  C3  UNL     1     -32.381   9.095   0.572  1.00 20.00     0.002 C 
HETATM    4  C4  UNL     1     -31.389   8.090   2.567  1.00 20.00     0.024 C 
HETATM    5  C5  UNL     1     -33.470   8.598   1.525  1.00 20.00     0.024 C 
HETATM    6  C6  UNL     1     -32.794   7.508   2.365  1.00 20.00     0.049 C 
HETATM    7  N10 UNL     1     -32.683   5.231   1.036  1.00 20.00    -0.196 NA
ENDROOT
BRANCH   6   8
HETATM    8  C7  UNL     1     -33.514   7.282   3.693  1.00 20.00     0.026 C 
BRANCH   8   9
HETATM    9  C8  UNL     1     -34.916   6.719   3.473  1.00 20.00     0.017 C 
BRANCH   9  10
HETATM   10  C9  UNL     1     -35.198   5.575   4.437  1.00 20.00     0.114 C 
HETATM   11 CL11 UNL     1     -34.111   4.206   4.111  1.00 20.00    -0.130 Cl
ENDBRANCH   9  10
ENDBRANCH   8   9
ENDBRANCH   6   8
TORSDOF 3
ENDMDL
MODEL 3
REMARK VINA RESULT:       0.2      2.011      2.590
REMARK  3 active torsions:
REMARK  status: ('A' for Active; 'I' for Inactive)
REMARK    1  A    between atoms: C6_6  and  C7_7 
REMARK    2  A    between atoms: C7_7  and  C8_8 
REMARK    3  A    between atoms: C8_8  and  C9_9 
ROOT
HETATM    1  C1  UNL     1     -33.790   5.752   0.994  1.00 20.00     0.069 C 
HETATM    2  C2  UNL     1     -35.040   6.204   3.760  1.00 20.00     0.002 C 
HETATM    3  C3  UNL     1     -34.351   4.845   3.872  1.00 20.00     0.002 C 
HETATM    4  C4  UNL     1     -34.054   7.125   3.042  1.00 20.00     0.024 C 
HETATM    5  C5  UNL     1     -32.978   5.007   3.216  1.00 20.00     0.024 C 
HETATM    6  C6  UNL     1     -33.138   6.186   2.248  1.00 20.00     0.049 C 
HETATM    7  N10 UNL     1     -34.302   5.412   0.010  1.00 20.00    -0.196 NA
ENDROOT
BRANCH   6   8
HETATM    8  C7  UNL     1     -31.796   6.840   1.919  1.00 20.00     0.026 C 
BRANCH   8   9
HETATM    9  C8  UNL     1     -31.914   8.361   1.892  1.00 20.00     0.017 C 
BRANCH   9  10
HETATM   10  C9  UNL     1     -31.897   8.881   0.461  1.00 20.00     0.114 C 
HETATM   11 CL11 UNL     1     -32.653  10.488   0.375  1.00 20.00    -0.130 Cl
ENDBRANCH   9  10
ENDBRANCH   8   9
ENDBRANCH   6   8
TORSDOF 3
ENDMDL
MODEL 4
REMARK VINA RESULT:       0.5      2.958      4.308
REMARK  3 active torsions:
REMARK  status: ('A' for Active; 'I' for Inactive)
REMARK    1  A    between atoms: C6_6  and  C7_7 
REMARK    2  A    between atoms: C7_7  and  C8_8 
REMARK    3  A    between atoms: C8_8  and  C9_9 
ROOT
HETATM    1  C1  UNL     1     -32.462   7.872   1.578  1.00 20.00     0.069 C 
HETATM    2  C2  UNL     1     -33.170   5.245   0.159  1.00 20.00     0.002 C 
HETATM    3  C3  UNL     1     -31.806   4.978   0.792  1.00 20.00     0.002 C 
HETATM    4  C4  UNL     1     -34.002   5.960   1.222  1.00 20.00     0.024 C 
HETATM    5  C5  UNL     1     -31.876   5.546   2.211  1.00 20.00     0.024 C 
HETATM    6  C6  UNL     1     -32.976   6.612   2.158  1.00 20.00     0.049 C 
HETATM    7  N10 UNL     1     -32.058   8.859   1.123  1.00 20.00    -0.196 NA
ENDROOT
BRANCH   6   8
HETATM    8  C7  UNL     1     -33.563   6.896   3.540  1.00 20.00     0.026 C 
BRANCH   8   9
HETATM    9  C8  UNL     1     -35.039   6.512   3.604  1.00 20.00     0.017 C 
BRANCH   9  10
HETATM   10  C9  UNL     1     -35.257   5.362   4.577  1.00 20.00     0.114 C 
HETATM   11 CL11 UNL     1     -34.115   4.040   4.242  1.00 20.00    -0.130 Cl
ENDBRANCH   9  10
ENDBRANCH   8   9
ENDBRANCH   6   8
TORSDOF 3
ENDMDL
MODEL 5
REMARK VINA RESULT:       0.5      1.620      2.232
REMARK  3 active torsions:
REMARK  status: ('A' for Active; 'I' for Inactive)
REMARK    1  A    between atoms: C6_6  and  C7_7 
REMARK    2  A    between atoms: C7_7  and  C8_8 
REMARK    3  A    between atoms: C8_8  and  C9_9 
ROOT
HETATM    1  C1  UNL     1     -33.297   4.955   3.377  1.00 20.00     0.069 C 
HETATM    2  C2  UNL     1     -35.565   6.980   3.794  1.00 20.00     0.002 C 
HETATM    3  C3  UNL     1     -34.450   7.462   4.721  1.00 20.00     0.002 C 
HETATM    4  C4  UNL     1     -34.893   6.623   2.469  1.00 20.00     0.024 C 
HETATM    5  C5  UNL     1     -33.154   7.373   3.913  1.00 20.00     0.024 C 
HETATM    6  C6  UNL     1     -33.433   6.323   2.831  1.00 20.00     0.049 C 
HETATM    7  N10 UNL     1     -33.191   3.882   3.805  1.00 20.00    -0.196 NA
ENDROOT
BRANCH   6   8
HETATM    8  C7  UNL     1     -32.502   6.480   1.629  1.00 20.00     0.026 C 
BRANCH   8   9
HETATM    9  C8  UNL     1     -31.790   7.830   1.654  1.00 20.00     0.017 C 
BRANCH   9  10
HETATM   10  C9  UNL     1     -31.936   8.545   0.318  1.00 20.00     0.114 C 
HETATM   11 CL11 UNL     1     -32.598  10.178   0.558  1.00 20.00    -0.130 Cl
ENDBRANCH   9  10
ENDBRANCH   8   9
ENDBRANCH   6   8
TORSDOF 3
ENDMDL
MODEL 6
REMARK VINA RESULT:       0.7      1.745      2.607
REMARK  3 active torsions:
REMARK  status: ('A' for Active; 'I' for Inactive)
REMARK    1  A    between atoms: C6_6  and  C7_7 
REMARK    2  A    between atoms: C7_7  and  C8_8 
REMARK    3  A    between atoms: C8_8  and  C9_9 
ROOT
HETATM    1  C1  UNL     1     -33.699   6.625   2.928  1.00 20.00     0.069 C 
HETATM    2  C2  UNL     1     -32.244   4.579   1.163  1.00 20.00     0.002 C 
HETATM    3  C3  UNL     1     -33.448   5.013   0.328  1.00 20.00     0.002 C 
HETATM    4  C4  UNL     1     -31.652   5.857   1.755  1.00 20.00     0.024 C 
HETATM    5  C5  UNL     1     -33.529   6.535   0.455  1.00 20.00     0.024 C 
HETATM    6  C6  UNL     1     -32.811   6.863   1.770  1.00 20.00     0.049 C 
HETATM    7  N10 UNL     1     -34.395   6.437   3.837  1.00 20.00    -0.196 NA
ENDROOT
BRANCH   6   8
HETATM    8  C7  UNL     1     -32.313   8.307   1.804  1.00 20.00     0.026 C 
BRANCH   8   9
HETATM    9  C8  UNL     1     -31.645   8.694   0.488  1.00 20.00     0.017 C 
BRANCH   9  10
HETATM   10  C9  UNL     1     -32.407   9.819  -0.197  1.00 20.00     0.114 C 
HETATM   11 CL11 UNL     1     -32.750  11.128   0.957  1.00 20.00    -0.130 Cl
ENDBRANCH   9  10
ENDBRANCH   8   9
ENDBRANCH   6   8
TORSDOF 3
ENDMDL
MODEL 7
REMARK VINA RESULT:       0.8      3.195      4.655
REMARK  3 active torsions:
REMARK  status: ('A' for Active; 'I' for Inactive)
REMARK    1  A    between atoms: C6_6  and  C7_7 
REMARK    2  A    between atoms: C7_7  and  C8_8 
REMARK    3  A    between atoms: C8_8  and  C9_9 
ROOT
HETATM    1  C1  UNL     1     -35.733   6.579   3.237  1.00 20.00     0.069 C 
HETATM    2  C2  UNL     1     -32.984   7.474   2.207  1.00 20.00     0.002 C 
HETATM    3  C3  UNL     1     -33.170   8.244   3.514  1.00 20.00     0.002 C 
HETATM    4  C4  UNL     1     -33.430   6.040   2.489  1.00 20.00     0.024 C 
HETATM    5  C5  UNL     1     -33.720   7.239   4.527  1.00 20.00     0.024 C 
HETATM    6  C6  UNL     1     -34.390   6.149   3.681  1.00 20.00     0.049 C 
HETATM    7  N10 UNL     1     -36.787   6.917   2.888  1.00 20.00    -0.196 NA
ENDROOT
BRANCH   6   8
HETATM    8  C7  UNL     1     -34.509   4.829   4.441  1.00 20.00     0.026 C 
BRANCH   8   9
HETATM    9  C8  UNL     1     -33.659   3.739   3.793  1.00 20.00     0.017 C 
BRANCH   9  10
HETATM   10  C9  UNL     1     -33.311   2.652   4.802  1.00 20.00     0.114 C 
HETATM   11 CL11 UNL     1     -32.433   3.346   6.183  1.00 20.00    -0.130 Cl
ENDBRANCH   9  10
ENDBRANCH   8   9
ENDBRANCH   6   8
TORSDOF 3
ENDMDL
MODEL 8
REMARK VINA RESULT:       0.9      1.488      1.488
REMARK  3 active torsions:
REMARK  status: ('A' for Active; 'I' for Inactive)
REMARK    1  A    between atoms: C6_6  and  C7_7 
REMARK    2  A    between atoms: C7_7  and  C8_8 
REMARK    3  A    between atoms: C8_8  and  C9_9 
ROOT
HETATM    1  C1  UNL     1     -33.539   7.486   4.554  1.00 20.00     0.069 C 
HETATM    2  C2  UNL     1     -34.309   4.515   4.536  1.00 20.00     0.002 C 
HETATM    3  C3  UNL     1     -35.645   5.254   4.587  1.00 20.00     0.002 C 
HETATM    4  C4  UNL     1     -33.458   5.244   3.496  1.00 20.00     0.024 C 
HETATM    5  C5  UNL     1     -35.541   6.396   3.576  1.00 20.00     0.024 C 
HETATM    6  C6  UNL     1     -34.038   6.662   3.431  1.00 20.00     0.049 C 
HETATM    7  N10 UNL     1     -33.147   8.131   5.435  1.00 20.00    -0.196 NA
ENDROOT
BRANCH   6   8
HETATM    8  C7  UNL     1     -33.705   7.356   2.111  1.00 20.00     0.026 C 
BRANCH   8   9
HETATM    9  C8  UNL     1     -32.332   8.019   2.165  1.00 20.00     0.017 C 
BRANCH   9  10
HETATM   10  C9  UNL     1     -31.377   7.371   1.172  1.00 20.00     0.114 C 
HETATM   11 CL11 UNL     1     -31.768   5.648   0.970  1.00 20.00    -0.130 Cl
ENDBRANCH   9  10
ENDBRANCH   8   9
ENDBRANCH   6   8
TORSDOF 3
ENDMDL
MODEL 9
REMARK VINA RESULT:       1.1      2.402      4.435
REMARK  3 active torsions:
REMARK  status: ('A' for Active; 'I' for Inactive)
REMARK    1  A    between atoms: C6_6  and  C7_7 
REMARK    2  A    between atoms: C7_7  and  C8_8 
REMARK    3  A    between atoms: C8_8  and  C9_9 
ROOT
HETATM    1  C1  UNL     1     -32.786   7.908   3.836  1.00 20.00     0.069 C 
HETATM    2  C2  UNL     1     -32.298   9.087   1.044  1.00 20.00     0.002 C 
HETATM    3  C3  UNL     1     -31.087   8.189   1.295  1.00 20.00     0.002 C 
HETATM    4  C4  UNL     1     -33.521   8.291   1.497  1.00 20.00     0.024 C 
HETATM    5  C5  UNL     1     -31.634   6.890   1.889  1.00 20.00     0.024 C 
HETATM    6  C6  UNL     1     -32.981   7.276   2.513  1.00 20.00     0.049 C 
HETATM    7  N10 UNL     1     -32.633   8.405   4.873  1.00 20.00    -0.196 NA
ENDROOT
BRANCH   6   8
HETATM    8  C7  UNL     1     -33.907   6.070   2.663  1.00 20.00     0.026 C 
BRANCH   8   9
HETATM    9  C8  UNL     1     -34.933   6.294   3.770  1.00 20.00     0.017 C 
BRANCH   9  10
HETATM   10  C9  UNL     1     -35.177   5.010   4.552  1.00 20.00     0.114 C 
HETATM   11 CL11 UNL     1     -33.894   3.826   4.214  1.00 20.00    -0.130 Cl
ENDBRANCH   9  10
ENDBRANCH   8   9
ENDBRANCH   6   8
TORSDOF 3
ENDMDL
