MODEL 1
REMARK VINA RESULT:      -0.7      0.000      0.000
REMARK  0 active torsions:
REMARK  status: ('A' for Active; 'I' for Inactive)
ROOT
HETATM    1  C1  UNL     1     -32.434   9.078   0.845  1.00 20.00     0.069 C 
HETATM    2  C2  UNL     1     -33.775   6.542   3.313  1.00 20.00     0.002 C 
HETATM    3  C3  UNL     1     -32.990   5.651   2.351  1.00 20.00     0.002 C 
HETATM    4  C4  UNL     1     -33.679   7.961   2.754  1.00 20.00     0.024 C 
HETATM    5  C5  UNL     1     -32.456   6.574   1.254  1.00 20.00     0.024 C 
HETATM    6  C6  UNL     1     -32.409   7.966   1.894  1.00 20.00     0.045 C 
HETATM    7  C7  UNL     1     -31.204   8.117   2.737  1.00 20.00     0.031 C 
HETATM    8  N8  UNL     1     -32.451   9.921   0.050  1.00 20.00    -0.196 NA
ENDROOT
TORSDOF 0
ENDMDL
MODEL 2
REMARK VINA RESULT:      -0.5      1.576      2.211
REMARK  0 active torsions:
REMARK  status: ('A' for Active; 'I' for Inactive)
ROOT
HETATM    1  C1  UNL     1     -32.722   7.812   2.296  1.00 20.00     0.069 C 
HETATM    2  C2  UNL     1     -35.630   6.122   4.029  1.00 20.00     0.002 C 
HETATM    3  C3  UNL     1     -34.541   5.054   4.141  1.00 20.00     0.002 C 
HETATM    4  C4  UNL     1     -35.020   7.270   3.226  1.00 20.00     0.024 C 
HETATM    5  C5  UNL     1     -33.324   5.608   3.399  1.00 20.00     0.024 C 
HETATM    6  C6  UNL     1     -33.505   7.130   3.418  1.00 20.00     0.045 C 
HETATM    7  C7  UNL     1     -33.085   7.693   4.718  1.00 20.00     0.031 C 
HETATM    8  N8  UNL     1     -32.127   8.330   1.445  1.00 20.00    -0.196 NA
ENDROOT
TORSDOF 0
ENDMDL
MODEL 3
REMARK VINA RESULT:      -0.4      2.941      4.013
REMARK  0 active torsions:
REMARK  status: ('A' for Active; 'I' for Inactive)
ROOT
HETATM    1  C1  UNL     1     -34.070   4.861   3.971  1.00 20.00     0.069 C 
HETATM    2  C2  UNL     1     -32.661   8.284   3.185  1.00 20.00     0.002 C 
HETATM    3  C3  UNL     1     -32.658   7.625   1.806  1.00 20.00     0.002 C 
HETATM    4  C4  UNL     1     -33.151   7.219   4.166  1.00 20.00     0.024 C 
HETATM    5  C5  UNL     1     -33.146   6.191   2.018  1.00 20.00     0.024 C 
HETATM    6  C6  UNL     1     -33.964   6.237   3.313  1.00 20.00     0.045 C 
HETATM    7  C7  UNL     1     -35.323   6.762   3.059  1.00 20.00     0.031 C 
HETATM    8  N8  UNL     1     -34.151   3.817   4.470  1.00 20.00    -0.196 NA
ENDROOT
TORSDOF 0
ENDMDL
MODEL 4
REMARK VINA RESULT:       0.1      1.636      2.797
REMARK  0 active torsions:
REMARK  status: ('A' for Active; 'I' for Inactive)
ROOT
HETATM    1  C1  UNL     1     -32.318   7.314   2.159  1.00 20.00     0.069 C 
HETATM    2  C2  UNL     1     -34.271   4.638   3.989  1.00 20.00     0.002 C 
HETATM    3  C3  UNL     1     -35.215   5.836   4.093  1.00 20.00     0.002 C 
HETATM    4  C4  UNL     1     -33.016   5.146   3.279  1.00 20.00     0.024 C 
HETATM    5  C5  UNL     1     -34.486   7.012   3.442  1.00 20.00     0.024 C 
HETATM    6  C6  UNL     1     -33.478   6.372   2.481  1.00 20.00     0.045 C 
HETATM    7  C7  UNL     1     -34.137   5.962   1.223  1.00 20.00     0.031 C 
HETATM    8  N8  UNL     1     -31.438   8.029   1.914  1.00 20.00    -0.196 NA
ENDROOT
TORSDOF 0
ENDMDL
MODEL 5
REMARK VINA RESULT:       0.3      0.994      1.684
REMARK  0 active torsions:
REMARK  status: ('A' for Active; 'I' for Inactive)
ROOT
HETATM    1  C1  UNL     1     -32.413   8.925   0.994  1.00 20.00     0.069 C 
HETATM    2  C2  UNL     1     -32.872   7.801   4.577  1.00 20.00     0.002 C 
HETATM    3  C3  UNL     1     -34.139   7.257   3.918  1.00 20.00     0.002 C 
HETATM    4  C4  UNL     1     -32.122   8.568   3.489  1.00 20.00     0.024 C 
HETATM    5  C5  UNL     1     -34.096   7.721   2.462  1.00 20.00     0.024 C 
HETATM    6  C6  UNL     1     -32.612   7.965   2.167  1.00 20.00     0.045 C 
HETATM    7  C7  UNL     1     -31.916   6.693   1.879  1.00 20.00     0.031 C 
HETATM    8  N8  UNL     1     -32.262   9.652   0.103  1.00 20.00    -0.196 NA
ENDROOT
TORSDOF 0
ENDMDL
MODEL 6
REMARK VINA RESULT:       0.6      2.441      3.445
REMARK  0 active torsions:
REMARK  status: ('A' for Active; 'I' for Inactive)
ROOT
HETATM    1  C1  UNL     1     -34.592   6.732   3.660  1.00 20.00     0.069 C 
HETATM    2  C2  UNL     1     -31.604   7.478   1.462  1.00 20.00     0.002 C 
HETATM    3  C3  UNL     1     -32.390   8.786   1.370  1.00 20.00     0.002 C 
HETATM    4  C4  UNL     1     -32.449   6.533   2.316  1.00 20.00     0.024 C 
HETATM    5  C5  UNL     1     -33.673   8.571   2.174  1.00 20.00     0.024 C 
HETATM    6  C6  UNL     1     -33.337   7.451   3.165  1.00 20.00     0.045 C 
HETATM    7  C7  UNL     1     -32.589   7.981   4.325  1.00 20.00     0.031 C 
HETATM    8  N8  UNL     1     -35.544   6.186   4.037  1.00 20.00    -0.196 NA
ENDROOT
TORSDOF 0
ENDMDL
MODEL 7
REMARK VINA RESULT:       0.7      2.129      3.347
REMARK  0 active torsions:
REMARK  status: ('A' for Active; 'I' for Inactive)
ROOT
HETATM    1  C1  UNL     1     -33.648   7.434   3.277  1.00 20.00     0.069 C 
HETATM    2  C2  UNL     1     -31.392   8.258   0.353  1.00 20.00     0.002 C 
HETATM    3  C3  UNL     1     -32.150   9.572   0.538  1.00 20.00     0.002 C 
HETATM    4  C4  UNL     1     -31.976   7.282   1.374  1.00 20.00     0.024 C 
HETATM    5  C5  UNL     1     -33.157   9.329   1.663  1.00 20.00     0.024 C 
HETATM    6  C6  UNL     1     -32.573   8.167   2.475  1.00 20.00     0.045 C 
HETATM    7  C7  UNL     1     -31.520   8.645   3.395  1.00 20.00     0.031 C 
HETATM    8  N8  UNL     1     -34.464   6.877   3.886  1.00 20.00    -0.196 NA
ENDROOT
TORSDOF 0
ENDMDL
MODEL 8
REMARK VINA RESULT:       0.8      3.567      4.419
REMARK  0 active torsions:
REMARK  status: ('A' for Active; 'I' for Inactive)
ROOT
HETATM    1  C1  UNL     1     -33.783   4.180   4.089  1.00 20.00     0.069 C 
HETATM    2  C2  UNL     1     -35.250   7.634   3.599  1.00 20.00     0.002 C 
HETATM    3  C3  UNL     1     -33.817   7.963   4.017  1.00 20.00     0.002 C 
HETATM    4  C4  UNL     1     -35.374   6.112   3.665  1.00 20.00     0.024 C 
HETATM    5  C5  UNL     1     -33.141   6.624   4.316  1.00 20.00     0.024 C 
HETATM    6  C6  UNL     1     -33.940   5.589   3.516  1.00 20.00     0.045 C 
HETATM    7  C7  UNL     1     -33.526   5.587   2.097  1.00 20.00     0.031 C 
HETATM    8  N8  UNL     1     -33.664   3.111   4.523  1.00 20.00    -0.196 NA
ENDROOT
TORSDOF 0
ENDMDL
MODEL 9
REMARK VINA RESULT:       1.0      2.370      3.193
REMARK  0 active torsions:
REMARK  status: ('A' for Active; 'I' for Inactive)
ROOT
HETATM    1  C1  UNL     1     -32.020   5.335   1.555  1.00 20.00     0.069 C 
HETATM    2  C2  UNL     1     -34.697   6.504   3.960  1.00 20.00     0.002 C 
HETATM    3  C3  UNL     1     -33.914   7.795   3.718  1.00 20.00     0.002 C 
HETATM    4  C4  UNL     1     -33.966   5.410   3.182  1.00 20.00     0.024 C 
HETATM    5  C5  UNL     1     -32.747   7.421   2.804  1.00 20.00     0.024 C 
HETATM    6  C6  UNL     1     -33.203   6.151   2.077  1.00 20.00     0.045 C 
HETATM    7  C7  UNL     1     -34.100   6.484   0.950  1.00 20.00     0.031 C 
HETATM    8  N8  UNL     1     -31.122   4.717   1.159  1.00 20.00    -0.196 NA
ENDROOT
TORSDOF 0
ENDMDL
