MODEL 1
REMARK VINA RESULT:      -2.0      0.000      0.000
REMARK  2 active torsions:
REMARK  status: ('A' for Active; 'I' for Inactive)
REMARK    1  A    between atoms: C3_3  and  C4_4 
REMARK    2  A    between atoms: C3_3  and  O6_6 
ROOT
HETATM    1  C1  UNL     1     -32.265   8.721   1.161  1.00 20.00     0.081 C 
HETATM    2  C4  UNL     1     -32.145   7.642   2.149  1.00 20.00     0.212 C 
HETATM    3  N5  UNL     1     -32.358   9.576   0.383  1.00 20.00    -0.196 NA
HETATM    4 CL7  UNL     1     -32.075   6.089   1.273  1.00 20.00    -0.107 Cl
ENDROOT
BRANCH   2   5
HETATM    5  C3  UNL     1     -33.295   7.648   3.152  1.00 20.00     0.202 C 
BRANCH   5   6
HETATM    6  O6  UNL     1     -33.949   6.386   3.189  1.00 20.00    -0.394 OA
HETATM    7  C2  UNL     1     -35.119   6.429   3.993  1.00 20.00     0.201 C 
ENDBRANCH   5   6
ENDBRANCH   2   5
TORSDOF 2
ENDMDL
MODEL 2
REMARK VINA RESULT:      -1.8      2.608      3.554
REMARK  2 active torsions:
REMARK  status: ('A' for Active; 'I' for Inactive)
REMARK    1  A    between atoms: C3_3  and  C4_4 
REMARK    2  A    between atoms: C3_3  and  O6_6 
ROOT
HETATM    1  C1  UNL     1     -33.875   6.882   3.055  1.00 20.00     0.081 C 
HETATM    2  C4  UNL     1     -33.078   7.002   1.829  1.00 20.00     0.212 C 
HETATM    3  N5  UNL     1     -34.507   6.791   4.024  1.00 20.00    -0.196 NA
HETATM    4 CL7  UNL     1     -32.340   5.413   1.487  1.00 20.00    -0.107 Cl
ENDROOT
BRANCH   2   5
HETATM    5  C3  UNL     1     -32.008   8.084   1.939  1.00 20.00     0.202 C 
BRANCH   5   6
HETATM    6  O6  UNL     1     -31.690   8.622   0.662  1.00 20.00    -0.394 OA
HETATM    7  C2  UNL     1     -32.449   9.790   0.384  1.00 20.00     0.201 C 
ENDBRANCH   5   6
ENDBRANCH   2   5
TORSDOF 2
ENDMDL
MODEL 3
REMARK VINA RESULT:      -1.8      2.970      3.500
REMARK  2 active torsions:
REMARK  status: ('A' for Active; 'I' for Inactive)
REMARK    1  A    between atoms: C3_3  and  C4_4 
REMARK    2  A    between atoms: C3_3  and  O6_6 
ROOT
HETATM    1  C1  UNL     1     -33.468   5.914   2.419  1.00 20.00     0.081 C 
HETATM    2  C4  UNL     1     -34.494   6.128   3.446  1.00 20.00     0.212 C 
HETATM    3  N5  UNL     1     -32.660   5.742   1.604  1.00 20.00    -0.196 NA
HETATM    4 CL7  UNL     1     -34.095   7.627   4.328  1.00 20.00    -0.107 Cl
ENDROOT
BRANCH   2   5
HETATM    5  C3  UNL     1     -34.605   4.947   4.405  1.00 20.00     0.202 C 
BRANCH   5   6
HETATM    6  O6  UNL     1     -34.032   3.774   3.842  1.00 20.00    -0.394 OA
HETATM    7  C2  UNL     1     -33.250   3.067   4.794  1.00 20.00     0.201 C 
ENDBRANCH   5   6
ENDBRANCH   2   5
TORSDOF 2
ENDMDL
MODEL 4
REMARK VINA RESULT:      -1.7      3.605      4.353
REMARK  2 active torsions:
REMARK  status: ('A' for Active; 'I' for Inactive)
REMARK    1  A    between atoms: C3_3  and  C4_4 
REMARK    2  A    between atoms: C3_3  and  O6_6 
ROOT
HETATM    1  C1  UNL     1     -33.778   4.477   3.894  1.00 20.00     0.081 C 
HETATM    2  C4  UNL     1     -33.649   5.845   3.378  1.00 20.00     0.212 C 
HETATM    3  N5  UNL     1     -33.875   3.395   4.301  1.00 20.00    -0.196 NA
HETATM    4 CL7  UNL     1     -35.165   6.718   3.730  1.00 20.00    -0.107 Cl
ENDROOT
BRANCH   2   5
HETATM    5  C3  UNL     1     -33.341   5.872   1.884  1.00 20.00     0.202 C 
BRANCH   5   6
HETATM    6  O6  UNL     1     -32.092   6.503   1.629  1.00 20.00    -0.394 OA
HETATM    7  C2  UNL     1     -32.150   7.898   1.890  1.00 20.00     0.201 C 
ENDBRANCH   5   6
ENDBRANCH   2   5
TORSDOF 2
ENDMDL
MODEL 5
REMARK VINA RESULT:      -1.5      2.312      2.672
REMARK  2 active torsions:
REMARK  status: ('A' for Active; 'I' for Inactive)
REMARK    1  A    between atoms: C3_3  and  C4_4 
REMARK    2  A    between atoms: C3_3  and  O6_6 
ROOT
HETATM    1  C1  UNL     1     -32.959   7.547   2.605  1.00 20.00     0.081 C 
HETATM    2  C4  UNL     1     -34.014   7.547   3.625  1.00 20.00     0.212 C 
HETATM    3  N5  UNL     1     -32.128   7.547   1.795  1.00 20.00    -0.196 NA
HETATM    4 CL7  UNL     1     -33.299   8.098   5.165  1.00 20.00    -0.107 Cl
ENDROOT
BRANCH   2   5
HETATM    5  C3  UNL     1     -34.660   6.175   3.787  1.00 20.00     0.202 C 
BRANCH   5   6
HETATM    6  O6  UNL     1     -33.749   5.136   3.450  1.00 20.00    -0.394 OA
HETATM    7  C2  UNL     1     -33.954   3.982   4.253  1.00 20.00     0.201 C 
ENDBRANCH   5   6
ENDBRANCH   2   5
TORSDOF 2
ENDMDL
MODEL 6
REMARK VINA RESULT:      -1.4      2.564      2.730
REMARK  2 active torsions:
REMARK  status: ('A' for Active; 'I' for Inactive)
REMARK    1  A    between atoms: C3_3  and  C4_4 
REMARK    2  A    between atoms: C3_3  and  O6_6 
ROOT
HETATM    1  C1  UNL     1     -32.705   7.270   2.163  1.00 20.00     0.081 C 
HETATM    2  C4  UNL     1     -33.765   6.449   2.758  1.00 20.00     0.212 C 
HETATM    3  N5  UNL     1     -31.867   7.917   1.688  1.00 20.00    -0.196 NA
HETATM    4 CL7  UNL     1     -34.347   7.273   4.230  1.00 20.00    -0.107 Cl
ENDROOT
BRANCH   2   5
HETATM    5  C3  UNL     1     -33.289   5.035   3.080  1.00 20.00     0.202 C 
BRANCH   5   6
HETATM    6  O6  UNL     1     -34.117   4.426   4.062  1.00 20.00    -0.394 OA
HETATM    7  C2  UNL     1     -33.512   3.262   4.606  1.00 20.00     0.201 C 
ENDBRANCH   5   6
ENDBRANCH   2   5
TORSDOF 2
ENDMDL
MODEL 7
REMARK VINA RESULT:      -1.3      2.238      2.367
REMARK  2 active torsions:
REMARK  status: ('A' for Active; 'I' for Inactive)
REMARK    1  A    between atoms: C3_3  and  C4_4 
REMARK    2  A    between atoms: C3_3  and  O6_6 
ROOT
HETATM    1  C1  UNL     1     -32.633   6.006   1.568  1.00 20.00     0.081 C 
HETATM    2  C4  UNL     1     -33.100   7.307   2.062  1.00 20.00     0.212 C 
HETATM    3  N5  UNL     1     -32.269   4.976   1.178  1.00 20.00    -0.196 NA
HETATM    4 CL7  UNL     1     -31.975   8.562   1.474  1.00 20.00    -0.107 Cl
ENDROOT
BRANCH   2   5
HETATM    5  C3  UNL     1     -33.206   7.342   3.583  1.00 20.00     0.202 C 
BRANCH   5   6
HETATM    6  O6  UNL     1     -34.560   7.466   4.000  1.00 20.00    -0.394 OA
HETATM    7  C2  UNL     1     -35.200   6.200   4.073  1.00 20.00     0.201 C 
ENDBRANCH   5   6
ENDBRANCH   2   5
TORSDOF 2
ENDMDL
MODEL 8
REMARK VINA RESULT:      -1.3      2.790      3.527
REMARK  2 active torsions:
REMARK  status: ('A' for Active; 'I' for Inactive)
REMARK    1  A    between atoms: C3_3  and  C4_4 
REMARK    2  A    between atoms: C3_3  and  O6_6 
ROOT
HETATM    1  C1  UNL     1     -32.835   6.248   1.824  1.00 20.00     0.081 C 
HETATM    2  C4  UNL     1     -32.693   7.273   2.865  1.00 20.00     0.212 C 
HETATM    3  N5  UNL     1     -32.942   5.437   1.001  1.00 20.00    -0.196 NA
HETATM    4 CL7  UNL     1     -34.222   7.350   3.782  1.00 20.00    -0.107 Cl
ENDROOT
BRANCH   2   5
HETATM    5  C3  UNL     1     -32.339   8.639   2.285  1.00 20.00     0.202 C 
BRANCH   5   6
HETATM    6  O6  UNL     1     -32.086   8.553   0.888  1.00 20.00    -0.394 OA
HETATM    7  C2  UNL     1     -32.397   9.770   0.226  1.00 20.00     0.201 C 
ENDBRANCH   5   6
ENDBRANCH   2   5
TORSDOF 2
ENDMDL
MODEL 9
REMARK VINA RESULT:      -1.1      2.591      3.487
REMARK  2 active torsions:
REMARK  status: ('A' for Active; 'I' for Inactive)
REMARK    1  A    between atoms: C3_3  and  C4_4 
REMARK    2  A    between atoms: C3_3  and  O6_6 
ROOT
HETATM    1  C1  UNL     1     -33.977   7.249   3.943  1.00 20.00     0.081 C 
HETATM    2  C4  UNL     1     -33.972   6.238   2.880  1.00 20.00     0.212 C 
HETATM    3  N5  UNL     1     -33.983   8.052   4.781  1.00 20.00    -0.196 NA
HETATM    4 CL7  UNL     1     -33.860   4.628   3.644  1.00 20.00    -0.107 Cl
ENDROOT
BRANCH   2   5
HETATM    5  C3  UNL     1     -32.831   6.448   1.889  1.00 20.00     0.202 C 
BRANCH   5   6
HETATM    6  O6  UNL     1     -32.115   7.643   2.178  1.00 20.00    -0.394 OA
HETATM    7  C2  UNL     1     -32.119   8.534   1.072  1.00 20.00     0.201 C 
ENDBRANCH   5   6
ENDBRANCH   2   5
TORSDOF 2
ENDMDL
