MODEL 1
REMARK VINA RESULT:      -2.5      0.000      0.000
REMARK  5 active torsions:
REMARK  status: ('A' for Active; 'I' for Inactive)
REMARK    1  A    between atoms: C1_1  and  C3_3 
REMARK    2  A    between atoms: C3_3  and  C7_7 
REMARK    3  A    between atoms: C4_4  and  C5_5 
REMARK    4  A    between atoms: C4_4  and  C6_6 
REMARK    5  A    between atoms: C5_5  and  C7_7 
ROOT
HETATM    1  C2  UNL     1     -32.683   5.834   1.381  1.00 20.00     0.010 C 
HETATM    2  C7  UNL     1     -32.413   7.129   2.154  1.00 20.00    -0.012 C 
ENDROOT
BRANCH   2   3
HETATM    3  C3  UNL     1     -31.662   8.116   1.245  1.00 20.00     0.073 C 
BRANCH   3   4
HETATM    4  C1  UNL     1     -32.472   9.333   0.856  1.00 20.00     0.231 C 
HETATM    5  O8  UNL     1     -32.532   9.806  -0.274  1.00 20.00    -0.307 OA
ENDBRANCH   3   4
ENDBRANCH   2   3
BRANCH   2   6
HETATM    6  C5  UNL     1     -33.724   7.759   2.677  1.00 20.00     0.005 C 
BRANCH   6   7
HETATM    7  C4  UNL     1     -34.119   7.263   4.074  1.00 20.00     0.015 C 
BRANCH   7   8
HETATM    8  C6  UNL     1     -35.189   6.173   4.043  1.00 20.00     0.114 C 
HETATM    9 CL9  UNL     1     -34.488   4.545   4.201  1.00 20.00    -0.130 Cl
ENDBRANCH   7   8
ENDBRANCH   6   7
ENDBRANCH   2   6
TORSDOF 5
ENDMDL
MODEL 2
REMARK VINA RESULT:      -2.4      3.556      4.998
REMARK  5 active torsions:
REMARK  status: ('A' for Active; 'I' for Inactive)
REMARK    1  A    between atoms: C1_1  and  C3_3 
REMARK    2  A    between atoms: C3_3  and  C7_7 
REMARK    3  A    between atoms: C4_4  and  C5_5 
REMARK    4  A    between atoms: C4_4  and  C6_6 
REMARK    5  A    between atoms: C5_5  and  C7_7 
ROOT
HETATM    1  C2  UNL     1     -33.473   8.211   4.427  1.00 20.00     0.010 C 
HETATM    2  C7  UNL     1     -33.576   6.886   3.663  1.00 20.00    -0.012 C 
ENDROOT
BRANCH   2   3
HETATM    3  C3  UNL     1     -35.021   6.365   3.743  1.00 20.00     0.073 C 
BRANCH   3   4
HETATM    4  C1  UNL     1     -35.154   5.017   4.417  1.00 20.00     0.231 C 
HETATM    5  O8  UNL     1     -34.361   4.090   4.297  1.00 20.00    -0.307 OA
ENDBRANCH   3   4
ENDBRANCH   2   3
BRANCH   2   6
HETATM    6  C5  UNL     1     -33.136   7.046   2.191  1.00 20.00     0.005 C 
BRANCH   6   7
HETATM    7  C4  UNL     1     -32.022   8.084   2.001  1.00 20.00     0.015 C 
BRANCH   7   8
HETATM    8  C6  UNL     1     -31.959   8.644   0.582  1.00 20.00     0.114 C 
HETATM    9 CL9  UNL     1     -32.576  10.310   0.493  1.00 20.00    -0.130 Cl
ENDBRANCH   7   8
ENDBRANCH   6   7
ENDBRANCH   2   6
TORSDOF 5
ENDMDL
MODEL 3
REMARK VINA RESULT:      -2.4      3.458      4.696
REMARK  5 active torsions:
REMARK  status: ('A' for Active; 'I' for Inactive)
REMARK    1  A    between atoms: C1_1  and  C3_3 
REMARK    2  A    between atoms: C3_3  and  C7_7 
REMARK    3  A    between atoms: C4_4  and  C5_5 
REMARK    4  A    between atoms: C4_4  and  C6_6 
REMARK    5  A    between atoms: C5_5  and  C7_7 
ROOT
HETATM    1  C2  UNL     1     -32.828   5.802   1.764  1.00 20.00     0.010 C 
HETATM    2  C7  UNL     1     -33.272   7.198   2.214  1.00 20.00    -0.012 C 
ENDROOT
BRANCH   2   3
HETATM    3  C3  UNL     1     -33.779   7.126   3.664  1.00 20.00     0.073 C 
BRANCH   3   4
HETATM    4  C1  UNL     1     -35.129   6.459   3.813  1.00 20.00     0.231 C 
HETATM    5  O8  UNL     1     -35.329   5.401   4.399  1.00 20.00    -0.307 OA
ENDBRANCH   3   4
ENDBRANCH   2   3
BRANCH   2   6
HETATM    6  C5  UNL     1     -32.124   8.224   2.088  1.00 20.00     0.005 C 
BRANCH   6   7
HETATM    7  C4  UNL     1     -31.642   8.420   0.645  1.00 20.00     0.015 C 
BRANCH   7   8
HETATM    8  C6  UNL     1     -32.432   9.486  -0.112  1.00 20.00     0.114 C 
HETATM    9 CL9  UNL     1     -32.727  10.931   0.883  1.00 20.00    -0.130 Cl
ENDBRANCH   7   8
ENDBRANCH   6   7
ENDBRANCH   2   6
TORSDOF 5
ENDMDL
MODEL 4
REMARK VINA RESULT:      -2.4      3.786      5.094
REMARK  5 active torsions:
REMARK  status: ('A' for Active; 'I' for Inactive)
REMARK    1  A    between atoms: C1_1  and  C3_3 
REMARK    2  A    between atoms: C3_3  and  C7_7 
REMARK    3  A    between atoms: C4_4  and  C5_5 
REMARK    4  A    between atoms: C4_4  and  C6_6 
REMARK    5  A    between atoms: C5_5  and  C7_7 
ROOT
HETATM    1  C2  UNL     1     -34.606   7.319   4.059  1.00 20.00     0.010 C 
HETATM    2  C7  UNL     1     -33.787   6.110   3.594  1.00 20.00    -0.012 C 
ENDROOT
BRANCH   2   3
HETATM    3  C3  UNL     1     -34.483   4.818   4.055  1.00 20.00     0.073 C 
BRANCH   3   4
HETATM    4  C1  UNL     1     -33.601   3.590   3.998  1.00 20.00     0.231 C 
HETATM    5  O8  UNL     1     -33.148   3.003   4.975  1.00 20.00    -0.307 OA
ENDBRANCH   3   4
ENDBRANCH   2   3
BRANCH   2   6
HETATM    6  C5  UNL     1     -33.601   6.110   2.060  1.00 20.00     0.005 C 
BRANCH   6   7
HETATM    7  C4  UNL     1     -32.209   6.582   1.618  1.00 20.00     0.015 C 
BRANCH   7   8
HETATM    8  C6  UNL     1     -31.936   8.045   1.961  1.00 20.00     0.114 C 
HETATM    9 CL9  UNL     1     -32.309   9.130   0.602  1.00 20.00    -0.130 Cl
ENDBRANCH   7   8
ENDBRANCH   6   7
ENDBRANCH   2   6
TORSDOF 5
ENDMDL
MODEL 5
REMARK VINA RESULT:      -2.3      1.453      2.457
REMARK  5 active torsions:
REMARK  status: ('A' for Active; 'I' for Inactive)
REMARK    1  A    between atoms: C1_1  and  C3_3 
REMARK    2  A    between atoms: C3_3  and  C7_7 
REMARK    3  A    between atoms: C4_4  and  C5_5 
REMARK    4  A    between atoms: C4_4  and  C6_6 
REMARK    5  A    between atoms: C5_5  and  C7_7 
ROOT
HETATM    1  C2  UNL     1     -33.472   7.824   4.691  1.00 20.00     0.010 C 
HETATM    2  C7  UNL     1     -34.170   7.352   3.411  1.00 20.00    -0.012 C 
ENDROOT
BRANCH   2   3
HETATM    3  C3  UNL     1     -33.117   6.815   2.427  1.00 20.00     0.073 C 
BRANCH   3   4
HETATM    4  C1  UNL     1     -32.081   7.836   2.016  1.00 20.00     0.231 C 
HETATM    5  O8  UNL     1     -32.267   8.743   1.212  1.00 20.00    -0.307 OA
ENDBRANCH   3   4
ENDBRANCH   2   3
BRANCH   2   6
HETATM    6  C5  UNL     1     -35.234   6.272   3.713  1.00 20.00     0.005 C 
BRANCH   6   7
HETATM    7  C4  UNL     1     -34.712   5.142   4.611  1.00 20.00     0.015 C 
BRANCH   7   8
HETATM    8  C6  UNL     1     -34.005   4.035   3.831  1.00 20.00     0.114 C 
HETATM    9 CL9  UNL     1     -33.112   2.930   4.900  1.00 20.00    -0.130 Cl
ENDBRANCH   7   8
ENDBRANCH   6   7
ENDBRANCH   2   6
TORSDOF 5
ENDMDL
MODEL 6
REMARK VINA RESULT:      -2.1      1.491      1.843
REMARK  5 active torsions:
REMARK  status: ('A' for Active; 'I' for Inactive)
REMARK    1  A    between atoms: C1_1  and  C3_3 
REMARK    2  A    between atoms: C3_3  and  C7_7 
REMARK    3  A    between atoms: C4_4  and  C5_5 
REMARK    4  A    between atoms: C4_4  and  C6_6 
REMARK    5  A    between atoms: C5_5  and  C7_7 
ROOT
HETATM    1  C2  UNL     1     -32.995   5.747   1.467  1.00 20.00     0.010 C 
HETATM    2  C7  UNL     1     -33.101   6.393   2.853  1.00 20.00    -0.012 C 
ENDROOT
BRANCH   2   3
HETATM    3  C3  UNL     1     -32.724   7.881   2.750  1.00 20.00     0.073 C 
BRANCH   3   4
HETATM    4  C1  UNL     1     -31.992   8.244   1.477  1.00 20.00     0.231 C 
HETATM    5  O8  UNL     1     -32.242   9.218   0.776  1.00 20.00    -0.307 OA
ENDBRANCH   3   4
ENDBRANCH   2   3
BRANCH   2   6
HETATM    6  C5  UNL     1     -34.518   6.230   3.446  1.00 20.00     0.005 C 
BRANCH   6   7
HETATM    7  C4  UNL     1     -34.659   4.997   4.349  1.00 20.00     0.015 C 
BRANCH   7   8
HETATM    8  C6  UNL     1     -33.848   3.800   3.859  1.00 20.00     0.114 C 
HETATM    9 CL9  UNL     1     -33.023   2.961   5.193  1.00 20.00    -0.130 Cl
ENDBRANCH   7   8
ENDBRANCH   6   7
ENDBRANCH   2   6
TORSDOF 5
ENDMDL
MODEL 7
REMARK VINA RESULT:      -1.9      1.438      2.007
REMARK  5 active torsions:
REMARK  status: ('A' for Active; 'I' for Inactive)
REMARK    1  A    between atoms: C1_1  and  C3_3 
REMARK    2  A    between atoms: C3_3  and  C7_7 
REMARK    3  A    between atoms: C4_4  and  C5_5 
REMARK    4  A    between atoms: C4_4  and  C6_6 
REMARK    5  A    between atoms: C5_5  and  C7_7 
ROOT
HETATM    1  C2  UNL     1     -31.894   8.518   3.184  1.00 20.00     0.010 C 
HETATM    2  C7  UNL     1     -32.332   8.047   1.792  1.00 20.00    -0.012 C 
ENDROOT
BRANCH   2   3
HETATM    3  C3  UNL     1     -31.598   8.873   0.722  1.00 20.00     0.073 C 
BRANCH   3   4
HETATM    4  C1  UNL     1     -32.418  10.010   0.154  1.00 20.00     0.231 C 
HETATM    5  O8  UNL     1     -33.108   9.943  -0.858  1.00 20.00    -0.307 OA
ENDBRANCH   3   4
ENDBRANCH   2   3
BRANCH   2   6
HETATM    6  C5  UNL     1     -32.062   6.539   1.596  1.00 20.00     0.005 C 
BRANCH   6   7
HETATM    7  C4  UNL     1     -33.314   5.670   1.777  1.00 20.00     0.015 C 
BRANCH   7   8
HETATM    8  C6  UNL     1     -33.674   5.436   3.242  1.00 20.00     0.114 C 
HETATM    9 CL9  UNL     1     -34.960   6.531   3.797  1.00 20.00    -0.130 Cl
ENDBRANCH   7   8
ENDBRANCH   6   7
ENDBRANCH   2   6
TORSDOF 5
ENDMDL
MODEL 8
REMARK VINA RESULT:      -1.6      2.920      4.413
REMARK  5 active torsions:
REMARK  status: ('A' for Active; 'I' for Inactive)
REMARK    1  A    between atoms: C1_1  and  C3_3 
REMARK    2  A    between atoms: C3_3  and  C7_7 
REMARK    3  A    between atoms: C4_4  and  C5_5 
REMARK    4  A    between atoms: C4_4  and  C6_6 
REMARK    5  A    between atoms: C5_5  and  C7_7 
ROOT
HETATM    1  C2  UNL     1     -33.534   8.157   4.916  1.00 20.00     0.010 C 
HETATM    2  C7  UNL     1     -33.627   7.146   3.768  1.00 20.00    -0.012 C 
ENDROOT
BRANCH   2   3
HETATM    3  C3  UNL     1     -35.037   6.530   3.747  1.00 20.00     0.073 C 
BRANCH   3   4
HETATM    4  C1  UNL     1     -35.123   5.166   4.394  1.00 20.00     0.231 C 
HETATM    5  O8  UNL     1     -34.379   4.223   4.147  1.00 20.00    -0.307 OA
ENDBRANCH   3   4
ENDBRANCH   2   3
BRANCH   2   6
HETATM    6  C5  UNL     1     -33.300   7.804   2.408  1.00 20.00     0.005 C 
BRANCH   6   7
HETATM    7  C4  UNL     1     -31.981   7.311   1.799  1.00 20.00     0.015 C 
BRANCH   7   8
HETATM    8  C6  UNL     1     -31.965   5.806   1.540  1.00 20.00     0.114 C 
HETATM    9 CL9  UNL     1     -33.389   5.272   0.617  1.00 20.00    -0.130 Cl
ENDBRANCH   7   8
ENDBRANCH   6   7
ENDBRANCH   2   6
TORSDOF 5
ENDMDL
MODEL 9
REMARK VINA RESULT:      -1.3      3.049      4.252
REMARK  5 active torsions:
REMARK  status: ('A' for Active; 'I' for Inactive)
REMARK    1  A    between atoms: C1_1  and  C3_3 
REMARK    2  A    between atoms: C3_3  and  C7_7 
REMARK    3  A    between atoms: C4_4  and  C5_5 
REMARK    4  A    between atoms: C4_4  and  C6_6 
REMARK    5  A    between atoms: C5_5  and  C7_7 
ROOT
HETATM    1  C2  UNL     1     -34.183   4.173   4.008  1.00 20.00     0.010 C 
HETATM    2  C7  UNL     1     -34.201   5.446   3.154  1.00 20.00    -0.012 C 
ENDROOT
BRANCH   2   3
HETATM    3  C3  UNL     1     -34.902   6.570   3.935  1.00 20.00     0.073 C 
BRANCH   3   4
HETATM    4  C1  UNL     1     -34.042   7.795   4.156  1.00 20.00     0.231 C 
HETATM    5  O8  UNL     1     -33.480   8.078   5.208  1.00 20.00    -0.307 OA
ENDBRANCH   3   4
ENDBRANCH   2   3
BRANCH   2   6
HETATM    6  C5  UNL     1     -32.773   5.874   2.748  1.00 20.00     0.005 C 
BRANCH   6   7
HETATM    7  C4  UNL     1     -32.729   6.668   1.436  1.00 20.00     0.015 C 
BRANCH   7   8
HETATM    8  C6  UNL     1     -31.761   7.848   1.482  1.00 20.00     0.114 C 
HETATM    9 CL9  UNL     1     -32.429   9.292   0.686  1.00 20.00    -0.130 Cl
ENDBRANCH   7   8
ENDBRANCH   6   7
ENDBRANCH   2   6
TORSDOF 5
ENDMDL
