MODEL 1
REMARK VINA RESULT:      -0.2      0.000      0.000
REMARK  1 active torsions:
REMARK  status: ('A' for Active; 'I' for Inactive)
REMARK    1  A    between atoms: C1_1  and  C5_5 
ROOT
HETATM    1  C2  UNL     1     -32.900   7.558   2.593  1.00 20.00     0.029 C 
HETATM    2  C3  UNL     1     -33.575   6.208   2.554  1.00 20.00     0.047 C 
HETATM    3  C4  UNL     1     -32.966   7.898   4.063  1.00 20.00     0.169 C 
HETATM    4  C5  UNL     1     -34.638   6.329   3.640  1.00 20.00     0.110 C 
HETATM    5  C6  UNL     1     -36.012   6.699   3.097  1.00 20.00     0.053 C 
HETATM    6  O8  UNL     1     -34.208   7.363   4.540  1.00 20.00    -0.373 OA
ENDROOT
BRANCH   4   7
HETATM    7  C1  UNL     1     -34.717   5.073   4.455  1.00 20.00     0.268 C 
HETATM    8  O7  UNL     1     -34.197   4.015   4.117  1.00 20.00    -0.304 OA
ENDBRANCH   4   7
TORSDOF 1
ENDMDL
MODEL 2
REMARK VINA RESULT:      -0.1      2.348      4.044
REMARK  1 active torsions:
REMARK  status: ('A' for Active; 'I' for Inactive)
REMARK    1  A    between atoms: C1_1  and  C5_5 
ROOT
HETATM    1  C2  UNL     1     -33.220   5.695   2.505  1.00 20.00     0.029 C 
HETATM    2  C3  UNL     1     -32.667   6.477   1.338  1.00 20.00     0.047 C 
HETATM    3  C4  UNL     1     -33.967   6.761   3.270  1.00 20.00     0.169 C 
HETATM    4  C5  UNL     1     -32.377   7.843   1.951  1.00 20.00     0.110 C 
HETATM    5  C6  UNL     1     -30.924   8.016   2.371  1.00 20.00     0.053 C 
HETATM    6  O8  UNL     1     -33.208   7.968   3.116  1.00 20.00    -0.373 OA
ENDROOT
BRANCH   4   7
HETATM    7  C1  UNL     1     -32.791   8.946   1.024  1.00 20.00     0.268 C 
HETATM    8  O7  UNL     1     -32.029   9.476   0.223  1.00 20.00    -0.304 OA
ENDBRANCH   4   7
TORSDOF 1
ENDMDL
MODEL 3
REMARK VINA RESULT:       0.0      1.554      2.365
REMARK  1 active torsions:
REMARK  status: ('A' for Active; 'I' for Inactive)
REMARK    1  A    between atoms: C1_1  and  C5_5 
ROOT
HETATM    1  C2  UNL     1     -32.151   7.549   1.611  1.00 20.00     0.029 C 
HETATM    2  C3  UNL     1     -33.347   8.181   2.281  1.00 20.00     0.047 C 
HETATM    3  C4  UNL     1     -32.434   6.077   1.789  1.00 20.00     0.169 C 
HETATM    4  C5  UNL     1     -33.645   7.216   3.423  1.00 20.00     0.110 C 
HETATM    5  C6  UNL     1     -33.045   7.656   4.752  1.00 20.00     0.053 C 
HETATM    6  O8  UNL     1     -33.079   5.946   3.063  1.00 20.00    -0.373 OA
ENDROOT
BRANCH   4   7
HETATM    7  C1  UNL     1     -35.120   6.990   3.563  1.00 20.00     0.268 C 
HETATM    8  O7  UNL     1     -35.603   6.033   4.158  1.00 20.00    -0.304 OA
ENDBRANCH   4   7
TORSDOF 1
ENDMDL
MODEL 4
REMARK VINA RESULT:       0.3      1.538      3.119
REMARK  1 active torsions:
REMARK  status: ('A' for Active; 'I' for Inactive)
REMARK    1  A    between atoms: C1_1  and  C5_5 
ROOT
HETATM    1  C2  UNL     1     -34.762   5.321   4.175  1.00 20.00     0.029 C 
HETATM    2  C3  UNL     1     -33.454   5.759   3.562  1.00 20.00     0.047 C 
HETATM    3  C4  UNL     1     -35.715   6.376   3.665  1.00 20.00     0.169 C 
HETATM    4  C5  UNL     1     -33.567   7.279   3.569  1.00 20.00     0.110 C 
HETATM    5  C6  UNL     1     -32.880   7.927   4.764  1.00 20.00     0.053 C 
HETATM    6  O8  UNL     1     -34.967   7.598   3.617  1.00 20.00    -0.373 OA
ENDROOT
BRANCH   4   7
HETATM    7  C1  UNL     1     -33.051   7.861   2.288  1.00 20.00     0.268 C 
HETATM    8  O7  UNL     1     -31.988   7.529   1.775  1.00 20.00    -0.304 OA
ENDBRANCH   4   7
TORSDOF 1
ENDMDL
MODEL 5
REMARK VINA RESULT:       0.3      1.917      2.369
REMARK  1 active torsions:
REMARK  status: ('A' for Active; 'I' for Inactive)
REMARK    1  A    between atoms: C1_1  and  C5_5 
ROOT
HETATM    1  C2  UNL     1     -32.790   5.761   1.805  1.00 20.00     0.029 C 
HETATM    2  C3  UNL     1     -33.315   5.617   3.213  1.00 20.00     0.047 C 
HETATM    3  C4  UNL     1     -32.433   7.228   1.753  1.00 20.00     0.169 C 
HETATM    4  C5  UNL     1     -34.000   6.957   3.459  1.00 20.00     0.110 C 
HETATM    5  C6  UNL     1     -35.501   6.918   3.214  1.00 20.00     0.053 C 
HETATM    6  O8  UNL     1     -33.412   7.904   2.553  1.00 20.00    -0.373 OA
ENDROOT
BRANCH   4   7
HETATM    7  C1  UNL     1     -33.706   7.464   4.839  1.00 20.00     0.268 C 
HETATM    8  O7  UNL     1     -32.857   8.316   5.079  1.00 20.00    -0.304 OA
ENDBRANCH   4   7
TORSDOF 1
ENDMDL
MODEL 6
REMARK VINA RESULT:       0.3      1.885      3.117
REMARK  1 active torsions:
REMARK  status: ('A' for Active; 'I' for Inactive)
REMARK    1  A    between atoms: C1_1  and  C5_5 
ROOT
HETATM    1  C2  UNL     1     -33.737   7.984   4.310  1.00 20.00     0.029 C 
HETATM    2  C3  UNL     1     -32.370   7.982   3.669  1.00 20.00     0.047 C 
HETATM    3  C4  UNL     1     -34.416   6.836   3.601  1.00 20.00     0.169 C 
HETATM    4  C5  UNL     1     -32.668   7.555   2.236  1.00 20.00     0.110 C 
HETATM    5  C6  UNL     1     -32.789   8.728   1.273  1.00 20.00     0.053 C 
HETATM    6  O8  UNL     1     -33.918   6.848   2.257  1.00 20.00    -0.373 OA
ENDROOT
BRANCH   4   7
HETATM    7  C1  UNL     1     -31.644   6.576   1.745  1.00 20.00     0.268 C 
HETATM    8  O7  UNL     1     -31.921   5.444   1.365  1.00 20.00    -0.304 OA
ENDBRANCH   4   7
TORSDOF 1
ENDMDL
MODEL 7
REMARK VINA RESULT:       0.4      2.275      3.728
REMARK  1 active torsions:
REMARK  status: ('A' for Active; 'I' for Inactive)
REMARK    1  A    between atoms: C1_1  and  C5_5 
ROOT
HETATM    1  C2  UNL     1     -34.153   7.086   3.971  1.00 20.00     0.029 C 
HETATM    2  C3  UNL     1     -34.160   7.309   2.478  1.00 20.00     0.047 C 
HETATM    3  C4  UNL     1     -33.110   8.077   4.430  1.00 20.00     0.169 C 
HETATM    4  C5  UNL     1     -32.701   7.637   2.177  1.00 20.00     0.110 C 
HETATM    5  C6  UNL     1     -31.903   6.435   1.693  1.00 20.00     0.053 C 
HETATM    6  O8  UNL     1     -32.115   8.115   3.399  1.00 20.00    -0.373 OA
ENDROOT
BRANCH   4   7
HETATM    7  C1  UNL     1     -32.598   8.766   1.196  1.00 20.00     0.268 C 
HETATM    8  O7  UNL     1     -31.620   8.949   0.479  1.00 20.00    -0.304 OA
ENDBRANCH   4   7
TORSDOF 1
ENDMDL
MODEL 8
REMARK VINA RESULT:       0.5      2.192      3.334
REMARK  1 active torsions:
REMARK  status: ('A' for Active; 'I' for Inactive)
REMARK    1  A    between atoms: C1_1  and  C5_5 
ROOT
HETATM    1  C2  UNL     1     -31.095   8.796   0.584  1.00 20.00     0.029 C 
HETATM    2  C3  UNL     1     -31.109   7.996   1.864  1.00 20.00     0.047 C 
HETATM    3  C4  UNL     1     -32.459   9.444   0.607  1.00 20.00     0.169 C 
HETATM    4  C5  UNL     1     -32.566   7.561   1.977  1.00 20.00     0.110 C 
HETATM    5  C6  UNL     1     -32.816   6.156   1.447  1.00 20.00     0.053 C 
HETATM    6  O8  UNL     1     -33.345   8.488   1.204  1.00 20.00    -0.373 OA
ENDROOT
BRANCH   4   7
HETATM    7  C1  UNL     1     -33.054   7.684   3.389  1.00 20.00     0.268 C 
HETATM    8  O7  UNL     1     -34.094   7.173   3.792  1.00 20.00    -0.304 OA
ENDBRANCH   4   7
TORSDOF 1
ENDMDL
MODEL 9
REMARK VINA RESULT:       0.6      1.834      3.349
REMARK  1 active torsions:
REMARK  status: ('A' for Active; 'I' for Inactive)
REMARK    1  A    between atoms: C1_1  and  C5_5 
ROOT
HETATM    1  C2  UNL     1     -34.926   5.895   3.856  1.00 20.00     0.029 C 
HETATM    2  C3  UNL     1     -34.252   7.038   3.136  1.00 20.00     0.047 C 
HETATM    3  C4  UNL     1     -33.825   4.863   3.904  1.00 20.00     0.169 C 
HETATM    4  C5  UNL     1     -33.328   6.324   2.155  1.00 20.00     0.110 C 
HETATM    5  C6  UNL     1     -33.923   6.189   0.761  1.00 20.00     0.053 C 
HETATM    6  O8  UNL     1     -33.090   5.008   2.681  1.00 20.00    -0.373 OA
ENDROOT
BRANCH   4   7
HETATM    7  C1  UNL     1     -31.990   6.996   2.093  1.00 20.00     0.268 C 
HETATM    8  O7  UNL     1     -31.801   8.073   1.538  1.00 20.00    -0.304 OA
ENDBRANCH   4   7
TORSDOF 1
ENDMDL
