MODEL 1
REMARK VINA RESULT:      -1.3      0.000      0.000
REMARK  2 active torsions:
REMARK  status: ('A' for Active; 'I' for Inactive)
REMARK    1  A    between atoms: C1_1  and  C2_2 
REMARK    2  A    between atoms: C3_3  and  C7_7 
ROOT
HETATM    1  C1  UNL     1     -32.752   8.127   2.165  1.00 20.00     0.061 C 
HETATM    2  C3  UNL     1     -33.256   6.907   2.423  1.00 20.00     0.022 C 
HETATM    3 CL9  UNL     1     -32.832   5.543   1.410  1.00 20.00    -0.088 Cl
ENDROOT
BRANCH   2   4
HETATM    4  C7  UNL     1     -34.218   6.574   3.581  1.00 20.00    -0.013 C 
HETATM    5  C4  UNL     1     -33.947   7.500   4.786  1.00 20.00     0.020 C 
HETATM    6  C5  UNL     1     -35.709   6.752   3.205  1.00 20.00     0.020 C 
HETATM    7  C6  UNL     1     -34.040   5.104   4.019  1.00 20.00     0.020 C 
ENDBRANCH   2   4
BRANCH   1   8
HETATM    8  C2  UNL     1     -31.827   8.459   1.054  1.00 20.00     0.260 C 
HETATM    9  O8  UNL     1     -32.061   9.377   0.275  1.00 20.00    -0.302 OA
ENDBRANCH   1   8
TORSDOF 2
ENDMDL
MODEL 2
REMARK VINA RESULT:      -1.2      0.076      1.439
REMARK  2 active torsions:
REMARK  status: ('A' for Active; 'I' for Inactive)
REMARK    1  A    between atoms: C1_1  and  C2_2 
REMARK    2  A    between atoms: C3_3  and  C7_7 
ROOT
HETATM    1  C1  UNL     1     -32.748   8.107   2.222  1.00 20.00     0.061 C 
HETATM    2  C3  UNL     1     -33.292   6.900   2.459  1.00 20.00     0.022 C 
HETATM    3 CL9  UNL     1     -32.919   5.543   1.417  1.00 20.00    -0.088 Cl
ENDROOT
BRANCH   2   4
HETATM    4  C7  UNL     1     -34.261   6.578   3.614  1.00 20.00    -0.013 C 
HETATM    5  C4  UNL     1     -35.722   6.781   3.161  1.00 20.00     0.020 C 
HETATM    6  C5  UNL     1     -34.146   5.119   4.117  1.00 20.00     0.020 C 
HETATM    7  C6  UNL     1     -33.973   7.492   4.825  1.00 20.00     0.020 C 
ENDBRANCH   2   4
BRANCH   1   8
HETATM    8  C2  UNL     1     -31.816   8.429   1.114  1.00 20.00     0.260 C 
HETATM    9  O8  UNL     1     -32.043   9.341   0.327  1.00 20.00    -0.302 OA
ENDBRANCH   1   8
TORSDOF 2
ENDMDL
MODEL 3
REMARK VINA RESULT:      -1.0      2.967      4.273
REMARK  2 active torsions:
REMARK  status: ('A' for Active; 'I' for Inactive)
REMARK    1  A    between atoms: C1_1  and  C2_2 
REMARK    2  A    between atoms: C3_3  and  C7_7 
ROOT
HETATM    1  C1  UNL     1     -34.284   6.446   3.136  1.00 20.00     0.061 C 
HETATM    2  C3  UNL     1     -33.339   7.392   3.276  1.00 20.00     0.022 C 
HETATM    3 CL9  UNL     1     -33.217   8.305   4.766  1.00 20.00    -0.088 Cl
ENDROOT
BRANCH   2   4
HETATM    4  C7  UNL     1     -32.300   7.771   2.203  1.00 20.00    -0.013 C 
HETATM    5  C4  UNL     1     -31.898   6.526   1.383  1.00 20.00     0.020 C 
HETATM    6  C5  UNL     1     -32.820   8.823   1.194  1.00 20.00     0.020 C 
HETATM    7  C6  UNL     1     -31.040   8.371   2.865  1.00 20.00     0.020 C 
ENDBRANCH   2   4
BRANCH   1   8
HETATM    8  C2  UNL     1     -35.289   6.073   4.161  1.00 20.00     0.260 C 
HETATM    9  O8  UNL     1     -35.412   4.917   4.551  1.00 20.00    -0.302 OA
ENDBRANCH   1   8
TORSDOF 2
ENDMDL
MODEL 4
REMARK VINA RESULT:      -0.8      2.970      4.266
REMARK  2 active torsions:
REMARK  status: ('A' for Active; 'I' for Inactive)
REMARK    1  A    between atoms: C1_1  and  C2_2 
REMARK    2  A    between atoms: C3_3  and  C7_7 
ROOT
HETATM    1  C1  UNL     1     -34.292   6.441   3.133  1.00 20.00     0.061 C 
HETATM    2  C3  UNL     1     -33.343   7.384   3.273  1.00 20.00     0.022 C 
HETATM    3 CL9  UNL     1     -33.219   8.300   4.761  1.00 20.00    -0.088 Cl
ENDROOT
BRANCH   2   4
HETATM    4  C7  UNL     1     -32.302   7.758   2.200  1.00 20.00    -0.013 C 
HETATM    5  C4  UNL     1     -32.876   8.826   1.244  1.00 20.00     0.020 C 
HETATM    6  C5  UNL     1     -30.997   8.341   2.792  1.00 20.00     0.020 C 
HETATM    7  C6  UNL     1     -31.902   6.508   1.384  1.00 20.00     0.020 C 
ENDBRANCH   2   4
BRANCH   1   8
HETATM    8  C2  UNL     1     -35.299   6.074   4.158  1.00 20.00     0.260 C 
HETATM    9  O8  UNL     1     -35.422   4.920   4.555  1.00 20.00    -0.302 OA
ENDBRANCH   1   8
TORSDOF 2
ENDMDL
MODEL 5
REMARK VINA RESULT:      -0.6      2.393      3.936
REMARK  2 active torsions:
REMARK  status: ('A' for Active; 'I' for Inactive)
REMARK    1  A    between atoms: C1_1  and  C2_2 
REMARK    2  A    between atoms: C3_3  and  C7_7 
ROOT
HETATM    1  C1  UNL     1     -34.180   7.225   3.541  1.00 20.00     0.061 C 
HETATM    2  C3  UNL     1     -33.288   7.046   2.550  1.00 20.00     0.022 C 
HETATM    3 CL9  UNL     1     -33.301   5.571   1.605  1.00 20.00    -0.088 Cl
ENDROOT
BRANCH   2   4
HETATM    4  C7  UNL     1     -32.202   8.061   2.143  1.00 20.00    -0.013 C 
HETATM    5  C4  UNL     1     -31.054   7.347   1.398  1.00 20.00     0.020 C 
HETATM    6  C5  UNL     1     -32.726   9.171   1.201  1.00 20.00     0.020 C 
HETATM    7  C6  UNL     1     -31.634   8.768   3.394  1.00 20.00     0.020 C 
ENDBRANCH   2   4
BRANCH   1   8
HETATM    8  C2  UNL     1     -35.229   6.256   3.941  1.00 20.00     0.260 C 
HETATM    9  O8  UNL     1     -34.946   5.141   4.369  1.00 20.00    -0.302 OA
ENDBRANCH   1   8
TORSDOF 2
ENDMDL
MODEL 6
REMARK VINA RESULT:      -0.5      2.401      3.941
REMARK  2 active torsions:
REMARK  status: ('A' for Active; 'I' for Inactive)
REMARK    1  A    between atoms: C1_1  and  C2_2 
REMARK    2  A    between atoms: C3_3  and  C7_7 
ROOT
HETATM    1  C1  UNL     1     -34.193   7.226   3.557  1.00 20.00     0.061 C 
HETATM    2  C3  UNL     1     -33.300   7.054   2.566  1.00 20.00     0.022 C 
HETATM    3 CL9  UNL     1     -33.319   5.589   1.605  1.00 20.00    -0.088 Cl
ENDROOT
BRANCH   2   4
HETATM    4  C7  UNL     1     -32.208   8.068   2.172  1.00 20.00    -0.013 C 
HETATM    5  C4  UNL     1     -32.795   9.154   1.245  1.00 20.00     0.020 C 
HETATM    6  C5  UNL     1     -31.590   8.801   3.387  1.00 20.00     0.020 C 
HETATM    7  C6  UNL     1     -31.049   7.352   1.446  1.00 20.00     0.020 C 
ENDBRANCH   2   4
BRANCH   1   8
HETATM    8  C2  UNL     1     -35.247   6.258   3.944  1.00 20.00     0.260 C 
HETATM    9  O8  UNL     1     -34.971   5.133   4.348  1.00 20.00    -0.302 OA
ENDBRANCH   1   8
TORSDOF 2
ENDMDL
MODEL 7
REMARK VINA RESULT:      -0.4      3.341      4.601
REMARK  2 active torsions:
REMARK  status: ('A' for Active; 'I' for Inactive)
REMARK    1  A    between atoms: C1_1  and  C2_2 
REMARK    2  A    between atoms: C3_3  and  C7_7 
ROOT
HETATM    1  C1  UNL     1     -33.216   4.260   3.310  1.00 20.00     0.061 C 
HETATM    2  C3  UNL     1     -33.457   5.505   2.863  1.00 20.00     0.022 C 
HETATM    3 CL9  UNL     1     -34.537   6.567   3.743  1.00 20.00    -0.088 Cl
ENDROOT
BRANCH   2   4
HETATM    4  C7  UNL     1     -32.846   6.120   1.589  1.00 20.00    -0.013 C 
HETATM    5  C4  UNL     1     -31.663   5.261   1.092  1.00 20.00     0.020 C 
HETATM    6  C5  UNL     1     -33.851   6.220   0.416  1.00 20.00     0.020 C 
HETATM    7  C6  UNL     1     -32.348   7.555   1.873  1.00 20.00     0.020 C 
ENDBRANCH   2   4
BRANCH   1   8
HETATM    8  C2  UNL     1     -33.798   3.656   4.533  1.00 20.00     0.260 C 
HETATM    9  O8  UNL     1     -33.193   2.813   5.186  1.00 20.00    -0.302 OA
ENDBRANCH   1   8
TORSDOF 2
ENDMDL
MODEL 8
REMARK VINA RESULT:      -0.3      3.333      4.588
REMARK  2 active torsions:
REMARK  status: ('A' for Active; 'I' for Inactive)
REMARK    1  A    between atoms: C1_1  and  C2_2 
REMARK    2  A    between atoms: C3_3  and  C7_7 
ROOT
HETATM    1  C1  UNL     1     -33.232   4.275   3.296  1.00 20.00     0.061 C 
HETATM    2  C3  UNL     1     -33.445   5.529   2.858  1.00 20.00     0.022 C 
HETATM    3 CL9  UNL     1     -34.492   6.611   3.753  1.00 20.00    -0.088 Cl
ENDROOT
BRANCH   2   4
HETATM    4  C7  UNL     1     -32.829   6.138   1.583  1.00 20.00    -0.013 C 
HETATM    5  C4  UNL     1     -32.321   7.568   1.863  1.00 20.00     0.020 C 
HETATM    6  C5  UNL     1     -31.624   5.332   1.043  1.00 20.00     0.020 C 
HETATM    7  C6  UNL     1     -33.879   6.184   0.450  1.00 20.00     0.020 C 
ENDBRANCH   2   4
BRANCH   1   8
HETATM    8  C2  UNL     1     -33.819   3.679   4.520  1.00 20.00     0.260 C 
HETATM    9  O8  UNL     1     -33.218   2.835   5.177  1.00 20.00    -0.302 OA
ENDBRANCH   1   8
TORSDOF 2
ENDMDL
MODEL 9
REMARK VINA RESULT:      -0.3      3.331      4.593
REMARK  2 active torsions:
REMARK  status: ('A' for Active; 'I' for Inactive)
REMARK    1  A    between atoms: C1_1  and  C2_2 
REMARK    2  A    between atoms: C3_3  and  C7_7 
ROOT
HETATM    1  C1  UNL     1     -33.219   4.264   3.292  1.00 20.00     0.061 C 
HETATM    2  C3  UNL     1     -33.448   5.518   2.861  1.00 20.00     0.022 C 
HETATM    3 CL9  UNL     1     -34.524   6.575   3.752  1.00 20.00    -0.088 Cl
ENDROOT
BRANCH   2   4
HETATM    4  C7  UNL     1     -32.827   6.147   1.599  1.00 20.00    -0.013 C 
HETATM    5  C4  UNL     1     -33.876   6.230   0.470  1.00 20.00     0.020 C 
HETATM    6  C5  UNL     1     -32.302   7.585   1.829  1.00 20.00     0.020 C 
HETATM    7  C6  UNL     1     -31.625   5.305   1.116  1.00 20.00     0.020 C 
ENDBRANCH   2   4
BRANCH   1   8
HETATM    8  C2  UNL     1     -33.811   3.648   4.504  1.00 20.00     0.260 C 
HETATM    9  O8  UNL     1     -33.188   2.841   5.186  1.00 20.00    -0.302 OA
ENDBRANCH   1   8
TORSDOF 2
ENDMDL
