MODEL 1
REMARK VINA RESULT:      -1.9      0.000      0.000
REMARK  2 active torsions:
REMARK  status: ('A' for Active; 'I' for Inactive)
REMARK    1  A    between atoms: C6_6  and  C7_7 
REMARK    2  A    between atoms: C7_7  and  C8_8 
ROOT
HETATM    1  C1  UNL     1     -32.302   8.933   1.050  1.00 20.00     0.059 C 
HETATM    2  C6  UNL     1     -32.215   7.954   2.146  1.00 20.00     0.129 C 
HETATM    3  N9  UNL     1     -32.366   9.706   0.187  1.00 20.00    -0.197 NA
ENDROOT
BRANCH   2   4
HETATM    4  C7  UNL     1     -33.320   6.872   2.052  1.00 20.00     0.002 C 
HETATM    5  C2  UNL     1     -32.719   5.580   1.465  1.00 20.00     0.011 C 
BRANCH   4   6
HETATM    6  C8  UNL     1     -34.075   6.642   3.417  1.00 20.00    -0.047 C 
HETATM    7  C3  UNL     1     -33.611   7.617   4.515  1.00 20.00     0.015 C 
HETATM    8  C4  UNL     1     -33.843   5.198   3.920  1.00 20.00     0.015 C 
HETATM    9  C5  UNL     1     -35.600   6.813   3.232  1.00 20.00     0.015 C 
ENDBRANCH   4   6
ENDBRANCH   2   4
TORSDOF 2
ENDMDL
MODEL 2
REMARK VINA RESULT:      -1.9      0.031      1.438
REMARK  2 active torsions:
REMARK  status: ('A' for Active; 'I' for Inactive)
REMARK    1  A    between atoms: C6_6  and  C7_7 
REMARK    2  A    between atoms: C7_7  and  C8_8 
ROOT
HETATM    1  C1  UNL     1     -32.297   8.929   1.051  1.00 20.00     0.059 C 
HETATM    2  C6  UNL     1     -32.217   7.949   2.147  1.00 20.00     0.129 C 
HETATM    3  N9  UNL     1     -32.356   9.703   0.188  1.00 20.00    -0.197 NA
ENDROOT
BRANCH   2   4
HETATM    4  C7  UNL     1     -33.313   6.859   2.038  1.00 20.00     0.002 C 
HETATM    5  C2  UNL     1     -32.698   5.576   1.446  1.00 20.00     0.011 C 
BRANCH   4   6
HETATM    6  C8  UNL     1     -34.075   6.614   3.396  1.00 20.00    -0.047 C 
HETATM    7  C3  UNL     1     -35.597   6.806   3.258  1.00 20.00     0.015 C 
HETATM    8  C4  UNL     1     -33.559   7.588   4.482  1.00 20.00     0.015 C 
HETATM    9  C5  UNL     1     -33.815   5.183   3.918  1.00 20.00     0.015 C 
ENDBRANCH   4   6
ENDBRANCH   2   4
TORSDOF 2
ENDMDL
MODEL 3
REMARK VINA RESULT:      -1.9      0.034      1.441
REMARK  2 active torsions:
REMARK  status: ('A' for Active; 'I' for Inactive)
REMARK    1  A    between atoms: C6_6  and  C7_7 
REMARK    2  A    between atoms: C7_7  and  C8_8 
ROOT
HETATM    1  C1  UNL     1     -32.305   8.962   1.073  1.00 20.00     0.059 C 
HETATM    2  C6  UNL     1     -32.233   7.989   2.177  1.00 20.00     0.129 C 
HETATM    3  N9  UNL     1     -32.358   9.730   0.205  1.00 20.00    -0.197 NA
ENDROOT
BRANCH   2   4
HETATM    4  C7  UNL     1     -33.316   6.888   2.057  1.00 20.00     0.002 C 
HETATM    5  C2  UNL     1     -32.689   5.622   1.442  1.00 20.00     0.011 C 
BRANCH   4   6
HETATM    6  C8  UNL     1     -34.067   6.613   3.415  1.00 20.00    -0.047 C 
HETATM    7  C3  UNL     1     -33.832   5.182   3.936  1.00 20.00     0.015 C 
HETATM    8  C4  UNL     1     -35.589   6.820   3.235  1.00 20.00     0.015 C 
HETATM    9  C5  UNL     1     -33.605   7.605   4.506  1.00 20.00     0.015 C 
ENDBRANCH   4   6
ENDBRANCH   2   4
TORSDOF 2
ENDMDL
MODEL 4
REMARK VINA RESULT:      -0.4      2.999      4.096
REMARK  2 active torsions:
REMARK  status: ('A' for Active; 'I' for Inactive)
REMARK    1  A    between atoms: C6_6  and  C7_7 
REMARK    2  A    between atoms: C7_7  and  C8_8 
ROOT
HETATM    1  C1  UNL     1     -33.581   3.507   4.392  1.00 20.00     0.059 C 
HETATM    2  C6  UNL     1     -34.265   4.638   3.741  1.00 20.00     0.129 C 
HETATM    3  N9  UNL     1     -33.047   2.613   4.903  1.00 20.00    -0.197 NA
ENDROOT
BRANCH   2   4
HETATM    4  C7  UNL     1     -33.271   5.732   3.276  1.00 20.00     0.002 C 
HETATM    5  C2  UNL     1     -32.857   5.456   1.817  1.00 20.00     0.011 C 
BRANCH   4   6
HETATM    6  C8  UNL     1     -33.813   7.194   3.502  1.00 20.00    -0.047 C 
HETATM    7  C3  UNL     1     -33.416   7.761   4.878  1.00 20.00     0.015 C 
HETATM    8  C4  UNL     1     -35.356   7.215   3.395  1.00 20.00     0.015 C 
HETATM    9  C5  UNL     1     -33.276   8.151   2.413  1.00 20.00     0.015 C 
ENDBRANCH   4   6
ENDBRANCH   2   4
TORSDOF 2
ENDMDL
MODEL 5
REMARK VINA RESULT:      -0.4      2.591      4.155
REMARK  2 active torsions:
REMARK  status: ('A' for Active; 'I' for Inactive)
REMARK    1  A    between atoms: C6_6  and  C7_7 
REMARK    2  A    between atoms: C7_7  and  C8_8 
ROOT
HETATM    1  C1  UNL     1     -34.332   5.130   3.687  1.00 20.00     0.059 C 
HETATM    2  C6  UNL     1     -33.490   5.747   2.648  1.00 20.00     0.129 C 
HETATM    3  N9  UNL     1     -34.993   4.640   4.506  1.00 20.00    -0.197 NA
ENDROOT
BRANCH   2   4
HETATM    4  C7  UNL     1     -33.572   7.294   2.673  1.00 20.00     0.002 C 
HETATM    5  C2  UNL     1     -33.892   7.764   4.105  1.00 20.00     0.011 C 
BRANCH   4   6
HETATM    6  C8  UNL     1     -32.296   7.988   2.061  1.00 20.00    -0.047 C 
HETATM    7  C3  UNL     1     -32.656   9.078   1.034  1.00 20.00     0.015 C 
HETATM    8  C4  UNL     1     -31.400   6.939   1.362  1.00 20.00     0.015 C 
HETATM    9  C5  UNL     1     -31.441   8.637   3.173  1.00 20.00     0.015 C 
ENDBRANCH   4   6
ENDBRANCH   2   4
TORSDOF 2
ENDMDL
MODEL 6
REMARK VINA RESULT:      -0.4      2.996      4.217
REMARK  2 active torsions:
REMARK  status: ('A' for Active; 'I' for Inactive)
REMARK    1  A    between atoms: C6_6  and  C7_7 
REMARK    2  A    between atoms: C7_7  and  C8_8 
ROOT
HETATM    1  C1  UNL     1     -33.554   3.523   4.411  1.00 20.00     0.059 C 
HETATM    2  C6  UNL     1     -34.250   4.617   3.711  1.00 20.00     0.129 C 
HETATM    3  N9  UNL     1     -33.009   2.659   4.961  1.00 20.00    -0.197 NA
ENDROOT
BRANCH   2   4
HETATM    4  C7  UNL     1     -33.275   5.729   3.249  1.00 20.00     0.002 C 
HETATM    5  C2  UNL     1     -32.855   5.465   1.791  1.00 20.00     0.011 C 
BRANCH   4   6
HETATM    6  C8  UNL     1     -33.843   7.181   3.480  1.00 20.00    -0.047 C 
HETATM    7  C3  UNL     1     -35.381   7.227   3.408  1.00 20.00     0.015 C 
HETATM    8  C4  UNL     1     -33.278   8.151   2.417  1.00 20.00     0.015 C 
HETATM    9  C5  UNL     1     -33.409   7.725   4.859  1.00 20.00     0.015 C 
ENDBRANCH   4   6
ENDBRANCH   2   4
TORSDOF 2
ENDMDL
MODEL 7
REMARK VINA RESULT:      -0.4      2.594      4.185
REMARK  2 active torsions:
REMARK  status: ('A' for Active; 'I' for Inactive)
REMARK    1  A    between atoms: C6_6  and  C7_7 
REMARK    2  A    between atoms: C7_7  and  C8_8 
ROOT
HETATM    1  C1  UNL     1     -34.459   5.182   3.717  1.00 20.00     0.059 C 
HETATM    2  C6  UNL     1     -33.605   5.760   2.664  1.00 20.00     0.129 C 
HETATM    3  N9  UNL     1     -35.129   4.724   4.545  1.00 20.00    -0.197 NA
ENDROOT
BRANCH   2   4
HETATM    4  C7  UNL     1     -33.600   7.308   2.700  1.00 20.00     0.002 C 
HETATM    5  C2  UNL     1     -33.886   7.785   4.137  1.00 20.00     0.011 C 
BRANCH   4   6
HETATM    6  C8  UNL     1     -32.289   7.934   2.087  1.00 20.00    -0.047 C 
HETATM    7  C3  UNL     1     -31.395   8.588   3.157  1.00 20.00     0.015 C 
HETATM    8  C4  UNL     1     -32.651   9.008   1.035  1.00 20.00     0.015 C 
HETATM    9  C5  UNL     1     -31.458   6.854   1.358  1.00 20.00     0.015 C 
ENDBRANCH   4   6
ENDBRANCH   2   4
TORSDOF 2
ENDMDL
MODEL 8
REMARK VINA RESULT:      -0.3      2.596      4.166
REMARK  2 active torsions:
REMARK  status: ('A' for Active; 'I' for Inactive)
REMARK    1  A    between atoms: C6_6  and  C7_7 
REMARK    2  A    between atoms: C7_7  and  C8_8 
ROOT
HETATM    1  C1  UNL     1     -34.347   5.130   3.702  1.00 20.00     0.059 C 
HETATM    2  C6  UNL     1     -33.515   5.744   2.653  1.00 20.00     0.129 C 
HETATM    3  N9  UNL     1     -35.000   4.643   4.528  1.00 20.00    -0.197 NA
ENDROOT
BRANCH   2   4
HETATM    4  C7  UNL     1     -33.579   7.291   2.687  1.00 20.00     0.002 C 
HETATM    5  C2  UNL     1     -33.902   7.756   4.120  1.00 20.00     0.011 C 
BRANCH   4   6
HETATM    6  C8  UNL     1     -32.291   7.974   2.088  1.00 20.00    -0.047 C 
HETATM    7  C3  UNL     1     -31.379   6.969   1.359  1.00 20.00     0.015 C 
HETATM    8  C4  UNL     1     -31.470   8.647   3.212  1.00 20.00     0.015 C 
HETATM    9  C5  UNL     1     -32.678   9.087   1.088  1.00 20.00     0.015 C 
ENDBRANCH   4   6
ENDBRANCH   2   4
TORSDOF 2
ENDMDL
MODEL 9
REMARK VINA RESULT:      -0.0      1.328      2.673
REMARK  2 active torsions:
REMARK  status: ('A' for Active; 'I' for Inactive)
REMARK    1  A    between atoms: C6_6  and  C7_7 
REMARK    2  A    between atoms: C7_7  and  C8_8 
ROOT
HETATM    1  C1  UNL     1     -32.283   9.585   0.486  1.00 20.00     0.059 C 
HETATM    2  C6  UNL     1     -31.687   8.238   0.468  1.00 20.00     0.129 C 
HETATM    3  N9  UNL     1     -32.752  10.646   0.496  1.00 20.00    -0.197 NA
ENDROOT
BRANCH   2   4
HETATM    4  C7  UNL     1     -31.911   7.482   1.801  1.00 20.00     0.002 C 
HETATM    5  C2  UNL     1     -32.507   8.449   2.841  1.00 20.00     0.011 C 
BRANCH   4   6
HETATM    6  C8  UNL     1     -32.753   6.161   1.626  1.00 20.00    -0.047 C 
HETATM    7  C3  UNL     1     -33.672   6.210   0.391  1.00 20.00     0.015 C 
HETATM    8  C4  UNL     1     -33.630   5.916   2.876  1.00 20.00     0.015 C 
HETATM    9  C5  UNL     1     -31.822   4.935   1.484  1.00 20.00     0.015 C 
ENDBRANCH   4   6
ENDBRANCH   2   4
TORSDOF 2
ENDMDL
