MODEL 1
REMARK VINA RESULT:      -2.4      0.000      0.000
REMARK  3 active torsions:
REMARK  status: ('A' for Active; 'I' for Inactive)
REMARK    1  A    between atoms: C1_1  and  C5_5 
REMARK    2  A    between atoms: C3_3  and  C4_4 
REMARK    3  A    between atoms: C3_3  and  C5_5 
ROOT
HETATM    1  C2  UNL     1     -32.769   5.699   1.668  1.00 20.00     0.017 C 
HETATM    2  C5  UNL     1     -33.209   7.094   2.105  1.00 20.00     0.044 C 
ENDROOT
BRANCH   2   3
HETATM    3  C1  UNL     1     -32.075   8.056   1.795  1.00 20.00     0.235 C 
HETATM    4  O6  UNL     1     -32.119   8.947   0.954  1.00 20.00    -0.306 OA
ENDBRANCH   2   3
BRANCH   2   5
HETATM    5  C3  UNL     1     -33.611   7.101   3.587  1.00 20.00     0.026 C 
BRANCH   5   6
HETATM    6  C4  UNL     1     -35.035   6.595   3.802  1.00 20.00     0.115 C 
HETATM    7 CL7  UNL     1     -35.013   4.927   4.421  1.00 20.00    -0.130 Cl
ENDBRANCH   5   6
ENDBRANCH   2   5
TORSDOF 3
ENDMDL
MODEL 2
REMARK VINA RESULT:      -2.4      3.236      4.099
REMARK  3 active torsions:
REMARK  status: ('A' for Active; 'I' for Inactive)
REMARK    1  A    between atoms: C1_1  and  C5_5 
REMARK    2  A    between atoms: C3_3  and  C4_4 
REMARK    3  A    between atoms: C3_3  and  C5_5 
ROOT
HETATM    1  C2  UNL     1     -33.868   7.782   4.467  1.00 20.00     0.017 C 
HETATM    2  C5  UNL     1     -34.399   6.748   3.477  1.00 20.00     0.044 C 
ENDROOT
BRANCH   2   3
HETATM    3  C1  UNL     1     -35.464   5.930   4.188  1.00 20.00     0.235 C 
HETATM    4  O6  UNL     1     -35.320   4.776   4.577  1.00 20.00    -0.306 OA
ENDBRANCH   2   3
BRANCH   2   5
HETATM    5  C3  UNL     1     -33.256   5.887   2.921  1.00 20.00     0.026 C 
BRANCH   5   6
HETATM    6  C4  UNL     1     -32.818   6.337   1.529  1.00 20.00     0.115 C 
HETATM    7 CL7  UNL     1     -31.860   7.834   1.636  1.00 20.00    -0.130 Cl
ENDBRANCH   5   6
ENDBRANCH   2   5
TORSDOF 3
ENDMDL
MODEL 3
REMARK VINA RESULT:      -2.2      3.373      4.143
REMARK  3 active torsions:
REMARK  status: ('A' for Active; 'I' for Inactive)
REMARK    1  A    between atoms: C1_1  and  C5_5 
REMARK    2  A    between atoms: C3_3  and  C4_4 
REMARK    3  A    between atoms: C3_3  and  C5_5 
ROOT
HETATM    1  C2  UNL     1     -33.978   7.632   4.092  1.00 20.00     0.017 C 
HETATM    2  C5  UNL     1     -34.130   6.507   3.072  1.00 20.00     0.044 C 
ENDROOT
BRANCH   2   3
HETATM    3  C1  UNL     1     -34.141   5.191   3.831  1.00 20.00     0.235 C 
HETATM    4  O6  UNL     1     -35.120   4.711   4.392  1.00 20.00    -0.306 OA
ENDBRANCH   2   3
BRANCH   2   5
HETATM    5  C3  UNL     1     -33.020   6.578   2.013  1.00 20.00     0.026 C 
BRANCH   5   6
HETATM    6  C4  UNL     1     -32.111   7.788   2.210  1.00 20.00     0.115 C 
HETATM    7 CL7  UNL     1     -32.321   8.944   0.873  1.00 20.00    -0.130 Cl
ENDBRANCH   5   6
ENDBRANCH   2   5
TORSDOF 3
ENDMDL
MODEL 4
REMARK VINA RESULT:      -2.1      3.046      3.903
REMARK  3 active torsions:
REMARK  status: ('A' for Active; 'I' for Inactive)
REMARK    1  A    between atoms: C1_1  and  C5_5 
REMARK    2  A    between atoms: C3_3  and  C4_4 
REMARK    3  A    between atoms: C3_3  and  C5_5 
ROOT
HETATM    1  C2  UNL     1     -33.768   7.262   3.586  1.00 20.00     0.017 C 
HETATM    2  C5  UNL     1     -33.226   7.248   2.159  1.00 20.00     0.044 C 
ENDROOT
BRANCH   2   3
HETATM    3  C1  UNL     1     -32.941   5.803   1.786  1.00 20.00     0.235 C 
HETATM    4  O6  UNL     1     -31.875   5.388   1.345  1.00 20.00    -0.306 OA
ENDBRANCH   2   3
BRANCH   2   5
HETATM    5  C3  UNL     1     -31.991   8.152   2.036  1.00 20.00     0.026 C 
BRANCH   5   6
HETATM    6  C4  UNL     1     -31.830   8.721   0.629  1.00 20.00     0.115 C 
HETATM    7 CL7  UNL     1     -32.652  10.295   0.501  1.00 20.00    -0.130 Cl
ENDBRANCH   5   6
ENDBRANCH   2   5
TORSDOF 3
ENDMDL
MODEL 5
REMARK VINA RESULT:      -2.1      3.304      3.931
REMARK  3 active torsions:
REMARK  status: ('A' for Active; 'I' for Inactive)
REMARK    1  A    between atoms: C1_1  and  C5_5 
REMARK    2  A    between atoms: C3_3  and  C4_4 
REMARK    3  A    between atoms: C3_3  and  C5_5 
ROOT
HETATM    1  C2  UNL     1     -33.101   6.064   1.795  1.00 20.00     0.017 C 
HETATM    2  C5  UNL     1     -32.912   7.029   2.963  1.00 20.00     0.044 C 
ENDROOT
BRANCH   2   3
HETATM    3  C1  UNL     1     -34.259   7.203   3.643  1.00 20.00     0.235 C 
HETATM    4  O6  UNL     1     -35.032   6.291   3.916  1.00 20.00    -0.306 OA
ENDBRANCH   2   3
BRANCH   2   5
HETATM    5  C3  UNL     1     -32.309   8.356   2.481  1.00 20.00     0.026 C 
BRANCH   5   6
HETATM    6  C4  UNL     1     -31.943   8.320   0.999  1.00 20.00     0.115 C 
HETATM    7 CL7  UNL     1     -32.376   9.860   0.217  1.00 20.00    -0.130 Cl
ENDBRANCH   5   6
ENDBRANCH   2   5
TORSDOF 3
ENDMDL
MODEL 6
REMARK VINA RESULT:      -1.9      1.198      2.053
REMARK  3 active torsions:
REMARK  status: ('A' for Active; 'I' for Inactive)
REMARK    1  A    between atoms: C1_1  and  C5_5 
REMARK    2  A    between atoms: C3_3  and  C4_4 
REMARK    3  A    between atoms: C3_3  and  C5_5 
ROOT
HETATM    1  C2  UNL     1     -33.523   8.166   4.647  1.00 20.00     0.017 C 
HETATM    2  C5  UNL     1     -33.633   6.983   3.689  1.00 20.00     0.044 C 
ENDROOT
BRANCH   2   3
HETATM    3  C1  UNL     1     -33.135   7.439   2.328  1.00 20.00     0.235 C 
HETATM    4  O6  UNL     1     -32.033   7.933   2.113  1.00 20.00    -0.306 OA
ENDBRANCH   2   3
BRANCH   2   5
HETATM    5  C3  UNL     1     -35.072   6.446   3.649  1.00 20.00     0.026 C 
BRANCH   5   6
HETATM    6  C4  UNL     1     -35.243   5.189   4.498  1.00 20.00     0.115 C 
HETATM    7 CL7  UNL     1     -33.972   4.004   4.112  1.00 20.00    -0.130 Cl
ENDBRANCH   5   6
ENDBRANCH   2   5
TORSDOF 3
ENDMDL
MODEL 7
REMARK VINA RESULT:      -1.9      2.354      2.813
REMARK  3 active torsions:
REMARK  status: ('A' for Active; 'I' for Inactive)
REMARK    1  A    between atoms: C1_1  and  C5_5 
REMARK    2  A    between atoms: C3_3  and  C4_4 
REMARK    3  A    between atoms: C3_3  and  C5_5 
ROOT
HETATM    1  C2  UNL     1     -33.299   6.145   2.465  1.00 20.00     0.017 C 
HETATM    2  C5  UNL     1     -34.481   6.280   3.421  1.00 20.00     0.044 C 
ENDROOT
BRANCH   2   3
HETATM    3  C1  UNL     1     -34.282   7.553   4.227  1.00 20.00     0.235 C 
HETATM    4  O6  UNL     1     -33.212   7.931   4.691  1.00 20.00    -0.306 OA
ENDBRANCH   2   3
BRANCH   2   5
HETATM    5  C3  UNL     1     -34.616   5.030   4.302  1.00 20.00     0.026 C 
BRANCH   5   6
HETATM    6  C4  UNL     1     -33.803   3.855   3.764  1.00 20.00     0.115 C 
HETATM    7 CL7  UNL     1     -33.051   2.957   5.105  1.00 20.00    -0.130 Cl
ENDBRANCH   5   6
ENDBRANCH   2   5
TORSDOF 3
ENDMDL
MODEL 8
REMARK VINA RESULT:      -1.8      2.756      3.559
REMARK  3 active torsions:
REMARK  status: ('A' for Active; 'I' for Inactive)
REMARK    1  A    between atoms: C1_1  and  C5_5 
REMARK    2  A    between atoms: C3_3  and  C4_4 
REMARK    3  A    between atoms: C3_3  and  C5_5 
ROOT
HETATM    1  C2  UNL     1     -34.036   4.184   3.893  1.00 20.00     0.017 C 
HETATM    2  C5  UNL     1     -33.616   5.570   3.410  1.00 20.00     0.044 C 
ENDROOT
BRANCH   2   3
HETATM    3  C1  UNL     1     -34.687   6.556   3.842  1.00 20.00     0.235 C 
HETATM    4  O6  UNL     1     -34.478   7.712   4.194  1.00 20.00    -0.306 OA
ENDBRANCH   2   3
BRANCH   2   5
HETATM    5  C3  UNL     1     -33.379   5.570   1.893  1.00 20.00     0.026 C 
BRANCH   5   6
HETATM    6  C4  UNL     1     -32.021   6.159   1.520  1.00 20.00     0.115 C 
HETATM    7 CL7  UNL     1     -32.026   7.923   1.756  1.00 20.00    -0.130 Cl
ENDBRANCH   5   6
ENDBRANCH   2   5
TORSDOF 3
ENDMDL
MODEL 9
REMARK VINA RESULT:      -1.8      1.664      2.137
REMARK  3 active torsions:
REMARK  status: ('A' for Active; 'I' for Inactive)
REMARK    1  A    between atoms: C1_1  and  C5_5 
REMARK    2  A    between atoms: C3_3  and  C4_4 
REMARK    3  A    between atoms: C3_3  and  C5_5 
ROOT
HETATM    1  C2  UNL     1     -31.908   8.504   1.256  1.00 20.00     0.017 C 
HETATM    2  C5  UNL     1     -32.453   7.499   2.268  1.00 20.00     0.044 C 
ENDROOT
BRANCH   2   3
HETATM    3  C1  UNL     1     -32.733   6.202   1.528  1.00 20.00     0.235 C 
HETATM    4  O6  UNL     1     -31.913   5.309   1.339  1.00 20.00    -0.306 OA
ENDBRANCH   2   3
BRANCH   2   5
HETATM    5  C3  UNL     1     -33.691   8.060   2.981  1.00 20.00     0.026 C 
BRANCH   5   6
HETATM    6  C4  UNL     1     -34.029   7.282   4.250  1.00 20.00     0.115 C 
HETATM    7 CL7  UNL     1     -35.435   6.226   3.972  1.00 20.00    -0.130 Cl
ENDBRANCH   5   6
ENDBRANCH   2   5
TORSDOF 3
ENDMDL
