MODEL 1
REMARK VINA RESULT:      -2.4      0.000      0.000
REMARK  2 active torsions:
REMARK  status: ('A' for Active; 'I' for Inactive)
REMARK    1  A    between atoms: C1_1  and  C7_7 
REMARK    2  A    between atoms: C2_2  and  C3_3 
ROOT
HETATM    1  C1  UNL     1     -33.564   6.146   2.628  1.00 20.00    -0.013 C 
HETATM    2  C3  UNL     1     -32.509   6.477   1.864  1.00 20.00    -0.028 C 
HETATM    3  C4  UNL     1     -31.690   5.578   0.994  1.00 20.00     0.051 C 
ENDROOT
BRANCH   1   4
HETATM    4  C7  UNL     1     -34.380   7.064   3.509  1.00 20.00     0.000 C 
HETATM    5  C5  UNL     1     -35.501   6.278   4.189  1.00 20.00     0.013 C 
HETATM    6  C6  UNL     1     -33.479   7.724   4.553  1.00 20.00     0.013 C 
ENDBRANCH   1   4
BRANCH   2   7
HETATM    7  C2  UNL     1     -32.110   7.912   1.899  1.00 20.00     0.265 C 
HETATM    8  O8  UNL     1     -32.269   8.672   0.951  1.00 20.00    -0.302 OA
ENDBRANCH   2   7
TORSDOF 2
ENDMDL
MODEL 2
REMARK VINA RESULT:      -2.4      2.413      4.000
REMARK  2 active torsions:
REMARK  status: ('A' for Active; 'I' for Inactive)
REMARK    1  A    between atoms: C1_1  and  C7_7 
REMARK    2  A    between atoms: C2_2  and  C3_3 
ROOT
HETATM    1  C1  UNL     1     -33.651   6.817   2.802  1.00 20.00    -0.013 C 
HETATM    2  C3  UNL     1     -34.303   5.914   3.555  1.00 20.00    -0.028 C 
HETATM    3  C4  UNL     1     -35.589   6.096   4.296  1.00 20.00     0.051 C 
ENDROOT
BRANCH   1   4
HETATM    4  C7  UNL     1     -32.348   6.622   2.062  1.00 20.00     0.000 C 
HETATM    5  C5  UNL     1     -32.547   5.653   0.897  1.00 20.00     0.013 C 
HETATM    6  C6  UNL     1     -31.827   7.968   1.556  1.00 20.00     0.013 C 
ENDBRANCH   1   4
BRANCH   2   7
HETATM    7  C2  UNL     1     -33.655   4.576   3.664  1.00 20.00     0.265 C 
HETATM    8  O8  UNL     1     -34.091   3.681   4.380  1.00 20.00    -0.302 OA
ENDBRANCH   2   7
TORSDOF 2
ENDMDL
MODEL 3
REMARK VINA RESULT:      -2.0      1.681      2.324
REMARK  2 active torsions:
REMARK  status: ('A' for Active; 'I' for Inactive)
REMARK    1  A    between atoms: C1_1  and  C7_7 
REMARK    2  A    between atoms: C2_2  and  C3_3 
ROOT
HETATM    1  C1  UNL     1     -33.540   6.773   3.157  1.00 20.00    -0.013 C 
HETATM    2  C3  UNL     1     -32.696   6.924   2.121  1.00 20.00    -0.028 C 
HETATM    3  C4  UNL     1     -31.782   8.075   1.845  1.00 20.00     0.051 C 
ENDROOT
BRANCH   1   4
HETATM    4  C7  UNL     1     -34.464   5.606   3.421  1.00 20.00     0.000 C 
HETATM    5  C5  UNL     1     -33.683   4.453   4.053  1.00 20.00     0.013 C 
HETATM    6  C6  UNL     1     -35.608   6.043   4.337  1.00 20.00     0.013 C 
ENDBRANCH   1   4
BRANCH   2   7
HETATM    7  C2  UNL     1     -32.682   5.811   1.130  1.00 20.00     0.265 C 
HETATM    8  O8  UNL     1     -31.767   5.000   1.052  1.00 20.00    -0.302 OA
ENDBRANCH   2   7
TORSDOF 2
ENDMDL
MODEL 4
REMARK VINA RESULT:      -1.9      1.453      2.288
REMARK  2 active torsions:
REMARK  status: ('A' for Active; 'I' for Inactive)
REMARK    1  A    between atoms: C1_1  and  C7_7 
REMARK    2  A    between atoms: C2_2  and  C3_3 
ROOT
HETATM    1  C1  UNL     1     -33.108   8.176   2.790  1.00 20.00    -0.013 C 
HETATM    2  C3  UNL     1     -32.357   7.820   1.733  1.00 20.00    -0.028 C 
HETATM    3  C4  UNL     1     -31.914   8.681   0.593  1.00 20.00     0.051 C 
ENDROOT
BRANCH   1   4
HETATM    4  C7  UNL     1     -33.554   7.294   3.933  1.00 20.00     0.000 C 
HETATM    5  C5  UNL     1     -33.525   8.081   5.244  1.00 20.00     0.013 C 
HETATM    6  C6  UNL     1     -34.961   6.758   3.662  1.00 20.00     0.013 C 
ENDBRANCH   1   4
BRANCH   2   7
HETATM    7  C2  UNL     1     -31.924   6.395   1.697  1.00 20.00     0.265 C 
HETATM    8  O8  UNL     1     -32.635   5.493   1.269  1.00 20.00    -0.302 OA
ENDBRANCH   2   7
TORSDOF 2
ENDMDL
MODEL 5
REMARK VINA RESULT:      -1.8      2.055      4.019
REMARK  2 active torsions:
REMARK  status: ('A' for Active; 'I' for Inactive)
REMARK    1  A    between atoms: C1_1  and  C7_7 
REMARK    2  A    between atoms: C2_2  and  C3_3 
ROOT
HETATM    1  C1  UNL     1     -32.697   7.870   2.960  1.00 20.00    -0.013 C 
HETATM    2  C3  UNL     1     -33.626   7.566   3.884  1.00 20.00    -0.028 C 
HETATM    3  C4  UNL     1     -33.722   8.073   5.288  1.00 20.00     0.051 C 
ENDROOT
BRANCH   1   4
HETATM    4  C7  UNL     1     -32.608   7.346   1.546  1.00 20.00     0.000 C 
HETATM    5  C5  UNL     1     -31.796   8.311   0.680  1.00 20.00     0.013 C 
HETATM    6  C6  UNL     1     -31.968   5.957   1.542  1.00 20.00     0.013 C 
ENDBRANCH   1   4
BRANCH   2   7
HETATM    7  C2  UNL     1     -34.677   6.603   3.451  1.00 20.00     0.265 C 
HETATM    8  O8  UNL     1     -35.492   6.114   4.224  1.00 20.00    -0.302 OA
ENDBRANCH   2   7
TORSDOF 2
ENDMDL
MODEL 6
REMARK VINA RESULT:      -1.7      1.635      3.584
REMARK  2 active torsions:
REMARK  status: ('A' for Active; 'I' for Inactive)
REMARK    1  A    between atoms: C1_1  and  C7_7 
REMARK    2  A    between atoms: C2_2  and  C3_3 
ROOT
HETATM    1  C1  UNL     1     -33.516   6.021   2.485  1.00 20.00    -0.013 C 
HETATM    2  C3  UNL     1     -34.182   6.657   3.465  1.00 20.00    -0.028 C 
HETATM    3  C4  UNL     1     -35.523   6.316   4.031  1.00 20.00     0.051 C 
ENDROOT
BRANCH   1   4
HETATM    4  C7  UNL     1     -32.162   6.379   1.918  1.00 20.00     0.000 C 
HETATM    5  C5  UNL     1     -31.750   5.354   0.860  1.00 20.00     0.013 C 
HETATM    6  C6  UNL     1     -32.202   7.784   1.315  1.00 20.00     0.013 C 
ENDBRANCH   1   4
BRANCH   2   7
HETATM    7  C2  UNL     1     -33.496   7.845   4.047  1.00 20.00     0.265 C 
HETATM    8  O8  UNL     1     -33.458   8.070   5.250  1.00 20.00    -0.302 OA
ENDBRANCH   2   7
TORSDOF 2
ENDMDL
MODEL 7
REMARK VINA RESULT:      -1.3      2.281      3.719
REMARK  2 active torsions:
REMARK  status: ('A' for Active; 'I' for Inactive)
REMARK    1  A    between atoms: C1_1  and  C7_7 
REMARK    2  A    between atoms: C2_2  and  C3_3 
ROOT
HETATM    1  C1  UNL     1     -33.557   7.684   2.911  1.00 20.00    -0.013 C 
HETATM    2  C3  UNL     1     -34.127   6.549   3.354  1.00 20.00    -0.028 C 
HETATM    3  C4  UNL     1     -35.422   6.401   4.088  1.00 20.00     0.051 C 
ENDROOT
BRANCH   1   4
HETATM    4  C7  UNL     1     -32.244   7.821   2.175  1.00 20.00     0.000 C 
HETATM    5  C5  UNL     1     -32.434   8.673   0.920  1.00 20.00     0.013 C 
HETATM    6  C6  UNL     1     -31.194   8.448   3.093  1.00 20.00     0.013 C 
ENDBRANCH   1   4
BRANCH   2   7
HETATM    7  C2  UNL     1     -33.368   5.296   3.084  1.00 20.00     0.265 C 
HETATM    8  O8  UNL     1     -33.576   4.248   3.683  1.00 20.00    -0.302 OA
ENDBRANCH   2   7
TORSDOF 2
ENDMDL
MODEL 8
REMARK VINA RESULT:      -1.2      1.686      3.427
REMARK  2 active torsions:
REMARK  status: ('A' for Active; 'I' for Inactive)
REMARK    1  A    between atoms: C1_1  and  C7_7 
REMARK    2  A    between atoms: C2_2  and  C3_3 
ROOT
HETATM    1  C1  UNL     1     -33.349   7.834   2.773  1.00 20.00    -0.013 C 
HETATM    2  C3  UNL     1     -33.897   6.647   3.089  1.00 20.00    -0.028 C 
HETATM    3  C4  UNL     1     -35.091   6.389   3.951  1.00 20.00     0.051 C 
ENDROOT
BRANCH   1   4
HETATM    4  C7  UNL     1     -32.137   8.080   1.905  1.00 20.00     0.000 C 
HETATM    5  C5  UNL     1     -32.454   9.145   0.854  1.00 20.00     0.013 C 
HETATM    6  C6  UNL     1     -30.954   8.518   2.770  1.00 20.00     0.013 C 
ENDBRANCH   1   4
BRANCH   2   7
HETATM    7  C2  UNL     1     -33.222   5.450   2.511  1.00 20.00     0.265 C 
HETATM    8  O8  UNL     1     -32.909   5.367   1.330  1.00 20.00    -0.302 OA
ENDBRANCH   2   7
TORSDOF 2
ENDMDL
MODEL 9
REMARK VINA RESULT:      -1.2      1.889      2.425
REMARK  2 active torsions:
REMARK  status: ('A' for Active; 'I' for Inactive)
REMARK    1  A    between atoms: C1_1  and  C7_7 
REMARK    2  A    between atoms: C2_2  and  C3_3 
ROOT
HETATM    1  C1  UNL     1     -33.357   6.095   2.885  1.00 20.00    -0.013 C 
HETATM    2  C3  UNL     1     -32.913   7.358   2.753  1.00 20.00    -0.028 C 
HETATM    3  C4  UNL     1     -32.107   7.933   1.632  1.00 20.00     0.051 C 
ENDROOT
BRANCH   1   4
HETATM    4  C7  UNL     1     -34.167   5.525   4.027  1.00 20.00     0.000 C 
HETATM    5  C5  UNL     1     -35.632   5.939   3.887  1.00 20.00     0.013 C 
HETATM    6  C6  UNL     1     -34.041   4.001   4.047  1.00 20.00     0.013 C 
ENDBRANCH   1   4
BRANCH   2   7
HETATM    7  C2  UNL     1     -33.265   8.287   3.864  1.00 20.00     0.265 C 
HETATM    8  O8  UNL     1     -32.709   8.261   4.956  1.00 20.00    -0.302 OA
ENDBRANCH   2   7
TORSDOF 2
ENDMDL
