MODEL 1
REMARK VINA RESULT:      -0.7      0.000      0.000
REMARK  1 active torsions:
REMARK  status: ('A' for Active; 'I' for Inactive)
REMARK    1  A    between atoms: C5_5  and  C6_6 
ROOT
HETATM    1  C1  UNL     1     -32.358   7.923   1.784  1.00 20.00     0.100 C 
HETATM    2  C2  UNL     1     -32.976   5.639   2.677  1.00 20.00     0.038 A 
HETATM    3  C3  UNL     1     -34.159   7.498   3.413  1.00 20.00     0.072 A 
HETATM    4  C4  UNL     1     -33.141   7.051   2.600  1.00 20.00     0.052 A 
HETATM    5  C5  UNL     1     -33.873   5.060   3.547  1.00 20.00    -0.002 A 
HETATM    6  N7  UNL     1     -31.720   8.631   1.122  1.00 20.00    -0.191 NA
HETATM    7  S8  UNL     1     -34.911   6.217   4.265  1.00 20.00    -0.104 SA
ENDROOT
BRANCH   5   8
HETATM    8  C6  UNL     1     -34.023   3.631   3.900  1.00 20.00     0.160 C 
HETATM    9 CL9  UNL     1     -32.780   3.127   5.075  1.00 20.00    -0.125 Cl
ENDBRANCH   5   8
TORSDOF 1
ENDMDL
MODEL 2
REMARK VINA RESULT:      -0.6      3.886      4.785
REMARK  1 active torsions:
REMARK  status: ('A' for Active; 'I' for Inactive)
REMARK    1  A    between atoms: C5_5  and  C6_6 
ROOT
HETATM    1  C1  UNL     1     -34.734   6.054   3.810  1.00 20.00     0.100 C 
HETATM    2  C2  UNL     1     -33.223   7.728   2.664  1.00 20.00     0.038 A 
HETATM    3  C3  UNL     1     -33.117   5.493   2.036  1.00 20.00     0.072 A 
HETATM    4  C4  UNL     1     -33.723   6.410   2.866  1.00 20.00     0.052 A 
HETATM    5  C5  UNL     1     -32.251   7.769   1.688  1.00 20.00    -0.002 A 
HETATM    6  N7  UNL     1     -35.554   5.766   4.578  1.00 20.00    -0.191 NA
HETATM    7  S8  UNL     1     -31.948   6.222   1.019  1.00 20.00    -0.104 SA
ENDROOT
BRANCH   5   8
HETATM    8  C6  UNL     1     -31.494   8.938   1.190  1.00 20.00     0.160 C 
HETATM    9 CL9  UNL     1     -32.505   9.950   0.126  1.00 20.00    -0.125 Cl
ENDBRANCH   5   8
TORSDOF 1
ENDMDL
MODEL 3
REMARK VINA RESULT:      -0.2      3.642      4.498
REMARK  1 active torsions:
REMARK  status: ('A' for Active; 'I' for Inactive)
REMARK    1  A    between atoms: C5_5  and  C6_6 
ROOT
HETATM    1  C1  UNL     1     -33.927   4.693   3.744  1.00 20.00     0.100 C 
HETATM    2  C2  UNL     1     -32.735   6.280   2.177  1.00 20.00     0.038 A 
HETATM    3  C3  UNL     1     -34.079   7.150   3.861  1.00 20.00     0.072 A 
HETATM    4  C4  UNL     1     -33.594   6.001   3.278  1.00 20.00     0.052 A 
HETATM    5  C5  UNL     1     -32.597   7.634   1.959  1.00 20.00    -0.002 A 
HETATM    6  N7  UNL     1     -34.199   3.630   4.121  1.00 20.00    -0.191 NA
HETATM    7  S8  UNL     1     -33.500   8.561   3.080  1.00 20.00    -0.104 SA
ENDROOT
BRANCH   5   8
HETATM    8  C6  UNL     1     -31.799   8.322   0.921  1.00 20.00     0.160 C 
HETATM    9 CL9  UNL     1     -32.566   9.857   0.437  1.00 20.00    -0.125 Cl
ENDBRANCH   5   8
TORSDOF 1
ENDMDL
MODEL 4
REMARK VINA RESULT:      -0.2      1.681      2.184
REMARK  1 active torsions:
REMARK  status: ('A' for Active; 'I' for Inactive)
REMARK    1  A    between atoms: C5_5  and  C6_6 
ROOT
HETATM    1  C1  UNL     1     -32.410   9.202   0.982  1.00 20.00     0.100 C 
HETATM    2  C2  UNL     1     -33.586   7.669   2.614  1.00 20.00     0.038 A 
HETATM    3  C3  UNL     1     -32.012   6.776   1.156  1.00 20.00     0.072 A 
HETATM    4  C4  UNL     1     -32.659   7.922   1.563  1.00 20.00     0.052 A 
HETATM    5  C5  UNL     1     -33.614   6.338   2.970  1.00 20.00    -0.002 A 
HETATM    6  N7  UNL     1     -32.209  10.243   0.510  1.00 20.00    -0.191 NA
HETATM    7  S8  UNL     1     -32.524   5.401   2.039  1.00 20.00    -0.104 SA
ENDROOT
BRANCH   5   8
HETATM    8  C6  UNL     1     -34.436   5.680   4.009  1.00 20.00     0.160 C 
HETATM    9 CL9  UNL     1     -33.983   3.965   4.194  1.00 20.00    -0.125 Cl
ENDBRANCH   5   8
TORSDOF 1
ENDMDL
MODEL 5
REMARK VINA RESULT:      -0.0      3.259      4.236
REMARK  1 active torsions:
REMARK  status: ('A' for Active; 'I' for Inactive)
REMARK    1  A    between atoms: C5_5  and  C6_6 
ROOT
HETATM    1  C1  UNL     1     -33.542   3.117   4.350  1.00 20.00     0.100 C 
HETATM    2  C2  UNL     1     -33.126   5.319   3.177  1.00 20.00     0.038 A 
HETATM    3  C3  UNL     1     -35.048   5.065   4.457  1.00 20.00     0.072 A 
HETATM    4  C4  UNL     1     -33.897   4.457   4.007  1.00 20.00     0.052 A 
HETATM    5  C5  UNL     1     -33.717   6.554   3.022  1.00 20.00    -0.002 A 
HETATM    6  N7  UNL     1     -33.252   2.028   4.626  1.00 20.00    -0.191 NA
HETATM    7  S8  UNL     1     -35.196   6.670   3.877  1.00 20.00    -0.104 SA
ENDROOT
BRANCH   5   8
HETATM    8  C6  UNL     1     -33.235   7.715   2.242  1.00 20.00     0.160 C 
HETATM    9 CL9  UNL     1     -31.549   7.476   1.715  1.00 20.00    -0.125 Cl
ENDBRANCH   5   8
TORSDOF 1
ENDMDL
MODEL 6
REMARK VINA RESULT:       0.3      2.690      3.270
REMARK  1 active torsions:
REMARK  status: ('A' for Active; 'I' for Inactive)
REMARK    1  A    between atoms: C5_5  and  C6_6 
ROOT
HETATM    1  C1  UNL     1     -31.733   4.875   0.604  1.00 20.00     0.100 C 
HETATM    2  C2  UNL     1     -33.267   5.847   2.365  1.00 20.00     0.038 A 
HETATM    3  C3  UNL     1     -31.637   7.202   1.412  1.00 20.00     0.072 A 
HETATM    4  C4  UNL     1     -32.195   5.943   1.433  1.00 20.00     0.052 A 
HETATM    5  C5  UNL     1     -33.488   7.037   3.024  1.00 20.00    -0.002 A 
HETATM    6  N7  UNL     1     -31.358   4.007  -0.067  1.00 20.00    -0.191 NA
HETATM    7  S8  UNL     1     -32.406   8.263   2.516  1.00 20.00    -0.104 SA
ENDROOT
BRANCH   5   8
HETATM    8  C6  UNL     1     -34.500   7.343   4.057  1.00 20.00     0.160 C 
HETATM    9 CL9  UNL     1     -35.563   5.942   4.348  1.00 20.00    -0.125 Cl
ENDBRANCH   5   8
TORSDOF 1
ENDMDL
MODEL 7
REMARK VINA RESULT:       1.5      3.218      3.885
REMARK  1 active torsions:
REMARK  status: ('A' for Active; 'I' for Inactive)
REMARK    1  A    between atoms: C5_5  and  C6_6 
ROOT
HETATM    1  C1  UNL     1     -35.090   5.504   4.282  1.00 20.00     0.100 C 
HETATM    2  C2  UNL     1     -33.389   5.605   2.412  1.00 20.00     0.038 A 
HETATM    3  C3  UNL     1     -33.779   7.506   3.691  1.00 20.00     0.072 A 
HETATM    4  C4  UNL     1     -34.118   6.187   3.489  1.00 20.00     0.052 A 
HETATM    5  C5  UNL     1     -32.521   6.504   1.831  1.00 20.00    -0.002 A 
HETATM    6  N7  UNL     1     -35.881   4.949   4.925  1.00 20.00    -0.191 NA
HETATM    7  S8  UNL     1     -32.586   8.040   2.584  1.00 20.00    -0.104 SA
ENDROOT
BRANCH   5   8
HETATM    8  C6  UNL     1     -31.597   6.288   0.696  1.00 20.00     0.160 C 
HETATM    9 CL9  UNL     1     -31.425   4.552   0.330  1.00 20.00    -0.125 Cl
ENDBRANCH   5   8
TORSDOF 1
ENDMDL
MODEL 8
REMARK VINA RESULT:       1.8      2.503      2.718
REMARK  1 active torsions:
REMARK  status: ('A' for Active; 'I' for Inactive)
REMARK    1  A    between atoms: C5_5  and  C6_6 
ROOT
HETATM    1  C1  UNL     1     -32.379   9.620   0.734  1.00 20.00     0.100 C 
HETATM    2  C2  UNL     1     -32.159   7.109   0.954  1.00 20.00     0.038 A 
HETATM    3  C3  UNL     1     -33.251   8.300   2.625  1.00 20.00     0.072 A 
HETATM    4  C4  UNL     1     -32.591   8.385   1.419  1.00 20.00     0.052 A 
HETATM    5  C5  UNL     1     -32.504   6.098   1.824  1.00 20.00    -0.002 A 
HETATM    6  N7  UNL     1     -32.205  10.623   0.178  1.00 20.00    -0.191 NA
HETATM    7  S8  UNL     1     -33.347   6.687   3.193  1.00 20.00    -0.104 SA
ENDROOT
BRANCH   5   8
HETATM    8  C6  UNL     1     -32.238   4.648   1.702  1.00 20.00     0.160 C 
HETATM    9 CL9  UNL     1     -31.412   4.275   0.167  1.00 20.00    -0.125 Cl
ENDBRANCH   5   8
TORSDOF 1
ENDMDL
MODEL 9
REMARK VINA RESULT:       1.8      3.646      4.532
REMARK  1 active torsions:
REMARK  status: ('A' for Active; 'I' for Inactive)
REMARK    1  A    between atoms: C5_5  and  C6_6 
ROOT
HETATM    1  C1  UNL     1     -31.653   4.722   0.564  1.00 20.00     0.100 C 
HETATM    2  C2  UNL     1     -31.851   7.196   1.054  1.00 20.00     0.038 A 
HETATM    3  C3  UNL     1     -33.088   5.689   2.319  1.00 20.00     0.072 A 
HETATM    4  C4  UNL     1     -32.183   5.831   1.291  1.00 20.00     0.052 A 
HETATM    5  C5  UNL     1     -32.517   8.046   1.910  1.00 20.00    -0.002 A 
HETATM    6  N7  UNL     1     -31.223   3.822  -0.028  1.00 20.00    -0.191 NA
HETATM    7  S8  UNL     1     -33.535   7.199   2.994  1.00 20.00    -0.104 SA
ENDROOT
BRANCH   5   8
HETATM    8  C6  UNL     1     -32.444   9.521   1.983  1.00 20.00     0.160 C 
HETATM    9 CL9  UNL     1     -32.495  10.247   0.355  1.00 20.00    -0.125 Cl
ENDBRANCH   5   8
TORSDOF 1
ENDMDL
