MODEL 1
REMARK VINA RESULT:      -0.0      0.000      0.000
REMARK  1 active torsions:
REMARK  status: ('A' for Active; 'I' for Inactive)
REMARK    1  A    between atoms: C6_6  and  C8_8 
ROOT
HETATM    1  C1  UNL     1     -33.319   7.597   4.347  1.00 20.00     0.069 C 
HETATM    2  C2  UNL     1     -34.271   4.680   4.320  1.00 20.00     0.002 C 
HETATM    3  C3  UNL     1     -35.561   5.500   4.325  1.00 20.00     0.002 C 
HETATM    4  C4  UNL     1     -33.344   5.347   3.304  1.00 20.00     0.024 C 
HETATM    5  C5  UNL     1     -35.353   6.625   3.312  1.00 20.00     0.024 C 
HETATM    6  C6  UNL     1     -33.832   6.797   3.214  1.00 20.00     0.049 C 
HETATM    7  N9  UNL     1     -32.917   8.225   5.236  1.00 20.00    -0.196 NA
ENDROOT
BRANCH   6   8
HETATM    8  C8  UNL     1     -33.416   7.459   1.900  1.00 20.00     0.020 C 
HETATM    9  C7  UNL     1     -31.945   7.709   1.850  1.00 20.00     0.007 C 
ENDBRANCH   6   8
TORSDOF 1
ENDMDL
MODEL 2
REMARK VINA RESULT:       0.6      2.125      4.138
REMARK  1 active torsions:
REMARK  status: ('A' for Active; 'I' for Inactive)
REMARK    1  A    between atoms: C6_6  and  C8_8 
ROOT
HETATM    1  C1  UNL     1     -32.770   6.397   1.687  1.00 20.00     0.069 C 
HETATM    2  C2  UNL     1     -31.033   8.820   0.960  1.00 20.00     0.002 C 
HETATM    3  C3  UNL     1     -32.417   9.165   0.408  1.00 20.00     0.002 C 
HETATM    4  C4  UNL     1     -31.262   8.247   2.359  1.00 20.00     0.024 C 
HETATM    5  C5  UNL     1     -33.417   8.784   1.499  1.00 20.00     0.024 C 
HETATM    6  C6  UNL     1     -32.702   7.721   2.342  1.00 20.00     0.049 C 
HETATM    7  N9  UNL     1     -32.824   5.358   1.172  1.00 20.00    -0.196 NA
ENDROOT
BRANCH   6   8
HETATM    8  C8  UNL     1     -33.289   7.618   3.749  1.00 20.00     0.020 C 
HETATM    9  C7  UNL     1     -34.572   6.855   3.758  1.00 20.00     0.007 C 
ENDBRANCH   6   8
TORSDOF 1
ENDMDL
MODEL 3
REMARK VINA RESULT:       0.6      2.388      3.317
REMARK  1 active torsions:
REMARK  status: ('A' for Active; 'I' for Inactive)
REMARK    1  A    between atoms: C6_6  and  C8_8 
ROOT
HETATM    1  C1  UNL     1     -32.074   6.501   1.686  1.00 20.00     0.069 C 
HETATM    2  C2  UNL     1     -34.041   7.677   3.727  1.00 20.00     0.002 C 
HETATM    3  C3  UNL     1     -32.665   7.886   4.361  1.00 20.00     0.002 C 
HETATM    4  C4  UNL     1     -33.900   8.079   2.259  1.00 20.00     0.024 C 
HETATM    5  C5  UNL     1     -31.757   8.403   3.246  1.00 20.00     0.024 C 
HETATM    6  C6  UNL     1     -32.408   7.918   1.945  1.00 20.00     0.049 C 
HETATM    7  N9  UNL     1     -31.812   5.389   1.484  1.00 20.00    -0.196 NA
ENDROOT
BRANCH   6   8
HETATM    8  C8  UNL     1     -31.983   8.764   0.744  1.00 20.00     0.020 C 
HETATM    9  C7  UNL     1     -32.710  10.067   0.703  1.00 20.00     0.007 C 
ENDBRANCH   6   8
TORSDOF 1
ENDMDL
MODEL 4
REMARK VINA RESULT:       0.7      2.064      2.811
REMARK  1 active torsions:
REMARK  status: ('A' for Active; 'I' for Inactive)
REMARK    1  A    between atoms: C6_6  and  C8_8 
ROOT
HETATM    1  C1  UNL     1     -33.367   7.641   3.122  1.00 20.00     0.069 C 
HETATM    2  C2  UNL     1     -31.643   5.579   1.640  1.00 20.00     0.002 C 
HETATM    3  C3  UNL     1     -33.006   5.500   0.952  1.00 20.00     0.002 C 
HETATM    4  C4  UNL     1     -31.339   7.067   1.815  1.00 20.00     0.024 C 
HETATM    5  C5  UNL     1     -33.462   6.944   0.743  1.00 20.00     0.024 C 
HETATM    6  C6  UNL     1     -32.708   7.757   1.803  1.00 20.00     0.049 C 
HETATM    7  N9  UNL     1     -33.885   7.550   4.157  1.00 20.00    -0.196 NA
ENDROOT
BRANCH   6   8
HETATM    8  C8  UNL     1     -32.600   9.233   1.421  1.00 20.00     0.020 C 
HETATM    9  C7  UNL     1     -32.301   9.406  -0.031  1.00 20.00     0.007 C 
ENDBRANCH   6   8
TORSDOF 1
ENDMDL
MODEL 5
REMARK VINA RESULT:       0.7      2.313      3.086
REMARK  1 active torsions:
REMARK  status: ('A' for Active; 'I' for Inactive)
REMARK    1  A    between atoms: C6_6  and  C8_8 
ROOT
HETATM    1  C1  UNL     1     -32.604   8.828   1.291  1.00 20.00     0.069 C 
HETATM    2  C2  UNL     1     -32.906   8.390   4.313  1.00 20.00     0.002 C 
HETATM    3  C3  UNL     1     -34.164   7.764   3.711  1.00 20.00     0.002 C 
HETATM    4  C4  UNL     1     -31.740   7.933   3.436  1.00 20.00     0.024 C 
HETATM    5  C5  UNL     1     -33.699   6.958   2.498  1.00 20.00     0.024 C 
HETATM    6  C6  UNL     1     -32.370   7.599   2.079  1.00 20.00     0.049 C 
HETATM    7  N9  UNL     1     -32.788   9.792   0.671  1.00 20.00    -0.196 NA
ENDROOT
BRANCH   6   8
HETATM    8  C8  UNL     1     -31.503   6.636   1.269  1.00 20.00     0.020 C 
HETATM    9  C7  UNL     1     -32.148   5.297   1.128  1.00 20.00     0.007 C 
ENDBRANCH   6   8
TORSDOF 1
ENDMDL
MODEL 6
REMARK VINA RESULT:       0.7      1.948      2.725
REMARK  1 active torsions:
REMARK  status: ('A' for Active; 'I' for Inactive)
REMARK    1  A    between atoms: C6_6  and  C8_8 
ROOT
HETATM    1  C1  UNL     1     -33.694   4.699   3.667  1.00 20.00     0.069 C 
HETATM    2  C2  UNL     1     -35.194   7.316   4.230  1.00 20.00     0.002 C 
HETATM    3  C3  UNL     1     -33.737   7.634   4.565  1.00 20.00     0.002 C 
HETATM    4  C4  UNL     1     -35.171   6.543   2.912  1.00 20.00     0.024 C 
HETATM    5  C5  UNL     1     -32.901   7.038   3.434  1.00 20.00     0.024 C 
HETATM    6  C6  UNL     1     -33.770   5.923   2.840  1.00 20.00     0.049 C 
HETATM    7  N9  UNL     1     -33.633   3.739   4.316  1.00 20.00    -0.196 NA
ENDROOT
BRANCH   6   8
HETATM    8  C8  UNL     1     -33.368   5.587   1.404  1.00 20.00     0.020 C 
HETATM    9  C7  UNL     1     -31.885   5.601   1.229  1.00 20.00     0.007 C 
ENDBRANCH   6   8
TORSDOF 1
ENDMDL
MODEL 7
REMARK VINA RESULT:       0.7      1.800      3.401
REMARK  1 active torsions:
REMARK  status: ('A' for Active; 'I' for Inactive)
REMARK    1  A    between atoms: C6_6  and  C8_8 
ROOT
HETATM    1  C1  UNL     1     -35.838   6.582   3.189  1.00 20.00     0.069 C 
HETATM    2  C2  UNL     1     -33.010   7.230   2.192  1.00 20.00     0.002 C 
HETATM    3  C3  UNL     1     -33.190   8.116   3.424  1.00 20.00     0.002 C 
HETATM    4  C4  UNL     1     -33.550   5.852   2.573  1.00 20.00     0.024 C 
HETATM    5  C5  UNL     1     -33.831   7.232   4.493  1.00 20.00     0.024 C 
HETATM    6  C6  UNL     1     -34.538   6.115   3.716  1.00 20.00     0.049 C 
HETATM    7  N9  UNL     1     -36.859   6.948   2.777  1.00 20.00    -0.196 NA
ENDROOT
BRANCH   6   8
HETATM    8  C8  UNL     1     -34.759   4.871   4.576  1.00 20.00     0.020 C 
HETATM    9  C7  UNL     1     -33.790   3.786   4.238  1.00 20.00     0.007 C 
ENDBRANCH   6   8
TORSDOF 1
ENDMDL
MODEL 8
REMARK VINA RESULT:       0.8      2.143      3.452
REMARK  1 active torsions:
REMARK  status: ('A' for Active; 'I' for Inactive)
REMARK    1  A    between atoms: C6_6  and  C8_8 
ROOT
HETATM    1  C1  UNL     1     -32.408   8.029   1.536  1.00 20.00     0.069 C 
HETATM    2  C2  UNL     1     -33.259   5.344   0.319  1.00 20.00     0.002 C 
HETATM    3  C3  UNL     1     -31.911   5.052   0.977  1.00 20.00     0.002 C 
HETATM    4  C4  UNL     1     -34.051   6.184   1.321  1.00 20.00     0.024 C 
HETATM    5  C5  UNL     1     -31.950   5.729   2.346  1.00 20.00     0.024 C 
HETATM    6  C6  UNL     1     -32.991   6.847   2.208  1.00 20.00     0.049 C 
HETATM    7  N9  UNL     1     -31.949   8.956   1.009  1.00 20.00    -0.196 NA
ENDROOT
BRANCH   6   8
HETATM    8  C8  UNL     1     -33.561   7.267   3.562  1.00 20.00     0.020 C 
HETATM    9  C7  UNL     1     -34.830   6.544   3.874  1.00 20.00     0.007 C 
ENDBRANCH   6   8
TORSDOF 1
ENDMDL
MODEL 9
REMARK VINA RESULT:       0.9      2.151      2.805
REMARK  1 active torsions:
REMARK  status: ('A' for Active; 'I' for Inactive)
REMARK    1  A    between atoms: C6_6  and  C8_8 
ROOT
HETATM    1  C1  UNL     1     -33.766   6.021   1.053  1.00 20.00     0.069 C 
HETATM    2  C2  UNL     1     -35.101   6.290   3.803  1.00 20.00     0.002 C 
HETATM    3  C3  UNL     1     -34.376   4.946   3.862  1.00 20.00     0.002 C 
HETATM    4  C4  UNL     1     -34.122   7.275   3.162  1.00 20.00     0.024 C 
HETATM    5  C5  UNL     1     -32.994   5.180   3.254  1.00 20.00     0.024 C 
HETATM    6  C6  UNL     1     -33.160   6.404   2.346  1.00 20.00     0.049 C 
HETATM    7  N9  UNL     1     -34.242   5.720   0.038  1.00 20.00    -0.196 NA
ENDROOT
BRANCH   6   8
HETATM    8  C8  UNL     1     -31.829   7.111   2.089  1.00 20.00     0.020 C 
HETATM    9  C7  UNL     1     -32.022   8.411   1.382  1.00 20.00     0.007 C 
ENDBRANCH   6   8
TORSDOF 1
ENDMDL
