MODEL 1
REMARK VINA RESULT:      -1.4      0.000      0.000
REMARK  0 active torsions:
REMARK  status: ('A' for Active; 'I' for Inactive)
ROOT
HETATM    1  C1  UNL     1     -34.932   5.597   3.987  1.00 20.00     0.095 C 
HETATM    2  C2  UNL     1     -32.467   8.288   2.931  1.00 20.00    -0.026 C 
HETATM    3  C3  UNL     1     -31.994   7.738   1.806  1.00 20.00    -0.001 C 
HETATM    4  C4  UNL     1     -33.504   7.597   3.768  1.00 20.00     0.077 C 
HETATM    5  C5  UNL     1     -32.444   6.386   1.335  1.00 20.00     0.298 C 
HETATM    6  C6  UNL     1     -34.178   6.423   3.030  1.00 20.00     0.329 C 
HETATM    7  N7  UNL     1     -35.527   4.947   4.742  1.00 20.00    -0.195 NA
HETATM    8  N8  UNL     1     -33.169   5.606   2.345  1.00 20.00     0.105 N 
HETATM    9  H16 UNL     1     -33.616   4.811   1.889  1.00 20.00     0.318 HD
ENDROOT
TORSDOF 0
ENDMDL
MODEL 2
REMARK VINA RESULT:      -1.3      1.561      3.492
REMARK  0 active torsions:
REMARK  status: ('A' for Active; 'I' for Inactive)
ROOT
HETATM    1  C1  UNL     1     -32.368   8.005   1.855  1.00 20.00     0.095 C 
HETATM    2  C2  UNL     1     -35.008   6.605   4.201  1.00 20.00    -0.026 C 
HETATM    3  C3  UNL     1     -34.745   5.297   4.089  1.00 20.00    -0.001 C 
HETATM    4  C4  UNL     1     -34.220   7.633   3.442  1.00 20.00     0.077 C 
HETATM    5  C5  UNL     1     -33.676   4.780   3.173  1.00 20.00     0.298 C 
HETATM    6  C6  UNL     1     -32.921   7.061   2.839  1.00 20.00     0.329 C 
HETATM    7  N7  UNL     1     -31.931   8.750   1.080  1.00 20.00    -0.195 NA
HETATM    8  N8  UNL     1     -33.185   5.765   2.202  1.00 20.00     0.105 N 
HETATM    9  H16 UNL     1     -32.331   5.408   1.773  1.00 20.00     0.318 HD
ENDROOT
TORSDOF 0
ENDMDL
MODEL 3
REMARK VINA RESULT:      -1.2      1.664      3.863
REMARK  0 active torsions:
REMARK  status: ('A' for Active; 'I' for Inactive)
ROOT
HETATM    1  C1  UNL     1     -32.452   7.363   1.959  1.00 20.00     0.095 C 
HETATM    2  C2  UNL     1     -33.977   4.370   3.735  1.00 20.00    -0.026 C 
HETATM    3  C3  UNL     1     -35.012   4.966   4.342  1.00 20.00    -0.001 C 
HETATM    4  C4  UNL     1     -33.018   5.144   2.878  1.00 20.00     0.077 C 
HETATM    5  C5  UNL     1     -35.252   6.443   4.231  1.00 20.00     0.298 C 
HETATM    6  C6  UNL     1     -33.545   6.546   2.511  1.00 20.00     0.329 C 
HETATM    7  N7  UNL     1     -31.591   8.006   1.522  1.00 20.00    -0.195 NA
HETATM    8  N8  UNL     1     -34.115   7.200   3.695  1.00 20.00     0.105 N 
HETATM    9  H16 UNL     1     -34.430   8.141   3.455  1.00 20.00     0.318 HD
ENDROOT
TORSDOF 0
ENDMDL
MODEL 4
REMARK VINA RESULT:      -1.0      1.034      1.795
REMARK  0 active torsions:
REMARK  status: ('A' for Active; 'I' for Inactive)
ROOT
HETATM    1  C1  UNL     1     -34.648   5.547   4.018  1.00 20.00     0.095 C 
HETATM    2  C2  UNL     1     -32.276   6.472   1.197  1.00 20.00    -0.026 C 
HETATM    3  C3  UNL     1     -31.898   7.690   1.606  1.00 20.00    -0.001 C 
HETATM    4  C4  UNL     1     -33.250   5.646   1.987  1.00 20.00     0.077 C 
HETATM    5  C5  UNL     1     -32.451   8.315   2.853  1.00 20.00     0.298 C 
HETATM    6  C6  UNL     1     -33.467   6.186   3.416  1.00 20.00     0.329 C 
HETATM    7  N7  UNL     1     -35.578   5.042   4.493  1.00 20.00    -0.195 NA
HETATM    8  N8  UNL     1     -33.641   7.643   3.387  1.00 20.00     0.105 N 
HETATM    9  H16 UNL     1     -33.820   7.990   4.330  1.00 20.00     0.318 HD
ENDROOT
TORSDOF 0
ENDMDL
MODEL 5
REMARK VINA RESULT:      -0.2      1.848      2.697
REMARK  0 active torsions:
REMARK  status: ('A' for Active; 'I' for Inactive)
ROOT
HETATM    1  C1  UNL     1     -33.536   3.189   4.311  1.00 20.00     0.095 C 
HETATM    2  C2  UNL     1     -35.296   6.547   4.052  1.00 20.00    -0.026 C 
HETATM    3  C3  UNL     1     -34.572   7.110   3.076  1.00 20.00    -0.001 C 
HETATM    4  C4  UNL     1     -34.995   5.164   4.554  1.00 20.00     0.077 C 
HETATM    5  C5  UNL     1     -33.399   6.411   2.455  1.00 20.00     0.298 C 
HETATM    6  C6  UNL     1     -34.045   4.385   3.621  1.00 20.00     0.329 C 
HETATM    7  N7  UNL     1     -33.136   2.245   4.855  1.00 20.00    -0.195 NA
HETATM    8  N8  UNL     1     -32.928   5.241   3.205  1.00 20.00     0.105 N 
HETATM    9  H16 UNL     1     -32.284   4.711   2.617  1.00 20.00     0.318 HD
ENDROOT
TORSDOF 0
ENDMDL
MODEL 6
REMARK VINA RESULT:      -0.1      1.997      3.292
REMARK  0 active torsions:
REMARK  status: ('A' for Active; 'I' for Inactive)
ROOT
HETATM    1  C1  UNL     1     -32.266   5.319   1.023  1.00 20.00     0.095 C 
HETATM    2  C2  UNL     1     -34.479   6.433   3.904  1.00 20.00    -0.026 C 
HETATM    3  C3  UNL     1     -34.111   7.718   3.992  1.00 20.00    -0.001 C 
HETATM    4  C4  UNL     1     -33.873   5.511   2.886  1.00 20.00     0.077 C 
HETATM    5  C5  UNL     1     -33.050   8.301   3.107  1.00 20.00     0.298 C 
HETATM    6  C6  UNL     1     -33.093   6.265   1.789  1.00 20.00     0.329 C 
HETATM    7  N7  UNL     1     -31.615   4.573   0.418  1.00 20.00    -0.195 NA
HETATM    8  N8  UNL     1     -32.247   7.303   2.390  1.00 20.00     0.105 N 
HETATM    9  H16 UNL     1     -31.707   7.775   1.664  1.00 20.00     0.318 HD
ENDROOT
TORSDOF 0
ENDMDL
MODEL 7
REMARK VINA RESULT:       0.5      1.276      3.078
REMARK  0 active torsions:
REMARK  status: ('A' for Active; 'I' for Inactive)
ROOT
HETATM    1  C1  UNL     1     -32.347   5.230   1.246  1.00 20.00     0.095 C 
HETATM    2  C2  UNL     1     -33.162   8.284   3.354  1.00 20.00    -0.026 C 
HETATM    3  C3  UNL     1     -34.129   7.777   4.129  1.00 20.00    -0.001 C 
HETATM    4  C4  UNL     1     -32.480   7.455   2.305  1.00 20.00     0.077 C 
HETATM    5  C5  UNL     1     -34.614   6.366   3.969  1.00 20.00     0.298 C 
HETATM    6  C6  UNL     1     -32.760   5.947   2.464  1.00 20.00     0.329 C 
HETATM    7  N7  UNL     1     -32.020   4.665   0.287  1.00 20.00    -0.195 NA
HETATM    8  N8  UNL     1     -34.186   5.718   2.724  1.00 20.00     0.105 N 
HETATM    9  H16 UNL     1     -34.371   4.717   2.793  1.00 20.00     0.318 HD
ENDROOT
TORSDOF 0
ENDMDL
MODEL 8
REMARK VINA RESULT:       0.6      1.529      2.092
REMARK  0 active torsions:
REMARK  status: ('A' for Active; 'I' for Inactive)
ROOT
HETATM    1  C1  UNL     1     -33.815   7.903   4.362  1.00 20.00     0.095 C 
HETATM    2  C2  UNL     1     -31.635   7.372   1.296  1.00 20.00    -0.026 C 
HETATM    3  C3  UNL     1     -32.099   6.183   0.888  1.00 20.00    -0.001 C 
HETATM    4  C4  UNL     1     -32.182   8.050   2.518  1.00 20.00     0.077 C 
HETATM    5  C5  UNL     1     -33.162   5.445   1.646  1.00 20.00     0.298 C 
HETATM    6  C6  UNL     1     -33.504   7.424   3.006  1.00 20.00     0.329 C 
HETATM    7  N7  UNL     1     -34.060   8.282   5.431  1.00 20.00    -0.195 NA
HETATM    8  N8  UNL     1     -33.405   5.959   2.999  1.00 20.00     0.105 N 
HETATM    9  H16 UNL     1     -34.269   5.551   3.356  1.00 20.00     0.318 HD
ENDROOT
TORSDOF 0
ENDMDL
MODEL 9
REMARK VINA RESULT:       0.9      2.359      4.206
REMARK  0 active torsions:
REMARK  status: ('A' for Active; 'I' for Inactive)
ROOT
HETATM    1  C1  UNL     1     -32.376   9.363   0.656  1.00 20.00     0.095 C 
HETATM    2  C2  UNL     1     -32.888   5.777   1.803  1.00 20.00    -0.026 C 
HETATM    3  C3  UNL     1     -33.255   5.993   3.072  1.00 20.00    -0.001 C 
HETATM    4  C4  UNL     1     -32.553   6.912   0.879  1.00 20.00     0.077 C 
HETATM    5  C5  UNL     1     -33.318   7.373   3.656  1.00 20.00     0.298 C 
HETATM    6  C6  UNL     1     -33.006   8.280   1.428  1.00 20.00     0.329 C 
HETATM    7  N7  UNL     1     -31.880  10.217   0.046  1.00 20.00    -0.195 NA
HETATM    8  N8  UNL     1     -32.651   8.400   2.847  1.00 20.00     0.105 N 
HETATM    9  H16 UNL     1     -32.921   9.321   3.196  1.00 20.00     0.318 HD
ENDROOT
TORSDOF 0
ENDMDL
