MODEL 1
REMARK VINA RESULT:      -1.7      0.000      0.000
REMARK  2 active torsions:
REMARK  status: ('A' for Active; 'I' for Inactive)
REMARK    1  A    between atoms: C3_3  and  C4_4 
REMARK    2  A    between atoms: C3_3  and  O6_6 
ROOT
HETATM    1  C1  UNL     1     -34.156   6.605   3.423  1.00 20.00     0.081 C 
HETATM    2  C4  UNL     1     -32.857   6.773   2.764  1.00 20.00     0.212 C 
HETATM    3  N5  UNL     1     -35.184   6.468   3.946  1.00 20.00    -0.196 NA
HETATM    4 CL7  UNL     1     -32.830   5.738   1.311  1.00 20.00    -0.107 Cl
ENDROOT
BRANCH   2   5
HETATM    5  C3  UNL     1     -32.579   8.228   2.397  1.00 20.00     0.202 C 
BRANCH   5   6
HETATM    6  O6  UNL     1     -31.981   8.325   1.110  1.00 20.00    -0.394 OA
HETATM    7  C2  UNL     1     -32.304   9.556   0.477  1.00 20.00     0.201 C 
ENDBRANCH   5   6
ENDBRANCH   2   5
TORSDOF 2
ENDMDL
MODEL 2
REMARK VINA RESULT:      -1.7      2.206      2.444
REMARK  2 active torsions:
REMARK  status: ('A' for Active; 'I' for Inactive)
REMARK    1  A    between atoms: C3_3  and  C4_4 
REMARK    2  A    between atoms: C3_3  and  O6_6 
ROOT
HETATM    1  C1  UNL     1     -34.048   4.590   3.818  1.00 20.00     0.081 C 
HETATM    2  C4  UNL     1     -34.257   5.849   3.094  1.00 20.00     0.212 C 
HETATM    3  N5  UNL     1     -33.887   3.595   4.392  1.00 20.00    -0.196 NA
HETATM    4 CL7  UNL     1     -34.664   7.116   4.282  1.00 20.00    -0.107 Cl
ENDROOT
BRANCH   2   5
HETATM    5  C3  UNL     1     -33.037   6.251   2.271  1.00 20.00     0.202 C 
BRANCH   5   6
HETATM    6  O6  UNL     1     -32.669   7.601   2.528  1.00 20.00    -0.394 OA
HETATM    7  C2  UNL     1     -31.849   8.124   1.492  1.00 20.00     0.201 C 
ENDBRANCH   5   6
ENDBRANCH   2   5
TORSDOF 2
ENDMDL
MODEL 3
REMARK VINA RESULT:      -1.5      1.992      2.120
REMARK  2 active torsions:
REMARK  status: ('A' for Active; 'I' for Inactive)
REMARK    1  A    between atoms: C3_3  and  C4_4 
REMARK    2  A    between atoms: C3_3  and  O6_6 
ROOT
HETATM    1  C1  UNL     1     -34.877   6.005   4.083  1.00 20.00     0.081 C 
HETATM    2  C4  UNL     1     -34.246   7.234   3.591  1.00 20.00     0.212 C 
HETATM    3  N5  UNL     1     -35.379   5.035   4.475  1.00 20.00    -0.196 NA
HETATM    4 CL7  UNL     1     -33.484   8.064   4.975  1.00 20.00    -0.107 Cl
ENDROOT
BRANCH   2   5
HETATM    5  C3  UNL     1     -33.220   6.958   2.495  1.00 20.00     0.202 C 
BRANCH   5   6
HETATM    6  O6  UNL     1     -32.207   7.956   2.480  1.00 20.00    -0.394 OA
HETATM    7  C2  UNL     1     -32.071   8.541   1.192  1.00 20.00     0.201 C 
ENDBRANCH   5   6
ENDBRANCH   2   5
TORSDOF 2
ENDMDL
MODEL 4
REMARK VINA RESULT:      -1.5      2.138      2.200
REMARK  2 active torsions:
REMARK  status: ('A' for Active; 'I' for Inactive)
REMARK    1  A    between atoms: C3_3  and  C4_4 
REMARK    2  A    between atoms: C3_3  and  O6_6 
ROOT
HETATM    1  C1  UNL     1     -32.724   6.071   1.646  1.00 20.00     0.081 C 
HETATM    2  C4  UNL     1     -33.119   7.421   2.062  1.00 20.00     0.212 C 
HETATM    3  N5  UNL     1     -32.416   5.001   1.317  1.00 20.00    -0.196 NA
HETATM    4 CL7  UNL     1     -33.711   7.337   3.743  1.00 20.00    -0.107 Cl
ENDROOT
BRANCH   2   5
HETATM    5  C3  UNL     1     -31.971   8.421   1.943  1.00 20.00     0.202 C 
BRANCH   5   6
HETATM    6  O6  UNL     1     -31.781   8.823   0.592  1.00 20.00    -0.394 OA
HETATM    7  C2  UNL     1     -32.524   9.996   0.289  1.00 20.00     0.201 C 
ENDBRANCH   5   6
ENDBRANCH   2   5
TORSDOF 2
ENDMDL
MODEL 5
REMARK VINA RESULT:      -1.4      2.648      3.533
REMARK  2 active torsions:
REMARK  status: ('A' for Active; 'I' for Inactive)
REMARK    1  A    between atoms: C3_3  and  C4_4 
REMARK    2  A    between atoms: C3_3  and  O6_6 
ROOT
HETATM    1  C1  UNL     1     -32.431   8.359   1.294  1.00 20.00     0.081 C 
HETATM    2  C4  UNL     1     -33.036   7.218   1.990  1.00 20.00     0.212 C 
HETATM    3  N5  UNL     1     -31.954   9.260   0.740  1.00 20.00    -0.196 NA
HETATM    4 CL7  UNL     1     -32.140   5.745   1.531  1.00 20.00    -0.107 Cl
ENDROOT
BRANCH   2   5
HETATM    5  C3  UNL     1     -33.036   7.400   3.506  1.00 20.00     0.202 C 
BRANCH   5   6
HETATM    6  O6  UNL     1     -34.362   7.536   4.004  1.00 20.00    -0.394 OA
HETATM    7  C2  UNL     1     -35.075   6.309   3.929  1.00 20.00     0.201 C 
ENDBRANCH   5   6
ENDBRANCH   2   5
TORSDOF 2
ENDMDL
MODEL 6
REMARK VINA RESULT:      -1.4      2.764      3.477
REMARK  2 active torsions:
REMARK  status: ('A' for Active; 'I' for Inactive)
REMARK    1  A    between atoms: C3_3  and  C4_4 
REMARK    2  A    between atoms: C3_3  and  O6_6 
ROOT
HETATM    1  C1  UNL     1     -32.303   6.241   1.525  1.00 20.00     0.081 C 
HETATM    2  C4  UNL     1     -32.313   7.509   2.263  1.00 20.00     0.212 C 
HETATM    3  N5  UNL     1     -32.292   5.239   0.940  1.00 20.00    -0.196 NA
HETATM    4 CL7  UNL     1     -32.348   8.844   1.079  1.00 20.00    -0.107 Cl
ENDROOT
BRANCH   2   5
HETATM    5  C3  UNL     1     -33.493   7.609   3.225  1.00 20.00     0.202 C 
BRANCH   5   6
HETATM    6  O6  UNL     1     -33.992   6.319   3.559  1.00 20.00    -0.394 OA
HETATM    7  C2  UNL     1     -35.352   6.376   3.966  1.00 20.00     0.201 C 
ENDBRANCH   5   6
ENDBRANCH   2   5
TORSDOF 2
ENDMDL
MODEL 7
REMARK VINA RESULT:      -1.4      2.586      3.528
REMARK  2 active torsions:
REMARK  status: ('A' for Active; 'I' for Inactive)
REMARK    1  A    between atoms: C3_3  and  C4_4 
REMARK    2  A    between atoms: C3_3  and  O6_6 
ROOT
HETATM    1  C1  UNL     1     -32.286   7.387   1.714  1.00 20.00     0.081 C 
HETATM    2  C4  UNL     1     -32.906   6.064   1.588  1.00 20.00     0.212 C 
HETATM    3  N5  UNL     1     -31.796   8.434   1.810  1.00 20.00    -0.196 NA
HETATM    4 CL7  UNL     1     -31.667   4.920   1.003  1.00 20.00    -0.107 Cl
ENDROOT
BRANCH   2   5
HETATM    5  C3  UNL     1     -33.510   5.580   2.903  1.00 20.00     0.202 C 
BRANCH   5   6
HETATM    6  O6  UNL     1     -34.173   6.639   3.582  1.00 20.00    -0.394 OA
HETATM    7  C2  UNL     1     -35.400   6.205   4.151  1.00 20.00     0.201 C 
ENDBRANCH   5   6
ENDBRANCH   2   5
TORSDOF 2
ENDMDL
MODEL 8
REMARK VINA RESULT:      -1.3      2.940      3.875
REMARK  2 active torsions:
REMARK  status: ('A' for Active; 'I' for Inactive)
REMARK    1  A    between atoms: C3_3  and  C4_4 
REMARK    2  A    between atoms: C3_3  and  O6_6 
ROOT
HETATM    1  C1  UNL     1     -32.254   8.956   0.892  1.00 20.00     0.081 C 
HETATM    2  C4  UNL     1     -31.973   7.932   1.903  1.00 20.00     0.212 C 
HETATM    3  N5  UNL     1     -32.473   9.767   0.091  1.00 20.00    -0.196 NA
HETATM    4 CL7  UNL     1     -31.397   8.750   3.381  1.00 20.00    -0.107 Cl
ENDROOT
BRANCH   2   5
HETATM    5  C3  UNL     1     -33.194   7.067   2.206  1.00 20.00     0.202 C 
BRANCH   5   6
HETATM    6  O6  UNL     1     -33.710   7.346   3.501  1.00 20.00    -0.394 OA
HETATM    7  C2  UNL     1     -34.810   6.503   3.816  1.00 20.00     0.201 C 
ENDBRANCH   5   6
ENDBRANCH   2   5
TORSDOF 2
ENDMDL
MODEL 9
REMARK VINA RESULT:      -1.3      3.193      4.245
REMARK  2 active torsions:
REMARK  status: ('A' for Active; 'I' for Inactive)
REMARK    1  A    between atoms: C3_3  and  C4_4 
REMARK    2  A    between atoms: C3_3  and  O6_6 
ROOT
HETATM    1  C1  UNL     1     -34.081   7.233   4.102  1.00 20.00     0.081 C 
HETATM    2  C4  UNL     1     -34.461   6.002   3.400  1.00 20.00     0.212 C 
HETATM    3  N5  UNL     1     -33.782   8.209   4.654  1.00 20.00    -0.196 NA
HETATM    4 CL7  UNL     1     -33.215   5.654   2.171  1.00 20.00    -0.107 Cl
ENDROOT
BRANCH   2   5
HETATM    5  C3  UNL     1     -34.626   4.821   4.352  1.00 20.00     0.202 C 
BRANCH   5   6
HETATM    6  O6  UNL     1     -33.961   3.666   3.855  1.00 20.00    -0.394 OA
HETATM    7  C2  UNL     1     -33.184   3.038   4.865  1.00 20.00     0.201 C 
ENDBRANCH   5   6
ENDBRANCH   2   5
TORSDOF 2
ENDMDL
