MODEL 1
REMARK VINA RESULT:      -2.2      0.000      0.000
REMARK  2 active torsions:
REMARK  status: ('A' for Active; 'I' for Inactive)
REMARK    1  A    between atoms: C3_3  and  C4_4 
REMARK    2  A    between atoms: C5_5  and  C6_6 
ROOT
HETATM    1  C1  UNL     1     -32.240   9.024   0.889  1.00 20.00     0.087 C 
HETATM    2  C2  UNL     1     -32.439   7.849   1.663  1.00 20.00     0.093 C 
HETATM    3  C3  UNL     1     -33.396   7.781   2.599  1.00 20.00     0.011 C 
HETATM    4  N7  UNL     1     -32.075   9.982   0.255  1.00 20.00    -0.192 NA
ENDROOT
BRANCH   3   5
HETATM    5  C4  UNL     1     -33.626   6.603   3.405  1.00 20.00    -0.002 C 
HETATM    6  C5  UNL     1     -34.850   6.166   3.734  1.00 20.00    -0.012 C 
BRANCH   6   7
HETATM    7  C6  UNL     1     -35.096   4.945   4.558  1.00 20.00     0.141 C 
HETATM    8 CL8  UNL     1     -33.819   3.746   4.258  1.00 20.00    -0.126 Cl
ENDBRANCH   6   7
ENDBRANCH   3   5
TORSDOF 2
ENDMDL
MODEL 2
REMARK VINA RESULT:      -2.1      3.925      5.270
REMARK  2 active torsions:
REMARK  status: ('A' for Active; 'I' for Inactive)
REMARK    1  A    between atoms: C3_3  and  C4_4 
REMARK    2  A    between atoms: C5_5  and  C6_6 
ROOT
HETATM    1  C1  UNL     1     -34.845   5.574   4.036  1.00 20.00     0.087 C 
HETATM    2  C2  UNL     1     -34.124   6.457   3.189  1.00 20.00     0.093 C 
HETATM    3  C3  UNL     1     -33.154   6.012   2.378  1.00 20.00     0.011 C 
HETATM    4  N7  UNL     1     -35.437   4.855   4.731  1.00 20.00    -0.192 NA
ENDROOT
BRANCH   3   5
HETATM    5  C4  UNL     1     -32.400   6.882   1.503  1.00 20.00    -0.002 C 
HETATM    6  C5  UNL     1     -32.337   8.212   1.665  1.00 20.00    -0.012 C 
BRANCH   6   7
HETATM    7  C6  UNL     1     -31.553   9.115   0.771  1.00 20.00     0.141 C 
HETATM    8 CL8  UNL     1     -32.651   9.997  -0.312  1.00 20.00    -0.126 Cl
ENDBRANCH   6   7
ENDBRANCH   3   5
TORSDOF 2
ENDMDL
MODEL 3
REMARK VINA RESULT:      -1.3      1.352      1.696
REMARK  2 active torsions:
REMARK  status: ('A' for Active; 'I' for Inactive)
REMARK    1  A    between atoms: C3_3  and  C4_4 
REMARK    2  A    between atoms: C5_5  and  C6_6 
ROOT
HETATM    1  C1  UNL     1     -32.345   9.956   0.325  1.00 20.00     0.087 C 
HETATM    2  C2  UNL     1     -32.740   8.855   1.132  1.00 20.00     0.093 C 
HETATM    3  C3  UNL     1     -31.972   7.762   1.250  1.00 20.00     0.011 C 
HETATM    4  N7  UNL     1     -32.025  10.857  -0.334  1.00 20.00    -0.192 NA
ENDROOT
BRANCH   3   5
HETATM    5  C4  UNL     1     -32.343   6.625   2.061  1.00 20.00    -0.002 C 
HETATM    6  C5  UNL     1     -33.526   6.522   2.685  1.00 20.00    -0.012 C 
BRANCH   6   7
HETATM    7  C6  UNL     1     -33.919   5.346   3.517  1.00 20.00     0.141 C 
HETATM    8 CL8  UNL     1     -35.474   5.662   4.316  1.00 20.00    -0.126 Cl
ENDBRANCH   6   7
ENDBRANCH   3   5
TORSDOF 2
ENDMDL
MODEL 4
REMARK VINA RESULT:      -0.2      4.168      5.401
REMARK  2 active torsions:
REMARK  status: ('A' for Active; 'I' for Inactive)
REMARK    1  A    between atoms: C3_3  and  C4_4 
REMARK    2  A    between atoms: C5_5  and  C6_6 
ROOT
HETATM    1  C1  UNL     1     -33.418   2.753   4.455  1.00 20.00     0.087 C 
HETATM    2  C2  UNL     1     -33.366   4.100   4.007  1.00 20.00     0.093 C 
HETATM    3  C3  UNL     1     -34.437   4.903   4.079  1.00 20.00     0.011 C 
HETATM    4  N7  UNL     1     -33.456   1.651   4.820  1.00 20.00    -0.192 NA
ENDROOT
BRANCH   3   5
HETATM    5  C4  UNL     1     -34.420   6.278   3.633  1.00 20.00    -0.002 C 
HETATM    6  C5  UNL     1     -33.337   6.865   3.103  1.00 20.00    -0.012 C 
BRANCH   6   7
HETATM    7  C6  UNL     1     -33.315   8.282   2.632  1.00 20.00     0.141 C 
HETATM    8 CL8  UNL     1     -32.075   8.484   1.376  1.00 20.00    -0.126 Cl
ENDBRANCH   6   7
ENDBRANCH   3   5
TORSDOF 2
ENDMDL
MODEL 5
REMARK VINA RESULT:       0.4      2.903      2.981
REMARK  2 active torsions:
REMARK  status: ('A' for Active; 'I' for Inactive)
REMARK    1  A    between atoms: C3_3  and  C4_4 
REMARK    2  A    between atoms: C5_5  and  C6_6 
ROOT
HETATM    1  C1  UNL     1     -32.440  10.296   0.510  1.00 20.00     0.087 C 
HETATM    2  C2  UNL     1     -32.222   8.893   0.570  1.00 20.00     0.093 C 
HETATM    3  C3  UNL     1     -32.078   8.256   1.740  1.00 20.00     0.011 C 
HETATM    4  N7  UNL     1     -32.619  11.442   0.458  1.00 20.00    -0.192 NA
ENDROOT
BRANCH   3   5
HETATM    5  C4  UNL     1     -31.854   6.831   1.838  1.00 20.00    -0.002 C 
HETATM    6  C5  UNL     1     -32.566   5.927   1.148  1.00 20.00    -0.012 C 
BRANCH   6   7
HETATM    7  C6  UNL     1     -32.335   4.454   1.236  1.00 20.00     0.141 C 
HETATM    8 CL8  UNL     1     -31.207   3.941  -0.036  1.00 20.00    -0.126 Cl
ENDBRANCH   6   7
ENDBRANCH   3   5
TORSDOF 2
ENDMDL
MODEL 6
REMARK VINA RESULT:       0.5      3.433      3.756
REMARK  2 active torsions:
REMARK  status: ('A' for Active; 'I' for Inactive)
REMARK    1  A    between atoms: C3_3  and  C4_4 
REMARK    2  A    between atoms: C5_5  and  C6_6 
ROOT
HETATM    1  C1  UNL     1     -31.516   4.242   0.222  1.00 20.00     0.087 C 
HETATM    2  C2  UNL     1     -32.325   5.011   1.100  1.00 20.00     0.093 C 
HETATM    3  C3  UNL     1     -32.017   6.279   1.406  1.00 20.00     0.011 C 
HETATM    4  N7  UNL     1     -30.857   3.610  -0.496  1.00 20.00    -0.192 NA
ENDROOT
BRANCH   3   5
HETATM    5  C4  UNL     1     -32.817   7.091   2.296  1.00 20.00    -0.002 C 
HETATM    6  C5  UNL     1     -33.710   6.577   3.155  1.00 20.00    -0.012 C 
BRANCH   6   7
HETATM    7  C6  UNL     1     -34.533   7.409   4.083  1.00 20.00     0.141 C 
HETATM    8 CL8  UNL     1     -33.474   8.314   5.185  1.00 20.00    -0.126 Cl
ENDBRANCH   6   7
ENDBRANCH   3   5
TORSDOF 2
ENDMDL
