MODEL 1
REMARK VINA RESULT:      -2.3      0.000      0.000
REMARK  3 active torsions:
REMARK  status: ('A' for Active; 'I' for Inactive)
REMARK    1  A    between atoms: C3_3  and  C8_8 
REMARK    2  A    between atoms: C3_3  and  O10_10 
REMARK    3  A    between atoms: C6_6  and  C8_8 
ROOT
HETATM    1  C1  UNL     1     -33.274   5.566   2.640  1.00 20.00    -0.026 C 
HETATM    2  C2  UNL     1     -32.889   6.256   1.563  1.00 20.00    -0.025 C 
HETATM    3  C4  UNL     1     -33.379   7.848   3.240  1.00 20.00     0.017 C 
HETATM    4  C5  UNL     1     -33.824   6.455   3.713  1.00 20.00     0.004 C 
HETATM    5  C6  UNL     1     -33.128   7.725   1.728  1.00 20.00     0.018 C 
HETATM    6  C7  UNL     1     -35.338   6.329   3.828  1.00 20.00     0.014 C 
ENDROOT
BRANCH   5   7
HETATM    7  C8  UNL     1     -31.957   8.579   1.266  1.00 20.00     0.118 C 
BRANCH   7   8
HETATM    8  C3  UNL     1     -32.409   9.745   0.426  1.00 20.00     0.140 C 
HETATM    9  O9  UNL     1     -32.455  10.914   0.776  1.00 20.00    -0.650 OA
BRANCH   8  10
HETATM   10  O10 UNL     1     -32.768   9.312  -0.811  1.00 20.00    -0.776 OA
HETATM   11  H22 UNL     1     -33.490   9.857  -1.192  1.00 20.00     0.167 HD
ENDBRANCH   8  10
ENDBRANCH   7   8
ENDBRANCH   5   7
TORSDOF 3
ENDMDL
MODEL 2
REMARK VINA RESULT:      -1.6      1.612      2.456
REMARK  3 active torsions:
REMARK  status: ('A' for Active; 'I' for Inactive)
REMARK    1  A    between atoms: C3_3  and  C8_8 
REMARK    2  A    between atoms: C3_3  and  O10_10 
REMARK    3  A    between atoms: C6_6  and  C8_8 
ROOT
HETATM    1  C1  UNL     1     -35.240   6.020   4.236  1.00 20.00    -0.026 C 
HETATM    2  C2  UNL     1     -34.622   7.204   4.263  1.00 20.00    -0.025 C 
HETATM    3  C4  UNL     1     -33.482   5.890   2.664  1.00 20.00     0.017 C 
HETATM    4  C5  UNL     1     -34.489   5.011   3.424  1.00 20.00     0.004 C 
HETATM    5  C6  UNL     1     -33.346   7.185   3.481  1.00 20.00     0.018 C 
HETATM    6  C7  UNL     1     -33.812   3.968   4.304  1.00 20.00     0.014 C 
ENDROOT
BRANCH   5   7
HETATM    7  C8  UNL     1     -33.165   8.409   2.597  1.00 20.00     0.118 C 
BRANCH   7   8
HETATM    8  C3  UNL     1     -32.066   8.215   1.586  1.00 20.00     0.140 C 
HETATM    9  O9  UNL     1     -31.172   7.384   1.640  1.00 20.00    -0.650 OA
BRANCH   8  10
HETATM   10  O10 UNL     1     -32.202   9.112   0.575  1.00 20.00    -0.776 OA
HETATM   11  H22 UNL     1     -31.337   9.352   0.180  1.00 20.00     0.167 HD
ENDBRANCH   8  10
ENDBRANCH   7   8
ENDBRANCH   5   7
TORSDOF 3
ENDMDL
MODEL 3
REMARK VINA RESULT:      -1.5      3.278      4.707
REMARK  3 active torsions:
REMARK  status: ('A' for Active; 'I' for Inactive)
REMARK    1  A    between atoms: C3_3  and  C8_8 
REMARK    2  A    between atoms: C3_3  and  O10_10 
REMARK    3  A    between atoms: C6_6  and  C8_8 
ROOT
HETATM    1  C1  UNL     1     -31.848   8.537   2.876  1.00 20.00    -0.026 C 
HETATM    2  C2  UNL     1     -32.883   7.951   3.485  1.00 20.00    -0.025 C 
HETATM    3  C4  UNL     1     -32.479   6.713   1.513  1.00 20.00     0.017 C 
HETATM    4  C5  UNL     1     -31.620   7.988   1.501  1.00 20.00     0.004 C 
HETATM    5  C6  UNL     1     -33.530   6.918   2.616  1.00 20.00     0.018 C 
HETATM    6  C7  UNL     1     -32.048   8.975   0.421  1.00 20.00     0.014 C 
ENDROOT
BRANCH   5   7
HETATM    7  C8  UNL     1     -33.851   5.628   3.355  1.00 20.00     0.118 C 
BRANCH   7   8
HETATM    8  C3  UNL     1     -35.230   5.654   3.959  1.00 20.00     0.140 C 
HETATM    9  O9  UNL     1     -36.083   6.509   3.778  1.00 20.00    -0.650 OA
BRANCH   8  10
HETATM   10  O10 UNL     1     -35.408   4.568   4.756  1.00 20.00    -0.776 OA
HETATM   11  H22 UNL     1     -36.331   4.238   4.722  1.00 20.00     0.167 HD
ENDBRANCH   8  10
ENDBRANCH   7   8
ENDBRANCH   5   7
TORSDOF 3
ENDMDL
MODEL 4
REMARK VINA RESULT:      -1.4      3.268      4.729
REMARK  3 active torsions:
REMARK  status: ('A' for Active; 'I' for Inactive)
REMARK    1  A    between atoms: C3_3  and  C8_8 
REMARK    2  A    between atoms: C3_3  and  O10_10 
REMARK    3  A    between atoms: C6_6  and  C8_8 
ROOT
HETATM    1  C1  UNL     1     -31.922   8.545   2.898  1.00 20.00    -0.026 C 
HETATM    2  C2  UNL     1     -32.864   7.831   3.521  1.00 20.00    -0.025 C 
HETATM    3  C4  UNL     1     -32.497   6.782   1.436  1.00 20.00     0.017 C 
HETATM    4  C5  UNL     1     -31.745   8.122   1.472  1.00 20.00     0.004 C 
HETATM    5  C6  UNL     1     -33.485   6.815   2.614  1.00 20.00     0.018 C 
HETATM    6  C7  UNL     1     -32.321   9.146   0.503  1.00 20.00     0.014 C 
ENDROOT
BRANCH   5   7
HETATM    7  C8  UNL     1     -33.652   5.450   3.266  1.00 20.00     0.118 C 
BRANCH   7   8
HETATM    8  C3  UNL     1     -34.935   5.355   4.048  1.00 20.00     0.140 C 
HETATM    9  O9  UNL     1     -35.259   4.446   4.797  1.00 20.00    -0.650 OA
BRANCH   8  10
HETATM   10  O10 UNL     1     -35.708   6.445   3.805  1.00 20.00    -0.776 OA
HETATM   11  H22 UNL     1     -35.754   6.653   2.847  1.00 20.00     0.167 HD
ENDBRANCH   8  10
ENDBRANCH   7   8
ENDBRANCH   5   7
TORSDOF 3
ENDMDL
MODEL 5
REMARK VINA RESULT:      -1.0      3.613      4.917
REMARK  3 active torsions:
REMARK  status: ('A' for Active; 'I' for Inactive)
REMARK    1  A    between atoms: C3_3  and  C8_8 
REMARK    2  A    between atoms: C3_3  and  O10_10 
REMARK    3  A    between atoms: C6_6  and  C8_8 
ROOT
HETATM    1  C1  UNL     1     -32.366   6.629   1.089  1.00 20.00    -0.026 C 
HETATM    2  C2  UNL     1     -32.963   5.788   1.939  1.00 20.00    -0.025 C 
HETATM    3  C4  UNL     1     -33.267   7.960   2.819  1.00 20.00     0.017 C 
HETATM    4  C5  UNL     1     -32.291   8.022   1.634  1.00 20.00     0.004 C 
HETATM    5  C6  UNL     1     -33.380   6.476   3.202  1.00 20.00     0.018 C 
HETATM    6  C7  UNL     1     -30.874   8.387   2.057  1.00 20.00     0.014 C 
ENDROOT
BRANCH   5   7
HETATM    7  C8  UNL     1     -34.783   6.101   3.655  1.00 20.00     0.118 C 
BRANCH   7   8
HETATM    8  C3  UNL     1     -34.815   4.754   4.328  1.00 20.00     0.140 C 
HETATM    9  O9  UNL     1     -34.023   3.840   4.155  1.00 20.00    -0.650 OA
BRANCH   8  10
HETATM   10  O10 UNL     1     -35.873   4.685   5.178  1.00 20.00    -0.776 OA
HETATM   11  H22 UNL     1     -36.368   3.845   5.077  1.00 20.00     0.167 HD
ENDBRANCH   8  10
ENDBRANCH   7   8
ENDBRANCH   5   7
TORSDOF 3
ENDMDL
MODEL 6
REMARK VINA RESULT:      -1.0      0.900      1.584
REMARK  3 active torsions:
REMARK  status: ('A' for Active; 'I' for Inactive)
REMARK    1  A    between atoms: C3_3  and  C8_8 
REMARK    2  A    between atoms: C3_3  and  O10_10 
REMARK    3  A    between atoms: C6_6  and  C8_8 
ROOT
HETATM    1  C1  UNL     1     -33.572   7.707   3.469  1.00 20.00    -0.026 C 
HETATM    2  C2  UNL     1     -32.455   8.309   3.050  1.00 20.00    -0.025 C 
HETATM    3  C4  UNL     1     -32.989   6.681   1.423  1.00 20.00     0.017 C 
HETATM    4  C5  UNL     1     -33.907   6.503   2.643  1.00 20.00     0.004 C 
HETATM    5  C6  UNL     1     -31.846   7.602   1.879  1.00 20.00     0.018 C 
HETATM    6  C7  UNL     1     -33.637   5.208   3.398  1.00 20.00     0.014 C 
ENDROOT
BRANCH   5   7
HETATM    7  C8  UNL     1     -31.391   8.547   0.778  1.00 20.00     0.118 C 
BRANCH   7   8
HETATM    8  C3  UNL     1     -32.449   9.563   0.436  1.00 20.00     0.140 C 
HETATM    9  O9  UNL     1     -32.844  10.466   1.156  1.00 20.00    -0.650 OA
BRANCH   8  10
HETATM   10  O10 UNL     1     -32.922   9.335  -0.817  1.00 20.00    -0.776 OA
HETATM   11  H22 UNL     1     -33.175   8.396  -0.947  1.00 20.00     0.167 HD
ENDBRANCH   8  10
ENDBRANCH   7   8
ENDBRANCH   5   7
TORSDOF 3
ENDMDL
MODEL 7
REMARK VINA RESULT:      -1.0      4.263      5.471
REMARK  3 active torsions:
REMARK  status: ('A' for Active; 'I' for Inactive)
REMARK    1  A    between atoms: C3_3  and  C8_8 
REMARK    2  A    between atoms: C3_3  and  O10_10 
REMARK    3  A    between atoms: C6_6  and  C8_8 
ROOT
HETATM    1  C1  UNL     1     -32.732   5.821   1.224  1.00 20.00    -0.026 C 
HETATM    2  C2  UNL     1     -32.689   4.783   2.064  1.00 20.00    -0.025 C 
HETATM    3  C4  UNL     1     -33.795   6.529   3.211  1.00 20.00     0.017 C 
HETATM    4  C5  UNL     1     -33.213   7.071   1.896  1.00 20.00     0.004 C 
HETATM    5  C6  UNL     1     -33.124   5.166   3.445  1.00 20.00     0.018 C 
HETATM    6  C7  UNL     1     -32.080   8.064   2.119  1.00 20.00     0.014 C 
ENDROOT
BRANCH   5   7
HETATM    7  C8  UNL     1     -34.070   4.157   4.078  1.00 20.00     0.118 C 
BRANCH   7   8
HETATM    8  C3  UNL     1     -33.325   3.051   4.778  1.00 20.00     0.140 C 
HETATM    9  O9  UNL     1     -32.525   3.183   5.692  1.00 20.00    -0.650 OA
BRANCH   8  10
HETATM   10  O10 UNL     1     -33.670   1.850   4.244  1.00 20.00    -0.776 OA
HETATM   11  H22 UNL     1     -33.779   1.901   3.271  1.00 20.00     0.167 HD
ENDBRANCH   8  10
ENDBRANCH   7   8
ENDBRANCH   5   7
TORSDOF 3
ENDMDL
MODEL 8
REMARK VINA RESULT:      -0.4      1.344      1.747
REMARK  3 active torsions:
REMARK  status: ('A' for Active; 'I' for Inactive)
REMARK    1  A    between atoms: C3_3  and  C8_8 
REMARK    2  A    between atoms: C3_3  and  O10_10 
REMARK    3  A    between atoms: C6_6  and  C8_8 
ROOT
HETATM    1  C1  UNL     1     -33.753   4.839   3.535  1.00 20.00    -0.026 C 
HETATM    2  C2  UNL     1     -33.171   5.000   2.343  1.00 20.00    -0.025 C 
HETATM    3  C4  UNL     1     -33.686   7.166   3.135  1.00 20.00     0.017 C 
HETATM    4  C5  UNL     1     -34.331   6.119   4.057  1.00 20.00     0.004 C 
HETATM    5  C6  UNL     1     -33.270   6.414   1.860  1.00 20.00     0.018 C 
HETATM    6  C7  UNL     1     -35.852   6.124   3.980  1.00 20.00     0.014 C 
ENDROOT
BRANCH   5   7
HETATM    7  C8  UNL     1     -31.968   6.942   1.277  1.00 20.00     0.118 C 
BRANCH   7   8
HETATM    8  C3  UNL     1     -31.817   8.425   1.491  1.00 20.00     0.140 C 
HETATM    9  O9  UNL     1     -32.231   9.307   0.755  1.00 20.00    -0.650 OA
BRANCH   8  10
HETATM   10  O10 UNL     1     -31.139   8.659   2.645  1.00 20.00    -0.776 OA
HETATM   11  H22 UNL     1     -30.225   8.970   2.474  1.00 20.00     0.167 HD
ENDBRANCH   8  10
ENDBRANCH   7   8
ENDBRANCH   5   7
TORSDOF 3
ENDMDL
MODEL 9
REMARK VINA RESULT:      -0.4      3.311      4.758
REMARK  3 active torsions:
REMARK  status: ('A' for Active; 'I' for Inactive)
REMARK    1  A    between atoms: C3_3  and  C8_8 
REMARK    2  A    between atoms: C3_3  and  O10_10 
REMARK    3  A    between atoms: C6_6  and  C8_8 
ROOT
HETATM    1  C1  UNL     1     -32.140   8.218   3.462  1.00 20.00    -0.026 C 
HETATM    2  C2  UNL     1     -33.293   7.964   4.088  1.00 20.00    -0.025 C 
HETATM    3  C4  UNL     1     -33.352   6.753   2.059  1.00 20.00     0.017 C 
HETATM    4  C5  UNL     1     -32.132   7.688   2.061  1.00 20.00     0.004 C 
HETATM    5  C6  UNL     1     -34.256   7.231   3.207  1.00 20.00     0.018 C 
HETATM    6  C7  UNL     1     -32.247   8.807   1.033  1.00 20.00     0.014 C 
ENDROOT
BRANCH   5   7
HETATM    7  C8  UNL     1     -34.955   6.078   3.911  1.00 20.00     0.118 C 
BRANCH   7   8
HETATM    8  C3  UNL     1     -34.156   4.803   3.830  1.00 20.00     0.140 C 
HETATM    9  O9  UNL     1     -33.286   4.546   3.011  1.00 20.00    -0.650 OA
BRANCH   8  10
HETATM   10  O10 UNL     1     -34.541   3.952   4.816  1.00 20.00    -0.776 OA
HETATM   11  H22 UNL     1     -35.205   4.360   5.412  1.00 20.00     0.167 HD
ENDBRANCH   8  10
ENDBRANCH   7   8
ENDBRANCH   5   7
TORSDOF 3
ENDMDL
