MODEL 1
REMARK VINA RESULT:       1.6      0.000      0.000
REMARK  0 active torsions:
REMARK  status: ('A' for Active; 'I' for Inactive)
ROOT
HETATM    1  C1  UNL     1     -33.484   3.692   4.260  1.00 20.00     0.068 C 
HETATM    2  C2  UNL     1     -33.753   8.182   3.822  1.00 20.00     0.009 A 
HETATM    3  C3  UNL     1     -32.849   8.443   2.790  1.00 20.00     0.019 A 
HETATM    4  C4  UNL     1     -32.891   6.110   2.102  1.00 20.00     0.028 A 
HETATM    5  C5  UNL     1     -34.222   6.888   3.973  1.00 20.00    -0.050 A 
HETATM    6  C6  UNL     1     -33.792   5.859   3.125  1.00 20.00    -0.033 A 
HETATM    7  C7  UNL     1     -32.422   7.415   1.936  1.00 20.00     0.011 A 
HETATM    8  C8  UNL     1     -35.161   6.367   5.014  1.00 20.00     0.041 C 
HETATM    9  C9  UNL     1     -35.586   5.027   4.388  1.00 20.00     0.028 C 
HETATM   10  C10 UNL     1     -34.413   4.545   3.508  1.00 20.00     0.126 C 
HETATM   11  N11 UNL     1     -32.750   3.019   4.855  1.00 20.00    -0.197 NA
HETATM   12 BR12 UNL     1     -31.190   7.800   0.552  1.00 20.00    -0.051 Br
ENDROOT
TORSDOF 0
ENDMDL
MODEL 2
REMARK VINA RESULT:       2.6      2.088      2.937
REMARK  0 active torsions:
REMARK  status: ('A' for Active; 'I' for Inactive)
ROOT
HETATM    1  C1  UNL     1     -36.240   6.666   3.332  1.00 20.00     0.068 C 
HETATM    2  C2  UNL     1     -32.230   5.302   1.757  1.00 20.00     0.009 A 
HETATM    3  C3  UNL     1     -31.709   6.470   1.196  1.00 20.00     0.019 A 
HETATM    4  C4  UNL     1     -33.287   7.831   2.451  1.00 20.00     0.028 A 
HETATM    5  C5  UNL     1     -33.268   5.417   2.667  1.00 20.00    -0.050 A 
HETATM    6  C6  UNL     1     -33.797   6.669   3.008  1.00 20.00    -0.033 A 
HETATM    7  C7  UNL     1     -32.232   7.725   1.542  1.00 20.00     0.011 A 
HETATM    8  C8  UNL     1     -34.002   4.317   3.366  1.00 20.00     0.041 C 
HETATM    9  C9  UNL     1     -34.695   5.095   4.498  1.00 20.00     0.028 C 
HETATM   10  C10 UNL     1     -34.931   6.530   3.983  1.00 20.00     0.126 C 
HETATM   11  N11 UNL     1     -37.275   6.773   2.816  1.00 20.00    -0.197 NA
HETATM   12 BR12 UNL     1     -31.509   9.288   0.759  1.00 20.00    -0.051 Br
ENDROOT
TORSDOF 0
ENDMDL
MODEL 3
REMARK VINA RESULT:       3.7      0.973      1.093
REMARK  0 active torsions:
REMARK  status: ('A' for Active; 'I' for Inactive)
ROOT
HETATM    1  C1  UNL     1     -34.069   4.298   3.347  1.00 20.00     0.068 C 
HETATM    2  C2  UNL     1     -32.624   8.570   3.632  1.00 20.00     0.009 A 
HETATM    3  C3  UNL     1     -31.833   8.702   2.489  1.00 20.00     0.019 A 
HETATM    4  C4  UNL     1     -32.868   6.740   1.490  1.00 20.00     0.028 A 
HETATM    5  C5  UNL     1     -33.536   7.529   3.683  1.00 20.00    -0.050 A 
HETATM    6  C6  UNL     1     -33.655   6.618   2.625  1.00 20.00    -0.033 A 
HETATM    7  C7  UNL     1     -31.954   7.795   1.426  1.00 20.00     0.011 A 
HETATM    8  C8  UNL     1     -34.460   7.172   4.803  1.00 20.00     0.041 C 
HETATM    9  C9  UNL     1     -35.450   6.238   4.087  1.00 20.00     0.028 C 
HETATM   10  C10 UNL     1     -34.682   5.565   2.929  1.00 20.00     0.126 C 
HETATM   11  N11 UNL     1     -33.584   3.297   3.678  1.00 20.00    -0.197 NA
HETATM   12 BR12 UNL     1     -30.862   7.996  -0.106  1.00 20.00    -0.051 Br
ENDROOT
TORSDOF 0
ENDMDL
MODEL 4
REMARK VINA RESULT:       3.8      3.152      4.541
REMARK  0 active torsions:
REMARK  status: ('A' for Active; 'I' for Inactive)
ROOT
HETATM    1  C1  UNL     1     -32.166   9.607   1.011  1.00 20.00     0.068 C 
HETATM    2  C2  UNL     1     -33.913   6.139   3.322  1.00 20.00     0.009 A 
HETATM    3  C3  UNL     1     -34.039   5.151   2.342  1.00 20.00     0.019 A 
HETATM    4  C4  UNL     1     -32.483   6.329   0.889  1.00 20.00     0.028 A 
HETATM    5  C5  UNL     1     -33.064   7.204   3.075  1.00 20.00    -0.050 A 
HETATM    6  C6  UNL     1     -32.359   7.303   1.868  1.00 20.00    -0.033 A 
HETATM    7  C7  UNL     1     -33.329   5.245   1.136  1.00 20.00     0.011 A 
HETATM    8  C8  UNL     1     -32.795   8.386   3.951  1.00 20.00     0.041 C 
HETATM    9  C9  UNL     1     -31.505   8.937   3.319  1.00 20.00     0.028 C 
HETATM   10  C10 UNL     1     -31.535   8.559   1.823  1.00 20.00     0.126 C 
HETATM   11  N11 UNL     1     -32.666  10.434   0.368  1.00 20.00    -0.197 NA
HETATM   12 BR12 UNL     1     -33.527   3.894  -0.174  1.00 20.00    -0.051 Br
ENDROOT
TORSDOF 0
ENDMDL
MODEL 5
REMARK VINA RESULT:       3.9      1.423      1.865
REMARK  0 active torsions:
REMARK  status: ('A' for Active; 'I' for Inactive)
ROOT
HETATM    1  C1  UNL     1     -34.036   4.126   4.848  1.00 20.00     0.068 C 
HETATM    2  C2  UNL     1     -32.428   7.389   2.168  1.00 20.00     0.009 A 
HETATM    3  C3  UNL     1     -31.742   6.669   1.187  1.00 20.00     0.019 A 
HETATM    4  C4  UNL     1     -32.932   4.633   1.786  1.00 20.00     0.028 A 
HETATM    5  C5  UNL     1     -33.365   6.722   2.938  1.00 20.00    -0.050 A 
HETATM    6  C6  UNL     1     -33.613   5.355   2.753  1.00 20.00    -0.033 A 
HETATM    7  C7  UNL     1     -31.993   5.302   0.996  1.00 20.00     0.011 A 
HETATM    8  C8  UNL     1     -34.192   7.269   4.057  1.00 20.00     0.041 C 
HETATM    9  C9  UNL     1     -35.276   6.185   4.186  1.00 20.00     0.028 C 
HETATM   10  C10 UNL     1     -34.642   4.855   3.727  1.00 20.00     0.126 C 
HETATM   11  N11 UNL     1     -33.556   3.550   5.734  1.00 20.00    -0.197 NA
HETATM   12 BR12 UNL     1     -31.042   4.352  -0.336  1.00 20.00    -0.051 Br
ENDROOT
TORSDOF 0
ENDMDL
MODEL 6
REMARK VINA RESULT:       4.5      2.836      4.134
REMARK  0 active torsions:
REMARK  status: ('A' for Active; 'I' for Inactive)
ROOT
HETATM    1  C1  UNL     1     -32.261   7.542   1.574  1.00 20.00     0.068 C 
HETATM    2  C2  UNL     1     -35.512   5.904   4.252  1.00 20.00     0.009 A 
HETATM    3  C3  UNL     1     -35.123   4.574   4.426  1.00 20.00     0.019 A 
HETATM    4  C4  UNL     1     -32.861   5.092   3.694  1.00 20.00     0.028 A 
HETATM    5  C5  UNL     1     -34.565   6.813   3.810  1.00 20.00    -0.050 A 
HETATM    6  C6  UNL     1     -33.252   6.411   3.527  1.00 20.00    -0.033 A 
HETATM    7  C7  UNL     1     -33.807   4.171   4.151  1.00 20.00     0.011 A 
HETATM    8  C8  UNL     1     -34.753   8.268   3.521  1.00 20.00     0.041 C 
HETATM    9  C9  UNL     1     -33.295   8.757   3.490  1.00 20.00     0.028 C 
HETATM   10  C10 UNL     1     -32.427   7.565   3.033  1.00 20.00     0.126 C 
HETATM   11  N11 UNL     1     -32.130   7.523   0.421  1.00 20.00    -0.197 NA
HETATM   12 BR12 UNL     1     -33.314   2.361   4.390  1.00 20.00    -0.051 Br
ENDROOT
TORSDOF 0
ENDMDL
