MODEL 1
REMARK VINA RESULT:      -2.1      0.000      0.000
REMARK  4 active torsions:
REMARK  status: ('A' for Active; 'I' for Inactive)
REMARK    1  A    between atoms: C1_1  and  C6_6 
REMARK    2  A    between atoms: C1_1  and  C8_8 
REMARK    3  A    between atoms: C7_7  and  C8_8 
REMARK    4  A    between atoms: C7_7  and  C9_9 
ROOT
HETATM    1  C3  UNL     1     -34.620   7.321   4.150  1.00 20.00     0.018 C 
HETATM    2  C8  UNL     1     -33.856   6.149   3.535  1.00 20.00     0.051 C 
ENDROOT
BRANCH   2   3
HETATM    3  C1  UNL     1     -34.449   4.851   4.078  1.00 20.00     0.130 C 
HETATM    4  O10 UNL     1     -35.503   4.839   4.714  1.00 20.00    -0.298 OA
BRANCH   3   5
HETATM    5  C6  UNL     1     -33.645   3.588   3.816  1.00 20.00     0.074 C 
HETATM    6  C2  UNL     1     -33.064   2.991   5.085  1.00 20.00     0.013 C 
ENDBRANCH   3   5
ENDBRANCH   2   3
BRANCH   2   7
HETATM    7  C7  UNL     1     -33.916   6.205   1.999  1.00 20.00     0.015 C 
BRANCH   7   8
HETATM    8  C9  UNL     1     -32.562   6.464   1.304  1.00 20.00    -0.022 C 
HETATM    9  C4  UNL     1     -31.610   5.272   1.415  1.00 20.00     0.009 C 
HETATM   10  C5  UNL     1     -31.904   7.707   1.908  1.00 20.00     0.009 C 
ENDBRANCH   7   8
ENDBRANCH   2   7
TORSDOF 4
ENDMDL
MODEL 2
REMARK VINA RESULT:      -1.8      1.225      1.834
REMARK  4 active torsions:
REMARK  status: ('A' for Active; 'I' for Inactive)
REMARK    1  A    between atoms: C1_1  and  C6_6 
REMARK    2  A    between atoms: C1_1  and  C8_8 
REMARK    3  A    between atoms: C7_7  and  C8_8 
REMARK    4  A    between atoms: C7_7  and  C9_9 
ROOT
HETATM    1  C3  UNL     1     -33.820   8.041   4.931  1.00 20.00     0.018 C 
HETATM    2  C8  UNL     1     -33.767   6.961   3.851  1.00 20.00     0.051 C 
ENDROOT
BRANCH   2   3
HETATM    3  C1  UNL     1     -35.080   6.183   3.885  1.00 20.00     0.130 C 
HETATM    4  O10 UNL     1     -36.118   6.646   3.410  1.00 20.00    -0.298 OA
BRANCH   3   5
HETATM    5  C6  UNL     1     -35.036   4.826   4.569  1.00 20.00     0.074 C 
HETATM    6  C2  UNL     1     -33.863   3.979   4.112  1.00 20.00     0.013 C 
ENDBRANCH   3   5
ENDBRANCH   2   3
BRANCH   2   7
HETATM    7  C7  UNL     1     -33.510   7.585   2.469  1.00 20.00     0.015 C 
BRANCH   7   8
HETATM    8  C9  UNL     1     -32.109   7.311   1.882  1.00 20.00    -0.022 C 
HETATM    9  C4  UNL     1     -31.713   8.329   0.812  1.00 20.00     0.009 C 
HETATM   10  C5  UNL     1     -32.067   5.900   1.290  1.00 20.00     0.009 C 
ENDBRANCH   7   8
ENDBRANCH   2   7
TORSDOF 4
ENDMDL
MODEL 3
REMARK VINA RESULT:      -1.8      2.561      4.874
REMARK  4 active torsions:
REMARK  status: ('A' for Active; 'I' for Inactive)
REMARK    1  A    between atoms: C1_1  and  C6_6 
REMARK    2  A    between atoms: C1_1  and  C8_8 
REMARK    3  A    between atoms: C7_7  and  C8_8 
REMARK    4  A    between atoms: C7_7  and  C9_9 
ROOT
HETATM    1  C3  UNL     1     -32.059   5.671   0.794  1.00 20.00     0.018 C 
HETATM    2  C8  UNL     1     -32.337   6.535   2.023  1.00 20.00     0.051 C 
ENDROOT
BRANCH   2   3
HETATM    3  C1  UNL     1     -31.809   7.942   1.751  1.00 20.00     0.130 C 
HETATM    4  O10 UNL     1     -31.230   8.593   2.621  1.00 20.00    -0.298 OA
BRANCH   3   5
HETATM    5  C6  UNL     1     -32.072   8.499   0.362  1.00 20.00     0.074 C 
HETATM    6  C2  UNL     1     -32.475   9.962   0.385  1.00 20.00     0.013 C 
ENDBRANCH   3   5
ENDBRANCH   2   3
BRANCH   2   7
HETATM    7  C7  UNL     1     -33.839   6.544   2.354  1.00 20.00     0.015 C 
BRANCH   7   8
HETATM    8  C9  UNL     1     -34.173   6.500   3.861  1.00 20.00    -0.022 C 
HETATM    9  C4  UNL     1     -35.555   5.907   4.137  1.00 20.00     0.009 C 
HETATM   10  C5  UNL     1     -34.092   7.912   4.446  1.00 20.00     0.009 C 
ENDBRANCH   7   8
ENDBRANCH   2   7
TORSDOF 4
ENDMDL
MODEL 4
REMARK VINA RESULT:      -1.8      1.993      3.085
REMARK  4 active torsions:
REMARK  status: ('A' for Active; 'I' for Inactive)
REMARK    1  A    between atoms: C1_1  and  C6_6 
REMARK    2  A    between atoms: C1_1  and  C8_8 
REMARK    3  A    between atoms: C7_7  and  C8_8 
REMARK    4  A    between atoms: C7_7  and  C9_9 
ROOT
HETATM    1  C3  UNL     1     -32.641   5.784   1.829  1.00 20.00     0.018 C 
HETATM    2  C8  UNL     1     -33.253   7.161   2.084  1.00 20.00     0.051 C 
ENDROOT
BRANCH   2   3
HETATM    3  C1  UNL     1     -33.801   7.187   3.509  1.00 20.00     0.130 C 
HETATM    4  O10 UNL     1     -33.181   7.722   4.429  1.00 20.00    -0.298 OA
BRANCH   3   5
HETATM    5  C6  UNL     1     -35.131   6.485   3.728  1.00 20.00     0.074 C 
HETATM    6  C2  UNL     1     -34.975   5.135   4.404  1.00 20.00     0.013 C 
ENDBRANCH   3   5
ENDBRANCH   2   3
BRANCH   2   7
HETATM    7  C7  UNL     1     -32.214   8.271   1.852  1.00 20.00     0.015 C 
BRANCH   7   8
HETATM    8  C9  UNL     1     -32.338   9.006   0.501  1.00 20.00    -0.022 C 
HETATM    9  C4  UNL     1     -31.053   8.933  -0.326  1.00 20.00     0.009 C 
HETATM   10  C5  UNL     1     -32.709  10.471   0.745  1.00 20.00     0.009 C 
ENDBRANCH   7   8
ENDBRANCH   2   7
TORSDOF 4
ENDMDL
MODEL 5
REMARK VINA RESULT:      -1.8      2.331      4.872
REMARK  4 active torsions:
REMARK  status: ('A' for Active; 'I' for Inactive)
REMARK    1  A    between atoms: C1_1  and  C6_6 
REMARK    2  A    between atoms: C1_1  and  C8_8 
REMARK    3  A    between atoms: C7_7  and  C8_8 
REMARK    4  A    between atoms: C7_7  and  C9_9 
ROOT
HETATM    1  C3  UNL     1     -32.270   5.631   1.174  1.00 20.00     0.018 C 
HETATM    2  C8  UNL     1     -32.657   6.655   2.239  1.00 20.00     0.051 C 
ENDROOT
BRANCH   2   3
HETATM    3  C1  UNL     1     -31.952   7.971   1.920  1.00 20.00     0.130 C 
HETATM    4  O10 UNL     1     -31.319   8.589   2.777  1.00 20.00    -0.298 OA
BRANCH   3   5
HETATM    5  C6  UNL     1     -32.108   8.486   0.499  1.00 20.00     0.074 C 
HETATM    6  C2  UNL     1     -32.502   9.951   0.448  1.00 20.00     0.013 C 
ENDBRANCH   3   5
ENDBRANCH   2   3
BRANCH   2   7
HETATM    7  C7  UNL     1     -34.184   6.827   2.300  1.00 20.00     0.015 C 
BRANCH   7   8
HETATM    8  C9  UNL     1     -34.783   6.822   3.723  1.00 20.00    -0.022 C 
HETATM    9  C4  UNL     1     -33.963   7.658   4.706  1.00 20.00     0.009 C 
HETATM   10  C5  UNL     1     -34.885   5.382   4.232  1.00 20.00     0.009 C 
ENDBRANCH   7   8
ENDBRANCH   2   7
TORSDOF 4
ENDMDL
MODEL 6
REMARK VINA RESULT:      -1.6      2.431      4.766
REMARK  4 active torsions:
REMARK  status: ('A' for Active; 'I' for Inactive)
REMARK    1  A    between atoms: C1_1  and  C6_6 
REMARK    2  A    between atoms: C1_1  and  C8_8 
REMARK    3  A    between atoms: C7_7  and  C8_8 
REMARK    4  A    between atoms: C7_7  and  C9_9 
ROOT
HETATM    1  C3  UNL     1     -32.861   8.132   4.163  1.00 20.00     0.018 C 
HETATM    2  C8  UNL     1     -33.298   7.698   2.765  1.00 20.00     0.051 C 
ENDROOT
BRANCH   2   3
HETATM    3  C1  UNL     1     -32.244   8.166   1.765  1.00 20.00     0.130 C 
HETATM    4  O10 UNL     1     -31.298   7.447   1.439  1.00 20.00    -0.298 OA
BRANCH   3   5
HETATM    5  C6  UNL     1     -32.411   9.578   1.228  1.00 20.00     0.074 C 
HETATM    6  C2  UNL     1     -32.469   9.624  -0.288  1.00 20.00     0.013 C 
ENDBRANCH   3   5
ENDBRANCH   2   3
BRANCH   2   7
HETATM    7  C7  UNL     1     -33.502   6.174   2.706  1.00 20.00     0.015 C 
BRANCH   7   8
HETATM    8  C9  UNL     1     -34.103   5.549   3.983  1.00 20.00    -0.022 C 
HETATM    9  C4  UNL     1     -33.957   4.027   4.014  1.00 20.00     0.009 C 
HETATM   10  C5  UNL     1     -35.583   5.926   4.092  1.00 20.00     0.009 C 
ENDBRANCH   7   8
ENDBRANCH   2   7
TORSDOF 4
ENDMDL
MODEL 7
REMARK VINA RESULT:      -1.5      1.883      3.299
REMARK  4 active torsions:
REMARK  status: ('A' for Active; 'I' for Inactive)
REMARK    1  A    between atoms: C1_1  and  C6_6 
REMARK    2  A    between atoms: C1_1  and  C8_8 
REMARK    3  A    between atoms: C7_7  and  C8_8 
REMARK    4  A    between atoms: C7_7  and  C9_9 
ROOT
HETATM    1  C3  UNL     1     -32.153   5.522   1.383  1.00 20.00     0.018 C 
HETATM    2  C8  UNL     1     -33.046   6.704   1.756  1.00 20.00     0.051 C 
ENDROOT
BRANCH   2   3
HETATM    3  C1  UNL     1     -33.716   6.398   3.094  1.00 20.00     0.130 C 
HETATM    4  O10 UNL     1     -33.815   5.246   3.517  1.00 20.00    -0.298 OA
BRANCH   3   5
HETATM    5  C6  UNL     1     -34.281   7.590   3.848  1.00 20.00     0.074 C 
HETATM    6  C2  UNL     1     -33.404   8.014   5.012  1.00 20.00     0.013 C 
ENDBRANCH   3   5
ENDBRANCH   2   3
BRANCH   2   7
HETATM    7  C7  UNL     1     -32.230   8.007   1.812  1.00 20.00     0.015 C 
BRANCH   7   8
HETATM    8  C9  UNL     1     -32.343   8.900   0.558  1.00 20.00    -0.022 C 
HETATM    9  C4  UNL     1     -31.045   8.941  -0.249  1.00 20.00     0.009 C 
HETATM   10  C5  UNL     1     -32.738  10.320   0.971  1.00 20.00     0.009 C 
ENDBRANCH   7   8
ENDBRANCH   2   7
TORSDOF 4
ENDMDL
MODEL 8
REMARK VINA RESULT:      -1.4      0.861      1.334
REMARK  4 active torsions:
REMARK  status: ('A' for Active; 'I' for Inactive)
REMARK    1  A    between atoms: C1_1  and  C6_6 
REMARK    2  A    between atoms: C1_1  and  C8_8 
REMARK    3  A    between atoms: C7_7  and  C8_8 
REMARK    4  A    between atoms: C7_7  and  C9_9 
ROOT
HETATM    1  C3  UNL     1     -35.010   7.407   3.730  1.00 20.00     0.018 C 
HETATM    2  C8  UNL     1     -33.841   6.431   3.613  1.00 20.00     0.051 C 
ENDROOT
BRANCH   2   3
HETATM    3  C1  UNL     1     -34.343   5.034   3.972  1.00 20.00     0.130 C 
HETATM    4  O10 UNL     1     -35.429   4.862   4.524  1.00 20.00    -0.298 OA
BRANCH   3   5
HETATM    5  C6  UNL     1     -33.409   3.882   3.641  1.00 20.00     0.074 C 
HETATM    6  C2  UNL     1     -33.207   2.938   4.812  1.00 20.00     0.013 C 
ENDBRANCH   3   5
ENDBRANCH   2   3
BRANCH   2   7
HETATM    7  C7  UNL     1     -33.235   6.473   2.199  1.00 20.00     0.015 C 
BRANCH   7   8
HETATM    8  C9  UNL     1     -32.084   7.485   2.015  1.00 20.00    -0.022 C 
HETATM    9  C4  UNL     1     -31.827   8.315   3.273  1.00 20.00     0.009 C 
HETATM   10  C5  UNL     1     -32.400   8.413   0.840  1.00 20.00     0.009 C 
ENDBRANCH   7   8
ENDBRANCH   2   7
TORSDOF 4
ENDMDL
MODEL 9
REMARK VINA RESULT:      -1.3      2.055      4.731
REMARK  4 active torsions:
REMARK  status: ('A' for Active; 'I' for Inactive)
REMARK    1  A    between atoms: C1_1  and  C6_6 
REMARK    2  A    between atoms: C1_1  and  C8_8 
REMARK    3  A    between atoms: C7_7  and  C8_8 
REMARK    4  A    between atoms: C7_7  and  C9_9 
ROOT
HETATM    1  C3  UNL     1     -31.966   5.923   0.659  1.00 20.00     0.018 C 
HETATM    2  C8  UNL     1     -32.365   6.461   2.032  1.00 20.00     0.051 C 
ENDROOT
BRANCH   2   3
HETATM    3  C1  UNL     1     -32.088   7.963   2.059  1.00 20.00     0.130 C 
HETATM    4  O10 UNL     1     -32.148   8.612   3.103  1.00 20.00    -0.298 OA
BRANCH   3   5
HETATM    5  C6  UNL     1     -31.770   8.609   0.720  1.00 20.00     0.074 C 
HETATM    6  C2  UNL     1     -32.583   9.865   0.470  1.00 20.00     0.013 C 
ENDBRANCH   3   5
ENDBRANCH   2   3
BRANCH   2   7
HETATM    7  C7  UNL     1     -33.841   6.149   2.333  1.00 20.00     0.015 C 
BRANCH   7   8
HETATM    8  C9  UNL     1     -34.137   5.754   3.795  1.00 20.00    -0.022 C 
HETATM    9  C4  UNL     1     -34.033   4.246   4.026  1.00 20.00     0.009 C 
HETATM   10  C5  UNL     1     -35.536   6.239   4.185  1.00 20.00     0.009 C 
ENDBRANCH   7   8
ENDBRANCH   2   7
TORSDOF 4
ENDMDL
