MODEL 1
REMARK VINA RESULT:      -2.9      0.000      0.000
REMARK  2 active torsions:
REMARK  status: ('A' for Active; 'I' for Inactive)
REMARK    1  A    between atoms: C5_5  and  C6_6 
REMARK    2  A    between atoms: C6_6  and  C7_7 
ROOT
HETATM    1  C1  UNL     1     -33.189   6.018   2.213  1.00 20.00     0.131 C 
HETATM    2  C2  UNL     1     -33.905   5.353   3.362  1.00 20.00     0.079 C 
HETATM    3  C3  UNL     1     -34.689   6.514   3.960  1.00 20.00     0.008 C 
HETATM    4  C4  UNL     1     -33.821   7.736   3.692  1.00 20.00     0.013 C 
HETATM    5  C5  UNL     1     -33.312   7.527   2.264  1.00 20.00     0.064 C 
HETATM    6  O8  UNL     1     -32.581   5.402   1.346  1.00 20.00    -0.298 OA
ENDROOT
BRANCH   5   7
HETATM    7  C6  UNL     1     -32.003   8.238   1.993  1.00 20.00     0.129 C 
BRANCH   7   8
HETATM    8  C7  UNL     1     -32.059   9.039   0.720  1.00 20.00     0.388 C 
HETATM    9  F9  UNL     1     -33.030   8.597  -0.107  1.00 20.00    -0.171 F 
HETATM   10  F10 UNL     1     -30.883   8.936   0.062  1.00 20.00    -0.171 F 
HETATM   11  F11 UNL     1     -32.278  10.349   0.961  1.00 20.00    -0.171 F 
ENDBRANCH   7   8
ENDBRANCH   5   7
TORSDOF 2
ENDMDL
MODEL 2
REMARK VINA RESULT:      -2.9      0.029      1.132
REMARK  2 active torsions:
REMARK  status: ('A' for Active; 'I' for Inactive)
REMARK    1  A    between atoms: C5_5  and  C6_6 
REMARK    2  A    between atoms: C6_6  and  C7_7 
ROOT
HETATM    1  C1  UNL     1     -33.177   6.009   2.201  1.00 20.00     0.131 C 
HETATM    2  C2  UNL     1     -33.901   5.344   3.344  1.00 20.00     0.079 C 
HETATM    3  C3  UNL     1     -34.687   6.506   3.939  1.00 20.00     0.008 C 
HETATM    4  C4  UNL     1     -33.816   7.726   3.678  1.00 20.00     0.013 C 
HETATM    5  C5  UNL     1     -33.298   7.518   2.253  1.00 20.00     0.064 C 
HETATM    6  O8  UNL     1     -32.566   5.393   1.337  1.00 20.00    -0.298 OA
ENDROOT
BRANCH   5   7
HETATM    7  C6  UNL     1     -31.986   8.227   1.991  1.00 20.00     0.129 C 
BRANCH   7   8
HETATM    8  C7  UNL     1     -32.039   9.045   0.728  1.00 20.00     0.388 C 
HETATM    9  F9  UNL     1     -32.310  10.342   0.983  1.00 20.00    -0.171 F 
HETATM   10  F10 UNL     1     -33.013   8.574  -0.081  1.00 20.00    -0.171 F 
HETATM   11  F11 UNL     1     -30.876   8.986   0.044  1.00 20.00    -0.171 F 
ENDBRANCH   7   8
ENDBRANCH   5   7
TORSDOF 2
ENDMDL
MODEL 3
REMARK VINA RESULT:      -2.8      0.023      1.144
REMARK  2 active torsions:
REMARK  status: ('A' for Active; 'I' for Inactive)
REMARK    1  A    between atoms: C5_5  and  C6_6 
REMARK    2  A    between atoms: C6_6  and  C7_7 
ROOT
HETATM    1  C1  UNL     1     -33.191   6.015   2.213  1.00 20.00     0.131 C 
HETATM    2  C2  UNL     1     -33.914   5.345   3.354  1.00 20.00     0.079 C 
HETATM    3  C3  UNL     1     -34.706   6.502   3.950  1.00 20.00     0.008 C 
HETATM    4  C4  UNL     1     -33.840   7.726   3.693  1.00 20.00     0.013 C 
HETATM    5  C5  UNL     1     -33.318   7.524   2.268  1.00 20.00     0.064 C 
HETATM    6  O8  UNL     1     -32.575   5.404   1.349  1.00 20.00    -0.298 OA
ENDROOT
BRANCH   5   7
HETATM    7  C6  UNL     1     -32.009   8.239   2.010  1.00 20.00     0.129 C 
BRANCH   7   8
HETATM    8  C7  UNL     1     -32.051   9.029   0.730  1.00 20.00     0.388 C 
HETATM    9  F9  UNL     1     -30.878   8.969   0.065  1.00 20.00    -0.171 F 
HETATM   10  F10 UNL     1     -32.300  10.329   1.003  1.00 20.00    -0.171 F 
HETATM   11  F11 UNL     1     -33.025   8.592  -0.097  1.00 20.00    -0.171 F 
ENDBRANCH   7   8
ENDBRANCH   5   7
TORSDOF 2
ENDMDL
MODEL 4
REMARK VINA RESULT:      -2.2      1.836      2.372
REMARK  2 active torsions:
REMARK  status: ('A' for Active; 'I' for Inactive)
REMARK    1  A    between atoms: C5_5  and  C6_6 
REMARK    2  A    between atoms: C6_6  and  C7_7 
ROOT
HETATM    1  C1  UNL     1     -34.474   6.641   3.827  1.00 20.00     0.131 C 
HETATM    2  C2  UNL     1     -35.228   5.468   4.403  1.00 20.00     0.079 C 
HETATM    3  C3  UNL     1     -34.261   4.317   4.154  1.00 20.00     0.008 C 
HETATM    4  C4  UNL     1     -33.532   4.705   2.875  1.00 20.00     0.013 C 
HETATM    5  C5  UNL     1     -33.255   6.201   3.041  1.00 20.00     0.064 C 
HETATM    6  O8  UNL     1     -34.815   7.807   3.981  1.00 20.00    -0.298 OA
ENDROOT
BRANCH   5   7
HETATM    7  C6  UNL     1     -33.110   6.926   1.720  1.00 20.00     0.129 C 
BRANCH   7   8
HETATM    8  C7  UNL     1     -32.055   7.998   1.788  1.00 20.00     0.388 C 
HETATM    9  F9  UNL     1     -32.430   9.112   1.126  1.00 20.00    -0.171 F 
HETATM   10  F10 UNL     1     -30.911   7.552   1.225  1.00 20.00    -0.171 F 
HETATM   11  F11 UNL     1     -31.774   8.344   3.063  1.00 20.00    -0.171 F 
ENDBRANCH   7   8
ENDBRANCH   5   7
TORSDOF 2
ENDMDL
MODEL 5
REMARK VINA RESULT:      -2.0      1.472      2.275
REMARK  2 active torsions:
REMARK  status: ('A' for Active; 'I' for Inactive)
REMARK    1  A    between atoms: C5_5  and  C6_6 
REMARK    2  A    between atoms: C6_6  and  C7_7 
ROOT
HETATM    1  C1  UNL     1     -33.281   7.226   3.050  1.00 20.00     0.131 C 
HETATM    2  C2  UNL     1     -33.515   5.768   2.741  1.00 20.00     0.079 C 
HETATM    3  C3  UNL     1     -32.488   5.507   1.647  1.00 20.00     0.008 C 
HETATM    4  C4  UNL     1     -32.366   6.837   0.917  1.00 20.00     0.013 C 
HETATM    5  C5  UNL     1     -32.365   7.880   2.036  1.00 20.00     0.064 C 
HETATM    6  O8  UNL     1     -33.777   7.803   4.009  1.00 20.00    -0.298 OA
ENDROOT
BRANCH   5   7
HETATM    7  C6  UNL     1     -32.860   9.237   1.581  1.00 20.00     0.129 C 
BRANCH   7   8
HETATM    8  C7  UNL     1     -32.227   9.651   0.279  1.00 20.00     0.388 C 
HETATM    9  F9  UNL     1     -31.030   9.057   0.094  1.00 20.00    -0.171 F 
HETATM   10  F10 UNL     1     -32.027  10.987   0.271  1.00 20.00    -0.171 F 
HETATM   11  F11 UNL     1     -33.012   9.350  -0.778  1.00 20.00    -0.171 F 
ENDBRANCH   7   8
ENDBRANCH   5   7
TORSDOF 2
ENDMDL
MODEL 6
REMARK VINA RESULT:      -1.6      3.058      4.251
REMARK  2 active torsions:
REMARK  status: ('A' for Active; 'I' for Inactive)
REMARK    1  A    between atoms: C5_5  and  C6_6 
REMARK    2  A    between atoms: C6_6  and  C7_7 
ROOT
HETATM    1  C1  UNL     1     -32.219   6.324   1.681  1.00 20.00     0.131 C 
HETATM    2  C2  UNL     1     -31.809   7.651   1.091  1.00 20.00     0.079 C 
HETATM    3  C3  UNL     1     -32.140   8.616   2.223  1.00 20.00     0.008 C 
HETATM    4  C4  UNL     1     -33.334   7.983   2.924  1.00 20.00     0.013 C 
HETATM    5  C5  UNL     1     -32.993   6.492   2.973  1.00 20.00     0.064 C 
HETATM    6  O8  UNL     1     -31.954   5.244   1.168  1.00 20.00    -0.298 OA
ENDROOT
BRANCH   5   7
HETATM    7  C6  UNL     1     -34.219   5.607   3.048  1.00 20.00     0.129 C 
BRANCH   7   8
HETATM    8  C7  UNL     1     -35.258   6.175   3.977  1.00 20.00     0.388 C 
HETATM    9  F9  UNL     1     -34.760   7.175   4.733  1.00 20.00    -0.171 F 
HETATM   10  F10 UNL     1     -35.702   5.210   4.813  1.00 20.00    -0.171 F 
HETATM   11  F11 UNL     1     -36.326   6.652   3.302  1.00 20.00    -0.171 F 
ENDBRANCH   7   8
ENDBRANCH   5   7
TORSDOF 2
ENDMDL
MODEL 7
REMARK VINA RESULT:      -1.6      3.062      4.202
REMARK  2 active torsions:
REMARK  status: ('A' for Active; 'I' for Inactive)
REMARK    1  A    between atoms: C5_5  and  C6_6 
REMARK    2  A    between atoms: C6_6  and  C7_7 
ROOT
HETATM    1  C1  UNL     1     -32.219   6.304   1.682  1.00 20.00     0.131 C 
HETATM    2  C2  UNL     1     -31.790   7.625   1.092  1.00 20.00     0.079 C 
HETATM    3  C3  UNL     1     -32.122   8.596   2.218  1.00 20.00     0.008 C 
HETATM    4  C4  UNL     1     -33.329   7.978   2.909  1.00 20.00     0.013 C 
HETATM    5  C5  UNL     1     -33.004   6.484   2.966  1.00 20.00     0.064 C 
HETATM    6  O8  UNL     1     -31.960   5.220   1.175  1.00 20.00    -0.298 OA
ENDROOT
BRANCH   5   7
HETATM    7  C6  UNL     1     -34.239   5.611   3.032  1.00 20.00     0.129 C 
BRANCH   7   8
HETATM    8  C7  UNL     1     -35.258   6.162   3.994  1.00 20.00     0.388 C 
HETATM    9  F9  UNL     1     -35.706   5.216   4.845  1.00 20.00    -0.171 F 
HETATM   10  F10 UNL     1     -36.323   6.637   3.311  1.00 20.00    -0.171 F 
HETATM   11  F11 UNL     1     -34.756   7.180   4.725  1.00 20.00    -0.171 F 
ENDBRANCH   7   8
ENDBRANCH   5   7
TORSDOF 2
ENDMDL
MODEL 8
REMARK VINA RESULT:      -1.5      3.439      4.665
REMARK  2 active torsions:
REMARK  status: ('A' for Active; 'I' for Inactive)
REMARK    1  A    between atoms: C5_5  and  C6_6 
REMARK    2  A    between atoms: C6_6  and  C7_7 
ROOT
HETATM    1  C1  UNL     1     -32.704   7.708   2.942  1.00 20.00     0.131 C 
HETATM    2  C2  UNL     1     -31.542   7.989   2.023  1.00 20.00     0.079 C 
HETATM    3  C3  UNL     1     -31.916   7.183   0.785  1.00 20.00     0.008 C 
HETATM    4  C4  UNL     1     -32.698   5.995   1.328  1.00 20.00     0.013 C 
HETATM    5  C5  UNL     1     -33.592   6.599   2.413  1.00 20.00     0.064 C 
HETATM    6  O8  UNL     1     -32.898   8.309   3.991  1.00 20.00    -0.298 OA
ENDROOT
BRANCH   5   7
HETATM    7  C6  UNL     1     -33.988   5.599   3.478  1.00 20.00     0.129 C 
BRANCH   7   8
HETATM    8  C7  UNL     1     -35.257   6.006   4.178  1.00 20.00     0.388 C 
HETATM    9  F9  UNL     1     -35.043   7.003   5.062  1.00 20.00    -0.171 F 
HETATM   10  F10 UNL     1     -35.762   4.954   4.860  1.00 20.00    -0.171 F 
HETATM   11  F11 UNL     1     -36.201   6.417   3.304  1.00 20.00    -0.171 F 
ENDBRANCH   7   8
ENDBRANCH   5   7
TORSDOF 2
ENDMDL
MODEL 9
REMARK VINA RESULT:      -1.4      4.226      5.260
REMARK  2 active torsions:
REMARK  status: ('A' for Active; 'I' for Inactive)
REMARK    1  A    between atoms: C5_5  and  C6_6 
REMARK    2  A    between atoms: C6_6  and  C7_7 
ROOT
HETATM    1  C1  UNL     1     -33.119   5.903   2.529  1.00 20.00     0.131 C 
HETATM    2  C2  UNL     1     -33.685   7.288   2.334  1.00 20.00     0.079 C 
HETATM    3  C3  UNL     1     -34.272   7.586   3.708  1.00 20.00     0.008 C 
HETATM    4  C4  UNL     1     -34.703   6.226   4.239  1.00 20.00     0.013 C 
HETATM    5  C5  UNL     1     -33.561   5.289   3.842  1.00 20.00     0.064 C 
HETATM    6  O8  UNL     1     -32.390   5.349   1.716  1.00 20.00    -0.298 OA
ENDROOT
BRANCH   5   7
HETATM    7  C6  UNL     1     -34.000   3.847   3.703  1.00 20.00     0.129 C 
BRANCH   7   8
HETATM    8  C7  UNL     1     -33.182   2.931   4.574  1.00 20.00     0.388 C 
HETATM    9  F9  UNL     1     -33.314   3.234   5.882  1.00 20.00    -0.171 F 
HETATM   10  F10 UNL     1     -31.873   3.046   4.257  1.00 20.00    -0.171 F 
HETATM   11  F11 UNL     1     -33.529   1.637   4.406  1.00 20.00    -0.171 F 
ENDBRANCH   7   8
ENDBRANCH   5   7
TORSDOF 2
ENDMDL
