MODEL 1
REMARK VINA RESULT:       0.6      0.000      0.000
REMARK  3 active torsions:
REMARK  status: ('A' for Active; 'I' for Inactive)
REMARK    1  A    between atoms: C4_4  and  C7_7 
REMARK    2  A    between atoms: C7_7  and  C8_8 
REMARK    3  A    between atoms: C8_8  and  C9_9 
ROOT
HETATM    1  C1  UNL     1     -34.023   6.993   3.693  1.00 20.00     0.141 C 
HETATM    2  C2  UNL     1     -34.488   5.633   4.147  1.00 20.00     0.152 C 
HETATM    3  C3  UNL     1     -32.647   5.626   2.233  1.00 20.00     0.086 C 
HETATM    4  C4  UNL     1     -33.287   7.003   2.364  1.00 20.00     0.065 C 
HETATM    5  O10 UNL     1     -34.271   8.011   4.334  1.00 20.00    -0.297 OA
HETATM    6  S11 UNL     1     -33.868   4.477   2.906  1.00 20.00    -0.161 SA
ENDROOT
BRANCH   4   7
HETATM    7  C7  UNL     1     -32.253   8.114   2.287  1.00 20.00     0.013 C 
BRANCH   7   8
HETATM    8  C8  UNL     1     -31.790   8.346   0.846  1.00 20.00     0.005 C 
BRANCH   8   9
HETATM    9  C9  UNL     1     -32.055   9.776   0.340  1.00 20.00    -0.023 C 
HETATM   10  C5  UNL     1     -32.838  10.562   1.394  1.00 20.00     0.009 C 
HETATM   11  C6  UNL     1     -32.815   9.794  -0.988  1.00 20.00     0.009 C 
ENDBRANCH   8   9
ENDBRANCH   7   8
ENDBRANCH   4   7
TORSDOF 3
ENDMDL
MODEL 2
REMARK VINA RESULT:       0.7      1.669      1.952
REMARK  3 active torsions:
REMARK  status: ('A' for Active; 'I' for Inactive)
REMARK    1  A    between atoms: C4_4  and  C7_7 
REMARK    2  A    between atoms: C7_7  and  C8_8 
REMARK    3  A    between atoms: C8_8  and  C9_9 
ROOT
HETATM    1  C1  UNL     1     -32.960   5.961   2.349  1.00 20.00     0.141 C 
HETATM    2  C2  UNL     1     -34.217   5.301   2.856  1.00 20.00     0.152 C 
HETATM    3  C3  UNL     1     -33.892   7.836   3.578  1.00 20.00     0.086 C 
HETATM    4  C4  UNL     1     -32.584   7.246   3.066  1.00 20.00     0.065 C 
HETATM    5  O10 UNL     1     -32.278   5.460   1.459  1.00 20.00    -0.297 OA
HETATM    6  S11 UNL     1     -34.863   6.414   4.123  1.00 20.00    -0.161 SA
ENDROOT
BRANCH   4   7
HETATM    7  C7  UNL     1     -31.847   8.216   2.157  1.00 20.00     0.013 C 
BRANCH   7   8
HETATM    8  C8  UNL     1     -32.723   8.653   0.980  1.00 20.00     0.005 C 
BRANCH   8   9
HETATM    9  C9  UNL     1     -32.252   9.962   0.318  1.00 20.00    -0.023 C 
HETATM   10  C5  UNL     1     -32.677  11.158   1.173  1.00 20.00     0.009 C 
HETATM   11  C6  UNL     1     -32.795  10.125  -1.104  1.00 20.00     0.009 C 
ENDBRANCH   8   9
ENDBRANCH   7   8
ENDBRANCH   4   7
TORSDOF 3
ENDMDL
MODEL 3
REMARK VINA RESULT:       0.7      0.313      1.107
REMARK  3 active torsions:
REMARK  status: ('A' for Active; 'I' for Inactive)
REMARK    1  A    between atoms: C4_4  and  C7_7 
REMARK    2  A    between atoms: C7_7  and  C8_8 
REMARK    3  A    between atoms: C8_8  and  C9_9 
ROOT
HETATM    1  C1  UNL     1     -33.964   7.065   3.726  1.00 20.00     0.141 C 
HETATM    2  C2  UNL     1     -34.502   5.719   4.139  1.00 20.00     0.152 C 
HETATM    3  C3  UNL     1     -32.638   5.669   2.247  1.00 20.00     0.086 C 
HETATM    4  C4  UNL     1     -33.211   7.072   2.407  1.00 20.00     0.065 C 
HETATM    5  O10 UNL     1     -34.169   8.077   4.390  1.00 20.00    -0.297 OA
HETATM    6  S11 UNL     1     -33.923   4.565   2.875  1.00 20.00    -0.161 SA
ENDROOT
BRANCH   4   7
HETATM    7  C7  UNL     1     -32.122   8.132   2.371  1.00 20.00     0.013 C 
BRANCH   7   8
HETATM    8  C8  UNL     1     -31.820   8.573   0.936  1.00 20.00     0.005 C 
BRANCH   8   9
HETATM    9  C9  UNL     1     -32.752   9.690   0.430  1.00 20.00    -0.023 C 
HETATM   10  C5  UNL     1     -32.536   9.907  -1.069  1.00 20.00     0.009 C 
HETATM   11  C6  UNL     1     -32.542  11.009   1.178  1.00 20.00     0.009 C 
ENDBRANCH   8   9
ENDBRANCH   7   8
ENDBRANCH   4   7
TORSDOF 3
ENDMDL
MODEL 4
REMARK VINA RESULT:       0.8      2.240      5.404
REMARK  3 active torsions:
REMARK  status: ('A' for Active; 'I' for Inactive)
REMARK    1  A    between atoms: C4_4  and  C7_7 
REMARK    2  A    between atoms: C7_7  and  C8_8 
REMARK    3  A    between atoms: C8_8  and  C9_9 
ROOT
HETATM    1  C1  UNL     1     -33.484   7.327   3.545  1.00 20.00     0.141 C 
HETATM    2  C2  UNL     1     -32.661   8.262   2.696  1.00 20.00     0.152 C 
HETATM    3  C3  UNL     1     -32.926   5.796   1.744  1.00 20.00     0.086 C 
HETATM    4  C4  UNL     1     -33.312   5.853   3.217  1.00 20.00     0.065 C 
HETATM    5  O10 UNL     1     -34.195   7.736   4.458  1.00 20.00    -0.297 OA
HETATM    6  S11 UNL     1     -31.822   7.204   1.496  1.00 20.00    -0.161 SA
ENDROOT
BRANCH   4   7
HETATM    7  C7  UNL     1     -34.571   5.051   3.501  1.00 20.00     0.013 C 
BRANCH   7   8
HETATM    8  C8  UNL     1     -34.407   4.176   4.747  1.00 20.00     0.005 C 
BRANCH   8   9
HETATM    9  C9  UNL     1     -33.086   3.385   4.770  1.00 20.00    -0.023 C 
HETATM   10  C5  UNL     1     -33.340   1.936   4.348  1.00 20.00     0.009 C 
HETATM   11  C6  UNL     1     -32.413   3.413   6.144  1.00 20.00     0.009 C 
ENDBRANCH   8   9
ENDBRANCH   7   8
ENDBRANCH   4   7
TORSDOF 3
ENDMDL
MODEL 5
REMARK VINA RESULT:       0.9      1.801      2.212
REMARK  3 active torsions:
REMARK  status: ('A' for Active; 'I' for Inactive)
REMARK    1  A    between atoms: C4_4  and  C7_7 
REMARK    2  A    between atoms: C7_7  and  C8_8 
REMARK    3  A    between atoms: C8_8  and  C9_9 
ROOT
HETATM    1  C1  UNL     1     -33.000   5.953   2.287  1.00 20.00     0.141 C 
HETATM    2  C2  UNL     1     -34.254   5.303   2.811  1.00 20.00     0.152 C 
HETATM    3  C3  UNL     1     -33.866   7.814   3.584  1.00 20.00     0.086 C 
HETATM    4  C4  UNL     1     -32.582   7.215   3.024  1.00 20.00     0.065 C 
HETATM    5  O10 UNL     1     -32.350   5.463   1.367  1.00 20.00    -0.297 OA
HETATM    6  S11 UNL     1     -34.847   6.396   4.121  1.00 20.00    -0.161 SA
ENDROOT
BRANCH   4   7
HETATM    7  C7  UNL     1     -31.852   8.194   2.119  1.00 20.00     0.013 C 
BRANCH   7   8
HETATM    8  C8  UNL     1     -32.825   9.176   1.460  1.00 20.00     0.005 C 
BRANCH   8   9
HETATM    9  C9  UNL     1     -32.475   9.494  -0.006  1.00 20.00    -0.023 C 
HETATM   10  C5  UNL     1     -31.110   8.896  -0.355  1.00 20.00     0.009 C 
HETATM   11  C6  UNL     1     -32.469  10.997  -0.292  1.00 20.00     0.009 C 
ENDBRANCH   8   9
ENDBRANCH   7   8
ENDBRANCH   4   7
TORSDOF 3
ENDMDL
MODEL 6
REMARK VINA RESULT:       1.3      2.604      4.782
REMARK  3 active torsions:
REMARK  status: ('A' for Active; 'I' for Inactive)
REMARK    1  A    between atoms: C4_4  and  C7_7 
REMARK    2  A    between atoms: C7_7  and  C8_8 
REMARK    3  A    between atoms: C8_8  and  C9_9 
ROOT
HETATM    1  C1  UNL     1     -31.795   7.883   1.167  1.00 20.00     0.141 C 
HETATM    2  C2  UNL     1     -31.517   8.610  -0.124  1.00 20.00     0.152 C 
HETATM    3  C3  UNL     1     -32.795  10.023   1.728  1.00 20.00     0.086 C 
HETATM    4  C4  UNL     1     -32.844   8.535   2.052  1.00 20.00     0.065 C 
HETATM    5  O10 UNL     1     -31.245   6.821   1.445  1.00 20.00    -0.297 OA
HETATM    6  S11 UNL     1     -32.532  10.103  -0.058  1.00 20.00    -0.161 SA
ENDROOT
BRANCH   4   7
HETATM    7  C7  UNL     1     -32.594   8.273   3.528  1.00 20.00     0.013 C 
BRANCH   7   8
HETATM    8  C8  UNL     1     -33.827   7.664   4.203  1.00 20.00     0.005 C 
BRANCH   8   9
HETATM    9  C9  UNL     1     -34.408   6.457   3.443  1.00 20.00    -0.023 C 
HETATM   10  C5  UNL     1     -35.730   6.029   4.082  1.00 20.00     0.009 C 
HETATM   11  C6  UNL     1     -33.443   5.271   3.408  1.00 20.00     0.009 C 
ENDBRANCH   8   9
ENDBRANCH   7   8
ENDBRANCH   4   7
TORSDOF 3
ENDMDL
MODEL 7
REMARK VINA RESULT:       1.4      2.291      4.542
REMARK  3 active torsions:
REMARK  status: ('A' for Active; 'I' for Inactive)
REMARK    1  A    between atoms: C4_4  and  C7_7 
REMARK    2  A    between atoms: C7_7  and  C8_8 
REMARK    3  A    between atoms: C8_8  and  C9_9 
ROOT
HETATM    1  C1  UNL     1     -32.029   8.690   2.219  1.00 20.00     0.141 C 
HETATM    2  C2  UNL     1     -32.474  10.010   1.641  1.00 20.00     0.152 C 
HETATM    3  C3  UNL     1     -32.670   7.927   0.005  1.00 20.00     0.086 C 
HETATM    4  C4  UNL     1     -31.771   7.601   1.191  1.00 20.00     0.065 C 
HETATM    5  O10 UNL     1     -31.846   8.538   3.423  1.00 20.00    -0.297 OA
HETATM    6  S11 UNL     1     -32.623   9.727  -0.137  1.00 20.00    -0.161 SA
ENDROOT
BRANCH   4   7
HETATM    7  C7  UNL     1     -32.050   6.212   1.743  1.00 20.00     0.013 C 
BRANCH   7   8
HETATM    8  C8  UNL     1     -33.545   6.003   1.998  1.00 20.00     0.005 C 
BRANCH   8   9
HETATM    9  C9  UNL     1     -33.893   5.813   3.486  1.00 20.00    -0.023 C 
HETATM   10  C5  UNL     1     -34.037   4.322   3.799  1.00 20.00     0.009 C 
HETATM   11  C6  UNL     1     -35.172   6.550   3.885  1.00 20.00     0.009 C 
ENDBRANCH   8   9
ENDBRANCH   7   8
ENDBRANCH   4   7
TORSDOF 3
ENDMDL
MODEL 8
REMARK VINA RESULT:       1.4      2.707      5.557
REMARK  3 active torsions:
REMARK  status: ('A' for Active; 'I' for Inactive)
REMARK    1  A    between atoms: C4_4  and  C7_7 
REMARK    2  A    between atoms: C7_7  and  C8_8 
REMARK    3  A    between atoms: C8_8  and  C9_9 
ROOT
HETATM    1  C1  UNL     1     -33.013   6.317   1.931  1.00 20.00     0.141 C 
HETATM    2  C2  UNL     1     -32.021   7.427   1.696  1.00 20.00     0.152 C 
HETATM    3  C3  UNL     1     -33.299   7.516   4.023  1.00 20.00     0.086 C 
HETATM    4  C4  UNL     1     -34.005   6.577   3.053  1.00 20.00     0.065 C 
HETATM    5  O10 UNL     1     -33.038   5.309   1.230  1.00 20.00    -0.297 OA
HETATM    6  S11 UNL     1     -32.366   8.654   2.976  1.00 20.00    -0.161 SA
ENDROOT
BRANCH   4   7
HETATM    7  C7  UNL     1     -34.451   5.294   3.734  1.00 20.00     0.013 C 
BRANCH   7   8
HETATM    8  C8  UNL     1     -33.316   4.268   3.790  1.00 20.00     0.005 C 
BRANCH   8   9
HETATM    9  C9  UNL     1     -33.488   3.223   4.908  1.00 20.00    -0.023 C 
HETATM   10  C5  UNL     1     -32.481   3.491   6.029  1.00 20.00     0.009 C 
HETATM   11  C6  UNL     1     -33.325   1.790   4.398  1.00 20.00     0.009 C 
ENDBRANCH   8   9
ENDBRANCH   7   8
ENDBRANCH   4   7
TORSDOF 3
ENDMDL
MODEL 9
REMARK VINA RESULT:       1.6      1.306      1.824
REMARK  3 active torsions:
REMARK  status: ('A' for Active; 'I' for Inactive)
REMARK    1  A    between atoms: C4_4  and  C7_7 
REMARK    2  A    between atoms: C7_7  and  C8_8 
REMARK    3  A    between atoms: C8_8  and  C9_9 
ROOT
HETATM    1  C1  UNL     1     -34.882   5.549   3.989  1.00 20.00     0.141 C 
HETATM    2  C2  UNL     1     -34.784   4.321   4.857  1.00 20.00     0.152 C 
HETATM    3  C3  UNL     1     -32.739   4.716   3.209  1.00 20.00     0.086 C 
HETATM    4  C4  UNL     1     -33.936   5.563   2.799  1.00 20.00     0.065 C 
HETATM    5  O10 UNL     1     -35.701   6.437   4.209  1.00 20.00    -0.297 OA
HETATM    6  S11 UNL     1     -33.439   3.343   4.152  1.00 20.00    -0.161 SA
ENDROOT
BRANCH   4   7
HETATM    7  C7  UNL     1     -33.521   6.974   2.412  1.00 20.00     0.013 C 
BRANCH   7   8
HETATM    8  C8  UNL     1     -32.372   6.958   1.400  1.00 20.00     0.005 C 
BRANCH   8   9
HETATM    9  C9  UNL     1     -31.567   8.271   1.368  1.00 20.00    -0.023 C 
HETATM   10  C5  UNL     1     -31.332   8.771   2.795  1.00 20.00     0.009 C 
HETATM   11  C6  UNL     1     -32.260   9.360   0.546  1.00 20.00     0.009 C 
ENDBRANCH   8   9
ENDBRANCH   7   8
ENDBRANCH   4   7
TORSDOF 3
ENDMDL
