MODEL 1
REMARK VINA RESULT:      -1.8      0.000      0.000
REMARK  1 active torsions:
REMARK  status: ('A' for Active; 'I' for Inactive)
REMARK    1  A    between atoms: C4_4  and  O6_6 
ROOT
HETATM    1  C1  UNL     1     -33.184   5.655   2.537  1.00 20.00     0.038 C 
HETATM    2  C2  UNL     1     -32.817   6.455   1.290  1.00 20.00     0.081 C 
HETATM    3  C3  UNL     1     -33.381   8.067   2.953  1.00 20.00     0.110 C 
HETATM    4  C4  UNL     1     -33.680   6.691   3.553  1.00 20.00     0.124 C 
HETATM    5  C5  UNL     1     -32.372   7.780   1.863  1.00 20.00     0.246 C 
HETATM    6  F7  UNL     1     -32.340   8.752   0.933  1.00 20.00    -0.206 F 
HETATM    7  F8  UNL     1     -31.131   7.669   2.390  1.00 20.00    -0.206 F 
ENDROOT
BRANCH   4   8
HETATM    8  O6  UNL     1     -35.077   6.538   3.757  1.00 20.00    -0.395 OA
HETATM    9  H16 UNL     1     -35.516   7.072   3.077  1.00 20.00     0.210 HD
ENDBRANCH   4   8
TORSDOF 1
ENDMDL
MODEL 2
REMARK VINA RESULT:      -1.8      0.945      1.962
REMARK  1 active torsions:
REMARK  status: ('A' for Active; 'I' for Inactive)
REMARK    1  A    between atoms: C4_4  and  O6_6 
ROOT
HETATM    1  C1  UNL     1     -33.966   7.623   3.962  1.00 20.00     0.038 C 
HETATM    2  C2  UNL     1     -32.541   8.090   3.676  1.00 20.00     0.081 C 
HETATM    3  C3  UNL     1     -32.976   6.339   2.117  1.00 20.00     0.110 C 
HETATM    4  C4  UNL     1     -34.185   6.406   3.054  1.00 20.00     0.124 C 
HETATM    5  C5  UNL     1     -32.352   7.713   2.224  1.00 20.00     0.246 C 
HETATM    6  F7  UNL     1     -31.057   7.711   1.863  1.00 20.00    -0.206 F 
HETATM    7  F8  UNL     1     -33.005   8.588   1.425  1.00 20.00    -0.206 F 
ENDROOT
BRANCH   4   8
HETATM    8  O6  UNL     1     -34.264   5.225   3.838  1.00 20.00    -0.395 OA
HETATM    9  H16 UNL     1     -33.366   5.043   4.155  1.00 20.00     0.210 HD
ENDBRANCH   4   8
TORSDOF 1
ENDMDL
MODEL 3
REMARK VINA RESULT:      -1.8      2.892      3.406
REMARK  1 active torsions:
REMARK  status: ('A' for Active; 'I' for Inactive)
REMARK    1  A    between atoms: C4_4  and  O6_6 
ROOT
HETATM    1  C1  UNL     1     -33.242   6.298   2.082  1.00 20.00     0.038 C 
HETATM    2  C2  UNL     1     -33.924   5.443   3.147  1.00 20.00     0.081 C 
HETATM    3  C3  UNL     1     -34.060   7.689   3.934  1.00 20.00     0.110 C 
HETATM    4  C4  UNL     1     -33.209   7.718   2.662  1.00 20.00     0.124 C 
HETATM    5  C5  UNL     1     -34.873   6.419   3.803  1.00 20.00     0.246 C 
HETATM    6  F7  UNL     1     -35.318   5.977   4.992  1.00 20.00    -0.206 F 
HETATM    7  F8  UNL     1     -35.948   6.631   3.010  1.00 20.00    -0.206 F 
ENDROOT
BRANCH   4   8
HETATM    8  O6  UNL     1     -31.873   8.081   2.975  1.00 20.00    -0.395 OA
HETATM    9  H16 UNL     1     -31.913   8.959   3.385  1.00 20.00     0.210 HD
ENDBRANCH   4   8
TORSDOF 1
ENDMDL
MODEL 4
REMARK VINA RESULT:      -1.7      2.800      3.374
REMARK  1 active torsions:
REMARK  status: ('A' for Active; 'I' for Inactive)
REMARK    1  A    between atoms: C4_4  and  O6_6 
ROOT
HETATM    1  C1  UNL     1     -32.630   7.987   3.903  1.00 20.00     0.038 C 
HETATM    2  C2  UNL     1     -34.100   7.801   4.269  1.00 20.00     0.081 C 
HETATM    3  C3  UNL     1     -33.798   6.663   2.196  1.00 20.00     0.110 C 
HETATM    4  C4  UNL     1     -32.479   7.375   2.504  1.00 20.00     0.124 C 
HETATM    5  C5  UNL     1     -34.465   6.525   3.547  1.00 20.00     0.246 C 
HETATM    6  F7  UNL     1     -35.796   6.362   3.442  1.00 20.00    -0.206 F 
HETATM    7  F8  UNL     1     -33.967   5.455   4.208  1.00 20.00    -0.206 F 
ENDROOT
BRANCH   4   8
HETATM    8  O6  UNL     1     -32.241   8.401   1.552  1.00 20.00    -0.395 OA
HETATM    9  H16 UNL     1     -31.710   8.003   0.844  1.00 20.00     0.210 HD
ENDBRANCH   4   8
TORSDOF 1
ENDMDL
MODEL 5
REMARK VINA RESULT:      -1.7      1.704      2.427
REMARK  1 active torsions:
REMARK  status: ('A' for Active; 'I' for Inactive)
REMARK    1  A    between atoms: C4_4  and  O6_6 
ROOT
HETATM    1  C1  UNL     1     -32.950   8.288   2.359  1.00 20.00     0.038 C 
HETATM    2  C2  UNL     1     -31.906   7.352   1.758  1.00 20.00     0.081 C 
HETATM    3  C3  UNL     1     -33.451   5.947   2.908  1.00 20.00     0.110 C 
HETATM    4  C4  UNL     1     -33.856   7.391   3.213  1.00 20.00     0.124 C 
HETATM    5  C5  UNL     1     -32.663   6.051   1.621  1.00 20.00     0.246 C 
HETATM    6  F7  UNL     1     -31.843   5.001   1.442  1.00 20.00    -0.206 F 
HETATM    7  F8  UNL     1     -33.502   6.108   0.561  1.00 20.00    -0.206 F 
ENDROOT
BRANCH   4   8
HETATM    8  O6  UNL     1     -33.659   7.676   4.590  1.00 20.00    -0.395 OA
HETATM    9  H16 UNL     1     -33.843   8.621   4.706  1.00 20.00     0.210 HD
ENDBRANCH   4   8
TORSDOF 1
ENDMDL
MODEL 6
REMARK VINA RESULT:      -1.3      2.223      2.705
REMARK  1 active torsions:
REMARK  status: ('A' for Active; 'I' for Inactive)
REMARK    1  A    between atoms: C4_4  and  O6_6 
ROOT
HETATM    1  C1  UNL     1     -32.007   7.424   1.721  1.00 20.00     0.038 C 
HETATM    2  C2  UNL     1     -33.047   8.371   2.312  1.00 20.00     0.081 C 
HETATM    3  C3  UNL     1     -33.706   6.182   2.987  1.00 20.00     0.110 C 
HETATM    4  C4  UNL     1     -32.516   6.012   2.039  1.00 20.00     0.124 C 
HETATM    5  C5  UNL     1     -33.566   7.597   3.502  1.00 20.00     0.246 C 
HETATM    6  F7  UNL     1     -34.731   8.088   3.960  1.00 20.00    -0.206 F 
HETATM    7  F8  UNL     1     -32.670   7.641   4.515  1.00 20.00    -0.206 F 
ENDROOT
BRANCH   4   8
HETATM    8  O6  UNL     1     -32.928   5.366   0.844  1.00 20.00    -0.395 OA
HETATM    9  H16 UNL     1     -32.121   5.160   0.348  1.00 20.00     0.210 HD
ENDBRANCH   4   8
TORSDOF 1
ENDMDL
MODEL 7
REMARK VINA RESULT:      -1.1      2.983      3.433
REMARK  1 active torsions:
REMARK  status: ('A' for Active; 'I' for Inactive)
REMARK    1  A    between atoms: C4_4  and  O6_6 
ROOT
HETATM    1  C1  UNL     1     -33.074   5.150   3.326  1.00 20.00     0.038 C 
HETATM    2  C2  UNL     1     -34.112   6.037   2.646  1.00 20.00     0.081 C 
HETATM    3  C3  UNL     1     -35.238   5.008   4.478  1.00 20.00     0.110 C 
HETATM    4  C4  UNL     1     -33.842   4.386   4.413  1.00 20.00     0.124 C 
HETATM    5  C5  UNL     1     -35.083   6.334   3.765  1.00 20.00     0.246 C 
HETATM    6  F7  UNL     1     -36.257   6.805   3.310  1.00 20.00    -0.206 F 
HETATM    7  F8  UNL     1     -34.561   7.259   4.604  1.00 20.00    -0.206 F 
ENDROOT
BRANCH   4   8
HETATM    8  O6  UNL     1     -33.932   3.012   4.066  1.00 20.00    -0.395 OA
HETATM    9  H16 UNL     1     -34.300   2.977   3.170  1.00 20.00     0.210 HD
ENDBRANCH   4   8
TORSDOF 1
ENDMDL
MODEL 8
REMARK VINA RESULT:      -1.0      2.379      2.919
REMARK  1 active torsions:
REMARK  status: ('A' for Active; 'I' for Inactive)
REMARK    1  A    between atoms: C4_4  and  O6_6 
ROOT
HETATM    1  C1  UNL     1     -32.828   7.568   2.970  1.00 20.00     0.038 C 
HETATM    2  C2  UNL     1     -33.545   6.343   2.410  1.00 20.00     0.081 C 
HETATM    3  C3  UNL     1     -32.015   7.030   0.716  1.00 20.00     0.110 C 
HETATM    4  C4  UNL     1     -31.951   8.086   1.822  1.00 20.00     0.124 C 
HETATM    5  C5  UNL     1     -32.548   5.798   1.414  1.00 20.00     0.246 C 
HETATM    6  F7  UNL     1     -33.109   4.930   0.555  1.00 20.00    -0.206 F 
HETATM    7  F8  UNL     1     -31.546   5.156   2.059  1.00 20.00    -0.206 F 
ENDROOT
BRANCH   4   8
HETATM    8  O6  UNL     1     -32.457   9.324   1.347  1.00 20.00    -0.395 OA
HETATM    9  H16 UNL     1     -32.488   9.921   2.111  1.00 20.00     0.210 HD
ENDBRANCH   4   8
TORSDOF 1
ENDMDL
MODEL 9
REMARK VINA RESULT:      -0.2      2.712      3.502
REMARK  1 active torsions:
REMARK  status: ('A' for Active; 'I' for Inactive)
REMARK    1  A    between atoms: C4_4  and  O6_6 
ROOT
HETATM    1  C1  UNL     1     -33.057   9.682   1.590  1.00 20.00     0.038 C 
HETATM    2  C2  UNL     1     -33.076   8.222   2.032  1.00 20.00     0.081 C 
HETATM    3  C3  UNL     1     -31.540   8.328   0.212  1.00 20.00     0.110 C 
HETATM    4  C4  UNL     1     -32.178   9.714   0.333  1.00 20.00     0.124 C 
HETATM    5  C5  UNL     1     -31.723   7.719   1.585  1.00 20.00     0.246 C 
HETATM    6  F7  UNL     1     -31.663   6.376   1.557  1.00 20.00    -0.206 F 
HETATM    7  F8  UNL     1     -30.759   8.161   2.426  1.00 20.00    -0.206 F 
ENDROOT
BRANCH   4   8
HETATM    8  O6  UNL     1     -32.976   9.988  -0.808  1.00 20.00    -0.395 OA
HETATM    9  H16 UNL     1     -33.698   9.340  -0.803  1.00 20.00     0.210 HD
ENDBRANCH   4   8
TORSDOF 1
ENDMDL
