MODEL 1
REMARK VINA RESULT:      -2.5      0.000      0.000
REMARK  2 active torsions:
REMARK  status: ('A' for Active; 'I' for Inactive)
REMARK    1  A    between atoms: C5_5  and  C6_6 
REMARK    2  A    between atoms: C6_6  and  C7_7 
ROOT
HETATM    1  C1  UNL     1     -32.445   6.152   1.455  1.00 20.00     0.131 C 
HETATM    2  C2  UNL     1     -31.383   7.202   1.247  1.00 20.00     0.079 C 
HETATM    3  C3  UNL     1     -32.053   8.447   1.814  1.00 20.00     0.008 C 
HETATM    4  C4  UNL     1     -32.956   7.919   2.922  1.00 20.00     0.013 C 
HETATM    5  C5  UNL     1     -33.576   6.654   2.328  1.00 20.00     0.064 C 
HETATM    6  O8  UNL     1     -32.388   5.028   0.973  1.00 20.00    -0.298 OA
ENDROOT
BRANCH   5   7
HETATM    7  C6  UNL     1     -34.001   5.652   3.382  1.00 20.00     0.129 C 
BRANCH   7   8
HETATM    8  C7  UNL     1     -35.227   6.113   4.124  1.00 20.00     0.388 C 
HETATM    9  F9  UNL     1     -34.950   7.128   4.969  1.00 20.00    -0.171 F 
HETATM   10  F10 UNL     1     -35.728   5.094   4.858  1.00 20.00    -0.171 F 
HETATM   11  F11 UNL     1     -36.198   6.524   3.280  1.00 20.00    -0.171 F 
ENDBRANCH   7   8
ENDBRANCH   5   7
TORSDOF 2
ENDMDL
MODEL 2
REMARK VINA RESULT:      -1.9      3.538      4.668
REMARK  2 active torsions:
REMARK  status: ('A' for Active; 'I' for Inactive)
REMARK    1  A    between atoms: C5_5  and  C6_6 
REMARK    2  A    between atoms: C6_6  and  C7_7 
ROOT
HETATM    1  C1  UNL     1     -33.627   6.918   3.095  1.00 20.00     0.131 C 
HETATM    2  C2  UNL     1     -33.548   5.427   3.304  1.00 20.00     0.079 C 
HETATM    3  C3  UNL     1     -33.138   4.936   1.921  1.00 20.00     0.008 C 
HETATM    4  C4  UNL     1     -32.295   6.070   1.352  1.00 20.00     0.013 C 
HETATM    5  C5  UNL     1     -33.048   7.337   1.760  1.00 20.00     0.064 C 
HETATM    6  O8  UNL     1     -34.104   7.692   3.917  1.00 20.00    -0.298 OA
ENDROOT
BRANCH   5   7
HETATM    7  C6  UNL     1     -32.150   8.554   1.858  1.00 20.00     0.129 C 
BRANCH   7   8
HETATM    8  C7  UNL     1     -32.120   9.327   0.567  1.00 20.00     0.388 C 
HETATM    9  F9  UNL     1     -33.090   8.924  -0.281  1.00 20.00    -0.171 F 
HETATM   10  F10 UNL     1     -30.932   9.138  -0.051  1.00 20.00    -0.171 F 
HETATM   11  F11 UNL     1     -32.267  10.653   0.773  1.00 20.00    -0.171 F 
ENDBRANCH   7   8
ENDBRANCH   5   7
TORSDOF 2
ENDMDL
MODEL 3
REMARK VINA RESULT:      -1.9      3.521      4.616
REMARK  2 active torsions:
REMARK  status: ('A' for Active; 'I' for Inactive)
REMARK    1  A    between atoms: C5_5  and  C6_6 
REMARK    2  A    between atoms: C6_6  and  C7_7 
ROOT
HETATM    1  C1  UNL     1     -33.612   6.931   3.087  1.00 20.00     0.131 C 
HETATM    2  C2  UNL     1     -33.532   5.441   3.306  1.00 20.00     0.079 C 
HETATM    3  C3  UNL     1     -33.106   4.943   1.931  1.00 20.00     0.008 C 
HETATM    4  C4  UNL     1     -32.261   6.075   1.362  1.00 20.00     0.013 C 
HETATM    5  C5  UNL     1     -33.021   7.342   1.755  1.00 20.00     0.064 C 
HETATM    6  O8  UNL     1     -34.099   7.708   3.899  1.00 20.00    -0.298 OA
ENDROOT
BRANCH   5   7
HETATM    7  C6  UNL     1     -32.128   8.562   1.854  1.00 20.00     0.129 C 
BRANCH   7   8
HETATM    8  C7  UNL     1     -32.093   9.331   0.560  1.00 20.00     0.388 C 
HETATM    9  F9  UNL     1     -32.257  10.655   0.759  1.00 20.00    -0.171 F 
HETATM   10  F10 UNL     1     -33.093   8.911  -0.247  1.00 20.00    -0.171 F 
HETATM   11  F11 UNL     1     -30.930   9.146  -0.100  1.00 20.00    -0.171 F 
ENDBRANCH   7   8
ENDBRANCH   5   7
TORSDOF 2
ENDMDL
MODEL 4
REMARK VINA RESULT:      -1.6      2.766      4.041
REMARK  2 active torsions:
REMARK  status: ('A' for Active; 'I' for Inactive)
REMARK    1  A    between atoms: C5_5  and  C6_6 
REMARK    2  A    between atoms: C6_6  and  C7_7 
ROOT
HETATM    1  C1  UNL     1     -33.752   5.044   3.553  1.00 20.00     0.131 C 
HETATM    2  C2  UNL     1     -35.099   4.948   4.224  1.00 20.00     0.079 C 
HETATM    3  C3  UNL     1     -35.400   6.409   4.536  1.00 20.00     0.008 C 
HETATM    4  C4  UNL     1     -34.719   7.184   3.416  1.00 20.00     0.013 C 
HETATM    5  C5  UNL     1     -33.376   6.476   3.235  1.00 20.00     0.064 C 
HETATM    6  O8  UNL     1     -33.053   4.071   3.298  1.00 20.00    -0.298 OA
ENDROOT
BRANCH   5   7
HETATM    7  C6  UNL     1     -32.801   6.643   1.842  1.00 20.00     0.129 C 
BRANCH   7   8
HETATM    8  C7  UNL     1     -32.008   7.916   1.719  1.00 20.00     0.388 C 
HETATM    9  F9  UNL     1     -30.908   7.750   0.955  1.00 20.00    -0.171 F 
HETATM   10  F10 UNL     1     -31.600   8.321   2.943  1.00 20.00    -0.171 F 
HETATM   11  F11 UNL     1     -32.744   8.914   1.183  1.00 20.00    -0.171 F 
ENDBRANCH   7   8
ENDBRANCH   5   7
TORSDOF 2
ENDMDL
MODEL 5
REMARK VINA RESULT:      -1.3      1.600      2.165
REMARK  2 active torsions:
REMARK  status: ('A' for Active; 'I' for Inactive)
REMARK    1  A    between atoms: C5_5  and  C6_6 
REMARK    2  A    between atoms: C6_6  and  C7_7 
ROOT
HETATM    1  C1  UNL     1     -32.092   7.793   2.559  1.00 20.00     0.131 C 
HETATM    2  C2  UNL     1     -31.588   7.486   1.172  1.00 20.00     0.079 C 
HETATM    3  C3  UNL     1     -32.067   6.053   0.973  1.00 20.00     0.008 C 
HETATM    4  C4  UNL     1     -33.356   5.969   1.780  1.00 20.00     0.013 C 
HETATM    5  C5  UNL     1     -33.039   6.727   3.069  1.00 20.00     0.064 C 
HETATM    6  O8  UNL     1     -31.767   8.791   3.191  1.00 20.00    -0.298 OA
ENDROOT
BRANCH   5   7
HETATM    7  C6  UNL     1     -34.273   7.302   3.736  1.00 20.00     0.129 C 
BRANCH   7   8
HETATM    8  C7  UNL     1     -35.274   6.227   4.069  1.00 20.00     0.388 C 
HETATM    9  F9  UNL     1     -36.355   6.282   3.264  1.00 20.00    -0.171 F 
HETATM   10  F10 UNL     1     -35.704   6.382   5.342  1.00 20.00    -0.171 F 
HETATM   11  F11 UNL     1     -34.736   4.993   3.967  1.00 20.00    -0.171 F 
ENDBRANCH   7   8
ENDBRANCH   5   7
TORSDOF 2
ENDMDL
MODEL 6
REMARK VINA RESULT:      -1.3      3.117      4.380
REMARK  2 active torsions:
REMARK  status: ('A' for Active; 'I' for Inactive)
REMARK    1  A    between atoms: C5_5  and  C6_6 
REMARK    2  A    between atoms: C6_6  and  C7_7 
ROOT
HETATM    1  C1  UNL     1     -35.007   6.021   3.735  1.00 20.00     0.131 C 
HETATM    2  C2  UNL     1     -35.047   4.755   4.553  1.00 20.00     0.079 C 
HETATM    3  C3  UNL     1     -33.891   3.959   3.960  1.00 20.00     0.008 C 
HETATM    4  C4  UNL     1     -32.890   5.019   3.517  1.00 20.00     0.013 C 
HETATM    5  C5  UNL     1     -33.756   6.110   2.887  1.00 20.00     0.064 C 
HETATM    6  O8  UNL     1     -35.888   6.871   3.762  1.00 20.00    -0.298 OA
ENDROOT
BRANCH   5   7
HETATM    7  C6  UNL     1     -33.107   7.479   2.930  1.00 20.00     0.129 C 
BRANCH   7   8
HETATM    8  C7  UNL     1     -32.068   7.635   1.852  1.00 20.00     0.388 C 
HETATM    9  F9  UNL     1     -31.806   6.463   1.235  1.00 20.00    -0.171 F 
HETATM   10  F10 UNL     1     -30.911   8.080   2.393  1.00 20.00    -0.171 F 
HETATM   11  F11 UNL     1     -32.449   8.527   0.913  1.00 20.00    -0.171 F 
ENDBRANCH   7   8
ENDBRANCH   5   7
TORSDOF 2
ENDMDL
MODEL 7
REMARK VINA RESULT:      -1.3      2.769      3.486
REMARK  2 active torsions:
REMARK  status: ('A' for Active; 'I' for Inactive)
REMARK    1  A    between atoms: C5_5  and  C6_6 
REMARK    2  A    between atoms: C6_6  and  C7_7 
ROOT
HETATM    1  C1  UNL     1     -34.095   6.516   3.564  1.00 20.00     0.131 C 
HETATM    2  C2  UNL     1     -33.820   7.473   2.432  1.00 20.00     0.079 C 
HETATM    3  C3  UNL     1     -32.564   6.875   1.811  1.00 20.00     0.008 C 
HETATM    4  C4  UNL     1     -32.700   5.377   2.050  1.00 20.00     0.013 C 
HETATM    5  C5  UNL     1     -33.232   5.275   3.480  1.00 20.00     0.064 C 
HETATM    6  O8  UNL     1     -34.923   6.726   4.442  1.00 20.00    -0.298 OA
ENDROOT
BRANCH   5   7
HETATM    7  C6  UNL     1     -34.006   3.996   3.733  1.00 20.00     0.129 C 
BRANCH   7   8
HETATM    8  C7  UNL     1     -33.221   3.032   4.582  1.00 20.00     0.388 C 
HETATM    9  F9  UNL     1     -33.383   3.277   5.899  1.00 20.00    -0.171 F 
HETATM   10  F10 UNL     1     -31.903   3.145   4.303  1.00 20.00    -0.171 F 
HETATM   11  F11 UNL     1     -33.580   1.751   4.347  1.00 20.00    -0.171 F 
ENDBRANCH   7   8
ENDBRANCH   5   7
TORSDOF 2
ENDMDL
MODEL 8
REMARK VINA RESULT:      -1.3      2.701      3.461
REMARK  2 active torsions:
REMARK  status: ('A' for Active; 'I' for Inactive)
REMARK    1  A    between atoms: C5_5  and  C6_6 
REMARK    2  A    between atoms: C6_6  and  C7_7 
ROOT
HETATM    1  C1  UNL     1     -33.935   6.617   3.453  1.00 20.00     0.131 C 
HETATM    2  C2  UNL     1     -33.620   7.516   2.285  1.00 20.00     0.079 C 
HETATM    3  C3  UNL     1     -32.420   6.814   1.661  1.00 20.00     0.008 C 
HETATM    4  C4  UNL     1     -32.650   5.337   1.954  1.00 20.00     0.013 C 
HETATM    5  C5  UNL     1     -33.158   5.318   3.396  1.00 20.00     0.064 C 
HETATM    6  O8  UNL     1     -34.728   6.912   4.339  1.00 20.00    -0.298 OA
ENDROOT
BRANCH   5   7
HETATM    7  C6  UNL     1     -34.011   4.104   3.708  1.00 20.00     0.129 C 
BRANCH   7   8
HETATM    8  C7  UNL     1     -33.266   3.105   4.552  1.00 20.00     0.388 C 
HETATM    9  F9  UNL     1     -33.623   1.837   4.262  1.00 20.00    -0.171 F 
HETATM   10  F10 UNL     1     -33.538   3.319   5.860  1.00 20.00    -0.171 F 
HETATM   11  F11 UNL     1     -31.929   3.212   4.392  1.00 20.00    -0.171 F 
ENDBRANCH   7   8
ENDBRANCH   5   7
TORSDOF 2
ENDMDL
MODEL 9
REMARK VINA RESULT:      -1.2      0.752      1.341
REMARK  2 active torsions:
REMARK  status: ('A' for Active; 'I' for Inactive)
REMARK    1  A    between atoms: C5_5  and  C6_6 
REMARK    2  A    between atoms: C6_6  and  C7_7 
ROOT
HETATM    1  C1  UNL     1     -32.662   6.220   1.818  1.00 20.00     0.131 C 
HETATM    2  C2  UNL     1     -31.590   6.969   1.067  1.00 20.00     0.079 C 
HETATM    3  C3  UNL     1     -32.039   8.415   1.234  1.00 20.00     0.008 C 
HETATM    4  C4  UNL     1     -32.734   8.442   2.589  1.00 20.00     0.013 C 
HETATM    5  C5  UNL     1     -33.553   7.150   2.614  1.00 20.00     0.064 C 
HETATM    6  O8  UNL     1     -32.786   5.002   1.783  1.00 20.00    -0.298 OA
ENDROOT
BRANCH   5   7
HETATM    7  C6  UNL     1     -33.827   6.650   4.019  1.00 20.00     0.129 C 
BRANCH   7   8
HETATM    8  C7  UNL     1     -35.207   6.058   4.136  1.00 20.00     0.388 C 
HETATM    9  F9  UNL     1     -35.186   4.713   4.037  1.00 20.00    -0.171 F 
HETATM   10  F10 UNL     1     -35.993   6.530   3.142  1.00 20.00    -0.171 F 
HETATM   11  F11 UNL     1     -35.793   6.384   5.309  1.00 20.00    -0.171 F 
ENDBRANCH   7   8
ENDBRANCH   5   7
TORSDOF 2
ENDMDL
