MODEL 1
REMARK VINA RESULT:      -2.2      0.000      0.000
REMARK  2 active torsions:
REMARK  status: ('A' for Active; 'I' for Inactive)
REMARK    1  A    between atoms: C6_6  and  C7_7 
REMARK    2  A    between atoms: C7_7  and  C8_8 
ROOT
HETATM    1  C1  UNL     1     -32.508   6.248   1.779  1.00 20.00     0.131 C 
HETATM    2  C2  UNL     1     -33.801   5.680   2.323  1.00 20.00     0.079 C 
HETATM    3  C3  UNL     1     -34.054   6.168   3.743  1.00 20.00     0.007 C 
HETATM    4  C4  UNL     1     -33.975   7.689   3.841  1.00 20.00     0.001 C 
HETATM    5  C5  UNL     1     -32.619   8.195   3.353  1.00 20.00     0.012 C 
HETATM    6  C6  UNL     1     -32.285   7.745   1.927  1.00 20.00     0.064 C 
HETATM    7  O9  UNL     1     -31.715   5.543   1.154  1.00 20.00    -0.298 OA
ENDROOT
BRANCH   6   8
HETATM    8  C7  UNL     1     -33.085   8.495   0.867  1.00 20.00     0.129 C 
BRANCH   8   9
HETATM    9  C8  UNL     1     -32.250   9.549   0.198  1.00 20.00     0.388 C 
HETATM   10  F10 UNL     1     -32.666   9.795  -1.063  1.00 20.00    -0.171 F 
HETATM   11  F11 UNL     1     -30.967   9.132   0.131  1.00 20.00    -0.171 F 
HETATM   12  F12 UNL     1     -32.267  10.714   0.881  1.00 20.00    -0.171 F 
ENDBRANCH   8   9
ENDBRANCH   6   8
TORSDOF 2
ENDMDL
MODEL 2
REMARK VINA RESULT:      -1.6      0.355      1.191
REMARK  2 active torsions:
REMARK  status: ('A' for Active; 'I' for Inactive)
REMARK    1  A    between atoms: C6_6  and  C7_7 
REMARK    2  A    between atoms: C7_7  and  C8_8 
ROOT
HETATM    1  C1  UNL     1     -32.897   6.146   1.949  1.00 20.00     0.131 C 
HETATM    2  C2  UNL     1     -34.246   5.807   2.547  1.00 20.00     0.079 C 
HETATM    3  C3  UNL     1     -34.377   6.379   3.951  1.00 20.00     0.007 C 
HETATM    4  C4  UNL     1     -34.061   7.871   3.986  1.00 20.00     0.001 C 
HETATM    5  C5  UNL     1     -32.659   8.142   3.445  1.00 20.00     0.012 C 
HETATM    6  C6  UNL     1     -32.441   7.595   2.031  1.00 20.00     0.064 C 
HETATM    7  O9  UNL     1     -32.242   5.304   1.335  1.00 20.00    -0.298 OA
ENDROOT
BRANCH   6   8
HETATM    8  C7  UNL     1     -33.147   8.421   0.961  1.00 20.00     0.129 C 
BRANCH   8   9
HETATM    9  C8  UNL     1     -32.235   9.469   0.392  1.00 20.00     0.388 C 
HETATM   10  F10 UNL     1     -32.108  10.529   1.219  1.00 20.00    -0.171 F 
HETATM   11  F11 UNL     1     -32.743   9.921  -0.776  1.00 20.00    -0.171 F 
HETATM   12  F12 UNL     1     -31.001   8.982   0.140  1.00 20.00    -0.171 F 
ENDBRANCH   8   9
ENDBRANCH   6   8
TORSDOF 2
ENDMDL
MODEL 3
REMARK VINA RESULT:      -1.5      4.259      5.233
REMARK  2 active torsions:
REMARK  status: ('A' for Active; 'I' for Inactive)
REMARK    1  A    between atoms: C6_6  and  C7_7 
REMARK    2  A    between atoms: C7_7  and  C8_8 
ROOT
HETATM    1  C1  UNL     1     -32.986   5.924   1.604  1.00 20.00     0.131 C 
HETATM    2  C2  UNL     1     -32.033   7.087   1.777  1.00 20.00     0.079 C 
HETATM    3  C3  UNL     1     -32.710   8.242   2.501  1.00 20.00     0.007 C 
HETATM    4  C4  UNL     1     -33.354   7.792   3.808  1.00 20.00     0.001 C 
HETATM    5  C5  UNL     1     -34.363   6.673   3.560  1.00 20.00     0.012 C 
HETATM    6  C6  UNL     1     -33.761   5.468   2.831  1.00 20.00     0.064 C 
HETATM    7  O9  UNL     1     -33.057   5.311   0.539  1.00 20.00    -0.298 OA
ENDROOT
BRANCH   6   8
HETATM    8  C7  UNL     1     -32.860   4.623   3.726  1.00 20.00     0.129 C 
BRANCH   8   9
HETATM    9  C8  UNL     1     -33.650   3.586   4.471  1.00 20.00     0.388 C 
HETATM   10  F10 UNL     1     -34.875   4.035   4.815  1.00 20.00    -0.171 F 
HETATM   11  F11 UNL     1     -33.000   3.257   5.609  1.00 20.00    -0.171 F 
HETATM   12  F12 UNL     1     -33.805   2.456   3.748  1.00 20.00    -0.171 F 
ENDBRANCH   8   9
ENDBRANCH   6   8
TORSDOF 2
ENDMDL
MODEL 4
REMARK VINA RESULT:      -0.1      3.510      4.431
REMARK  2 active torsions:
REMARK  status: ('A' for Active; 'I' for Inactive)
REMARK    1  A    between atoms: C6_6  and  C7_7 
REMARK    2  A    between atoms: C7_7  and  C8_8 
ROOT
HETATM    1  C1  UNL     1     -32.888   5.703   1.172  1.00 20.00     0.131 C 
HETATM    2  C2  UNL     1     -31.418   5.972   1.413  1.00 20.00     0.079 C 
HETATM    3  C3  UNL     1     -31.148   7.466   1.512  1.00 20.00     0.007 C 
HETATM    4  C4  UNL     1     -32.059   8.140   2.533  1.00 20.00     0.001 C 
HETATM    5  C5  UNL     1     -33.528   7.900   2.193  1.00 20.00     0.012 C 
HETATM    6  C6  UNL     1     -33.885   6.415   2.073  1.00 20.00     0.064 C 
HETATM    7  O9  UNL     1     -33.257   4.866   0.348  1.00 20.00    -0.298 OA
ENDROOT
BRANCH   6   8
HETATM    8  C7  UNL     1     -33.956   5.712   3.424  1.00 20.00     0.129 C 
BRANCH   8   9
HETATM    9  C8  UNL     1     -35.200   6.093   4.173  1.00 20.00     0.388 C 
HETATM   10  F10 UNL     1     -36.190   6.484   3.342  1.00 20.00    -0.171 F 
HETATM   11  F11 UNL     1     -34.929   7.128   4.999  1.00 20.00    -0.171 F 
HETATM   12  F12 UNL     1     -35.665   5.076   4.931  1.00 20.00    -0.171 F 
ENDBRANCH   8   9
ENDBRANCH   6   8
TORSDOF 2
ENDMDL
MODEL 5
REMARK VINA RESULT:       0.1      2.227      3.126
REMARK  2 active torsions:
REMARK  status: ('A' for Active; 'I' for Inactive)
REMARK    1  A    between atoms: C6_6  and  C7_7 
REMARK    2  A    between atoms: C7_7  and  C8_8 
ROOT
HETATM    1  C1  UNL     1     -35.097   6.156   3.527  1.00 20.00     0.131 C 
HETATM    2  C2  UNL     1     -34.820   5.176   4.648  1.00 20.00     0.079 C 
HETATM    3  C3  UNL     1     -34.098   3.942   4.126  1.00 20.00     0.007 C 
HETATM    4  C4  UNL     1     -32.852   4.311   3.326  1.00 20.00     0.001 C 
HETATM    5  C5  UNL     1     -33.207   5.236   2.164  1.00 20.00     0.012 C 
HETATM    6  C6  UNL     1     -33.940   6.506   2.605  1.00 20.00     0.064 C 
HETATM    7  O9  UNL     1     -36.187   6.720   3.429  1.00 20.00    -0.298 OA
ENDROOT
BRANCH   6   8
HETATM    8  C7  UNL     1     -33.021   7.514   3.287  1.00 20.00     0.129 C 
BRANCH   8   9
HETATM    9  C8  UNL     1     -32.021   8.081   2.321  1.00 20.00     0.388 C 
HETATM   10  F10 UNL     1     -31.446   7.120   1.568  1.00 20.00    -0.171 F 
HETATM   11  F11 UNL     1     -31.038   8.706   3.006  1.00 20.00    -0.171 F 
HETATM   12  F12 UNL     1     -32.580   8.988   1.490  1.00 20.00    -0.171 F 
ENDBRANCH   8   9
ENDBRANCH   6   8
TORSDOF 2
ENDMDL
MODEL 6
REMARK VINA RESULT:       0.6      3.698      4.697
REMARK  2 active torsions:
REMARK  status: ('A' for Active; 'I' for Inactive)
REMARK    1  A    between atoms: C6_6  and  C7_7 
REMARK    2  A    between atoms: C7_7  and  C8_8 
ROOT
HETATM    1  C1  UNL     1     -32.140   8.105   2.968  1.00 20.00     0.131 C 
HETATM    2  C2  UNL     1     -32.099   8.413   1.486  1.00 20.00     0.079 C 
HETATM    3  C3  UNL     1     -31.845   7.150   0.675  1.00 20.00     0.007 C 
HETATM    4  C4  UNL     1     -32.828   6.040   1.033  1.00 20.00     0.001 C 
HETATM    5  C5  UNL     1     -32.766   5.719   2.525  1.00 20.00     0.012 C 
HETATM    6  C6  UNL     1     -33.011   6.941   3.415  1.00 20.00     0.064 C 
HETATM    7  O9  UNL     1     -31.570   8.828   3.785  1.00 20.00    -0.298 OA
ENDROOT
BRANCH   6   8
HETATM    8  C7  UNL     1     -34.473   7.370   3.443  1.00 20.00     0.129 C 
BRANCH   8   9
HETATM    9  C8  UNL     1     -35.352   6.281   3.987  1.00 20.00     0.388 C 
HETATM   10  F10 UNL     1     -34.787   5.062   3.850  1.00 20.00    -0.171 F 
HETATM   11  F11 UNL     1     -36.522   6.267   3.312  1.00 20.00    -0.171 F 
HETATM   12  F12 UNL     1     -35.635   6.467   5.294  1.00 20.00    -0.171 F 
ENDBRANCH   8   9
ENDBRANCH   6   8
TORSDOF 2
ENDMDL
MODEL 7
REMARK VINA RESULT:       0.7      3.695      4.691
REMARK  2 active torsions:
REMARK  status: ('A' for Active; 'I' for Inactive)
REMARK    1  A    between atoms: C6_6  and  C7_7 
REMARK    2  A    between atoms: C7_7  and  C8_8 
ROOT
HETATM    1  C1  UNL     1     -32.138   8.089   2.954  1.00 20.00     0.131 C 
HETATM    2  C2  UNL     1     -32.090   8.384   1.470  1.00 20.00     0.079 C 
HETATM    3  C3  UNL     1     -31.841   7.112   0.671  1.00 20.00     0.007 C 
HETATM    4  C4  UNL     1     -32.833   6.012   1.035  1.00 20.00     0.001 C 
HETATM    5  C5  UNL     1     -32.779   5.704   2.530  1.00 20.00     0.012 C 
HETATM    6  C6  UNL     1     -33.019   6.936   3.409  1.00 20.00     0.064 C 
HETATM    7  O9  UNL     1     -31.567   8.816   3.767  1.00 20.00    -0.298 OA
ENDROOT
BRANCH   6   8
HETATM    8  C7  UNL     1     -34.479   7.375   3.427  1.00 20.00     0.129 C 
BRANCH   8   9
HETATM    9  C8  UNL     1     -35.369   6.291   3.962  1.00 20.00     0.388 C 
HETATM   10  F10 UNL     1     -36.562   6.262   3.332  1.00 20.00    -0.171 F 
HETATM   11  F11 UNL     1     -35.604   6.508   5.274  1.00 20.00    -0.171 F 
HETATM   12  F12 UNL     1     -34.802   5.070   3.844  1.00 20.00    -0.171 F 
ENDBRANCH   8   9
ENDBRANCH   6   8
TORSDOF 2
ENDMDL
MODEL 8
REMARK VINA RESULT:       0.7      3.115      4.331
REMARK  2 active torsions:
REMARK  status: ('A' for Active; 'I' for Inactive)
REMARK    1  A    between atoms: C6_6  and  C7_7 
REMARK    2  A    between atoms: C7_7  and  C8_8 
ROOT
HETATM    1  C1  UNL     1     -32.175   8.786   2.354  1.00 20.00     0.131 C 
HETATM    2  C2  UNL     1     -33.046   9.928   1.874  1.00 20.00     0.079 C 
HETATM    3  C3  UNL     1     -32.531  10.486   0.556  1.00 20.00     0.007 C 
HETATM    4  C4  UNL     1     -32.343   9.391  -0.489  1.00 20.00     0.001 C 
HETATM    5  C5  UNL     1     -31.394   8.309   0.022  1.00 20.00     0.012 C 
HETATM    6  C6  UNL     1     -31.841   7.693   1.351  1.00 20.00     0.064 C 
HETATM    7  O9  UNL     1     -31.836   8.695   3.534  1.00 20.00    -0.298 OA
ENDROOT
BRANCH   6   8
HETATM    8  C7  UNL     1     -33.029   6.750   1.197  1.00 20.00     0.129 C 
BRANCH   8   9
HETATM    9  C8  UNL     1     -32.610   5.315   1.341  1.00 20.00     0.388 C 
HETATM   10  F10 UNL     1     -31.267   5.179   1.324  1.00 20.00    -0.171 F 
HETATM   11  F11 UNL     1     -33.106   4.596   0.310  1.00 20.00    -0.171 F 
HETATM   12  F12 UNL     1     -33.074   4.766   2.484  1.00 20.00    -0.171 F 
ENDBRANCH   8   9
ENDBRANCH   6   8
TORSDOF 2
ENDMDL
