MODEL 1
REMARK VINA RESULT:      -2.6      0.000      0.000
REMARK  2 active torsions:
REMARK  status: ('A' for Active; 'I' for Inactive)
REMARK    1  A    between atoms: C1_1  and  C3_3 
REMARK    2  A    between atoms: C2_2  and  C4_4 
ROOT
HETATM    1  C1  UNL     1     -32.369   6.661   1.929  1.00 20.00     0.223 C 
HETATM    2  C2  UNL     1     -33.320   6.221   2.769  1.00 20.00     0.223 C 
HETATM    3  F5  UNL     1     -31.705   5.752   1.175  1.00 20.00    -0.200 F 
HETATM    4  F6  UNL     1     -33.541   4.887   2.848  1.00 20.00    -0.200 F 
ENDROOT
BRANCH   1   5
HETATM    5  C3  UNL     1     -31.993   8.095   1.740  1.00 20.00     0.377 C 
HETATM    6  F7  UNL     1     -33.044   8.873   1.367  1.00 20.00    -0.180 F 
HETATM    7  F8  UNL     1     -31.070   8.214   0.748  1.00 20.00    -0.180 F 
HETATM    8 CL11 UNL     1     -31.307   8.743   3.243  1.00 20.00    -0.040 Cl
ENDBRANCH   1   5
BRANCH   2   9
HETATM    9  C4  UNL     1     -34.151   7.096   3.649  1.00 20.00     0.377 C 
HETATM   10  F9  UNL     1     -33.400   7.585   4.673  1.00 20.00    -0.180 F 
HETATM   11  F10 UNL     1     -34.649   8.182   2.999  1.00 20.00    -0.180 F 
HETATM   12 CL12 UNL     1     -35.503   6.164   4.324  1.00 20.00    -0.040 Cl
ENDBRANCH   2   9
TORSDOF 2
ENDMDL
MODEL 2
REMARK VINA RESULT:      -2.6      0.004      3.425
REMARK  2 active torsions:
REMARK  status: ('A' for Active; 'I' for Inactive)
REMARK    1  A    between atoms: C1_1  and  C3_3 
REMARK    2  A    between atoms: C2_2  and  C4_4 
ROOT
HETATM    1  C1  UNL     1     -33.320   6.218   2.768  1.00 20.00     0.223 C 
HETATM    2  C2  UNL     1     -32.370   6.659   1.928  1.00 20.00     0.223 C 
HETATM    3  F5  UNL     1     -33.541   4.883   2.849  1.00 20.00    -0.200 F 
HETATM    4  F6  UNL     1     -31.705   5.749   1.174  1.00 20.00    -0.200 F 
ENDROOT
BRANCH   1   5
HETATM    5  C3  UNL     1     -34.152   7.092   3.650  1.00 20.00     0.377 C 
HETATM    6  F7  UNL     1     -34.649   8.178   3.000  1.00 20.00    -0.180 F 
HETATM    7  F8  UNL     1     -33.401   7.580   4.673  1.00 20.00    -0.180 F 
HETATM    8 CL11 UNL     1     -35.503   6.159   4.324  1.00 20.00    -0.040 Cl
ENDBRANCH   1   5
BRANCH   2   9
HETATM    9  C4  UNL     1     -31.995   8.092   1.741  1.00 20.00     0.377 C 
HETATM   10  F9  UNL     1     -31.070   8.212   0.749  1.00 20.00    -0.180 F 
HETATM   11  F10 UNL     1     -33.046   8.870   1.366  1.00 20.00    -0.180 F 
HETATM   12 CL12 UNL     1     -31.311   8.740   3.245  1.00 20.00    -0.040 Cl
ENDBRANCH   2   9
TORSDOF 2
ENDMDL
MODEL 3
REMARK VINA RESULT:      -2.2      1.494      3.459
REMARK  2 active torsions:
REMARK  status: ('A' for Active; 'I' for Inactive)
REMARK    1  A    between atoms: C1_1  and  C3_3 
REMARK    2  A    between atoms: C2_2  and  C4_4 
ROOT
HETATM    1  C1  UNL     1     -33.493   6.306   2.978  1.00 20.00     0.223 C 
HETATM    2  C2  UNL     1     -32.562   6.701   2.094  1.00 20.00     0.223 C 
HETATM    3  F5  UNL     1     -33.776   4.984   3.068  1.00 20.00    -0.200 F 
HETATM    4  F6  UNL     1     -31.980   5.762   1.309  1.00 20.00    -0.200 F 
ENDROOT
BRANCH   1   5
HETATM    5  C3  UNL     1     -34.238   7.218   3.898  1.00 20.00     0.377 C 
HETATM    6  F7  UNL     1     -35.243   6.590   4.565  1.00 20.00    -0.180 F 
HETATM    7  F8  UNL     1     -34.827   8.220   3.192  1.00 20.00    -0.180 F 
HETATM    8 CL11 UNL     1     -33.121   7.929   5.080  1.00 20.00    -0.040 Cl
ENDBRANCH   1   5
BRANCH   2   9
HETATM    9  C4  UNL     1     -32.125   8.115   1.890  1.00 20.00     0.377 C 
HETATM   10  F9  UNL     1     -33.207   8.937   1.822  1.00 20.00    -0.180 F 
HETATM   11  F10 UNL     1     -31.362   8.586   2.912  1.00 20.00    -0.180 F 
HETATM   12 CL12 UNL     1     -31.204   8.250   0.379  1.00 20.00    -0.040 Cl
ENDBRANCH   2   9
TORSDOF 2
ENDMDL
MODEL 4
REMARK VINA RESULT:      -2.2      1.490      1.820
REMARK  2 active torsions:
REMARK  status: ('A' for Active; 'I' for Inactive)
REMARK    1  A    between atoms: C1_1  and  C3_3 
REMARK    2  A    between atoms: C2_2  and  C4_4 
ROOT
HETATM    1  C1  UNL     1     -32.560   6.697   2.088  1.00 20.00     0.223 C 
HETATM    2  C2  UNL     1     -33.493   6.308   2.971  1.00 20.00     0.223 C 
HETATM    3  F5  UNL     1     -31.982   5.755   1.303  1.00 20.00    -0.200 F 
HETATM    4  F6  UNL     1     -33.783   4.987   3.060  1.00 20.00    -0.200 F 
ENDROOT
BRANCH   1   5
HETATM    5  C3  UNL     1     -32.115   8.109   1.883  1.00 20.00     0.377 C 
HETATM    6  F7  UNL     1     -31.358   8.579   2.910  1.00 20.00    -0.180 F 
HETATM    7  F8  UNL     1     -33.192   8.936   1.804  1.00 20.00    -0.180 F 
HETATM    8 CL11 UNL     1     -31.182   8.237   0.379  1.00 20.00    -0.040 Cl
ENDBRANCH   1   5
BRANCH   2   9
HETATM    9  C4  UNL     1     -34.233   7.224   3.890  1.00 20.00     0.377 C 
HETATM   10  F9  UNL     1     -34.822   8.226   3.182  1.00 20.00    -0.180 F 
HETATM   11  F10 UNL     1     -35.238   6.602   4.562  1.00 20.00    -0.180 F 
HETATM   12 CL12 UNL     1     -33.111   7.934   5.067  1.00 20.00    -0.040 Cl
ENDBRANCH   2   9
TORSDOF 2
ENDMDL
MODEL 5
REMARK VINA RESULT:      -2.2      1.787      4.074
REMARK  2 active torsions:
REMARK  status: ('A' for Active; 'I' for Inactive)
REMARK    1  A    between atoms: C1_1  and  C3_3 
REMARK    2  A    between atoms: C2_2  and  C4_4 
ROOT
HETATM    1  C1  UNL     1     -33.610   7.395   3.946  1.00 20.00     0.223 C 
HETATM    2  C2  UNL     1     -32.642   7.739   3.080  1.00 20.00     0.223 C 
HETATM    3  F5  UNL     1     -33.677   8.050   5.131  1.00 20.00    -0.200 F 
HETATM    4  F6  UNL     1     -31.758   8.697   3.451  1.00 20.00    -0.200 F 
ENDROOT
BRANCH   1   5
HETATM    5  C3  UNL     1     -34.646   6.348   3.696  1.00 20.00     0.377 C 
HETATM    6  F7  UNL     1     -35.373   6.581   2.571  1.00 20.00    -0.180 F 
HETATM    7  F8  UNL     1     -35.542   6.318   4.720  1.00 20.00    -0.180 F 
HETATM    8 CL11 UNL     1     -33.875   4.755   3.562  1.00 20.00    -0.040 Cl
ENDBRANCH   1   5
BRANCH   2   9
HETATM    9  C4  UNL     1     -32.448   7.128   1.732  1.00 20.00     0.377 C 
HETATM   10  F9  UNL     1     -31.532   6.124   1.796  1.00 20.00    -0.180 F 
HETATM   11  F10 UNL     1     -33.583   6.566   1.236  1.00 20.00    -0.180 F 
HETATM   12 CL12 UNL     1     -31.872   8.358   0.588  1.00 20.00    -0.040 Cl
ENDBRANCH   2   9
TORSDOF 2
ENDMDL
MODEL 6
REMARK VINA RESULT:      -2.2      1.774      2.416
REMARK  2 active torsions:
REMARK  status: ('A' for Active; 'I' for Inactive)
REMARK    1  A    between atoms: C1_1  and  C3_3 
REMARK    2  A    between atoms: C2_2  and  C4_4 
ROOT
HETATM    1  C1  UNL     1     -32.650   7.753   3.118  1.00 20.00     0.223 C 
HETATM    2  C2  UNL     1     -33.619   7.402   3.979  1.00 20.00     0.223 C 
HETATM    3  F5  UNL     1     -31.764   8.705   3.498  1.00 20.00    -0.200 F 
HETATM    4  F6  UNL     1     -33.685   8.044   5.170  1.00 20.00    -0.200 F 
ENDROOT
BRANCH   1   5
HETATM    5  C3  UNL     1     -32.456   7.156   1.762  1.00 20.00     0.377 C 
HETATM    6  F7  UNL     1     -33.585   6.582   1.269  1.00 20.00    -0.180 F 
HETATM    7  F8  UNL     1     -31.525   6.165   1.813  1.00 20.00    -0.180 F 
HETATM    8 CL11 UNL     1     -31.904   8.403   0.625  1.00 20.00    -0.040 Cl
ENDBRANCH   1   5
BRANCH   2   9
HETATM    9  C4  UNL     1     -34.656   6.359   3.717  1.00 20.00     0.377 C 
HETATM   10  F9  UNL     1     -35.545   6.309   4.746  1.00 20.00    -0.180 F 
HETATM   11  F10 UNL     1     -35.391   6.611   2.601  1.00 20.00    -0.180 F 
HETATM   12 CL12 UNL     1     -33.885   4.769   3.546  1.00 20.00    -0.040 Cl
ENDBRANCH   2   9
TORSDOF 2
ENDMDL
MODEL 7
REMARK VINA RESULT:      -1.6      1.766      2.475
REMARK  2 active torsions:
REMARK  status: ('A' for Active; 'I' for Inactive)
REMARK    1  A    between atoms: C1_1  and  C3_3 
REMARK    2  A    between atoms: C2_2  and  C4_4 
ROOT
HETATM    1  C1  UNL     1     -32.486   7.792   3.041  1.00 20.00     0.223 C 
HETATM    2  C2  UNL     1     -33.498   7.335   3.795  1.00 20.00     0.223 C 
HETATM    3  F5  UNL     1     -31.663   8.731   3.569  1.00 20.00    -0.200 F 
HETATM    4  F6  UNL     1     -33.669   7.862   5.031  1.00 20.00    -0.200 F 
ENDROOT
BRANCH   1   5
HETATM    5  C3  UNL     1     -32.176   7.328   1.655  1.00 20.00     0.377 C 
HETATM    6  F7  UNL     1     -31.111   7.971   1.107  1.00 20.00    -0.180 F 
HETATM    7  F8  UNL     1     -33.228   7.579   0.829  1.00 20.00    -0.180 F 
HETATM    8 CL11 UNL     1     -31.853   5.583   1.659  1.00 20.00    -0.040 Cl
ENDBRANCH   1   5
BRANCH   2   9
HETATM    9  C4  UNL     1     -34.476   6.290   3.367  1.00 20.00     0.377 C 
HETATM   10  F9  UNL     1     -35.713   6.573   3.859  1.00 20.00    -0.180 F 
HETATM   11  F10 UNL     1     -34.619   6.220   2.017  1.00 20.00    -0.180 F 
HETATM   12 CL12 UNL     1     -33.967   4.701   3.972  1.00 20.00    -0.040 Cl
ENDBRANCH   2   9
TORSDOF 2
ENDMDL
MODEL 8
REMARK VINA RESULT:      -1.5      1.142      1.366
REMARK  2 active torsions:
REMARK  status: ('A' for Active; 'I' for Inactive)
REMARK    1  A    between atoms: C1_1  and  C3_3 
REMARK    2  A    between atoms: C2_2  and  C4_4 
ROOT
HETATM    1  C1  UNL     1     -32.577   6.470   2.188  1.00 20.00     0.223 C 
HETATM    2  C2  UNL     1     -33.545   5.960   2.966  1.00 20.00     0.223 C 
HETATM    3  F5  UNL     1     -31.797   5.612   1.485  1.00 20.00    -0.200 F 
HETATM    4  F6  UNL     1     -33.670   4.613   3.040  1.00 20.00    -0.200 F 
ENDROOT
BRANCH   1   5
HETATM    5  C3  UNL     1     -32.299   7.928   2.015  1.00 20.00     0.377 C 
HETATM    6  F7  UNL     1     -33.429   8.667   1.859  1.00 20.00    -0.180 F 
HETATM    7  F8  UNL     1     -31.558   8.136   0.893  1.00 20.00    -0.180 F 
HETATM    8 CL11 UNL     1     -31.401   8.542   3.417  1.00 20.00    -0.040 Cl
ENDBRANCH   1   5
BRANCH   2   9
HETATM    9  C4  UNL     1     -34.497   6.771   3.783  1.00 20.00     0.377 C 
HETATM   10  F9  UNL     1     -35.274   7.542   2.975  1.00 20.00    -0.180 F 
HETATM   11  F10 UNL     1     -35.357   6.006   4.508  1.00 20.00    -0.180 F 
HETATM   12 CL12 UNL     1     -33.596   7.825   4.892  1.00 20.00    -0.040 Cl
ENDBRANCH   2   9
TORSDOF 2
ENDMDL
MODEL 9
REMARK VINA RESULT:      -1.2      1.901      4.093
REMARK  2 active torsions:
REMARK  status: ('A' for Active; 'I' for Inactive)
REMARK    1  A    between atoms: C1_1  and  C3_3 
REMARK    2  A    between atoms: C2_2  and  C4_4 
ROOT
HETATM    1  C1  UNL     1     -33.703   7.039   3.617  1.00 20.00     0.223 C 
HETATM    2  C2  UNL     1     -32.810   6.884   2.626  1.00 20.00     0.223 C 
HETATM    3  F5  UNL     1     -33.576   8.110   4.438  1.00 20.00    -0.200 F 
HETATM    4  F6  UNL     1     -31.804   7.785   2.520  1.00 20.00    -0.200 F 
ENDROOT
BRANCH   1   5
HETATM    5  C3  UNL     1     -34.855   6.124   3.879  1.00 20.00     0.377 C 
HETATM    6  F7  UNL     1     -35.727   6.060   2.837  1.00 20.00    -0.180 F 
HETATM    7  F8  UNL     1     -35.577   6.568   4.943  1.00 20.00    -0.180 F 
HETATM    8 CL11 UNL     1     -34.261   4.489   4.230  1.00 20.00    -0.040 Cl
ENDBRANCH   1   5
BRANCH   2   9
HETATM    9  C4  UNL     1     -32.826   5.772   1.630  1.00 20.00     0.377 C 
HETATM   10  F9  UNL     1     -31.581   5.582   1.115  1.00 20.00    -0.180 F 
HETATM   11  F10 UNL     1     -33.191   4.579   2.172  1.00 20.00    -0.180 F 
HETATM   12 CL12 UNL     1     -33.941   6.163   0.305  1.00 20.00    -0.040 Cl
ENDBRANCH   2   9
TORSDOF 2
ENDMDL
