MODEL 1
REMARK VINA RESULT:      -0.1      0.000      0.000
REMARK  1 active torsions:
REMARK  status: ('A' for Active; 'I' for Inactive)
REMARK    1  A    between atoms: C4_4  and  C6_6 
ROOT
HETATM    1  C1  UNL     1     -33.075   4.665   3.264  1.00 20.00     0.039 A 
HETATM    2  C2  UNL     1     -34.496   6.572   3.300  1.00 20.00     0.129 A 
HETATM    3  C3  UNL     1     -35.002   4.786   4.653  1.00 20.00     0.140 A 
HETATM    4  C4  UNL     1     -33.371   5.940   2.795  1.00 20.00    -0.000 A 
HETATM    5  C5  UNL     1     -33.902   4.069   4.210  1.00 20.00     0.052 A 
HETATM    6  N8  UNL     1     -35.322   6.026   4.221  1.00 20.00    -0.271 NA
HETATM    7 CL10 UNL     1     -33.569   2.498   4.813  1.00 20.00    -0.083 Cl
ENDROOT
BRANCH   4   8
HETATM    8  C6  UNL     1     -32.528   6.589   1.806  1.00 20.00     0.017 C 
HETATM    9  C7  UNL     1     -31.904   5.738   0.698  1.00 20.00     0.062 C 
HETATM   10  S9  UNL     1     -32.227   8.263   1.768  1.00 20.00    -0.084 SA
ENDBRANCH   4   8
TORSDOF 1
ENDMDL
MODEL 2
REMARK VINA RESULT:       0.7      3.606      4.731
REMARK  1 active torsions:
REMARK  status: ('A' for Active; 'I' for Inactive)
REMARK    1  A    between atoms: C4_4  and  C6_6 
ROOT
HETATM    1  C1  UNL     1     -33.308   7.573   2.572  1.00 20.00     0.039 A 
HETATM    2  C2  UNL     1     -32.514   5.426   1.924  1.00 20.00     0.129 A 
HETATM    3  C3  UNL     1     -31.651   7.287   0.890  1.00 20.00     0.140 A 
HETATM    4  C4  UNL     1     -33.350   6.191   2.723  1.00 20.00    -0.000 A 
HETATM    5  C5  UNL     1     -32.446   8.139   1.640  1.00 20.00     0.052 A 
HETATM    6  N8  UNL     1     -31.663   5.940   1.009  1.00 20.00    -0.271 NA
HETATM    7 CL10 UNL     1     -32.368   9.839   1.426  1.00 20.00    -0.083 Cl
ENDROOT
BRANCH   4   8
HETATM    8  C6  UNL     1     -34.239   5.568   3.687  1.00 20.00     0.017 C 
HETATM    9  C7  UNL     1     -35.508   6.314   4.107  1.00 20.00     0.062 C 
HETATM   10  S9  UNL     1     -33.988   4.022   4.351  1.00 20.00    -0.084 SA
ENDBRANCH   4   8
TORSDOF 1
ENDMDL
MODEL 3
REMARK VINA RESULT:       0.7      0.990      1.235
REMARK  1 active torsions:
REMARK  status: ('A' for Active; 'I' for Inactive)
REMARK    1  A    between atoms: C4_4  and  C6_6 
ROOT
HETATM    1  C1  UNL     1     -33.113   4.747   3.310  1.00 20.00     0.039 A 
HETATM    2  C2  UNL     1     -34.573   6.624   3.398  1.00 20.00     0.129 A 
HETATM    3  C3  UNL     1     -35.054   4.782   4.684  1.00 20.00     0.140 A 
HETATM    4  C4  UNL     1     -33.431   6.032   2.882  1.00 20.00    -0.000 A 
HETATM    5  C5  UNL     1     -33.936   4.103   4.227  1.00 20.00     0.052 A 
HETATM    6  N8  UNL     1     -35.395   6.030   4.292  1.00 20.00    -0.271 NA
HETATM    7 CL10 UNL     1     -33.577   2.520   4.778  1.00 20.00    -0.083 Cl
ENDROOT
BRANCH   4   8
HETATM    8  C6  UNL     1     -32.593   6.731   1.924  1.00 20.00     0.017 C 
HETATM    9  C7  UNL     1     -32.360   8.233   2.107  1.00 20.00     0.062 C 
HETATM   10  S9  UNL     1     -31.800   5.972   0.624  1.00 20.00    -0.084 SA
ENDBRANCH   4   8
TORSDOF 1
ENDMDL
MODEL 4
REMARK VINA RESULT:       0.9      3.071      4.134
REMARK  1 active torsions:
REMARK  status: ('A' for Active; 'I' for Inactive)
REMARK    1  A    between atoms: C4_4  and  C6_6 
ROOT
HETATM    1  C1  UNL     1     -32.989   5.857   2.194  1.00 20.00     0.039 A 
HETATM    2  C2  UNL     1     -32.556   8.180   2.465  1.00 20.00     0.129 A 
HETATM    3  C3  UNL     1     -31.475   7.038   0.790  1.00 20.00     0.140 A 
HETATM    4  C4  UNL     1     -33.228   7.042   2.881  1.00 20.00    -0.000 A 
HETATM    5  C5  UNL     1     -32.096   5.846   1.128  1.00 20.00     0.052 A 
HETATM    6  N8  UNL     1     -31.683   8.209   1.434  1.00 20.00    -0.271 NA
HETATM    7 CL10 UNL     1     -31.776   4.404   0.258  1.00 20.00    -0.083 Cl
ENDROOT
BRANCH   4   8
HETATM    8  C6  UNL     1     -34.154   7.087   3.999  1.00 20.00     0.017 C 
HETATM    9  C7  UNL     1     -33.966   8.165   5.069  1.00 20.00     0.062 C 
HETATM   10  S9  UNL     1     -35.482   6.037   4.174  1.00 20.00    -0.084 SA
ENDBRANCH   4   8
TORSDOF 1
ENDMDL
MODEL 5
REMARK VINA RESULT:       1.2      1.411      1.567
REMARK  1 active torsions:
REMARK  status: ('A' for Active; 'I' for Inactive)
REMARK    1  A    between atoms: C4_4  and  C6_6 
ROOT
HETATM    1  C1  UNL     1     -33.062   5.981   2.708  1.00 20.00     0.039 A 
HETATM    2  C2  UNL     1     -34.069   8.053   3.298  1.00 20.00     0.129 A 
HETATM    3  C3  UNL     1     -34.831   6.127   4.292  1.00 20.00     0.140 A 
HETATM    4  C4  UNL     1     -33.129   7.361   2.552  1.00 20.00    -0.000 A 
HETATM    5  C5  UNL     1     -33.927   5.344   3.592  1.00 20.00     0.052 A 
HETATM    6  N8  UNL     1     -34.925   7.470   4.167  1.00 20.00    -0.271 NA
HETATM    7 CL10 UNL     1     -33.875   3.644   3.810  1.00 20.00    -0.083 Cl
ENDROOT
BRANCH   4   8
HETATM    8  C6  UNL     1     -32.240   8.055   1.638  1.00 20.00     0.017 C 
HETATM    9  C7  UNL     1     -30.854   7.465   1.366  1.00 20.00     0.062 C 
HETATM   10  S9  UNL     1     -32.662   9.473   0.796  1.00 20.00    -0.084 SA
ENDBRANCH   4   8
TORSDOF 1
ENDMDL
MODEL 6
REMARK VINA RESULT:       1.3      2.713      3.369
REMARK  1 active torsions:
REMARK  status: ('A' for Active; 'I' for Inactive)
REMARK    1  A    between atoms: C4_4  and  C6_6 
ROOT
HETATM    1  C1  UNL     1     -33.055   8.295   2.607  1.00 20.00     0.039 A 
HETATM    2  C2  UNL     1     -32.360   6.627   1.060  1.00 20.00     0.129 A 
HETATM    3  C3  UNL     1     -33.384   5.974   3.010  1.00 20.00     0.140 A 
HETATM    4  C4  UNL     1     -32.458   7.969   1.394  1.00 20.00    -0.000 A 
HETATM    5  C5  UNL     1     -33.529   7.284   3.436  1.00 20.00     0.052 A 
HETATM    6  N8  UNL     1     -32.809   5.618   1.839  1.00 20.00    -0.271 NA
HETATM    7 CL10 UNL     1     -34.271   7.648   4.939  1.00 20.00    -0.083 Cl
ENDROOT
BRANCH   4   8
HETATM    8  C6  UNL     1     -31.953   9.000   0.506  1.00 20.00     0.017 C 
HETATM    9  C7  UNL     1     -30.743   8.685  -0.377  1.00 20.00     0.062 C 
HETATM   10  S9  UNL     1     -32.658  10.540   0.341  1.00 20.00    -0.084 SA
ENDBRANCH   4   8
TORSDOF 1
ENDMDL
MODEL 7
REMARK VINA RESULT:       1.6      2.197      2.823
REMARK  1 active torsions:
REMARK  status: ('A' for Active; 'I' for Inactive)
REMARK    1  A    between atoms: C4_4  and  C6_6 
ROOT
HETATM    1  C1  UNL     1     -33.702   7.113   3.122  1.00 20.00     0.039 A 
HETATM    2  C2  UNL     1     -32.286   6.142   1.476  1.00 20.00     0.129 A 
HETATM    3  C3  UNL     1     -33.770   4.794   2.598  1.00 20.00     0.140 A 
HETATM    4  C4  UNL     1     -32.699   7.267   2.171  1.00 20.00    -0.000 A 
HETATM    5  C5  UNL     1     -34.252   5.856   3.346  1.00 20.00     0.052 A 
HETATM    6  N8  UNL     1     -32.797   4.905   1.666  1.00 20.00    -0.271 NA
HETATM    7 CL10 UNL     1     -35.490   5.627   4.511  1.00 20.00    -0.083 Cl
ENDROOT
BRANCH   4   8
HETATM    8  C6  UNL     1     -32.104   8.567   1.914  1.00 20.00     0.017 C 
HETATM    9  C7  UNL     1     -31.192   9.183   2.977  1.00 20.00     0.062 C 
HETATM   10  S9  UNL     1     -32.314   9.438   0.467  1.00 20.00    -0.084 SA
ENDBRANCH   4   8
TORSDOF 1
ENDMDL
MODEL 8
REMARK VINA RESULT:       1.7      3.020      4.087
REMARK  1 active torsions:
REMARK  status: ('A' for Active; 'I' for Inactive)
REMARK    1  A    between atoms: C4_4  and  C6_6 
ROOT
HETATM    1  C1  UNL     1     -32.874   5.248   2.016  1.00 20.00     0.039 A 
HETATM    2  C2  UNL     1     -33.093   7.484   2.799  1.00 20.00     0.129 A 
HETATM    3  C3  UNL     1     -31.586   7.038   1.123  1.00 20.00     0.140 A 
HETATM    4  C4  UNL     1     -33.484   6.156   2.875  1.00 20.00    -0.000 A 
HETATM    5  C5  UNL     1     -31.905   5.689   1.121  1.00 20.00     0.052 A 
HETATM    6  N8  UNL     1     -32.156   7.949   1.943  1.00 20.00    -0.271 NA
HETATM    7 CL10 UNL     1     -31.132   4.599   0.046  1.00 20.00    -0.083 Cl
ENDROOT
BRANCH   4   8
HETATM    8  C6  UNL     1     -34.498   5.728   3.821  1.00 20.00     0.017 C 
HETATM    9  C7  UNL     1     -35.725   6.615   4.038  1.00 20.00     0.062 C 
HETATM   10  S9  UNL     1     -34.437   4.259   4.678  1.00 20.00    -0.084 SA
ENDBRANCH   4   8
TORSDOF 1
ENDMDL
MODEL 9
REMARK VINA RESULT:       1.7      1.975      2.264
REMARK  1 active torsions:
REMARK  status: ('A' for Active; 'I' for Inactive)
REMARK    1  A    between atoms: C4_4  and  C6_6 
ROOT
HETATM    1  C1  UNL     1     -33.818   6.328   2.900  1.00 20.00     0.039 A 
HETATM    2  C2  UNL     1     -32.638   8.299   3.518  1.00 20.00     0.129 A 
HETATM    3  C3  UNL     1     -34.241   7.473   4.942  1.00 20.00     0.140 A 
HETATM    4  C4  UNL     1     -32.852   7.283   2.601  1.00 20.00    -0.000 A 
HETATM    5  C5  UNL     1     -34.531   6.418   4.091  1.00 20.00     0.052 A 
HETATM    6  N8  UNL     1     -33.310   8.419   4.685  1.00 20.00    -0.271 NA
HETATM    7 CL10 UNL     1     -35.729   5.260   4.495  1.00 20.00    -0.083 Cl
ENDROOT
BRANCH   4   8
HETATM    8  C6  UNL     1     -32.092   7.218   1.365  1.00 20.00     0.017 C 
HETATM    9  C7  UNL     1     -31.709   5.845   0.808  1.00 20.00     0.062 C 
HETATM   10  S9  UNL     1     -31.637   8.583   0.457  1.00 20.00    -0.084 SA
ENDBRANCH   4   8
TORSDOF 1
ENDMDL
