MODEL 1
REMARK VINA RESULT:       0.8      0.000      0.000
REMARK  1 active torsions:
REMARK  status: ('A' for Active; 'I' for Inactive)
REMARK    1  A    between atoms: C3_3  and  C9_9 
ROOT
HETATM    1  C1  UNL     1     -31.824   7.243   1.406  1.00 20.00     0.017 A 
HETATM    2  C2  UNL     1     -31.552   8.324   0.517  1.00 20.00     0.032 A 
HETATM    3  C3  UNL     1     -32.807   7.559   2.318  1.00 20.00    -0.011 A 
HETATM    4  C4  UNL     1     -32.336   9.424   0.785  1.00 20.00     0.075 A 
HETATM    5  S11 UNL     1     -33.396   9.153   2.103  1.00 20.00    -0.082 SA
HETATM    6 CL12 UNL     1     -32.343  10.933  -0.028  1.00 20.00    -0.076 Cl
ENDROOT
BRANCH   3   7
HETATM    7  C9  UNL     1     -33.379   6.697   3.420  1.00 20.00     0.033 C 
HETATM    8  C7  UNL     1     -33.102   5.200   3.246  1.00 20.00     0.088 C 
HETATM    9  C5  UNL     1     -34.216   4.589   4.058  1.00 20.00     0.127 C 
HETATM   10  C6  UNL     1     -35.269   5.597   4.439  1.00 20.00     0.079 C 
HETATM   11  O10 UNL     1     -34.259   3.406   4.374  1.00 20.00    -0.298 OA
HETATM   12  C8  UNL     1     -34.903   6.785   3.555  1.00 20.00     0.018 C 
ENDBRANCH   3   7
TORSDOF 1
ENDMDL
MODEL 2
REMARK VINA RESULT:       0.9      3.842      5.627
REMARK  1 active torsions:
REMARK  status: ('A' for Active; 'I' for Inactive)
REMARK    1  A    between atoms: C3_3  and  C9_9 
ROOT
HETATM    1  C1  UNL     1     -34.104   7.588   3.678  1.00 20.00     0.017 A 
HETATM    2  C2  UNL     1     -34.602   6.379   4.245  1.00 20.00     0.032 A 
HETATM    3  C3  UNL     1     -33.088   7.356   2.777  1.00 20.00    -0.011 A 
HETATM    4  C4  UNL     1     -33.947   5.270   3.756  1.00 20.00     0.075 A 
HETATM    5  S11 UNL     1     -32.738   5.687   2.618  1.00 20.00    -0.082 SA
HETATM    6 CL12 UNL     1     -34.219   3.627   4.160  1.00 20.00    -0.076 Cl
ENDROOT
BRANCH   3   7
HETATM    7  C9  UNL     1     -32.302   8.362   1.968  1.00 20.00     0.033 C 
HETATM    8  C7  UNL     1     -33.159   9.471   1.350  1.00 20.00     0.088 C 
HETATM    9  C5  UNL     1     -32.297   9.914   0.195  1.00 20.00     0.127 C 
HETATM   10  C6  UNL     1     -31.158   8.962  -0.070  1.00 20.00     0.079 C 
HETATM   11  O10 UNL     1     -32.496  10.935  -0.452  1.00 20.00    -0.298 OA
HETATM   12  C8  UNL     1     -31.552   7.756   0.776  1.00 20.00     0.018 C 
ENDBRANCH   3   7
TORSDOF 1
ENDMDL
MODEL 3
REMARK VINA RESULT:       1.5      3.724      5.480
REMARK  1 active torsions:
REMARK  status: ('A' for Active; 'I' for Inactive)
REMARK    1  A    between atoms: C3_3  and  C9_9 
ROOT
HETATM    1  C1  UNL     1     -32.779   5.639   2.080  1.00 20.00     0.017 A 
HETATM    2  C2  UNL     1     -33.659   4.841   2.867  1.00 20.00     0.032 A 
HETATM    3  C3  UNL     1     -32.892   6.980   2.378  1.00 20.00    -0.011 A 
HETATM    4  C4  UNL     1     -34.411   5.601   3.736  1.00 20.00     0.075 A 
HETATM    5  S11 UNL     1     -34.055   7.270   3.601  1.00 20.00    -0.082 SA
HETATM    6 CL12 UNL     1     -35.586   5.059   4.859  1.00 20.00    -0.076 Cl
ENDROOT
BRANCH   3   7
HETATM    7  C9  UNL     1     -32.142   8.144   1.772  1.00 20.00     0.033 C 
HETATM    8  C7  UNL     1     -33.033   9.336   1.408  1.00 20.00     0.088 C 
HETATM    9  C5  UNL     1     -32.206  10.021   0.350  1.00 20.00     0.127 C 
HETATM   10  C6  UNL     1     -31.059   9.167  -0.125  1.00 20.00     0.079 C 
HETATM   11  O10 UNL     1     -32.438  11.147  -0.075  1.00 20.00    -0.298 OA
HETATM   12  C8  UNL     1     -31.412   7.806   0.468  1.00 20.00     0.018 C 
ENDBRANCH   3   7
TORSDOF 1
ENDMDL
MODEL 4
REMARK VINA RESULT:       1.8      1.197      1.426
REMARK  1 active torsions:
REMARK  status: ('A' for Active; 'I' for Inactive)
REMARK    1  A    between atoms: C3_3  and  C9_9 
ROOT
HETATM    1  C1  UNL     1     -33.379   9.011   2.299  1.00 20.00     0.017 A 
HETATM    2  C2  UNL     1     -32.676   9.595   1.205  1.00 20.00     0.032 A 
HETATM    3  C3  UNL     1     -33.024   7.695   2.498  1.00 20.00    -0.011 A 
HETATM    4  C4  UNL     1     -31.811   8.703   0.610  1.00 20.00     0.075 A 
HETATM    5  S11 UNL     1     -31.849   7.169   1.370  1.00 20.00    -0.082 SA
HETATM    6 CL12 UNL     1     -30.776   8.976  -0.727  1.00 20.00    -0.076 Cl
ENDROOT
BRANCH   3   7
HETATM    7  C9  UNL     1     -33.536   6.732   3.545  1.00 20.00     0.033 C 
HETATM    8  C7  UNL     1     -33.131   5.275   3.300  1.00 20.00     0.088 C 
HETATM    9  C5  UNL     1     -34.199   4.531   4.060  1.00 20.00     0.127 C 
HETATM   10  C6  UNL     1     -35.339   5.427   4.475  1.00 20.00     0.079 C 
HETATM   11  O10 UNL     1     -34.146   3.334   4.316  1.00 20.00    -0.298 OA
HETATM   12  C8  UNL     1     -35.063   6.686   3.659  1.00 20.00     0.018 C 
ENDBRANCH   3   7
TORSDOF 1
ENDMDL
MODEL 5
REMARK VINA RESULT:       2.0      3.906      5.476
REMARK  1 active torsions:
REMARK  status: ('A' for Active; 'I' for Inactive)
REMARK    1  A    between atoms: C3_3  and  C9_9 
ROOT
HETATM    1  C1  UNL     1     -34.896   5.915   3.974  1.00 20.00     0.017 A 
HETATM    2  C2  UNL     1     -34.916   4.628   4.584  1.00 20.00     0.032 A 
HETATM    3  C3  UNL     1     -33.796   6.087   3.163  1.00 20.00    -0.011 A 
HETATM    4  C4  UNL     1     -33.829   3.865   4.217  1.00 20.00     0.075 A 
HETATM    5  S11 UNL     1     -32.792   4.700   3.141  1.00 20.00    -0.082 SA
HETATM    6 CL12 UNL     1     -33.453   2.267   4.710  1.00 20.00    -0.076 Cl
ENDROOT
BRANCH   3   7
HETATM    7  C9  UNL     1     -33.410   7.298   2.345  1.00 20.00     0.033 C 
HETATM    8  C7  UNL     1     -32.422   6.996   1.214  1.00 20.00     0.088 C 
HETATM    9  C5  UNL     1     -31.788   8.346   0.996  1.00 20.00     0.127 C 
HETATM   10  C6  UNL     1     -32.121   9.322   2.096  1.00 20.00     0.079 C 
HETATM   11  O10 UNL     1     -31.084   8.621   0.031  1.00 20.00    -0.298 OA
HETATM   12  C8  UNL     1     -32.730   8.408   3.154  1.00 20.00     0.018 C 
ENDBRANCH   3   7
TORSDOF 1
ENDMDL
MODEL 6
REMARK VINA RESULT:       2.9      0.989      1.527
REMARK  1 active torsions:
REMARK  status: ('A' for Active; 'I' for Inactive)
REMARK    1  A    between atoms: C3_3  and  C9_9 
ROOT
HETATM    1  C1  UNL     1     -31.679   6.771   1.388  1.00 20.00     0.017 A 
HETATM    2  C2  UNL     1     -31.281   8.041   0.879  1.00 20.00     0.032 A 
HETATM    3  C3  UNL     1     -32.946   6.804   1.928  1.00 20.00    -0.011 A 
HETATM    4  C4  UNL     1     -32.257   8.997   1.052  1.00 20.00     0.075 A 
HETATM    5  S11 UNL     1     -33.648   8.363   1.822  1.00 20.00    -0.082 SA
HETATM    6 CL12 UNL     1     -32.204  10.647   0.594  1.00 20.00    -0.076 Cl
ENDROOT
BRANCH   3   7
HETATM    7  C9  UNL     1     -33.727   5.678   2.565  1.00 20.00     0.033 C 
HETATM    8  C7  UNL     1     -34.735   6.139   3.623  1.00 20.00     0.088 C 
HETATM    9  C5  UNL     1     -34.893   4.892   4.455  1.00 20.00     0.127 C 
HETATM   10  C6  UNL     1     -33.849   3.852   4.137  1.00 20.00     0.079 C 
HETATM   11  O10 UNL     1     -35.774   4.739   5.294  1.00 20.00    -0.298 OA
HETATM   12  C8  UNL     1     -32.858   4.648   3.294  1.00 20.00     0.018 C 
ENDBRANCH   3   7
TORSDOF 1
ENDMDL
