MODEL 1
REMARK VINA RESULT:      -2.8      0.000      0.000
REMARK  0 active torsions:
REMARK  status: ('A' for Active; 'I' for Inactive)
ROOT
HETATM    1  C1  UNL     1     -35.290   6.129   4.074  1.00 20.00     0.017 C 
HETATM    2  C2  UNL     1     -34.385   6.783   3.634  1.00 20.00    -0.090 C 
HETATM    3  C3  UNL     1     -33.314   7.563   3.119  1.00 20.00     0.059 C 
HETATM    4  C4  UNL     1     -32.546   7.125   2.112  1.00 20.00    -0.022 C 
HETATM    5  C5  UNL     1     -32.731   5.804   1.443  1.00 20.00     0.036 C 
ENDROOT
TORSDOF 0
ENDMDL
MODEL 2
REMARK VINA RESULT:      -2.8      0.465      2.757
REMARK  0 active torsions:
REMARK  status: ('A' for Active; 'I' for Inactive)
ROOT
HETATM    1  C1  UNL     1     -32.652   5.685   1.273  1.00 20.00     0.017 C 
HETATM    2  C2  UNL     1     -32.901   6.518   2.101  1.00 20.00    -0.090 C 
HETATM    3  C3  UNL     1     -33.190   7.508   3.077  1.00 20.00     0.059 C 
HETATM    4  C4  UNL     1     -34.210   7.374   3.936  1.00 20.00    -0.022 C 
HETATM    5  C5  UNL     1     -35.126   6.195   3.955  1.00 20.00     0.036 C 
ENDROOT
TORSDOF 0
ENDMDL
MODEL 3
REMARK VINA RESULT:      -2.7      1.744      2.919
REMARK  0 active torsions:
REMARK  status: ('A' for Active; 'I' for Inactive)
ROOT
HETATM    1  C1  UNL     1     -33.539   3.521   4.243  1.00 20.00     0.017 C 
HETATM    2  C2  UNL     1     -34.357   4.399   4.265  1.00 20.00    -0.090 C 
HETATM    3  C3  UNL     1     -35.330   5.434   4.295  1.00 20.00     0.059 C 
HETATM    4  C4  UNL     1     -35.029   6.693   3.950  1.00 20.00    -0.022 C 
HETATM    5  C5  UNL     1     -33.670   7.129   3.510  1.00 20.00     0.036 C 
ENDROOT
TORSDOF 0
ENDMDL
MODEL 4
REMARK VINA RESULT:      -2.7      0.933      1.533
REMARK  0 active torsions:
REMARK  status: ('A' for Active; 'I' for Inactive)
ROOT
HETATM    1  C1  UNL     1     -34.674   6.913   4.032  1.00 20.00     0.017 C 
HETATM    2  C2  UNL     1     -33.983   6.448   3.168  1.00 20.00    -0.090 C 
HETATM    3  C3  UNL     1     -33.169   5.889   2.146  1.00 20.00     0.059 C 
HETATM    4  C4  UNL     1     -32.242   6.617   1.508  1.00 20.00    -0.022 C 
HETATM    5  C5  UNL     1     -31.976   8.057   1.799  1.00 20.00     0.036 C 
ENDROOT
TORSDOF 0
ENDMDL
MODEL 5
REMARK VINA RESULT:      -2.6      1.075      3.158
REMARK  0 active torsions:
REMARK  status: ('A' for Active; 'I' for Inactive)
ROOT
HETATM    1  C1  UNL     1     -31.810   8.265   1.510  1.00 20.00     0.017 C 
HETATM    2  C2  UNL     1     -32.448   7.310   1.856  1.00 20.00    -0.090 C 
HETATM    3  C3  UNL     1     -33.200   6.174   2.261  1.00 20.00     0.059 C 
HETATM    4  C4  UNL     1     -34.043   6.223   3.303  1.00 20.00    -0.022 C 
HETATM    5  C5  UNL     1     -34.272   7.447   4.125  1.00 20.00     0.036 C 
ENDROOT
TORSDOF 0
ENDMDL
MODEL 6
REMARK VINA RESULT:      -2.4      1.188      2.885
REMARK  0 active torsions:
REMARK  status: ('A' for Active; 'I' for Inactive)
ROOT
HETATM    1  C1  UNL     1     -32.998   7.450   2.820  1.00 20.00     0.017 C 
HETATM    2  C2  UNL     1     -33.959   6.984   3.367  1.00 20.00    -0.090 C 
HETATM    3  C3  UNL     1     -35.101   6.439   4.013  1.00 20.00     0.059 C 
HETATM    4  C4  UNL     1     -35.156   5.150   4.375  1.00 20.00    -0.022 C 
HETATM    5  C5  UNL     1     -34.049   4.176   4.141  1.00 20.00     0.036 C 
ENDROOT
TORSDOF 0
ENDMDL
MODEL 7
REMARK VINA RESULT:      -2.3      1.063      2.724
REMARK  0 active torsions:
REMARK  status: ('A' for Active; 'I' for Inactive)
ROOT
HETATM    1  C1  UNL     1     -32.083   7.626   1.899  1.00 20.00     0.017 C 
HETATM    2  C2  UNL     1     -32.976   7.607   2.701  1.00 20.00    -0.090 C 
HETATM    3  C3  UNL     1     -34.032   7.593   3.651  1.00 20.00     0.059 C 
HETATM    4  C4  UNL     1     -34.606   6.448   4.048  1.00 20.00    -0.022 C 
HETATM    5  C5  UNL     1     -34.203   5.102   3.544  1.00 20.00     0.036 C 
ENDROOT
TORSDOF 0
ENDMDL
MODEL 8
REMARK VINA RESULT:      -2.0      1.690      2.530
REMARK  0 active torsions:
REMARK  status: ('A' for Active; 'I' for Inactive)
ROOT
HETATM    1  C1  UNL     1     -33.844   7.600   3.558  1.00 20.00     0.017 C 
HETATM    2  C2  UNL     1     -32.971   7.591   2.735  1.00 20.00    -0.090 C 
HETATM    3  C3  UNL     1     -31.935   7.573   1.764  1.00 20.00     0.059 C 
HETATM    4  C4  UNL     1     -31.783   8.566   0.877  1.00 20.00    -0.022 C 
HETATM    5  C5  UNL     1     -32.668   9.768   0.821  1.00 20.00     0.036 C 
ENDROOT
TORSDOF 0
ENDMDL
MODEL 9
REMARK VINA RESULT:      -2.0      2.341      3.917
REMARK  0 active torsions:
REMARK  status: ('A' for Active; 'I' for Inactive)
ROOT
HETATM    1  C1  UNL     1     -32.748  10.559   0.333  1.00 20.00     0.017 C 
HETATM    2  C2  UNL     1     -32.249   9.492   0.565  1.00 20.00    -0.090 C 
HETATM    3  C3  UNL     1     -31.652   8.231   0.832  1.00 20.00     0.059 C 
HETATM    4  C4  UNL     1     -32.032   7.480   1.875  1.00 20.00    -0.022 C 
HETATM    5  C5  UNL     1     -33.096   7.883   2.841  1.00 20.00     0.036 C 
ENDROOT
TORSDOF 0
ENDMDL
