MODEL 1
REMARK VINA RESULT:      -0.9      0.000      0.000
REMARK  2 active torsions:
REMARK  status: ('A' for Active; 'I' for Inactive)
REMARK    1  A    between atoms: C1_1  and  C3_3 
REMARK    2  A    between atoms: C2_2  and  C8_8 
ROOT
HETATM    1  C4  UNL     1     -35.411   6.635   3.858  1.00 20.00     0.011 C 
HETATM    2  C5  UNL     1     -34.036   7.287   3.971  1.00 20.00     0.010 C 
HETATM    3  C6  UNL     1     -35.445   5.215   4.419  1.00 20.00     0.074 C 
HETATM    4  C7  UNL     1     -33.279   5.170   2.694  1.00 20.00     0.082 C 
HETATM    5  C8  UNL     1     -32.982   6.634   3.055  1.00 20.00     0.017 C 
HETATM    6  S11 UNL     1     -33.952   4.226   4.091  1.00 20.00    -0.168 SA
ENDROOT
BRANCH   5   7
HETATM    7  C2  UNL     1     -32.795   7.427   1.790  1.00 20.00    -0.018 C 
HETATM    8  C1  UNL     1     -31.985   8.490   1.701  1.00 20.00     0.046 C 
BRANCH   8   9
HETATM    9  C3  UNL     1     -31.846   9.233   0.417  1.00 20.00     0.145 C 
HETATM   10  C9  UNL     1     -32.734  10.433   0.226  1.00 20.00     0.096 C 
HETATM   11  O10 UNL     1     -31.057   8.883  -0.457  1.00 20.00    -0.294 OA
ENDBRANCH   8   9
ENDBRANCH   5   7
TORSDOF 2
ENDMDL
MODEL 2
REMARK VINA RESULT:       0.8      3.582      5.501
REMARK  2 active torsions:
REMARK  status: ('A' for Active; 'I' for Inactive)
REMARK    1  A    between atoms: C1_1  and  C3_3 
REMARK    2  A    between atoms: C2_2  and  C8_8 
ROOT
HETATM    1  C4  UNL     1     -32.891   8.070   4.020  1.00 20.00     0.011 C 
HETATM    2  C5  UNL     1     -34.233   7.379   3.791  1.00 20.00     0.010 C 
HETATM    3  C6  UNL     1     -32.286   8.636   2.737  1.00 20.00     0.074 C 
HETATM    4  C7  UNL     1     -32.874   6.014   2.067  1.00 20.00     0.082 C 
HETATM    5  C8  UNL     1     -34.107   6.074   2.981  1.00 20.00     0.017 C 
HETATM    6  S11 UNL     1     -32.524   7.601   1.258  1.00 20.00    -0.168 SA
ENDROOT
BRANCH   5   7
HETATM    7  C2  UNL     1     -34.112   4.871   3.884  1.00 20.00    -0.018 C 
HETATM    8  C1  UNL     1     -33.111   3.982   3.931  1.00 20.00     0.046 C 
BRANCH   8   9
HETATM    9  C3  UNL     1     -33.179   2.810   4.849  1.00 20.00     0.145 C 
HETATM   10  C9  UNL     1     -32.660   3.012   6.248  1.00 20.00     0.096 C 
HETATM   11  O10 UNL     1     -33.621   1.722   4.488  1.00 20.00    -0.294 OA
ENDBRANCH   8   9
ENDBRANCH   5   7
TORSDOF 2
ENDMDL
MODEL 3
REMARK VINA RESULT:       2.0      3.303      5.479
REMARK  2 active torsions:
REMARK  status: ('A' for Active; 'I' for Inactive)
REMARK    1  A    between atoms: C1_1  and  C3_3 
REMARK    2  A    between atoms: C2_2  and  C8_8 
ROOT
HETATM    1  C4  UNL     1     -32.196   8.549  -0.424  1.00 20.00     0.011 C 
HETATM    2  C5  UNL     1     -31.472   8.064   0.829  1.00 20.00     0.010 C 
HETATM    3  C6  UNL     1     -32.311  10.070  -0.493  1.00 20.00     0.074 C 
HETATM    4  C7  UNL     1     -33.280   9.467   2.030  1.00 20.00     0.082 C 
HETATM    5  C8  UNL     1     -32.276   8.309   2.122  1.00 20.00     0.017 C 
HETATM    6  S11 UNL     1     -32.632  10.886   1.103  1.00 20.00    -0.168 SA
ENDROOT
BRANCH   5   7
HETATM    7  C2  UNL     1     -32.996   7.062   2.558  1.00 20.00    -0.018 C 
HETATM    8  C1  UNL     1     -33.906   7.044   3.541  1.00 20.00     0.046 C 
BRANCH   8   9
HETATM    9  C3  UNL     1     -34.583   5.774   3.925  1.00 20.00     0.145 C 
HETATM   10  C9  UNL     1     -33.794   4.503   3.753  1.00 20.00     0.096 C 
HETATM   11  O10 UNL     1     -35.736   5.751   4.350  1.00 20.00    -0.294 OA
ENDBRANCH   8   9
ENDBRANCH   5   7
TORSDOF 2
ENDMDL
