MODEL 1
REMARK VINA RESULT:      -0.3      0.000      0.000
REMARK  2 active torsions:
REMARK  status: ('A' for Active; 'I' for Inactive)
REMARK    1  A    between atoms: C6_6  and  O11_11 
REMARK    2  A    between atoms: C9_9  and  O11_11 
ROOT
HETATM    1  C1  UNL     1     -32.966   4.808   0.647  1.00 20.00     0.002 C 
HETATM    2  C2  UNL     1     -33.565   6.238   0.609  1.00 20.00     0.015 C 
HETATM    3  C3  UNL     1     -31.794   5.380   1.486  1.00 20.00     0.015 C 
HETATM    4  C4  UNL     1     -33.258   8.019   3.227  1.00 20.00     0.069 C 
HETATM    5  C5  UNL     1     -32.138   7.883   2.157  1.00 20.00     0.173 C 
HETATM    6  C6  UNL     1     -33.393   6.471   3.210  1.00 20.00     0.135 C 
HETATM    7  C7  UNL     1     -32.723   6.525   1.839  1.00 20.00     0.015 C 
HETATM    8  O10 UNL     1     -32.233   8.853   1.150  1.00 20.00    -0.234 OA
ENDROOT
BRANCH   6   9
HETATM    9  O11 UNL     1     -34.733   5.952   3.286  1.00 20.00    -0.385 OA
BRANCH   9  10
HETATM   10  C9  UNL     1     -34.867   5.055   4.373  1.00 20.00     0.163 C 
HETATM   11  C8  UNL     1     -33.894   3.910   4.191  1.00 20.00     0.033 C 
ENDBRANCH   9  10
ENDBRANCH   6   9
TORSDOF 2
ENDMDL
MODEL 2
REMARK VINA RESULT:       0.1      1.275      3.711
REMARK  2 active torsions:
REMARK  status: ('A' for Active; 'I' for Inactive)
REMARK    1  A    between atoms: C6_6  and  O11_11 
REMARK    2  A    between atoms: C9_9  and  O11_11 
ROOT
HETATM    1  C1  UNL     1     -32.009   5.152   0.589  1.00 20.00     0.002 C 
HETATM    2  C2  UNL     1     -31.930   5.222   2.136  1.00 20.00     0.015 C 
HETATM    3  C3  UNL     1     -33.522   5.467   0.706  1.00 20.00     0.015 C 
HETATM    4  C4  UNL     1     -33.724   7.411   3.591  1.00 20.00     0.069 C 
HETATM    5  C5  UNL     1     -34.269   6.023   3.148  1.00 20.00     0.173 C 
HETATM    6  C6  UNL     1     -33.103   7.562   2.174  1.00 20.00     0.135 C 
HETATM    7  C7  UNL     1     -33.207   6.042   2.073  1.00 20.00     0.015 C 
HETATM    8  O10 UNL     1     -34.131   5.047   4.144  1.00 20.00    -0.234 OA
ENDROOT
BRANCH   6   9
HETATM    9  O11 UNL     1     -31.793   8.154   2.118  1.00 20.00    -0.385 OA
BRANCH   9  10
HETATM   10  C9  UNL     1     -31.553   8.731   0.848  1.00 20.00     0.163 C 
HETATM   11  C8  UNL     1     -32.590   9.803   0.589  1.00 20.00     0.033 C 
ENDBRANCH   9  10
ENDBRANCH   6   9
TORSDOF 2
ENDMDL
MODEL 3
REMARK VINA RESULT:       0.3      1.279      2.725
REMARK  2 active torsions:
REMARK  status: ('A' for Active; 'I' for Inactive)
REMARK    1  A    between atoms: C6_6  and  O11_11 
REMARK    2  A    between atoms: C9_9  and  O11_11 
ROOT
HETATM    1  C1  UNL     1     -34.226   7.625   4.760  1.00 20.00     0.002 C 
HETATM    2  C2  UNL     1     -32.811   7.626   4.125  1.00 20.00     0.015 C 
HETATM    3  C3  UNL     1     -34.811   7.636   3.325  1.00 20.00     0.015 C 
HETATM    4  C4  UNL     1     -32.409   5.938   1.457  1.00 20.00     0.069 C 
HETATM    5  C5  UNL     1     -32.988   7.381   1.470  1.00 20.00     0.173 C 
HETATM    6  C6  UNL     1     -33.403   5.583   2.599  1.00 20.00     0.135 C 
HETATM    7  C7  UNL     1     -33.474   7.085   2.870  1.00 20.00     0.015 C 
HETATM    8  O10 UNL     1     -31.994   8.362   1.350  1.00 20.00    -0.234 OA
ENDROOT
BRANCH   6   9
HETATM    9  O11 UNL     1     -32.893   4.733   3.640  1.00 20.00    -0.385 OA
BRANCH   9  10
HETATM   10  C9  UNL     1     -33.899   3.859   4.118  1.00 20.00     0.163 C 
HETATM   11  C8  UNL     1     -33.246   2.720   4.871  1.00 20.00     0.033 C 
ENDBRANCH   9  10
ENDBRANCH   6   9
TORSDOF 2
ENDMDL
MODEL 4
REMARK VINA RESULT:       1.0      1.572      4.363
REMARK  2 active torsions:
REMARK  status: ('A' for Active; 'I' for Inactive)
REMARK    1  A    between atoms: C6_6  and  O11_11 
REMARK    2  A    between atoms: C9_9  and  O11_11 
ROOT
HETATM    1  C1  UNL     1     -34.243   8.424   4.256  1.00 20.00     0.002 C 
HETATM    2  C2  UNL     1     -34.779   7.289   3.346  1.00 20.00     0.015 C 
HETATM    3  C3  UNL     1     -33.033   7.515   4.587  1.00 20.00     0.015 C 
HETATM    4  C4  UNL     1     -32.638   5.608   1.698  1.00 20.00     0.069 C 
HETATM    5  C5  UNL     1     -32.990   5.311   3.183  1.00 20.00     0.173 C 
HETATM    6  C6  UNL     1     -32.492   7.107   2.085  1.00 20.00     0.135 C 
HETATM    7  C7  UNL     1     -33.351   6.774   3.303  1.00 20.00     0.015 C 
HETATM    8  O10 UNL     1     -34.043   4.397   3.314  1.00 20.00    -0.234 OA
ENDROOT
BRANCH   6   9
HETATM    9  O11 UNL     1     -33.007   8.058   1.137  1.00 20.00    -0.385 OA
BRANCH   9  10
HETATM   10  C9  UNL     1     -32.076   9.099   0.908  1.00 20.00     0.163 C 
HETATM   11  C8  UNL     1     -32.619  10.020  -0.164  1.00 20.00     0.033 C 
ENDBRANCH   9  10
ENDBRANCH   6   9
TORSDOF 2
ENDMDL
MODEL 5
REMARK VINA RESULT:       1.1      1.611      4.189
REMARK  2 active torsions:
REMARK  status: ('A' for Active; 'I' for Inactive)
REMARK    1  A    between atoms: C6_6  and  O11_11 
REMARK    2  A    between atoms: C9_9  and  O11_11 
ROOT
HETATM    1  C1  UNL     1     -34.494   8.344   3.615  1.00 20.00     0.002 C 
HETATM    2  C2  UNL     1     -35.332   7.093   3.245  1.00 20.00     0.015 C 
HETATM    3  C3  UNL     1     -33.793   7.486   4.699  1.00 20.00     0.015 C 
HETATM    4  C4  UNL     1     -33.869   4.269   3.361  1.00 20.00     0.069 C 
HETATM    5  C5  UNL     1     -34.475   4.964   4.613  1.00 20.00     0.173 C 
HETATM    6  C6  UNL     1     -33.182   5.619   3.007  1.00 20.00     0.135 C 
HETATM    7  C7  UNL     1     -34.233   6.275   3.900  1.00 20.00     0.015 C 
HETATM    8  O10 UNL     1     -35.813   4.611   4.831  1.00 20.00    -0.234 OA
ENDROOT
BRANCH   6   9
HETATM    9  O11 UNL     1     -33.165   5.973   1.613  1.00 20.00    -0.385 OA
BRANCH   9  10
HETATM   10  C9  UNL     1     -31.895   6.468   1.232  1.00 20.00     0.163 C 
HETATM   11  C8  UNL     1     -31.836   7.952   1.524  1.00 20.00     0.033 C 
ENDBRANCH   9  10
ENDBRANCH   6   9
TORSDOF 2
ENDMDL
MODEL 6
REMARK VINA RESULT:       1.3      1.901      2.910
REMARK  2 active torsions:
REMARK  status: ('A' for Active; 'I' for Inactive)
REMARK    1  A    between atoms: C6_6  and  O11_11 
REMARK    2  A    between atoms: C9_9  and  O11_11 
ROOT
HETATM    1  C1  UNL     1     -32.411   6.652   1.904  1.00 20.00     0.002 C 
HETATM    2  C2  UNL     1     -33.838   6.071   1.733  1.00 20.00     0.015 C 
HETATM    3  C3  UNL     1     -32.898   7.318   3.216  1.00 20.00     0.015 C 
HETATM    4  C4  UNL     1     -35.357   5.135   4.367  1.00 20.00     0.069 C 
HETATM    5  C5  UNL     1     -35.324   6.613   3.886  1.00 20.00     0.173 C 
HETATM    6  C6  UNL     1     -33.817   5.084   4.157  1.00 20.00     0.135 C 
HETATM    7  C7  UNL     1     -34.004   6.281   3.227  1.00 20.00     0.015 C 
HETATM    8  O10 UNL     1     -36.387   6.925   3.029  1.00 20.00    -0.234 OA
ENDROOT
BRANCH   6   9
HETATM    9  O11 UNL     1     -33.295   3.868   3.594  1.00 20.00    -0.385 OA
BRANCH   9  10
HETATM   10  C9  UNL     1     -33.348   2.812   4.535  1.00 20.00     0.163 C 
HETATM   11  C8  UNL     1     -32.560   3.208   5.766  1.00 20.00     0.033 C 
ENDBRANCH   9  10
ENDBRANCH   6   9
TORSDOF 2
ENDMDL
MODEL 7
REMARK VINA RESULT:       1.3      1.839      2.846
REMARK  2 active torsions:
REMARK  status: ('A' for Active; 'I' for Inactive)
REMARK    1  A    between atoms: C6_6  and  O11_11 
REMARK    2  A    between atoms: C9_9  and  O11_11 
ROOT
HETATM    1  C1  UNL     1     -31.905   9.015   1.173  1.00 20.00     0.002 C 
HETATM    2  C2  UNL     1     -31.208   7.774   1.788  1.00 20.00     0.015 C 
HETATM    3  C3  UNL     1     -32.820   8.043   0.385  1.00 20.00     0.015 C 
HETATM    4  C4  UNL     1     -33.037   5.262   2.472  1.00 20.00     0.069 C 
HETATM    5  C5  UNL     1     -32.474   5.540   1.050  1.00 20.00     0.173 C 
HETATM    6  C6  UNL     1     -33.500   6.746   2.524  1.00 20.00     0.135 C 
HETATM    7  C7  UNL     1     -32.466   7.003   1.430  1.00 20.00     0.015 C 
HETATM    8  O10 UNL     1     -31.224   4.944   0.840  1.00 20.00    -0.234 OA
ENDROOT
BRANCH   6   9
HETATM    9  O11 UNL     1     -33.329   7.418   3.784  1.00 20.00    -0.385 OA
BRANCH   9  10
HETATM   10  C9  UNL     1     -34.555   7.496   4.486  1.00 20.00     0.163 C 
HETATM   11  C8  UNL     1     -35.451   6.359   4.042  1.00 20.00     0.033 C 
ENDBRANCH   9  10
ENDBRANCH   6   9
TORSDOF 2
ENDMDL
MODEL 8
REMARK VINA RESULT:       1.7      1.880      4.371
REMARK  2 active torsions:
REMARK  status: ('A' for Active; 'I' for Inactive)
REMARK    1  A    between atoms: C6_6  and  O11_11 
REMARK    2  A    between atoms: C9_9  and  O11_11 
ROOT
HETATM    1  C1  UNL     1     -34.231   8.009   4.294  1.00 20.00     0.002 C 
HETATM    2  C2  UNL     1     -34.449   7.244   2.963  1.00 20.00     0.015 C 
HETATM    3  C3  UNL     1     -32.786   7.449   4.317  1.00 20.00     0.015 C 
HETATM    4  C4  UNL     1     -31.997   7.108   0.940  1.00 20.00     0.069 C 
HETATM    5  C5  UNL     1     -32.159   6.138   2.145  1.00 20.00     0.173 C 
HETATM    6  C6  UNL     1     -32.289   8.285   1.914  1.00 20.00     0.135 C 
HETATM    7  C7  UNL     1     -32.937   7.243   2.823  1.00 20.00     0.015 C 
HETATM    8  O10 UNL     1     -32.878   4.982   1.813  1.00 20.00    -0.234 OA
ENDROOT
BRANCH   6   9
HETATM    9  O11 UNL     1     -33.119   9.340   1.399  1.00 20.00    -0.385 OA
BRANCH   9  10
HETATM   10  C9  UNL     1     -32.355  10.260   0.641  1.00 20.00     0.163 C 
HETATM   11  C8  UNL     1     -32.740  10.137  -0.818  1.00 20.00     0.033 C 
ENDBRANCH   9  10
ENDBRANCH   6   9
TORSDOF 2
ENDMDL
MODEL 9
REMARK VINA RESULT:       2.0      1.738      3.072
REMARK  2 active torsions:
REMARK  status: ('A' for Active; 'I' for Inactive)
REMARK    1  A    between atoms: C6_6  and  O11_11 
REMARK    2  A    between atoms: C9_9  and  O11_11 
ROOT
HETATM    1  C1  UNL     1     -31.696   8.643   0.983  1.00 20.00     0.002 C 
HETATM    2  C2  UNL     1     -33.184   8.578   1.415  1.00 20.00     0.015 C 
HETATM    3  C3  UNL     1     -31.324   8.069   2.373  1.00 20.00     0.015 C 
HETATM    4  C4  UNL     1     -34.077   6.100   3.201  1.00 20.00     0.069 C 
HETATM    5  C5  UNL     1     -33.407   7.374   3.790  1.00 20.00     0.173 C 
HETATM    6  C6  UNL     1     -32.954   6.069   2.126  1.00 20.00     0.135 C 
HETATM    7  C7  UNL     1     -32.746   7.548   2.442  1.00 20.00     0.015 C 
HETATM    8  O10 UNL     1     -34.341   8.353   4.157  1.00 20.00    -0.234 OA
ENDROOT
BRANCH   6   9
HETATM    9  O11 UNL     1     -33.365   5.715   0.793  1.00 20.00    -0.385 OA
BRANCH   9  10
HETATM   10  C9  UNL     1     -32.643   4.592   0.323  1.00 20.00     0.163 C 
HETATM   11  C8  UNL     1     -31.279   4.573   0.978  1.00 20.00     0.033 C 
ENDBRANCH   9  10
ENDBRANCH   6   9
TORSDOF 2
ENDMDL
