MODEL 1
REMARK VINA RESULT:      -0.0      0.000      0.000
REMARK  2 active torsions:
REMARK  status: ('A' for Active; 'I' for Inactive)
REMARK    1  A    between atoms: C6_6  and  C8_8 
REMARK    2  A    between atoms: C7_7  and  C9_9 
ROOT
HETATM    1  C1  UNL     1     -34.323   5.111   3.828  1.00 20.00     0.132 C 
HETATM    2  C2  UNL     1     -35.481   6.260   4.157  1.00 20.00     0.084 C 
HETATM    3  C6  UNL     1     -33.776   6.142   2.834  1.00 20.00     0.064 C 
HETATM    4  C7  UNL     1     -34.215   7.171   3.966  1.00 20.00     0.008 C 
HETATM    5  O10 UNL     1     -34.023   4.000   4.184  1.00 20.00    -0.298 OA
ENDROOT
BRANCH   3   6
HETATM    6  C8  UNL     1     -32.421   6.729   2.436  1.00 20.00    -0.003 C 
HETATM    7  C3  UNL     1     -31.657   5.502   1.869  1.00 20.00     0.006 C 
HETATM    8  C4  UNL     1     -32.523   5.133   0.638  1.00 20.00     0.005 C 
HETATM    9  C9  UNL     1     -33.455   6.347   0.477  1.00 20.00    -0.009 C 
HETATM   10  C5  UNL     1     -32.619   7.482   1.115  1.00 20.00     0.010 C 
ENDBRANCH   3   6
TORSDOF 2
ENDMDL
MODEL 2
REMARK VINA RESULT:       0.3      3.090      4.659
REMARK  2 active torsions:
REMARK  status: ('A' for Active; 'I' for Inactive)
REMARK    1  A    between atoms: C6_6  and  C8_8 
REMARK    2  A    between atoms: C7_7  and  C9_9 
ROOT
HETATM    1  C1  UNL     1     -32.635  10.281   0.716  1.00 20.00     0.132 C 
HETATM    2  C2  UNL     1     -32.638   9.787  -0.873  1.00 20.00     0.084 C 
HETATM    3  C6  UNL     1     -32.418   8.797   1.036  1.00 20.00     0.064 C 
HETATM    4  C7  UNL     1     -31.525   8.849  -0.281  1.00 20.00     0.008 C 
HETATM    5  O10 UNL     1     -32.740  11.301   1.347  1.00 20.00    -0.298 OA
ENDROOT
BRANCH   3   6
HETATM    6  C8  UNL     1     -31.527   7.948   1.943  1.00 20.00    -0.003 C 
HETATM    7  C3  UNL     1     -32.162   8.143   3.346  1.00 20.00     0.006 C 
HETATM    8  C4  UNL     1     -33.565   7.516   3.146  1.00 20.00     0.005 C 
HETATM    9  C9  UNL     1     -33.442   6.781   1.801  1.00 20.00    -0.009 C 
HETATM   10  C5  UNL     1     -31.925   6.483   1.733  1.00 20.00     0.010 C 
ENDBRANCH   3   6
TORSDOF 2
ENDMDL
MODEL 3
REMARK VINA RESULT:       0.8      1.860      3.844
REMARK  2 active torsions:
REMARK  status: ('A' for Active; 'I' for Inactive)
REMARK    1  A    between atoms: C6_6  and  C8_8 
REMARK    2  A    between atoms: C7_7  and  C9_9 
ROOT
HETATM    1  C1  UNL     1     -32.412   6.919   1.590  1.00 20.00     0.132 C 
HETATM    2  C2  UNL     1     -32.469   5.516   0.697  1.00 20.00     0.084 C 
HETATM    3  C6  UNL     1     -33.444   6.230   2.490  1.00 20.00     0.064 C 
HETATM    4  C7  UNL     1     -32.578   4.937   2.155  1.00 20.00     0.008 C 
HETATM    5  O10 UNL     1     -31.841   7.980   1.573  1.00 20.00    -0.298 OA
ENDROOT
BRANCH   3   6
HETATM    6  C8  UNL     1     -33.689   6.021   3.985  1.00 20.00    -0.003 C 
HETATM    7  C3  UNL     1     -33.659   7.465   4.553  1.00 20.00     0.006 C 
HETATM    8  C4  UNL     1     -34.876   8.109   3.842  1.00 20.00     0.005 C 
HETATM    9  C9  UNL     1     -35.611   6.906   3.228  1.00 20.00    -0.009 C 
HETATM   10  C5  UNL     1     -35.187   5.753   4.169  1.00 20.00     0.010 C 
ENDBRANCH   3   6
TORSDOF 2
ENDMDL
MODEL 4
REMARK VINA RESULT:       1.1      2.166      3.029
REMARK  2 active torsions:
REMARK  status: ('A' for Active; 'I' for Inactive)
REMARK    1  A    between atoms: C6_6  and  C8_8 
REMARK    2  A    between atoms: C7_7  and  C9_9 
ROOT
HETATM    1  C1  UNL     1     -32.850   6.452   1.810  1.00 20.00     0.132 C 
HETATM    2  C2  UNL     1     -33.930   6.755   3.040  1.00 20.00     0.084 C 
HETATM    3  C6  UNL     1     -32.769   7.978   1.685  1.00 20.00     0.064 C 
HETATM    4  C7  UNL     1     -32.893   7.914   3.271  1.00 20.00     0.008 C 
HETATM    5  O10 UNL     1     -32.346   5.506   1.261  1.00 20.00    -0.298 OA
ENDROOT
BRANCH   3   6
HETATM    6  C8  UNL     1     -31.690   9.050   1.534  1.00 20.00    -0.003 C 
HETATM    7  C3  UNL     1     -31.097   8.758   0.129  1.00 20.00     0.006 C 
HETATM    8  C4  UNL     1     -32.318   9.019  -0.789  1.00 20.00     0.005 C 
HETATM    9  C9  UNL     1     -33.327   9.713   0.143  1.00 20.00    -0.009 C 
HETATM   10  C5  UNL     1     -32.398  10.367   1.194  1.00 20.00     0.010 C 
ENDBRANCH   3   6
TORSDOF 2
ENDMDL
MODEL 5
REMARK VINA RESULT:       1.2      1.608      2.285
REMARK  2 active torsions:
REMARK  status: ('A' for Active; 'I' for Inactive)
REMARK    1  A    between atoms: C6_6  and  C8_8 
REMARK    2  A    between atoms: C7_7  and  C9_9 
ROOT
HETATM    1  C1  UNL     1     -33.971   7.336   4.325  1.00 20.00     0.132 C 
HETATM    2  C2  UNL     1     -35.115   6.157   4.589  1.00 20.00     0.084 C 
HETATM    3  C6  UNL     1     -33.792   6.667   2.957  1.00 20.00     0.064 C 
HETATM    4  C7  UNL     1     -35.368   6.470   3.070  1.00 20.00     0.008 C 
HETATM    5  O10 UNL     1     -33.494   8.280   4.901  1.00 20.00    -0.298 OA
ENDROOT
BRANCH   3   6
HETATM    6  C8  UNL     1     -33.668   7.088   1.492  1.00 20.00    -0.003 C 
HETATM    7  C3  UNL     1     -32.471   8.076   1.509  1.00 20.00     0.006 C 
HETATM    8  C4  UNL     1     -31.308   7.154   1.956  1.00 20.00     0.005 C 
HETATM    9  C9  UNL     1     -31.902   5.740   1.830  1.00 20.00    -0.009 C 
HETATM   10  C5  UNL     1     -32.984   5.940   0.742  1.00 20.00     0.010 C 
ENDBRANCH   3   6
TORSDOF 2
ENDMDL
MODEL 6
REMARK VINA RESULT:       1.5      1.568      3.673
REMARK  2 active torsions:
REMARK  status: ('A' for Active; 'I' for Inactive)
REMARK    1  A    between atoms: C6_6  and  C8_8 
REMARK    2  A    between atoms: C7_7  and  C9_9 
ROOT
HETATM    1  C1  UNL     1     -32.840   6.122   1.376  1.00 20.00     0.132 C 
HETATM    2  C2  UNL     1     -31.363   6.886   1.409  1.00 20.00     0.084 C 
HETATM    3  C6  UNL     1     -33.136   6.929   2.646  1.00 20.00     0.064 C 
HETATM    4  C7  UNL     1     -32.303   8.052   1.884  1.00 20.00     0.008 C 
HETATM    5  O10 UNL     1     -33.431   5.323   0.696  1.00 20.00    -0.298 OA
ENDROOT
BRANCH   3   6
HETATM    6  C8  UNL     1     -34.277   7.770   3.219  1.00 20.00    -0.003 C 
HETATM    7  C3  UNL     1     -35.489   6.802   3.165  1.00 20.00     0.006 C 
HETATM    8  C4  UNL     1     -35.040   5.680   4.135  1.00 20.00     0.005 C 
HETATM    9  C9  UNL     1     -33.815   6.285   4.842  1.00 20.00    -0.009 C 
HETATM   10  C5  UNL     1     -34.101   7.803   4.741  1.00 20.00     0.010 C 
ENDBRANCH   3   6
TORSDOF 2
ENDMDL
MODEL 7
REMARK VINA RESULT:       1.7      1.692      3.000
REMARK  2 active torsions:
REMARK  status: ('A' for Active; 'I' for Inactive)
REMARK    1  A    between atoms: C6_6  and  C8_8 
REMARK    2  A    between atoms: C7_7  and  C9_9 
ROOT
HETATM    1  C1  UNL     1     -34.632   4.605   4.424  1.00 20.00     0.132 C 
HETATM    2  C2  UNL     1     -33.424   3.475   4.240  1.00 20.00     0.084 C 
HETATM    3  C6  UNL     1     -33.681   5.547   3.677  1.00 20.00     0.064 C 
HETATM    4  C7  UNL     1     -33.333   4.224   2.861  1.00 20.00     0.008 C 
HETATM    5  O10 UNL     1     -35.736   4.680   4.899  1.00 20.00    -0.298 OA
ENDROOT
BRANCH   3   6
HETATM    6  C8  UNL     1     -33.751   6.564   2.537  1.00 20.00    -0.003 C 
HETATM    7  C3  UNL     1     -34.863   7.542   3.006  1.00 20.00     0.006 C 
HETATM    8  C4  UNL     1     -34.236   8.139   4.291  1.00 20.00     0.005 C 
HETATM    9  C9  UNL     1     -32.768   7.684   4.220  1.00 20.00    -0.009 C 
HETATM   10  C5  UNL     1     -32.557   7.512   2.697  1.00 20.00     0.010 C 
ENDBRANCH   3   6
TORSDOF 2
ENDMDL
MODEL 8
REMARK VINA RESULT:       2.0      1.294      2.351
REMARK  2 active torsions:
REMARK  status: ('A' for Active; 'I' for Inactive)
REMARK    1  A    between atoms: C6_6  and  C8_8 
REMARK    2  A    between atoms: C7_7  and  C9_9 
ROOT
HETATM    1  C1  UNL     1     -34.729   5.814   3.769  1.00 20.00     0.132 C 
HETATM    2  C2  UNL     1     -34.175   4.524   4.661  1.00 20.00     0.084 C 
HETATM    3  C6  UNL     1     -33.482   5.583   2.909  1.00 20.00     0.064 C 
HETATM    4  C7  UNL     1     -33.803   4.053   3.209  1.00 20.00     0.008 C 
HETATM    5  O10 UNL     1     -35.660   6.578   3.765  1.00 20.00    -0.298 OA
ENDROOT
BRANCH   3   6
HETATM    6  C8  UNL     1     -33.123   5.506   1.424  1.00 20.00    -0.003 C 
HETATM    7  C3  UNL     1     -33.576   6.887   0.879  1.00 20.00     0.006 C 
HETATM    8  C4  UNL     1     -32.648   7.853   1.659  1.00 20.00     0.005 C 
HETATM    9  C9  UNL     1     -31.602   6.917   2.288  1.00 20.00    -0.009 C 
HETATM   10  C5  UNL     1     -31.609   5.720   1.308  1.00 20.00     0.010 C 
ENDBRANCH   3   6
TORSDOF 2
ENDMDL
MODEL 9
REMARK VINA RESULT:       2.3      2.517      3.511
REMARK  2 active torsions:
REMARK  status: ('A' for Active; 'I' for Inactive)
REMARK    1  A    between atoms: C6_6  and  C8_8 
REMARK    2  A    between atoms: C7_7  and  C9_9 
ROOT
HETATM    1  C1  UNL     1     -32.058   8.570   1.386  1.00 20.00     0.132 C 
HETATM    2  C2  UNL     1     -31.481   8.877   2.916  1.00 20.00     0.084 C 
HETATM    3  C6  UNL     1     -32.373   7.172   1.931  1.00 20.00     0.064 C 
HETATM    4  C7  UNL     1     -32.731   7.986   3.252  1.00 20.00     0.008 C 
HETATM    5  O10 UNL     1     -32.190   9.144   0.336  1.00 20.00    -0.298 OA
ENDROOT
BRANCH   3   6
HETATM    6  C8  UNL     1     -33.530   6.173   1.899  1.00 20.00    -0.003 C 
HETATM    7  C3  UNL     1     -33.445   5.580   0.467  1.00 20.00     0.006 C 
HETATM    8  C4  UNL     1     -32.063   4.879   0.497  1.00 20.00     0.005 C 
HETATM    9  C9  UNL     1     -31.690   4.885   1.990  1.00 20.00    -0.009 C 
HETATM   10  C5  UNL     1     -33.080   4.926   2.670  1.00 20.00     0.010 C 
ENDBRANCH   3   6
TORSDOF 2
ENDMDL
