MODEL 1
REMARK VINA RESULT:       0.1      0.000      0.000
REMARK  2 active torsions:
REMARK  status: ('A' for Active; 'I' for Inactive)
REMARK    1  A    between atoms: C6_6  and  O11_11 
REMARK    2  A    between atoms: C9_9  and  O11_11 
ROOT
HETATM    1  C1  UNL     1     -32.189   4.962   0.463  1.00 20.00     0.002 C 
HETATM    2  C2  UNL     1     -33.564   5.529   0.898  1.00 20.00     0.015 C 
HETATM    3  C3  UNL     1     -31.634   5.382   1.846  1.00 20.00     0.015 C 
HETATM    4  C4  UNL     1     -32.786   7.971   3.270  1.00 20.00     0.069 C 
HETATM    5  C5  UNL     1     -32.680   7.836   1.725  1.00 20.00     0.173 C 
HETATM    6  C6  UNL     1     -33.438   6.557   3.299  1.00 20.00     0.135 C 
HETATM    7  C7  UNL     1     -32.810   6.339   1.933  1.00 20.00     0.015 C 
HETATM    8  O10 UNL     1     -31.456   8.301   1.224  1.00 20.00    -0.234 OA
ENDROOT
BRANCH   6   9
HETATM    9  O11 UNL     1     -34.879   6.551   3.358  1.00 20.00    -0.385 OA
BRANCH   9  10
HETATM   10  C9  UNL     1     -35.342   5.627   4.324  1.00 20.00     0.163 C 
HETATM   11  C8  UNL     1     -34.423   4.424   4.335  1.00 20.00     0.033 C 
ENDBRANCH   9  10
ENDBRANCH   6   9
TORSDOF 2
ENDMDL
MODEL 2
REMARK VINA RESULT:       0.6      1.759      4.333
REMARK  2 active torsions:
REMARK  status: ('A' for Active; 'I' for Inactive)
REMARK    1  A    between atoms: C6_6  and  O11_11 
REMARK    2  A    between atoms: C9_9  and  O11_11 
ROOT
HETATM    1  C1  UNL     1     -34.412   7.681   4.545  1.00 20.00     0.002 C 
HETATM    2  C2  UNL     1     -34.497   7.975   3.026  1.00 20.00     0.015 C 
HETATM    3  C3  UNL     1     -32.906   7.377   4.351  1.00 20.00     0.015 C 
HETATM    4  C4  UNL     1     -31.912   6.090   1.628  1.00 20.00     0.069 C 
HETATM    5  C5  UNL     1     -33.310   5.793   2.239  1.00 20.00     0.173 C 
HETATM    6  C6  UNL     1     -32.183   7.605   1.866  1.00 20.00     0.135 C 
HETATM    7  C7  UNL     1     -33.225   7.165   2.881  1.00 20.00     0.015 C 
HETATM    8  O10 UNL     1     -33.301   4.689   3.102  1.00 20.00    -0.234 OA
ENDROOT
BRANCH   6   9
HETATM    9  O11 UNL     1     -32.666   8.326   0.714  1.00 20.00    -0.385 OA
BRANCH   9  10
HETATM   10  C9  UNL     1     -32.032   9.586   0.606  1.00 20.00     0.163 C 
HETATM   11  C8  UNL     1     -32.862  10.479  -0.293  1.00 20.00     0.033 C 
ENDBRANCH   9  10
ENDBRANCH   6   9
TORSDOF 2
ENDMDL
MODEL 3
REMARK VINA RESULT:       0.7      1.289      3.631
REMARK  2 active torsions:
REMARK  status: ('A' for Active; 'I' for Inactive)
REMARK    1  A    between atoms: C6_6  and  O11_11 
REMARK    2  A    between atoms: C9_9  and  O11_11 
ROOT
HETATM    1  C1  UNL     1     -32.463   4.445   0.559  1.00 20.00     0.002 C 
HETATM    2  C2  UNL     1     -31.622   5.532   1.273  1.00 20.00     0.015 C 
HETATM    3  C3  UNL     1     -33.694   5.374   0.702  1.00 20.00     0.015 C 
HETATM    4  C4  UNL     1     -33.929   7.272   3.232  1.00 20.00     0.069 C 
HETATM    5  C5  UNL     1     -33.240   5.880   3.285  1.00 20.00     0.173 C 
HETATM    6  C6  UNL     1     -33.105   7.577   1.947  1.00 20.00     0.135 C 
HETATM    7  C7  UNL     1     -32.929   6.074   1.813  1.00 20.00     0.015 C 
HETATM    8  O10 UNL     1     -34.130   4.847   3.614  1.00 20.00    -0.234 OA
ENDROOT
BRANCH   6   9
HETATM    9  O11 UNL     1     -31.908   8.352   2.160  1.00 20.00    -0.385 OA
BRANCH   9  10
HETATM   10  C9  UNL     1     -31.495   8.983   0.963  1.00 20.00     0.163 C 
HETATM   11  C8  UNL     1     -32.605   9.888   0.474  1.00 20.00     0.033 C 
ENDBRANCH   9  10
ENDBRANCH   6   9
TORSDOF 2
ENDMDL
MODEL 4
REMARK VINA RESULT:       0.9      1.536      2.985
REMARK  2 active torsions:
REMARK  status: ('A' for Active; 'I' for Inactive)
REMARK    1  A    between atoms: C6_6  and  O11_11 
REMARK    2  A    between atoms: C9_9  and  O11_11 
ROOT
HETATM    1  C1  UNL     1     -33.984   8.508   4.560  1.00 20.00     0.002 C 
HETATM    2  C2  UNL     1     -33.116   7.228   4.650  1.00 20.00     0.015 C 
HETATM    3  C3  UNL     1     -34.638   7.916   3.288  1.00 20.00     0.015 C 
HETATM    4  C4  UNL     1     -32.915   6.080   1.359  1.00 20.00     0.069 C 
HETATM    5  C5  UNL     1     -32.302   7.252   2.176  1.00 20.00     0.173 C 
HETATM    6  C6  UNL     1     -33.625   5.607   2.662  1.00 20.00     0.135 C 
HETATM    7  C7  UNL     1     -33.416   7.020   3.180  1.00 20.00     0.015 C 
HETATM    8  O10 UNL     1     -32.322   8.467   1.477  1.00 20.00    -0.234 OA
ENDROOT
BRANCH   6   9
HETATM    9  O11 UNL     1     -32.950   4.550   3.374  1.00 20.00    -0.385 OA
BRANCH   9  10
HETATM   10  C9  UNL     1     -33.869   3.780   4.125  1.00 20.00     0.163 C 
HETATM   11  C8  UNL     1     -33.106   2.753   4.934  1.00 20.00     0.033 C 
ENDBRANCH   9  10
ENDBRANCH   6   9
TORSDOF 2
ENDMDL
MODEL 5
REMARK VINA RESULT:       0.9      1.375      3.521
REMARK  2 active torsions:
REMARK  status: ('A' for Active; 'I' for Inactive)
REMARK    1  A    between atoms: C6_6  and  O11_11 
REMARK    2  A    between atoms: C9_9  and  O11_11 
ROOT
HETATM    1  C1  UNL     1     -35.417   5.365   4.457  1.00 20.00     0.002 C 
HETATM    2  C2  UNL     1     -33.994   4.987   3.975  1.00 20.00     0.015 C 
HETATM    3  C3  UNL     1     -35.436   6.471   3.373  1.00 20.00     0.015 C 
HETATM    4  C4  UNL     1     -32.732   7.933   2.589  1.00 20.00     0.069 C 
HETATM    5  C5  UNL     1     -33.018   7.402   4.022  1.00 20.00     0.173 C 
HETATM    6  C6  UNL     1     -33.209   6.557   2.037  1.00 20.00     0.135 C 
HETATM    7  C7  UNL     1     -33.920   6.372   3.368  1.00 20.00     0.015 C 
HETATM    8  O10 UNL     1     -33.637   8.357   4.840  1.00 20.00    -0.234 OA
ENDROOT
BRANCH   6   9
HETATM    9  O11 UNL     1     -32.154   5.623   1.732  1.00 20.00    -0.385 OA
BRANCH   9  10
HETATM   10  C9  UNL     1     -32.440   4.908   0.545  1.00 20.00     0.163 C 
HETATM   11  C8  UNL     1     -33.848   5.237   0.099  1.00 20.00     0.033 C 
ENDBRANCH   9  10
ENDBRANCH   6   9
TORSDOF 2
ENDMDL
MODEL 6
REMARK VINA RESULT:       1.4      1.887      3.174
REMARK  2 active torsions:
REMARK  status: ('A' for Active; 'I' for Inactive)
REMARK    1  A    between atoms: C6_6  and  O11_11 
REMARK    2  A    between atoms: C9_9  and  O11_11 
ROOT
HETATM    1  C1  UNL     1     -32.706   7.620   2.250  1.00 20.00     0.002 C 
HETATM    2  C2  UNL     1     -33.035   6.125   2.007  1.00 20.00     0.015 C 
HETATM    3  C3  UNL     1     -33.082   7.409   3.738  1.00 20.00     0.015 C 
HETATM    4  C4  UNL     1     -35.354   5.330   4.493  1.00 20.00     0.069 C 
HETATM    5  C5  UNL     1     -35.367   6.147   3.170  1.00 20.00     0.173 C 
HETATM    6  C6  UNL     1     -33.865   4.977   4.205  1.00 20.00     0.135 C 
HETATM    7  C7  UNL     1     -33.854   6.183   3.281  1.00 20.00     0.015 C 
HETATM    8  O10 UNL     1     -36.040   7.370   3.295  1.00 20.00    -0.234 OA
ENDROOT
BRANCH   6   9
HETATM    9  O11 UNL     1     -33.652   3.689   3.592  1.00 20.00    -0.385 OA
BRANCH   9  10
HETATM   10  C9  UNL     1     -33.417   2.696   4.571  1.00 20.00     0.163 C 
HETATM   11  C8  UNL     1     -32.517   3.267   5.646  1.00 20.00     0.033 C 
ENDBRANCH   9  10
ENDBRANCH   6   9
TORSDOF 2
ENDMDL
MODEL 7
REMARK VINA RESULT:       1.6      1.371      2.491
REMARK  2 active torsions:
REMARK  status: ('A' for Active; 'I' for Inactive)
REMARK    1  A    between atoms: C6_6  and  O11_11 
REMARK    2  A    between atoms: C9_9  and  O11_11 
ROOT
HETATM    1  C1  UNL     1     -31.244   8.839   1.147  1.00 20.00     0.002 C 
HETATM    2  C2  UNL     1     -31.663   8.270   2.527  1.00 20.00     0.015 C 
HETATM    3  C3  UNL     1     -32.478   8.130   0.536  1.00 20.00     0.015 C 
HETATM    4  C4  UNL     1     -33.464   5.378   1.765  1.00 20.00     0.069 C 
HETATM    5  C5  UNL     1     -31.969   5.804   1.746  1.00 20.00     0.173 C 
HETATM    6  C6  UNL     1     -33.810   6.791   2.320  1.00 20.00     0.135 C 
HETATM    7  C7  UNL     1     -32.467   7.237   1.765  1.00 20.00     0.015 C 
HETATM    8  O10 UNL     1     -31.301   5.381   0.589  1.00 20.00    -0.234 OA
ENDROOT
BRANCH   6   9
HETATM    9  O11 UNL     1     -33.974   6.861   3.751  1.00 20.00    -0.385 OA
BRANCH   9  10
HETATM   10  C9  UNL     1     -35.280   6.471   4.129  1.00 20.00     0.163 C 
HETATM   11  C8  UNL     1     -35.251   5.026   4.582  1.00 20.00     0.033 C 
ENDBRANCH   9  10
ENDBRANCH   6   9
TORSDOF 2
ENDMDL
MODEL 8
REMARK VINA RESULT:       2.1      1.893      3.940
REMARK  2 active torsions:
REMARK  status: ('A' for Active; 'I' for Inactive)
REMARK    1  A    between atoms: C6_6  and  O11_11 
REMARK    2  A    between atoms: C9_9  and  O11_11 
ROOT
HETATM    1  C1  UNL     1     -35.162   5.086   4.364  1.00 20.00     0.002 C 
HETATM    2  C2  UNL     1     -33.764   5.181   3.703  1.00 20.00     0.015 C 
HETATM    3  C3  UNL     1     -35.501   6.457   3.728  1.00 20.00     0.015 C 
HETATM    4  C4  UNL     1     -33.204   8.609   3.343  1.00 20.00     0.069 C 
HETATM    5  C5  UNL     1     -33.218   7.594   4.521  1.00 20.00     0.173 C 
HETATM    6  C6  UNL     1     -33.501   7.421   2.380  1.00 20.00     0.135 C 
HETATM    7  C7  UNL     1     -34.003   6.674   3.604  1.00 20.00     0.015 C 
HETATM    8  O10 UNL     1     -33.888   8.085   5.650  1.00 20.00    -0.234 OA
ENDROOT
BRANCH   6   9
HETATM    9  O11 UNL     1     -32.346   6.872   1.715  1.00 20.00    -0.385 OA
BRANCH   9  10
HETATM   10  C9  UNL     1     -31.453   7.898   1.325  1.00 20.00     0.163 C 
HETATM   11  C8  UNL     1     -32.168   8.842   0.383  1.00 20.00     0.033 C 
ENDBRANCH   9  10
ENDBRANCH   6   9
TORSDOF 2
ENDMDL
MODEL 9
REMARK VINA RESULT:       2.3      1.980      3.309
REMARK  2 active torsions:
REMARK  status: ('A' for Active; 'I' for Inactive)
REMARK    1  A    between atoms: C6_6  and  O11_11 
REMARK    2  A    between atoms: C9_9  and  O11_11 
ROOT
HETATM    1  C1  UNL     1     -32.759  10.814   0.181  1.00 20.00     0.002 C 
HETATM    2  C2  UNL     1     -32.478  10.347   1.632  1.00 20.00     0.015 C 
HETATM    3  C3  UNL     1     -33.203   9.367  -0.146  1.00 20.00     0.015 C 
HETATM    4  C4  UNL     1     -31.805   6.934   1.331  1.00 20.00     0.069 C 
HETATM    5  C5  UNL     1     -31.059   8.256   0.995  1.00 20.00     0.173 C 
HETATM    6  C6  UNL     1     -32.968   7.793   1.907  1.00 20.00     0.135 C 
HETATM    7  C7  UNL     1     -32.412   8.938   1.077  1.00 20.00     0.015 C 
HETATM    8  O10 UNL     1     -30.442   8.225  -0.263  1.00 20.00    -0.234 OA
ENDROOT
BRANCH   6   9
HETATM    9  O11 UNL     1     -32.950   7.962   3.339  1.00 20.00    -0.385 OA
BRANCH   9  10
HETATM   10  C9  UNL     1     -34.208   7.644   3.902  1.00 20.00     0.163 C 
HETATM   11  C8  UNL     1     -34.506   6.182   3.648  1.00 20.00     0.033 C 
ENDBRANCH   9  10
ENDBRANCH   6   9
TORSDOF 2
ENDMDL
