MODEL 1
REMARK VINA RESULT:      -3.2      0.000      0.000
REMARK  2 active torsions:
REMARK  status: ('A' for Active; 'I' for Inactive)
REMARK    1  A    between atoms: C3_3  and  C6_6 
REMARK    2  A    between atoms: C6_6  and  C7_7 
ROOT
HETATM    1  C1  UNL     1     -32.262   8.777   1.133  1.00 20.00    -0.176 C 
HETATM    2  C2  UNL     1     -32.476   9.745   0.295  1.00 20.00     0.091 C 
HETATM    3  C3  UNL     1     -32.046   7.807   1.973  1.00 20.00     0.067 C 
ENDROOT
BRANCH   3   4
HETATM    4  C6  UNL     1     -33.082   6.822   2.431  1.00 20.00     0.021 C 
BRANCH   4   5
HETATM    5  C7  UNL     1     -34.082   7.420   3.438  1.00 20.00    -0.021 C 
HETATM    6  C4  UNL     1     -33.381   8.032   4.653  1.00 20.00     0.009 C 
HETATM    7  C5  UNL     1     -35.065   6.341   3.899  1.00 20.00     0.009 C 
ENDBRANCH   4   5
ENDBRANCH   3   4
TORSDOF 2
ENDMDL
MODEL 2
REMARK VINA RESULT:      -3.0      0.387      1.390
REMARK  2 active torsions:
REMARK  status: ('A' for Active; 'I' for Inactive)
REMARK    1  A    between atoms: C3_3  and  C6_6 
REMARK    2  A    between atoms: C6_6  and  C7_7 
ROOT
HETATM    1  C1  UNL     1     -32.281   8.754   1.126  1.00 20.00    -0.176 C 
HETATM    2  C2  UNL     1     -32.321   9.709   0.248  1.00 20.00     0.091 C 
HETATM    3  C3  UNL     1     -32.237   7.797   2.007  1.00 20.00     0.067 C 
ENDROOT
BRANCH   3   4
HETATM    4  C6  UNL     1     -33.317   6.776   2.218  1.00 20.00     0.021 C 
BRANCH   4   5
HETATM    5  C7  UNL     1     -33.814   6.713   3.674  1.00 20.00    -0.021 C 
HETATM    6  C4  UNL     1     -35.269   6.249   3.768  1.00 20.00     0.009 C 
HETATM    7  C5  UNL     1     -33.665   8.085   4.336  1.00 20.00     0.009 C 
ENDBRANCH   4   5
ENDBRANCH   3   4
TORSDOF 2
ENDMDL
MODEL 3
REMARK VINA RESULT:      -2.9      1.002      1.675
REMARK  2 active torsions:
REMARK  status: ('A' for Active; 'I' for Inactive)
REMARK    1  A    between atoms: C3_3  and  C6_6 
REMARK    2  A    between atoms: C6_6  and  C7_7 
ROOT
HETATM    1  C1  UNL     1     -32.237   9.343   0.536  1.00 20.00    -0.176 C 
HETATM    2  C2  UNL     1     -32.717  10.286  -0.215  1.00 20.00     0.091 C 
HETATM    3  C3  UNL     1     -31.753   8.397   1.287  1.00 20.00     0.067 C 
ENDROOT
BRANCH   3   4
HETATM    4  C6  UNL     1     -32.383   7.905   2.559  1.00 20.00     0.021 C 
BRANCH   4   5
HETATM    5  C7  UNL     1     -33.514   6.888   2.320  1.00 20.00    -0.021 C 
HETATM    6  C4  UNL     1     -34.269   6.551   3.609  1.00 20.00     0.009 C 
HETATM    7  C5  UNL     1     -32.942   5.607   1.708  1.00 20.00     0.009 C 
ENDBRANCH   4   5
ENDBRANCH   3   4
TORSDOF 2
ENDMDL
MODEL 4
REMARK VINA RESULT:      -2.8      0.980      1.633
REMARK  2 active torsions:
REMARK  status: ('A' for Active; 'I' for Inactive)
REMARK    1  A    between atoms: C3_3  and  C6_6 
REMARK    2  A    between atoms: C6_6  and  C7_7 
ROOT
HETATM    1  C1  UNL     1     -32.275   9.172   0.690  1.00 20.00    -0.176 C 
HETATM    2  C2  UNL     1     -32.521  10.172  -0.100  1.00 20.00     0.091 C 
HETATM    3  C3  UNL     1     -32.026   8.168   1.479  1.00 20.00     0.067 C 
ENDROOT
BRANCH   3   4
HETATM    4  C6  UNL     1     -32.653   7.961   2.828  1.00 20.00     0.021 C 
BRANCH   4   5
HETATM    5  C7  UNL     1     -33.207   6.538   3.026  1.00 20.00    -0.021 C 
HETATM    6  C4  UNL     1     -33.220   5.737   1.721  1.00 20.00     0.009 C 
HETATM    7  C5  UNL     1     -34.622   6.605   3.604  1.00 20.00     0.009 C 
ENDBRANCH   4   5
ENDBRANCH   3   4
TORSDOF 2
ENDMDL
MODEL 5
REMARK VINA RESULT:      -2.6      0.954      1.275
REMARK  2 active torsions:
REMARK  status: ('A' for Active; 'I' for Inactive)
REMARK    1  A    between atoms: C3_3  and  C6_6 
REMARK    2  A    between atoms: C6_6  and  C7_7 
ROOT
HETATM    1  C1  UNL     1     -32.251   7.379   1.492  1.00 20.00    -0.176 C 
HETATM    2  C2  UNL     1     -31.767   8.568   1.297  1.00 20.00     0.091 C 
HETATM    3  C3  UNL     1     -32.736   6.187   1.685  1.00 20.00     0.067 C 
ENDROOT
BRANCH   3   4
HETATM    4  C6  UNL     1     -33.367   5.714   2.963  1.00 20.00     0.021 C 
BRANCH   4   5
HETATM    5  C7  UNL     1     -34.452   6.670   3.492  1.00 20.00    -0.021 C 
HETATM    6  C4  UNL     1     -33.869   7.764   4.391  1.00 20.00     0.009 C 
HETATM    7  C5  UNL     1     -35.512   5.880   4.263  1.00 20.00     0.009 C 
ENDBRANCH   4   5
ENDBRANCH   3   4
TORSDOF 2
ENDMDL
MODEL 6
REMARK VINA RESULT:      -2.5      0.953      3.974
REMARK  2 active torsions:
REMARK  status: ('A' for Active; 'I' for Inactive)
REMARK    1  A    between atoms: C3_3  and  C6_6 
REMARK    2  A    between atoms: C6_6  and  C7_7 
ROOT
HETATM    1  C1  UNL     1     -34.645   6.807   4.048  1.00 20.00    -0.176 C 
HETATM    2  C2  UNL     1     -35.400   5.754   4.120  1.00 20.00     0.091 C 
HETATM    3  C3  UNL     1     -33.890   7.865   3.976  1.00 20.00     0.067 C 
ENDROOT
BRANCH   3   4
HETATM    4  C6  UNL     1     -32.564   7.926   3.274  1.00 20.00     0.021 C 
BRANCH   4   5
HETATM    5  C7  UNL     1     -32.653   7.560   1.780  1.00 20.00    -0.021 C 
HETATM    6  C4  UNL     1     -32.110   6.157   1.496  1.00 20.00     0.009 C 
HETATM    7  C5  UNL     1     -31.887   8.589   0.945  1.00 20.00     0.009 C 
ENDBRANCH   4   5
ENDBRANCH   3   4
TORSDOF 2
ENDMDL
MODEL 7
REMARK VINA RESULT:      -2.5      1.539      4.413
REMARK  2 active torsions:
REMARK  status: ('A' for Active; 'I' for Inactive)
REMARK    1  A    between atoms: C3_3  and  C6_6 
REMARK    2  A    between atoms: C6_6  and  C7_7 
ROOT
HETATM    1  C1  UNL     1     -34.190   4.710   4.076  1.00 20.00    -0.176 C 
HETATM    2  C2  UNL     1     -33.800   3.529   4.445  1.00 20.00     0.091 C 
HETATM    3  C3  UNL     1     -34.584   5.894   3.706  1.00 20.00     0.067 C 
ENDROOT
BRANCH   3   4
HETATM    4  C6  UNL     1     -33.673   7.059   3.446  1.00 20.00     0.021 C 
BRANCH   4   5
HETATM    5  C7  UNL     1     -33.133   7.094   2.004  1.00 20.00    -0.021 C 
HETATM    6  C4  UNL     1     -32.653   5.718   1.534  1.00 20.00     0.009 C 
HETATM    7  C5  UNL     1     -31.986   8.103   1.901  1.00 20.00     0.009 C 
ENDBRANCH   4   5
ENDBRANCH   3   4
TORSDOF 2
ENDMDL
MODEL 8
REMARK VINA RESULT:      -2.5      2.089      4.364
REMARK  2 active torsions:
REMARK  status: ('A' for Active; 'I' for Inactive)
REMARK    1  A    between atoms: C3_3  and  C6_6 
REMARK    2  A    between atoms: C6_6  and  C7_7 
ROOT
HETATM    1  C1  UNL     1     -33.688   3.842   4.216  1.00 20.00    -0.176 C 
HETATM    2  C2  UNL     1     -33.238   2.766   4.786  1.00 20.00     0.091 C 
HETATM    3  C3  UNL     1     -34.141   4.920   3.646  1.00 20.00     0.067 C 
ENDROOT
BRANCH   3   4
HETATM    4  C6  UNL     1     -33.475   5.632   2.504  1.00 20.00     0.021 C 
BRANCH   4   5
HETATM    5  C7  UNL     1     -33.558   7.165   2.615  1.00 20.00    -0.021 C 
HETATM    6  C4  UNL     1     -32.236   7.844   2.248  1.00 20.00     0.009 C 
HETATM    7  C5  UNL     1     -33.965   7.564   4.036  1.00 20.00     0.009 C 
ENDBRANCH   4   5
ENDBRANCH   3   4
TORSDOF 2
ENDMDL
MODEL 9
REMARK VINA RESULT:      -1.9      1.120      3.688
REMARK  2 active torsions:
REMARK  status: ('A' for Active; 'I' for Inactive)
REMARK    1  A    between atoms: C3_3  and  C6_6 
REMARK    2  A    between atoms: C6_6  and  C7_7 
ROOT
HETATM    1  C1  UNL     1     -33.982   6.202   2.989  1.00 20.00    -0.176 C 
HETATM    2  C2  UNL     1     -34.806   6.568   3.923  1.00 20.00     0.091 C 
HETATM    3  C3  UNL     1     -33.157   5.833   2.053  1.00 20.00     0.067 C 
ENDROOT
BRANCH   3   4
HETATM    4  C6  UNL     1     -32.121   6.720   1.424  1.00 20.00     0.021 C 
BRANCH   4   5
HETATM    5  C7  UNL     1     -32.315   8.210   1.762  1.00 20.00    -0.021 C 
HETATM    6  C4  UNL     1     -32.124   9.109   0.537  1.00 20.00     0.009 C 
HETATM    7  C5  UNL     1     -31.338   8.626   2.864  1.00 20.00     0.009 C 
ENDBRANCH   4   5
ENDBRANCH   3   4
TORSDOF 2
ENDMDL
