MODEL 1
REMARK VINA RESULT:       0.4      0.000      0.000
REMARK  3 active torsions:
REMARK  status: ('A' for Active; 'I' for Inactive)
REMARK    1  A    between atoms: C1_1  and  C6_6 
REMARK    2  A    between atoms: C6_6  and  C7_7 
REMARK    3  A    between atoms: C6_6  and  O9_9 
ROOT
HETATM    1  C2  UNL     1     -32.081   5.348   1.747  1.00 20.00     0.054 C 
HETATM    2  C6  UNL     1     -33.001   6.554   1.965  1.00 20.00     0.113 C 
ENDROOT
BRANCH   2   3
HETATM    3  C1  UNL     1     -32.130   7.807   1.938  1.00 20.00     0.269 C 
HETATM    4  O8  UNL     1     -32.259   8.722   1.131  1.00 20.00    -0.304 OA
ENDBRANCH   2   3
BRANCH   2   5
HETATM    5  C7  UNL     1     -33.871   6.485   3.269  1.00 20.00    -0.014 C 
HETATM    6  C3  UNL     1     -33.816   5.067   3.885  1.00 20.00     0.018 C 
HETATM    7  C4  UNL     1     -35.355   6.783   2.953  1.00 20.00     0.018 C 
HETATM    8  C5  UNL     1     -33.409   7.491   4.343  1.00 20.00     0.018 C 
ENDBRANCH   2   5
BRANCH   2   9
HETATM    9  O9  UNL     1     -33.873   6.647   0.836  1.00 20.00    -0.382 OA
HETATM   10  H23 UNL     1     -33.487   7.313   0.248  1.00 20.00     0.211 HD
ENDBRANCH   2   9
TORSDOF 3
ENDMDL
MODEL 2
REMARK VINA RESULT:       0.6      1.730      3.467
REMARK  3 active torsions:
REMARK  status: ('A' for Active; 'I' for Inactive)
REMARK    1  A    between atoms: C1_1  and  C6_6 
REMARK    2  A    between atoms: C6_6  and  C7_7 
REMARK    3  A    between atoms: C6_6  and  O9_9 
ROOT
HETATM    1  C2  UNL     1     -33.591   7.483   4.263  1.00 20.00     0.054 C 
HETATM    2  C6  UNL     1     -33.954   6.430   3.210  1.00 20.00     0.113 C 
ENDROOT
BRANCH   2   3
HETATM    3  C1  UNL     1     -33.920   5.067   3.893  1.00 20.00     0.269 C 
HETATM    4  O8  UNL     1     -34.900   4.512   4.381  1.00 20.00    -0.304 OA
ENDBRANCH   2   3
BRANCH   2   5
HETATM    5  C7  UNL     1     -33.052   6.453   1.925  1.00 20.00    -0.014 C 
HETATM    6  C3  UNL     1     -32.251   7.774   1.846  1.00 20.00     0.018 C 
HETATM    7  C4  UNL     1     -33.920   6.373   0.647  1.00 20.00     0.018 C 
HETATM    8  C5  UNL     1     -32.049   5.282   1.886  1.00 20.00     0.018 C 
ENDBRANCH   2   5
BRANCH   2   9
HETATM    9  O9  UNL     1     -35.311   6.651   2.821  1.00 20.00    -0.382 OA
HETATM   10  H23 UNL     1     -35.629   7.395   3.353  1.00 20.00     0.211 HD
ENDBRANCH   2   9
TORSDOF 3
ENDMDL
MODEL 3
REMARK VINA RESULT:       0.8      1.770      3.497
REMARK  3 active torsions:
REMARK  status: ('A' for Active; 'I' for Inactive)
REMARK    1  A    between atoms: C1_1  and  C6_6 
REMARK    2  A    between atoms: C6_6  and  C7_7 
REMARK    3  A    between atoms: C6_6  and  O9_9 
ROOT
HETATM    1  C2  UNL     1     -33.025   8.075   4.769  1.00 20.00     0.054 C 
HETATM    2  C6  UNL     1     -33.552   7.744   3.369  1.00 20.00     0.113 C 
ENDROOT
BRANCH   2   3
HETATM    3  C1  UNL     1     -34.240   6.385   3.447  1.00 20.00     0.269 C 
HETATM    4  O8  UNL     1     -35.311   6.182   4.010  1.00 20.00    -0.304 OA
ENDBRANCH   2   3
BRANCH   2   5
HETATM    5  C7  UNL     1     -32.464   7.775   2.237  1.00 20.00    -0.014 C 
HETATM    6  C3  UNL     1     -32.301   6.375   1.600  1.00 20.00     0.018 C 
HETATM    7  C4  UNL     1     -31.086   8.172   2.815  1.00 20.00     0.018 C 
HETATM    8  C5  UNL     1     -32.808   8.775   1.114  1.00 20.00     0.018 C 
ENDBRANCH   2   5
BRANCH   2   9
HETATM    9  O9  UNL     1     -34.572   8.693   3.050  1.00 20.00    -0.382 OA
HETATM   10  H23 UNL     1     -35.268   8.200   2.591  1.00 20.00     0.211 HD
ENDBRANCH   2   9
TORSDOF 3
ENDMDL
MODEL 4
REMARK VINA RESULT:       0.8      1.541      2.762
REMARK  3 active torsions:
REMARK  status: ('A' for Active; 'I' for Inactive)
REMARK    1  A    between atoms: C1_1  and  C6_6 
REMARK    2  A    between atoms: C6_6  and  C7_7 
REMARK    3  A    between atoms: C6_6  and  O9_9 
ROOT
HETATM    1  C2  UNL     1     -32.608   8.389   3.204  1.00 20.00     0.054 C 
HETATM    2  C6  UNL     1     -32.272   7.739   1.857  1.00 20.00     0.113 C 
ENDROOT
BRANCH   2   3
HETATM    3  C1  UNL     1     -32.719   8.699   0.760  1.00 20.00     0.269 C 
HETATM    4  O8  UNL     1     -32.342   9.863   0.661  1.00 20.00    -0.304 OA
ENDBRANCH   2   3
BRANCH   2   5
HETATM    5  C7  UNL     1     -32.879   6.306   1.654  1.00 20.00    -0.014 C 
HETATM    6  C3  UNL     1     -33.718   5.891   2.885  1.00 20.00     0.018 C 
HETATM    7  C4  UNL     1     -31.757   5.254   1.495  1.00 20.00     0.018 C 
HETATM    8  C5  UNL     1     -33.784   6.220   0.407  1.00 20.00     0.018 C 
ENDBRANCH   2   5
BRANCH   2   9
HETATM    9  O9  UNL     1     -30.848   7.651   1.759  1.00 20.00    -0.382 OA
HETATM   10  H23 UNL     1     -30.553   7.144   2.529  1.00 20.00     0.211 HD
ENDBRANCH   2   9
TORSDOF 3
ENDMDL
MODEL 5
REMARK VINA RESULT:       1.0      1.875      3.163
REMARK  3 active torsions:
REMARK  status: ('A' for Active; 'I' for Inactive)
REMARK    1  A    between atoms: C1_1  and  C6_6 
REMARK    2  A    between atoms: C6_6  and  C7_7 
REMARK    3  A    between atoms: C6_6  and  O9_9 
ROOT
HETATM    1  C2  UNL     1     -35.255   6.677   3.031  1.00 20.00     0.054 C 
HETATM    2  C6  UNL     1     -33.750   6.412   3.149  1.00 20.00     0.113 C 
ENDROOT
BRANCH   2   3
HETATM    3  C1  UNL     1     -33.182   7.418   4.146  1.00 20.00     0.269 C 
HETATM    4  O8  UNL     1     -33.856   8.042   4.960  1.00 20.00    -0.304 OA
ENDBRANCH   2   3
BRANCH   2   5
HETATM    5  C7  UNL     1     -32.971   6.448   1.787  1.00 20.00    -0.014 C 
HETATM    6  C3  UNL     1     -31.952   5.286   1.711  1.00 20.00     0.018 C 
HETATM    7  C4  UNL     1     -32.169   7.763   1.650  1.00 20.00     0.018 C 
HETATM    8  C5  UNL     1     -33.909   6.341   0.567  1.00 20.00     0.018 C 
ENDBRANCH   2   5
BRANCH   2   9
HETATM    9  O9  UNL     1     -33.579   5.121   3.740  1.00 20.00    -0.382 OA
HETATM   10  H23 UNL     1     -34.030   5.153   4.597  1.00 20.00     0.211 HD
ENDBRANCH   2   9
TORSDOF 3
ENDMDL
MODEL 6
REMARK VINA RESULT:       1.2      1.765      3.310
REMARK  3 active torsions:
REMARK  status: ('A' for Active; 'I' for Inactive)
REMARK    1  A    between atoms: C1_1  and  C6_6 
REMARK    2  A    between atoms: C6_6  and  C7_7 
REMARK    3  A    between atoms: C6_6  and  O9_9 
ROOT
HETATM    1  C2  UNL     1     -33.509   4.922   3.780  1.00 20.00     0.054 C 
HETATM    2  C6  UNL     1     -33.572   6.329   3.176  1.00 20.00     0.113 C 
ENDROOT
BRANCH   2   3
HETATM    3  C1  UNL     1     -35.042   6.724   3.082  1.00 20.00     0.269 C 
HETATM    4  O8  UNL     1     -35.919   6.312   3.835  1.00 20.00    -0.304 OA
ENDBRANCH   2   3
BRANCH   2   5
HETATM    5  C7  UNL     1     -32.845   6.479   1.792  1.00 20.00    -0.014 C 
HETATM    6  C3  UNL     1     -33.858   6.355   0.629  1.00 20.00     0.018 C 
HETATM    7  C4  UNL     1     -31.797   5.358   1.601  1.00 20.00     0.018 C 
HETATM    8  C5  UNL     1     -32.117   7.831   1.650  1.00 20.00     0.018 C 
ENDBRANCH   2   5
BRANCH   2   9
HETATM    9  O9  UNL     1     -32.972   7.232   4.108  1.00 20.00    -0.382 OA
HETATM   10  H23 UNL     1     -32.153   7.545   3.696  1.00 20.00     0.211 HD
ENDBRANCH   2   9
TORSDOF 3
ENDMDL
MODEL 7
REMARK VINA RESULT:       1.3      1.485      2.772
REMARK  3 active torsions:
REMARK  status: ('A' for Active; 'I' for Inactive)
REMARK    1  A    between atoms: C1_1  and  C6_6 
REMARK    2  A    between atoms: C6_6  and  C7_7 
REMARK    3  A    between atoms: C6_6  and  O9_9 
ROOT
HETATM    1  C2  UNL     1     -32.788   8.773   1.169  1.00 20.00     0.054 C 
HETATM    2  C6  UNL     1     -32.578   7.659   2.202  1.00 20.00     0.113 C 
ENDROOT
BRANCH   2   3
HETATM    3  C1  UNL     1     -32.638   6.328   1.461  1.00 20.00     0.269 C 
HETATM    4  O8  UNL     1     -31.719   5.515   1.422  1.00 20.00    -0.304 OA
ENDBRANCH   2   3
BRANCH   2   5
HETATM    5  C7  UNL     1     -33.580   7.692   3.410  1.00 20.00    -0.014 C 
HETATM    6  C3  UNL     1     -34.671   8.764   3.184  1.00 20.00     0.018 C 
HETATM    7  C4  UNL     1     -32.845   8.064   4.719  1.00 20.00     0.018 C 
HETATM    8  C5  UNL     1     -34.280   6.336   3.634  1.00 20.00     0.018 C 
ENDBRANCH   2   5
BRANCH   2   9
HETATM    9  O9  UNL     1     -31.246   7.779   2.708  1.00 20.00    -0.382 OA
HETATM   10  H23 UNL     1     -31.330   7.939   3.659  1.00 20.00     0.211 HD
ENDBRANCH   2   9
TORSDOF 3
ENDMDL
MODEL 8
REMARK VINA RESULT:       1.4      1.193      2.339
REMARK  3 active torsions:
REMARK  status: ('A' for Active; 'I' for Inactive)
REMARK    1  A    between atoms: C1_1  and  C6_6 
REMARK    2  A    between atoms: C6_6  and  C7_7 
REMARK    3  A    between atoms: C6_6  and  O9_9 
ROOT
HETATM    1  C2  UNL     1     -33.998   6.508   0.804  1.00 20.00     0.054 C 
HETATM    2  C6  UNL     1     -33.241   6.552   2.137  1.00 20.00     0.113 C 
ENDROOT
BRANCH   2   3
HETATM    3  C1  UNL     1     -32.206   5.433   2.114  1.00 20.00     0.269 C 
HETATM    4  O8  UNL     1     -31.588   5.081   1.114  1.00 20.00    -0.304 OA
ENDBRANCH   2   3
BRANCH   2   5
HETATM    5  C7  UNL     1     -34.155   6.467   3.410  1.00 20.00    -0.014 C 
HETATM    6  C3  UNL     1     -35.626   6.777   3.046  1.00 20.00     0.018 C 
HETATM    7  C4  UNL     1     -33.721   7.510   4.466  1.00 20.00     0.018 C 
HETATM    8  C5  UNL     1     -34.110   5.077   4.078  1.00 20.00     0.018 C 
ENDBRANCH   2   5
BRANCH   2   9
HETATM    9  O9  UNL     1     -32.507   7.778   2.182  1.00 20.00    -0.382 OA
HETATM   10  H23 UNL     1     -33.086   8.426   2.610  1.00 20.00     0.211 HD
ENDBRANCH   2   9
TORSDOF 3
ENDMDL
MODEL 9
REMARK VINA RESULT:       1.5      1.406      1.709
REMARK  3 active torsions:
REMARK  status: ('A' for Active; 'I' for Inactive)
REMARK    1  A    between atoms: C1_1  and  C6_6 
REMARK    2  A    between atoms: C6_6  and  C7_7 
REMARK    3  A    between atoms: C6_6  and  O9_9 
ROOT
HETATM    1  C2  UNL     1     -31.074   8.321   2.778  1.00 20.00     0.054 C 
HETATM    2  C6  UNL     1     -32.445   7.844   2.282  1.00 20.00     0.113 C 
ENDROOT
BRANCH   2   3
HETATM    3  C1  UNL     1     -32.932   8.849   1.243  1.00 20.00     0.269 C 
HETATM    4  O8  UNL     1     -32.209   9.395   0.416  1.00 20.00    -0.304 OA
ENDBRANCH   2   3
BRANCH   2   5
HETATM    5  C7  UNL     1     -33.509   7.624   3.415  1.00 20.00    -0.014 C 
HETATM    6  C3  UNL     1     -33.998   6.157   3.426  1.00 20.00     0.018 C 
HETATM    7  C4  UNL     1     -34.752   8.513   3.177  1.00 20.00     0.018 C 
HETATM    8  C5  UNL     1     -32.957   7.955   4.817  1.00 20.00     0.018 C 
ENDBRANCH   2   5
BRANCH   2   9
HETATM    9  O9  UNL     1     -32.253   6.609   1.589  1.00 20.00    -0.382 OA
HETATM   10  H23 UNL     1     -32.566   6.754   0.684  1.00 20.00     0.211 HD
ENDBRANCH   2   9
TORSDOF 3
ENDMDL
