MODEL 1
REMARK VINA RESULT:      -2.3      0.000      0.000
REMARK  4 active torsions:
REMARK  status: ('A' for Active; 'I' for Inactive)
REMARK    1  A    between atoms: C3_3  and  C4_4 
REMARK    2  A    between atoms: C3_3  and  C6_6 
REMARK    3  A    between atoms: C4_4  and  O7_7 
REMARK    4  A    between atoms: C5_5  and  C6_6 
ROOT
HETATM    1  C3  UNL     1     -33.167   6.928   2.531  1.00 20.00     0.031 C 
ENDROOT
BRANCH   1   2
HETATM    2  C4  UNL     1     -32.138   8.027   2.297  1.00 20.00     0.167 C 
BRANCH   2   3
HETATM    3  O7  UNL     1     -32.026   8.256   0.897  1.00 20.00    -0.396 OA
HETATM    4  C2  UNL     1     -32.358   9.596   0.561  1.00 20.00     0.201 C 
ENDBRANCH   2   3
ENDBRANCH   1   2
BRANCH   1   5
HETATM    5  C6  UNL     1     -34.240   7.292   3.575  1.00 20.00    -0.003 C 
HETATM    6  C1  UNL     1     -33.581   7.969   4.782  1.00 20.00     0.011 C 
BRANCH   5   7
HETATM    7  C5  UNL     1     -35.131   6.117   4.009  1.00 20.00     0.119 C 
HETATM    8 CL8  UNL     1     -34.277   4.556   4.062  1.00 20.00    -0.130 Cl
ENDBRANCH   5   7
ENDBRANCH   1   5
TORSDOF 4
ENDMDL
MODEL 2
REMARK VINA RESULT:      -2.3      3.130      4.566
REMARK  4 active torsions:
REMARK  status: ('A' for Active; 'I' for Inactive)
REMARK    1  A    between atoms: C3_3  and  C4_4 
REMARK    2  A    between atoms: C3_3  and  C6_6 
REMARK    3  A    between atoms: C4_4  and  O7_7 
REMARK    4  A    between atoms: C5_5  and  C6_6 
ROOT
HETATM    1  C3  UNL     1     -33.572   6.705   3.498  1.00 20.00     0.031 C 
ENDROOT
BRANCH   1   2
HETATM    2  C4  UNL     1     -35.080   6.530   3.639  1.00 20.00     0.167 C 
BRANCH   2   3
HETATM    3  O7  UNL     1     -35.332   5.379   4.436  1.00 20.00    -0.396 OA
HETATM    4  C2  UNL     1     -34.319   4.398   4.268  1.00 20.00     0.201 C 
ENDBRANCH   2   3
ENDBRANCH   1   2
BRANCH   1   5
HETATM    5  C6  UNL     1     -33.112   7.002   2.058  1.00 20.00    -0.003 C 
HETATM    6  C1  UNL     1     -32.692   5.700   1.369  1.00 20.00     0.011 C 
BRANCH   5   7
HETATM    7  C5  UNL     1     -32.016   8.074   1.947  1.00 20.00     0.119 C 
HETATM    8 CL8  UNL     1     -32.336   9.293   0.690  1.00 20.00    -0.130 Cl
ENDBRANCH   5   7
ENDBRANCH   1   5
TORSDOF 4
ENDMDL
MODEL 3
REMARK VINA RESULT:      -2.2      3.008      4.416
REMARK  4 active torsions:
REMARK  status: ('A' for Active; 'I' for Inactive)
REMARK    1  A    between atoms: C3_3  and  C4_4 
REMARK    2  A    between atoms: C3_3  and  C6_6 
REMARK    3  A    between atoms: C4_4  and  O7_7 
REMARK    4  A    between atoms: C5_5  and  C6_6 
ROOT
HETATM    1  C3  UNL     1     -35.051   5.971   3.811  1.00 20.00     0.031 C 
ENDROOT
BRANCH   1   2
HETATM    2  C4  UNL     1     -34.932   4.679   4.611  1.00 20.00     0.167 C 
BRANCH   2   3
HETATM    3  O7  UNL     1     -34.043   3.802   3.930  1.00 20.00    -0.396 OA
HETATM    4  C2  UNL     1     -33.257   3.047   4.841  1.00 20.00     0.201 C 
ENDBRANCH   2   3
ENDBRANCH   1   2
BRANCH   1   5
HETATM    5  C6  UNL     1     -33.705   6.681   3.570  1.00 20.00    -0.003 C 
HETATM    6  C1  UNL     1     -33.765   8.109   4.123  1.00 20.00     0.011 C 
BRANCH   5   7
HETATM    7  C5  UNL     1     -33.229   6.664   2.109  1.00 20.00     0.119 C 
HETATM    8 CL8  UNL     1     -32.001   7.901   1.746  1.00 20.00    -0.130 Cl
ENDBRANCH   5   7
ENDBRANCH   1   5
TORSDOF 4
ENDMDL
MODEL 4
REMARK VINA RESULT:      -2.1      1.043      1.126
REMARK  4 active torsions:
REMARK  status: ('A' for Active; 'I' for Inactive)
REMARK    1  A    between atoms: C3_3  and  C4_4 
REMARK    2  A    between atoms: C3_3  and  C6_6 
REMARK    3  A    between atoms: C4_4  and  O7_7 
REMARK    4  A    between atoms: C5_5  and  C6_6 
ROOT
HETATM    1  C3  UNL     1     -33.074   5.869   2.627  1.00 20.00     0.031 C 
ENDROOT
BRANCH   1   2
HETATM    2  C4  UNL     1     -32.825   6.735   1.398  1.00 20.00     0.167 C 
BRANCH   2   3
HETATM    3  O7  UNL     1     -31.855   7.722   1.724  1.00 20.00    -0.396 OA
HETATM    4  C2  UNL     1     -32.080   8.929   1.010  1.00 20.00     0.201 C 
ENDBRANCH   2   3
ENDBRANCH   1   2
BRANCH   1   5
HETATM    5  C6  UNL     1     -34.365   6.223   3.388  1.00 20.00    -0.003 C 
HETATM    6  C1  UNL     1     -34.171   7.535   4.156  1.00 20.00     0.011 C 
BRANCH   5   7
HETATM    7  C5  UNL     1     -34.891   5.109   4.305  1.00 20.00     0.119 C 
HETATM    8 CL8  UNL     1     -33.860   3.657   4.326  1.00 20.00    -0.130 Cl
ENDBRANCH   5   7
ENDBRANCH   1   5
TORSDOF 4
ENDMDL
MODEL 5
REMARK VINA RESULT:      -2.1      1.218      1.909
REMARK  4 active torsions:
REMARK  status: ('A' for Active; 'I' for Inactive)
REMARK    1  A    between atoms: C3_3  and  C4_4 
REMARK    2  A    between atoms: C3_3  and  C6_6 
REMARK    3  A    between atoms: C4_4  and  O7_7 
REMARK    4  A    between atoms: C5_5  and  C6_6 
ROOT
HETATM    1  C3  UNL     1     -32.015   8.119   2.553  1.00 20.00     0.031 C 
ENDROOT
BRANCH   1   2
HETATM    2  C4  UNL     1     -32.006   8.405   1.057  1.00 20.00     0.167 C 
BRANCH   2   3
HETATM    3  O7  UNL     1     -32.401   9.755   0.848  1.00 20.00    -0.396 OA
HETATM    4  C2  UNL     1     -32.724   9.999  -0.513  1.00 20.00     0.201 C 
ENDBRANCH   2   3
ENDBRANCH   1   2
BRANCH   1   5
HETATM    5  C6  UNL     1     -32.932   6.950   2.959  1.00 20.00    -0.003 C 
HETATM    6  C1  UNL     1     -33.210   6.062   1.741  1.00 20.00     0.011 C 
BRANCH   5   7
HETATM    7  C5  UNL     1     -34.236   7.374   3.653  1.00 20.00     0.119 C 
HETATM    8 CL8  UNL     1     -35.287   6.005   4.093  1.00 20.00    -0.130 Cl
ENDBRANCH   5   7
ENDBRANCH   1   5
TORSDOF 4
ENDMDL
MODEL 6
REMARK VINA RESULT:      -1.9      0.961      1.318
REMARK  4 active torsions:
REMARK  status: ('A' for Active; 'I' for Inactive)
REMARK    1  A    between atoms: C3_3  and  C4_4 
REMARK    2  A    between atoms: C3_3  and  C6_6 
REMARK    3  A    between atoms: C4_4  and  O7_7 
REMARK    4  A    between atoms: C5_5  and  C6_6 
ROOT
HETATM    1  C3  UNL     1     -32.334   7.905   2.642  1.00 20.00     0.031 C 
ENDROOT
BRANCH   1   2
HETATM    2  C4  UNL     1     -31.990   8.264   1.202  1.00 20.00     0.167 C 
BRANCH   2   3
HETATM    3  O7  UNL     1     -32.310   9.633   0.984  1.00 20.00    -0.396 OA
HETATM    4  C2  UNL     1     -32.641   9.880  -0.375  1.00 20.00     0.201 C 
ENDBRANCH   2   3
ENDBRANCH   1   2
BRANCH   1   5
HETATM    5  C6  UNL     1     -33.604   7.045   2.784  1.00 20.00    -0.003 C 
HETATM    6  C1  UNL     1     -34.274   7.329   4.133  1.00 20.00     0.011 C 
BRANCH   5   7
HETATM    7  C5  UNL     1     -33.380   5.539   2.575  1.00 20.00     0.119 C 
HETATM    8 CL8  UNL     1     -34.091   4.528   3.857  1.00 20.00    -0.130 Cl
ENDBRANCH   5   7
ENDBRANCH   1   5
TORSDOF 4
ENDMDL
MODEL 7
REMARK VINA RESULT:      -1.8      1.644      1.926
REMARK  4 active torsions:
REMARK  status: ('A' for Active; 'I' for Inactive)
REMARK    1  A    between atoms: C3_3  and  C4_4 
REMARK    2  A    between atoms: C3_3  and  C6_6 
REMARK    3  A    between atoms: C4_4  and  O7_7 
REMARK    4  A    between atoms: C5_5  and  C6_6 
ROOT
HETATM    1  C3  UNL     1     -32.190   8.002   2.535  1.00 20.00     0.031 C 
ENDROOT
BRANCH   1   2
HETATM    2  C4  UNL     1     -31.905   8.485   1.118  1.00 20.00     0.167 C 
BRANCH   2   3
HETATM    3  O7  UNL     1     -32.532   9.748   0.932  1.00 20.00    -0.396 OA
HETATM    4  C2  UNL     1     -32.689  10.053  -0.446  1.00 20.00     0.201 C 
ENDBRANCH   2   3
ENDBRANCH   1   2
BRANCH   1   5
HETATM    5  C6  UNL     1     -33.473   7.158   2.659  1.00 20.00    -0.003 C 
HETATM    6  C1  UNL     1     -34.181   7.481   3.980  1.00 20.00     0.011 C 
BRANCH   5   7
HETATM    7  C5  UNL     1     -33.260   5.646   2.493  1.00 20.00     0.119 C 
HETATM    8 CL8  UNL     1     -32.268   5.217   1.078  1.00 20.00    -0.130 Cl
ENDBRANCH   5   7
ENDBRANCH   1   5
TORSDOF 4
ENDMDL
MODEL 8
REMARK VINA RESULT:      -1.7      1.165      1.590
REMARK  4 active torsions:
REMARK  status: ('A' for Active; 'I' for Inactive)
REMARK    1  A    between atoms: C3_3  and  C4_4 
REMARK    2  A    between atoms: C3_3  and  C6_6 
REMARK    3  A    between atoms: C4_4  and  O7_7 
REMARK    4  A    between atoms: C5_5  and  C6_6 
ROOT
HETATM    1  C3  UNL     1     -33.629   6.479   2.511  1.00 20.00     0.031 C 
ENDROOT
BRANCH   1   2
HETATM    2  C4  UNL     1     -32.636   7.593   2.203  1.00 20.00     0.167 C 
BRANCH   2   3
HETATM    3  O7  UNL     1     -31.547   7.043   1.472  1.00 20.00    -0.396 OA
HETATM    4  C2  UNL     1     -31.761   5.671   1.174  1.00 20.00     0.201 C 
ENDBRANCH   2   3
ENDBRANCH   1   2
BRANCH   1   5
HETATM    5  C6  UNL     1     -34.610   6.816   3.650  1.00 20.00    -0.003 C 
HETATM    6  C1  UNL     1     -33.937   7.760   4.653  1.00 20.00     0.011 C 
BRANCH   5   7
HETATM    7  C5  UNL     1     -35.216   5.591   4.353  1.00 20.00     0.119 C 
HETATM    8 CL8  UNL     1     -34.185   4.141   4.273  1.00 20.00    -0.130 Cl
ENDBRANCH   5   7
ENDBRANCH   1   5
TORSDOF 4
ENDMDL
MODEL 9
REMARK VINA RESULT:      -1.6      1.853      2.201
REMARK  4 active torsions:
REMARK  status: ('A' for Active; 'I' for Inactive)
REMARK    1  A    between atoms: C3_3  and  C4_4 
REMARK    2  A    between atoms: C3_3  and  C6_6 
REMARK    3  A    between atoms: C4_4  and  O7_7 
REMARK    4  A    between atoms: C5_5  and  C6_6 
ROOT
HETATM    1  C3  UNL     1     -33.319   5.746   1.840  1.00 20.00     0.031 C 
ENDROOT
BRANCH   1   2
HETATM    2  C4  UNL     1     -32.034   6.492   1.501  1.00 20.00     0.167 C 
BRANCH   2   3
HETATM    3  O7  UNL     1     -32.121   7.811   2.025  1.00 20.00    -0.396 OA
HETATM    4  C2  UNL     1     -32.146   8.782   0.988  1.00 20.00     0.201 C 
ENDBRANCH   2   3
ENDBRANCH   1   2
BRANCH   1   5
HETATM    5  C6  UNL     1     -33.618   5.675   3.350  1.00 20.00    -0.003 C 
HETATM    6  C1  UNL     1     -33.966   4.235   3.742  1.00 20.00     0.011 C 
BRANCH   5   7
HETATM    7  C5  UNL     1     -34.691   6.663   3.834  1.00 20.00     0.119 C 
HETATM    8 CL8  UNL     1     -34.028   8.054   4.725  1.00 20.00    -0.130 Cl
ENDBRANCH   5   7
ENDBRANCH   1   5
TORSDOF 4
ENDMDL
