MODEL 1
REMARK VINA RESULT:      -3.0      0.000      0.000
REMARK  5 active torsions:
REMARK  status: ('A' for Active; 'I' for Inactive)
REMARK    1  A    between atoms: C1_1  and  C3_3 
REMARK    2  A    between atoms: C1_1  and  C4_4 
REMARK    3  A    between atoms: C3_3  and  C5_5 
REMARK    4  A    between atoms: C4_4  and  C6_6 
REMARK    5  A    between atoms: C6_6  and  C7_7 
ROOT
HETATM    1  C1  UNL     1     -32.920   7.065   2.387  1.00 20.00     0.127 C 
HETATM    2  O8  UNL     1     -32.970   6.088   1.644  1.00 20.00    -0.298 OA
ENDROOT
BRANCH   1   3
HETATM    3  C3  UNL     1     -32.054   8.277   2.076  1.00 20.00     0.078 C 
BRANCH   3   4
HETATM    4  C5  UNL     1     -32.052   8.630   0.591  1.00 20.00     0.003 C 
HETATM    5  C2  UNL     1     -32.492  10.067   0.361  1.00 20.00     0.005 C 
ENDBRANCH   3   4
ENDBRANCH   1   3
BRANCH   1   6
HETATM    6  C4  UNL     1     -33.747   7.163   3.661  1.00 20.00     0.079 C 
BRANCH   6   7
HETATM    7  C6  UNL     1     -35.101   6.460   3.576  1.00 20.00     0.022 C 
BRANCH   7   8
HETATM    8  C7  UNL     1     -35.199   5.279   4.535  1.00 20.00     0.115 C 
HETATM    9 CL9  UNL     1     -34.002   4.033   4.107  1.00 20.00    -0.130 Cl
ENDBRANCH   7   8
ENDBRANCH   6   7
ENDBRANCH   1   6
TORSDOF 5
ENDMDL
MODEL 2
REMARK VINA RESULT:      -2.7      2.917      5.056
REMARK  5 active torsions:
REMARK  status: ('A' for Active; 'I' for Inactive)
REMARK    1  A    between atoms: C1_1  and  C3_3 
REMARK    2  A    between atoms: C1_1  and  C4_4 
REMARK    3  A    between atoms: C3_3  and  C5_5 
REMARK    4  A    between atoms: C4_4  and  C6_6 
REMARK    5  A    between atoms: C6_6  and  C7_7 
ROOT
HETATM    1  C1  UNL     1     -34.323   6.261   3.585  1.00 20.00     0.127 C 
HETATM    2  O8  UNL     1     -35.463   6.370   4.032  1.00 20.00    -0.298 OA
ENDROOT
BRANCH   1   3
HETATM    3  C3  UNL     1     -33.650   4.909   3.403  1.00 20.00     0.078 C 
BRANCH   3   4
HETATM    4  C5  UNL     1     -34.122   3.877   4.422  1.00 20.00     0.003 C 
HETATM    5  C2  UNL     1     -33.016   2.897   4.777  1.00 20.00     0.005 C 
ENDBRANCH   3   4
ENDBRANCH   1   3
BRANCH   1   6
HETATM    6  C4  UNL     1     -33.504   7.465   3.143  1.00 20.00     0.079 C 
BRANCH   6   7
HETATM    7  C6  UNL     1     -32.622   7.199   1.923  1.00 20.00     0.022 C 
BRANCH   7   8
HETATM    8  C7  UNL     1     -31.686   8.365   1.624  1.00 20.00     0.115 C 
HETATM    9 CL9  UNL     1     -32.446   9.491   0.474  1.00 20.00    -0.130 Cl
ENDBRANCH   7   8
ENDBRANCH   6   7
ENDBRANCH   1   6
TORSDOF 5
ENDMDL
MODEL 3
REMARK VINA RESULT:      -2.7      1.432      1.930
REMARK  5 active torsions:
REMARK  status: ('A' for Active; 'I' for Inactive)
REMARK    1  A    between atoms: C1_1  and  C3_3 
REMARK    2  A    between atoms: C1_1  and  C4_4 
REMARK    3  A    between atoms: C3_3  and  C5_5 
REMARK    4  A    between atoms: C4_4  and  C6_6 
REMARK    5  A    between atoms: C6_6  and  C7_7 
ROOT
HETATM    1  C1  UNL     1     -33.928   7.139   3.565  1.00 20.00     0.127 C 
HETATM    2  O8  UNL     1     -33.520   7.908   4.433  1.00 20.00    -0.298 OA
ENDROOT
BRANCH   1   3
HETATM    3  C3  UNL     1     -33.207   6.958   2.238  1.00 20.00     0.078 C 
BRANCH   3   4
HETATM    4  C5  UNL     1     -32.029   7.914   2.076  1.00 20.00     0.003 C 
HETATM    5  C2  UNL     1     -32.279   8.924   0.968  1.00 20.00     0.005 C 
ENDBRANCH   3   4
ENDBRANCH   1   3
BRANCH   1   6
HETATM    6  C4  UNL     1     -35.166   6.275   3.760  1.00 20.00     0.079 C 
BRANCH   6   7
HETATM    7  C6  UNL     1     -34.904   4.983   4.533  1.00 20.00     0.022 C 
BRANCH   7   8
HETATM    8  C7  UNL     1     -33.932   4.062   3.803  1.00 20.00     0.115 C 
HETATM    9 CL9  UNL     1     -33.164   2.938   4.951  1.00 20.00    -0.130 Cl
ENDBRANCH   7   8
ENDBRANCH   6   7
ENDBRANCH   1   6
TORSDOF 5
ENDMDL
MODEL 4
REMARK VINA RESULT:      -2.4      2.587      4.870
REMARK  5 active torsions:
REMARK  status: ('A' for Active; 'I' for Inactive)
REMARK    1  A    between atoms: C1_1  and  C3_3 
REMARK    2  A    between atoms: C1_1  and  C4_4 
REMARK    3  A    between atoms: C3_3  and  C5_5 
REMARK    4  A    between atoms: C4_4  and  C6_6 
REMARK    5  A    between atoms: C6_6  and  C7_7 
ROOT
HETATM    1  C1  UNL     1     -33.075   7.137   2.530  1.00 20.00     0.127 C 
HETATM    2  O8  UNL     1     -33.107   6.132   1.823  1.00 20.00    -0.298 OA
ENDROOT
BRANCH   1   3
HETATM    3  C3  UNL     1     -33.905   7.263   3.799  1.00 20.00     0.078 C 
BRANCH   3   4
HETATM    4  C5  UNL     1     -35.203   6.464   3.732  1.00 20.00     0.003 C 
HETATM    5  C2  UNL     1     -35.062   5.114   4.417  1.00 20.00     0.005 C 
ENDBRANCH   3   4
ENDBRANCH   1   3
BRANCH   1   6
HETATM    6  C4  UNL     1     -32.178   8.326   2.215  1.00 20.00     0.079 C 
BRANCH   6   7
HETATM    7  C6  UNL     1     -31.674   8.356   0.772  1.00 20.00     0.022 C 
BRANCH   7   8
HETATM    8  C7  UNL     1     -32.428   9.371  -0.080  1.00 20.00     0.115 C 
HETATM    9 CL9  UNL     1     -32.711  10.866   0.844  1.00 20.00    -0.130 Cl
ENDBRANCH   7   8
ENDBRANCH   6   7
ENDBRANCH   1   6
TORSDOF 5
ENDMDL
MODEL 5
REMARK VINA RESULT:      -2.3      1.241      1.474
REMARK  5 active torsions:
REMARK  status: ('A' for Active; 'I' for Inactive)
REMARK    1  A    between atoms: C1_1  and  C3_3 
REMARK    2  A    between atoms: C1_1  and  C4_4 
REMARK    3  A    between atoms: C3_3  and  C5_5 
REMARK    4  A    between atoms: C4_4  and  C6_6 
REMARK    5  A    between atoms: C6_6  and  C7_7 
ROOT
HETATM    1  C1  UNL     1     -32.235   7.974   2.463  1.00 20.00     0.127 C 
HETATM    2  O8  UNL     1     -31.595   8.458   3.394  1.00 20.00    -0.298 OA
ENDROOT
BRANCH   1   3
HETATM    3  C3  UNL     1     -31.991   8.375   1.015  1.00 20.00     0.078 C 
BRANCH   3   4
HETATM    4  C5  UNL     1     -32.356   9.831   0.742  1.00 20.00     0.003 C 
HETATM    5  C2  UNL     1     -32.770  10.038  -0.706  1.00 20.00     0.005 C 
ENDBRANCH   3   4
ENDBRANCH   1   3
BRANCH   1   6
HETATM    6  C4  UNL     1     -33.299   6.907   2.675  1.00 20.00     0.079 C 
BRANCH   6   7
HETATM    7  C6  UNL     1     -34.257   7.208   3.827  1.00 20.00     0.022 C 
BRANCH   7   8
HETATM    8  C7  UNL     1     -35.234   6.064   4.078  1.00 20.00     0.115 C 
HETATM    9 CL9  UNL     1     -34.364   4.513   4.152  1.00 20.00    -0.130 Cl
ENDBRANCH   7   8
ENDBRANCH   6   7
ENDBRANCH   1   6
TORSDOF 5
ENDMDL
MODEL 6
REMARK VINA RESULT:      -2.1      2.741      4.779
REMARK  5 active torsions:
REMARK  status: ('A' for Active; 'I' for Inactive)
REMARK    1  A    between atoms: C1_1  and  C3_3 
REMARK    2  A    between atoms: C1_1  and  C4_4 
REMARK    3  A    between atoms: C3_3  and  C5_5 
REMARK    4  A    between atoms: C4_4  and  C6_6 
REMARK    5  A    between atoms: C6_6  and  C7_7 
ROOT
HETATM    1  C1  UNL     1     -32.396   6.403   1.744  1.00 20.00     0.127 C 
HETATM    2  O8  UNL     1     -31.594   5.676   1.161  1.00 20.00    -0.298 OA
ENDROOT
BRANCH   1   3
HETATM    3  C3  UNL     1     -33.632   5.854   2.439  1.00 20.00     0.078 C 
BRANCH   3   4
HETATM    4  C5  UNL     1     -34.160   6.790   3.523  1.00 20.00     0.003 C 
HETATM    5  C2  UNL     1     -35.394   6.217   4.200  1.00 20.00     0.005 C 
ENDBRANCH   3   4
ENDBRANCH   1   3
BRANCH   1   6
HETATM    6  C4  UNL     1     -32.201   7.909   1.851  1.00 20.00     0.079 C 
BRANCH   6   7
HETATM    7  C6  UNL     1     -31.523   8.533   0.631  1.00 20.00     0.022 C 
BRANCH   7   8
HETATM    8  C7  UNL     1     -32.449   9.484  -0.119  1.00 20.00     0.115 C 
HETATM    9 CL9  UNL     1     -32.729  10.959   0.837  1.00 20.00    -0.130 Cl
ENDBRANCH   7   8
ENDBRANCH   6   7
ENDBRANCH   1   6
TORSDOF 5
ENDMDL
MODEL 7
REMARK VINA RESULT:      -2.0      2.306      4.664
REMARK  5 active torsions:
REMARK  status: ('A' for Active; 'I' for Inactive)
REMARK    1  A    between atoms: C1_1  and  C3_3 
REMARK    2  A    between atoms: C1_1  and  C4_4 
REMARK    3  A    between atoms: C3_3  and  C5_5 
REMARK    4  A    between atoms: C4_4  and  C6_6 
REMARK    5  A    between atoms: C6_6  and  C7_7 
ROOT
HETATM    1  C1  UNL     1     -34.448   6.243   3.722  1.00 20.00     0.127 C 
HETATM    2  O8  UNL     1     -35.654   6.394   3.908  1.00 20.00    -0.298 OA
ENDROOT
BRANCH   1   3
HETATM    3  C3  UNL     1     -33.833   4.875   3.465  1.00 20.00     0.078 C 
BRANCH   3   4
HETATM    4  C5  UNL     1     -34.131   3.879   4.582  1.00 20.00     0.003 C 
HETATM    5  C2  UNL     1     -33.001   2.876   4.749  1.00 20.00     0.005 C 
ENDBRANCH   3   4
ENDBRANCH   1   3
BRANCH   1   6
HETATM    6  C4  UNL     1     -33.475   7.412   3.696  1.00 20.00     0.079 C 
BRANCH   6   7
HETATM    7  C6  UNL     1     -33.154   7.920   2.291  1.00 20.00     0.022 C 
BRANCH   7   8
HETATM    8  C7  UNL     1     -31.782   7.460   1.812  1.00 20.00     0.115 C 
HETATM    9 CL9  UNL     1     -31.874   5.801   1.172  1.00 20.00    -0.130 Cl
ENDBRANCH   7   8
ENDBRANCH   6   7
ENDBRANCH   1   6
TORSDOF 5
ENDMDL
MODEL 8
REMARK VINA RESULT:      -1.9      2.076      2.510
REMARK  5 active torsions:
REMARK  status: ('A' for Active; 'I' for Inactive)
REMARK    1  A    between atoms: C1_1  and  C3_3 
REMARK    2  A    between atoms: C1_1  and  C4_4 
REMARK    3  A    between atoms: C3_3  and  C5_5 
REMARK    4  A    between atoms: C4_4  and  C6_6 
REMARK    5  A    between atoms: C6_6  and  C7_7 
ROOT
HETATM    1  C1  UNL     1     -34.245   6.368   3.530  1.00 20.00     0.127 C 
HETATM    2  O8  UNL     1     -35.391   6.477   3.963  1.00 20.00    -0.298 OA
ENDROOT
BRANCH   1   3
HETATM    3  C3  UNL     1     -33.422   7.574   3.103  1.00 20.00     0.078 C 
BRANCH   3   4
HETATM    4  C5  UNL     1     -32.415   7.237   2.007  1.00 20.00     0.003 C 
HETATM    5  C2  UNL     1     -31.957   8.485   1.270  1.00 20.00     0.005 C 
ENDBRANCH   3   4
ENDBRANCH   1   3
BRANCH   1   6
HETATM    6  C4  UNL     1     -33.542   5.023   3.419  1.00 20.00     0.079 C 
BRANCH   6   7
HETATM    7  C6  UNL     1     -34.139   3.936   4.313  1.00 20.00     0.022 C 
BRANCH   7   8
HETATM    8  C7  UNL     1     -33.122   2.855   4.662  1.00 20.00     0.115 C 
HETATM    9 CL9  UNL     1     -32.398   3.177   6.255  1.00 20.00    -0.130 Cl
ENDBRANCH   7   8
ENDBRANCH   6   7
ENDBRANCH   1   6
TORSDOF 5
ENDMDL
MODEL 9
REMARK VINA RESULT:      -1.9      2.591      4.798
REMARK  5 active torsions:
REMARK  status: ('A' for Active; 'I' for Inactive)
REMARK    1  A    between atoms: C1_1  and  C3_3 
REMARK    2  A    between atoms: C1_1  and  C4_4 
REMARK    3  A    between atoms: C3_3  and  C5_5 
REMARK    4  A    between atoms: C4_4  and  C6_6 
REMARK    5  A    between atoms: C6_6  and  C7_7 
ROOT
HETATM    1  C1  UNL     1     -34.748   5.433   4.075  1.00 20.00     0.127 C 
HETATM    2  O8  UNL     1     -35.712   4.980   4.689  1.00 20.00    -0.298 OA
ENDROOT
BRANCH   1   3
HETATM    3  C3  UNL     1     -33.577   4.562   3.648  1.00 20.00     0.078 C 
BRANCH   3   4
HETATM    4  C5  UNL     1     -33.624   3.170   4.272  1.00 20.00     0.003 C 
HETATM    5  C2  UNL     1     -32.677   3.059   5.456  1.00 20.00     0.005 C 
ENDBRANCH   3   4
ENDBRANCH   1   3
BRANCH   1   6
HETATM    6  C4  UNL     1     -34.662   6.894   3.657  1.00 20.00     0.079 C 
BRANCH   6   7
HETATM    7  C6  UNL     1     -33.258   7.487   3.763  1.00 20.00     0.022 C 
BRANCH   7   8
HETATM    8  C7  UNL     1     -32.743   7.991   2.419  1.00 20.00     0.115 C 
HETATM    9 CL9  UNL     1     -32.076   6.643   1.467  1.00 20.00    -0.130 Cl
ENDBRANCH   7   8
ENDBRANCH   6   7
ENDBRANCH   1   6
TORSDOF 5
ENDMDL
