MODEL 1
REMARK VINA RESULT:      -0.8      0.000      0.000
REMARK  4 active torsions:
REMARK  status: ('A' for Active; 'I' for Inactive)
REMARK    1  A    between atoms: C1_1  and  C6_6 
REMARK    2  A    between atoms: C2_2  and  C7_7 
REMARK    3  A    between atoms: C6_6  and  O9_9 
REMARK    4  A    between atoms: C8_8  and  O9_9 
ROOT
HETATM    1  C6  UNL     1     -32.652   5.996   2.060  1.00 20.00     0.196 C 
ENDROOT
BRANCH   1   2
HETATM    2  C1  UNL     1     -31.985   7.098   1.302  1.00 20.00    -0.004 C 
HETATM    3  C2  UNL     1     -32.400   8.373   1.321  1.00 20.00    -0.014 C 
BRANCH   3   4
HETATM    4  C7  UNL     1     -31.723   9.473   0.574  1.00 20.00     0.141 C 
HETATM    5 CL10 UNL     1     -32.861  10.223  -0.565  1.00 20.00    -0.126 Cl
ENDBRANCH   3   4
ENDBRANCH   1   2
BRANCH   1   6
HETATM    6  O9  UNL     1     -34.016   6.334   2.252  1.00 20.00    -0.378 OA
BRANCH   6   7
HETATM    7  C8  UNL     1     -34.393   6.205   3.624  1.00 20.00     0.050 C 
HETATM    8  C3  UNL     1     -33.734   7.331   4.418  1.00 20.00     0.045 C 
HETATM    9  C4  UNL     1     -35.915   6.317   3.694  1.00 20.00     0.045 C 
HETATM   10  C5  UNL     1     -33.932   4.839   4.129  1.00 20.00     0.045 C 
ENDBRANCH   6   7
ENDBRANCH   1   6
TORSDOF 4
ENDMDL
MODEL 2
REMARK VINA RESULT:      -0.8      0.042      1.381
REMARK  4 active torsions:
REMARK  status: ('A' for Active; 'I' for Inactive)
REMARK    1  A    between atoms: C1_1  and  C6_6 
REMARK    2  A    between atoms: C2_2  and  C7_7 
REMARK    3  A    between atoms: C6_6  and  O9_9 
REMARK    4  A    between atoms: C8_8  and  O9_9 
ROOT
HETATM    1  C6  UNL     1     -32.672   5.969   2.040  1.00 20.00     0.196 C 
ENDROOT
BRANCH   1   2
HETATM    2  C1  UNL     1     -31.996   7.063   1.280  1.00 20.00    -0.004 C 
HETATM    3  C2  UNL     1     -32.385   8.346   1.315  1.00 20.00    -0.014 C 
BRANCH   3   4
HETATM    4  C7  UNL     1     -31.698   9.439   0.567  1.00 20.00     0.141 C 
HETATM    5 CL10 UNL     1     -32.837  10.215  -0.554  1.00 20.00    -0.126 Cl
ENDBRANCH   3   4
ENDBRANCH   1   2
BRANCH   1   6
HETATM    6  O9  UNL     1     -34.025   6.335   2.260  1.00 20.00    -0.378 OA
BRANCH   6   7
HETATM    7  C8  UNL     1     -34.382   6.194   3.636  1.00 20.00     0.050 C 
HETATM    8  C3  UNL     1     -35.903   6.274   3.754  1.00 20.00     0.045 C 
HETATM    9  C4  UNL     1     -33.878   4.830   4.104  1.00 20.00     0.045 C 
HETATM   10  C5  UNL     1     -33.714   7.315   4.430  1.00 20.00     0.045 C 
ENDBRANCH   6   7
ENDBRANCH   1   6
TORSDOF 4
ENDMDL
MODEL 3
REMARK VINA RESULT:      -0.8      0.036      1.374
REMARK  4 active torsions:
REMARK  status: ('A' for Active; 'I' for Inactive)
REMARK    1  A    between atoms: C1_1  and  C6_6 
REMARK    2  A    between atoms: C2_2  and  C7_7 
REMARK    3  A    between atoms: C6_6  and  O9_9 
REMARK    4  A    between atoms: C8_8  and  O9_9 
ROOT
HETATM    1  C6  UNL     1     -32.637   5.987   2.045  1.00 20.00     0.196 C 
ENDROOT
BRANCH   1   2
HETATM    2  C1  UNL     1     -31.977   7.088   1.280  1.00 20.00    -0.004 C 
HETATM    3  C2  UNL     1     -32.381   8.366   1.315  1.00 20.00    -0.014 C 
BRANCH   3   4
HETATM    4  C7  UNL     1     -31.710   9.465   0.561  1.00 20.00     0.141 C 
HETATM    5 CL10 UNL     1     -32.863  10.225  -0.557  1.00 20.00    -0.126 Cl
ENDBRANCH   3   4
ENDBRANCH   1   2
BRANCH   1   6
HETATM    6  O9  UNL     1     -33.999   6.327   2.251  1.00 20.00    -0.378 OA
BRANCH   6   7
HETATM    7  C8  UNL     1     -34.367   6.183   3.624  1.00 20.00     0.050 C 
HETATM    8  C3  UNL     1     -33.872   4.826   4.120  1.00 20.00     0.045 C 
HETATM    9  C4  UNL     1     -33.697   7.315   4.400  1.00 20.00     0.045 C 
HETATM   10  C5  UNL     1     -35.887   6.282   3.734  1.00 20.00     0.045 C 
ENDBRANCH   6   7
ENDBRANCH   1   6
TORSDOF 4
ENDMDL
MODEL 4
REMARK VINA RESULT:      -0.7      3.050      4.991
REMARK  4 active torsions:
REMARK  status: ('A' for Active; 'I' for Inactive)
REMARK    1  A    between atoms: C1_1  and  C6_6 
REMARK    2  A    between atoms: C2_2  and  C7_7 
REMARK    3  A    between atoms: C6_6  and  O9_9 
REMARK    4  A    between atoms: C8_8  and  O9_9 
ROOT
HETATM    1  C6  UNL     1     -33.839   7.720   3.633  1.00 20.00     0.196 C 
ENDROOT
BRANCH   1   2
HETATM    2  C1  UNL     1     -34.382   6.380   4.010  1.00 20.00    -0.004 C 
HETATM    3  C2  UNL     1     -33.758   5.222   3.750  1.00 20.00    -0.014 C 
BRANCH   3   4
HETATM    4  C7  UNL     1     -34.296   3.886   4.141  1.00 20.00     0.141 C 
HETATM    5 CL10 UNL     1     -33.017   2.918   4.905  1.00 20.00    -0.126 Cl
ENDBRANCH   3   4
ENDBRANCH   1   2
BRANCH   1   6
HETATM    6  O9  UNL     1     -33.644   7.755   2.229  1.00 20.00    -0.378 OA
BRANCH   6   7
HETATM    7  C8  UNL     1     -32.293   8.085   1.902  1.00 20.00     0.050 C 
HETATM    8  C3  UNL     1     -31.594   8.581   3.166  1.00 20.00     0.045 C 
HETATM    9  C4  UNL     1     -31.623   6.816   1.380  1.00 20.00     0.045 C 
HETATM   10  C5  UNL     1     -32.305   9.169   0.825  1.00 20.00     0.045 C 
ENDBRANCH   6   7
ENDBRANCH   1   6
TORSDOF 4
ENDMDL
MODEL 5
REMARK VINA RESULT:      -0.6      3.048      4.986
REMARK  4 active torsions:
REMARK  status: ('A' for Active; 'I' for Inactive)
REMARK    1  A    between atoms: C1_1  and  C6_6 
REMARK    2  A    between atoms: C2_2  and  C7_7 
REMARK    3  A    between atoms: C6_6  and  O9_9 
REMARK    4  A    between atoms: C8_8  and  O9_9 
ROOT
HETATM    1  C6  UNL     1     -33.831   7.743   3.618  1.00 20.00     0.196 C 
ENDROOT
BRANCH   1   2
HETATM    2  C1  UNL     1     -34.380   6.407   3.999  1.00 20.00    -0.004 C 
HETATM    3  C2  UNL     1     -33.762   5.245   3.737  1.00 20.00    -0.014 C 
BRANCH   3   4
HETATM    4  C7  UNL     1     -34.306   3.913   4.133  1.00 20.00     0.141 C 
HETATM    5 CL10 UNL     1     -33.043   2.958   4.939  1.00 20.00    -0.126 Cl
ENDBRANCH   3   4
ENDBRANCH   1   2
BRANCH   1   6
HETATM    6  O9  UNL     1     -33.626   7.769   2.214  1.00 20.00    -0.378 OA
BRANCH   6   7
HETATM    7  C8  UNL     1     -32.269   8.080   1.895  1.00 20.00     0.050 C 
HETATM    8  C3  UNL     1     -31.595   6.818   1.359  1.00 20.00     0.045 C 
HETATM    9  C4  UNL     1     -32.287   9.173   0.828  1.00 20.00     0.045 C 
HETATM   10  C5  UNL     1     -31.572   8.575   3.161  1.00 20.00     0.045 C 
ENDBRANCH   6   7
ENDBRANCH   1   6
TORSDOF 4
ENDMDL
MODEL 6
REMARK VINA RESULT:      -0.6      3.054      4.940
REMARK  4 active torsions:
REMARK  status: ('A' for Active; 'I' for Inactive)
REMARK    1  A    between atoms: C1_1  and  C6_6 
REMARK    2  A    between atoms: C2_2  and  C7_7 
REMARK    3  A    between atoms: C6_6  and  O9_9 
REMARK    4  A    between atoms: C8_8  and  O9_9 
ROOT
HETATM    1  C6  UNL     1     -33.856   7.723   3.637  1.00 20.00     0.196 C 
ENDROOT
BRANCH   1   2
HETATM    2  C1  UNL     1     -34.395   6.380   4.006  1.00 20.00    -0.004 C 
HETATM    3  C2  UNL     1     -33.751   5.227   3.768  1.00 20.00    -0.014 C 
BRANCH   3   4
HETATM    4  C7  UNL     1     -34.286   3.888   4.152  1.00 20.00     0.141 C 
HETATM    5 CL10 UNL     1     -33.014   2.932   4.943  1.00 20.00    -0.126 Cl
ENDBRANCH   3   4
ENDBRANCH   1   2
BRANCH   1   6
HETATM    6  O9  UNL     1     -33.662   7.768   2.232  1.00 20.00    -0.378 OA
BRANCH   6   7
HETATM    7  C8  UNL     1     -32.307   8.078   1.905  1.00 20.00     0.050 C 
HETATM    8  C3  UNL     1     -32.302   9.186   0.853  1.00 20.00     0.045 C 
HETATM    9  C4  UNL     1     -31.622   8.551   3.186  1.00 20.00     0.045 C 
HETATM   10  C5  UNL     1     -31.634   6.815   1.371  1.00 20.00     0.045 C 
ENDBRANCH   6   7
ENDBRANCH   1   6
TORSDOF 4
ENDMDL
MODEL 7
REMARK VINA RESULT:      -0.1      2.750      5.087
REMARK  4 active torsions:
REMARK  status: ('A' for Active; 'I' for Inactive)
REMARK    1  A    between atoms: C1_1  and  C6_6 
REMARK    2  A    between atoms: C2_2  and  C7_7 
REMARK    3  A    between atoms: C6_6  and  O9_9 
REMARK    4  A    between atoms: C8_8  and  O9_9 
ROOT
HETATM    1  C6  UNL     1     -32.291   7.716   1.877  1.00 20.00     0.196 C 
ENDROOT
BRANCH   1   2
HETATM    2  C1  UNL     1     -33.193   6.745   2.568  1.00 20.00    -0.004 C 
HETATM    3  C2  UNL     1     -34.146   7.103   3.440  1.00 20.00    -0.014 C 
BRANCH   3   4
HETATM    4  C7  UNL     1     -35.055   6.132   4.117  1.00 20.00     0.141 C 
HETATM    5 CL10 UNL     1     -34.338   4.507   4.083  1.00 20.00    -0.126 Cl
ENDBRANCH   3   4
ENDBRANCH   1   2
BRANCH   1   6
HETATM    6  O9  UNL     1     -33.066   8.811   1.418  1.00 20.00    -0.378 OA
BRANCH   6   7
HETATM    7  C8  UNL     1     -32.319   9.635   0.522  1.00 20.00     0.050 C 
HETATM    8  C3  UNL     1     -32.301  11.060   1.073  1.00 20.00     0.045 C 
HETATM    9  C4  UNL     1     -30.902   9.069   0.451  1.00 20.00     0.045 C 
HETATM   10  C5  UNL     1     -32.985   9.590  -0.852  1.00 20.00     0.045 C 
ENDBRANCH   6   7
ENDBRANCH   1   6
TORSDOF 4
ENDMDL
MODEL 8
REMARK VINA RESULT:      -0.1      2.773      5.089
REMARK  4 active torsions:
REMARK  status: ('A' for Active; 'I' for Inactive)
REMARK    1  A    between atoms: C1_1  and  C6_6 
REMARK    2  A    between atoms: C2_2  and  C7_7 
REMARK    3  A    between atoms: C6_6  and  O9_9 
REMARK    4  A    between atoms: C8_8  and  O9_9 
ROOT
HETATM    1  C6  UNL     1     -32.282   7.679   1.874  1.00 20.00     0.196 C 
ENDROOT
BRANCH   1   2
HETATM    2  C1  UNL     1     -33.240   6.708   2.483  1.00 20.00    -0.004 C 
HETATM    3  C2  UNL     1     -34.109   7.027   3.453  1.00 20.00    -0.014 C 
BRANCH   3   4
HETATM    4  C7  UNL     1     -35.075   6.058   4.049  1.00 20.00     0.141 C 
HETATM    5 CL10 UNL     1     -34.324   4.453   4.174  1.00 20.00    -0.126 Cl
ENDBRANCH   3   4
ENDBRANCH   1   2
BRANCH   1   6
HETATM    6  O9  UNL     1     -32.988   8.857   1.521  1.00 20.00    -0.378 OA
BRANCH   6   7
HETATM    7  C8  UNL     1     -32.276   9.614   0.540  1.00 20.00     0.050 C 
HETATM    8  C3  UNL     1     -30.871   9.031   0.402  1.00 20.00     0.045 C 
HETATM    9  C4  UNL     1     -33.040   9.491  -0.777  1.00 20.00     0.045 C 
HETATM   10  C5  UNL     1     -32.220  11.071   0.995  1.00 20.00     0.045 C 
ENDBRANCH   6   7
ENDBRANCH   1   6
TORSDOF 4
ENDMDL
MODEL 9
REMARK VINA RESULT:      -0.1      2.746      5.060
REMARK  4 active torsions:
REMARK  status: ('A' for Active; 'I' for Inactive)
REMARK    1  A    between atoms: C1_1  and  C6_6 
REMARK    2  A    between atoms: C2_2  and  C7_7 
REMARK    3  A    between atoms: C6_6  and  O9_9 
REMARK    4  A    between atoms: C8_8  and  O9_9 
ROOT
HETATM    1  C6  UNL     1     -32.279   7.665   1.820  1.00 20.00     0.196 C 
ENDROOT
BRANCH   1   2
HETATM    2  C1  UNL     1     -33.175   6.722   2.554  1.00 20.00    -0.004 C 
HETATM    3  C2  UNL     1     -34.132   7.114   3.408  1.00 20.00    -0.014 C 
BRANCH   3   4
HETATM    4  C7  UNL     1     -35.035   6.170   4.128  1.00 20.00     0.141 C 
HETATM    5 CL10 UNL     1     -34.341   4.534   4.108  1.00 20.00    -0.126 Cl
ENDBRANCH   3   4
ENDBRANCH   1   2
BRANCH   1   6
HETATM    6  O9  UNL     1     -33.031   8.805   1.435  1.00 20.00    -0.378 OA
BRANCH   6   7
HETATM    7  C8  UNL     1     -32.299   9.627   0.526  1.00 20.00     0.050 C 
HETATM    8  C3  UNL     1     -32.988   9.578  -0.837  1.00 20.00     0.045 C 
HETATM    9  C4  UNL     1     -32.309  11.049   1.082  1.00 20.00     0.045 C 
HETATM   10  C5  UNL     1     -30.869   9.096   0.433  1.00 20.00     0.045 C 
ENDBRANCH   6   7
ENDBRANCH   1   6
TORSDOF 4
ENDMDL
