MODEL 1
REMARK VINA RESULT:      -2.6      0.000      0.000
REMARK  3 active torsions:
REMARK  status: ('A' for Active; 'I' for Inactive)
REMARK    1  A    between atoms: C1_1  and  C3_3 
REMARK    2  A    between atoms: C2_2  and  C6_6 
REMARK    3  A    between atoms: C3_3  and  O10_10 
ROOT
HETATM    1  C1  UNL     1     -33.696   6.917   3.528  1.00 20.00     0.014 C 
HETATM    2  C2  UNL     1     -32.942   6.925   2.403  1.00 20.00    -0.067 C 
HETATM    3  C7  UNL     1     -33.810   8.041   4.518  1.00 20.00     0.056 C 
HETATM    4  C8  UNL     1     -32.863   5.804   1.420  1.00 20.00     0.044 C 
ENDROOT
BRANCH   1   5
HETATM    5  C3  UNL     1     -34.529   5.721   3.818  1.00 20.00     0.171 C 
HETATM    6  O9  UNL     1     -34.117   4.581   3.952  1.00 20.00    -0.646 OA
BRANCH   5   7
HETATM    7  O10 UNL     1     -35.831   6.085   3.907  1.00 20.00    -0.773 OA
HETATM    8  H22 UNL     1     -36.314   5.926   3.069  1.00 20.00     0.167 HD
ENDBRANCH   5   7
ENDBRANCH   1   5
BRANCH   2   9
HETATM    9  C6  UNL     1     -32.052   8.097   2.049  1.00 20.00     0.015 A 
HETATM   10  C4  UNL     1     -31.450   8.098   0.699  1.00 20.00     0.010 A 
HETATM   11  C5  UNL     1     -32.563   9.045   1.038  1.00 20.00     0.010 A 
ENDBRANCH   2   9
TORSDOF 3
ENDMDL
MODEL 2
REMARK VINA RESULT:      -2.4      0.849      1.016
REMARK  3 active torsions:
REMARK  status: ('A' for Active; 'I' for Inactive)
REMARK    1  A    between atoms: C1_1  and  C3_3 
REMARK    2  A    between atoms: C2_2  and  C6_6 
REMARK    3  A    between atoms: C3_3  and  O10_10 
ROOT
HETATM    1  C1  UNL     1     -33.998   6.348   3.546  1.00 20.00     0.014 C 
HETATM    2  C2  UNL     1     -33.293   6.461   2.395  1.00 20.00    -0.067 C 
HETATM    3  C7  UNL     1     -34.452   7.487   4.414  1.00 20.00     0.056 C 
HETATM    4  C8  UNL     1     -32.874   5.315   1.535  1.00 20.00     0.044 C 
ENDROOT
BRANCH   1   5
HETATM    5  C3  UNL     1     -34.411   4.994   3.998  1.00 20.00     0.171 C 
HETATM    6  O9  UNL     1     -33.723   3.988   3.956  1.00 20.00    -0.646 OA
BRANCH   5   7
HETATM    7  O10 UNL     1     -35.682   5.039   4.464  1.00 20.00    -0.773 OA
HETATM    8  H22 UNL     1     -36.337   4.842   3.763  1.00 20.00     0.167 HD
ENDBRANCH   5   7
ENDBRANCH   1   5
BRANCH   2   9
HETATM    9  C6  UNL     1     -32.820   7.803   1.880  1.00 20.00     0.015 A 
HETATM   10  C4  UNL     1     -31.534   8.308   2.406  1.00 20.00     0.010 A 
HETATM   11  C5  UNL     1     -31.635   7.802   0.997  1.00 20.00     0.010 A 
ENDBRANCH   2   9
TORSDOF 3
ENDMDL
MODEL 3
REMARK VINA RESULT:      -2.1      2.393      4.296
REMARK  3 active torsions:
REMARK  status: ('A' for Active; 'I' for Inactive)
REMARK    1  A    between atoms: C1_1  and  C3_3 
REMARK    2  A    between atoms: C2_2  and  C6_6 
REMARK    3  A    between atoms: C3_3  and  O10_10 
ROOT
HETATM    1  C1  UNL     1     -32.820   6.752   2.177  1.00 20.00     0.014 C 
HETATM    2  C2  UNL     1     -33.764   6.652   3.143  1.00 20.00    -0.067 C 
HETATM    3  C7  UNL     1     -32.507   5.709   1.142  1.00 20.00     0.056 C 
HETATM    4  C8  UNL     1     -34.074   7.712   4.146  1.00 20.00     0.044 C 
ENDROOT
BRANCH   1   5
HETATM    5  C3  UNL     1     -32.033   8.009   2.078  1.00 20.00     0.171 C 
HETATM    6  O9  UNL     1     -31.180   8.380   2.867  1.00 20.00    -0.646 OA
BRANCH   5   7
HETATM    7  O10 UNL     1     -32.410   8.694   0.973  1.00 20.00    -0.773 OA
HETATM    8  H22 UNL     1     -32.845   9.543   1.198  1.00 20.00     0.167 HD
ENDBRANCH   5   7
ENDBRANCH   1   5
BRANCH   2   9
HETATM    9  C6  UNL     1     -34.592   5.397   3.320  1.00 20.00     0.015 A 
HETATM   10  C4  UNL     1     -34.106   4.406   4.303  1.00 20.00     0.010 A 
HETATM   11  C5  UNL     1     -35.313   5.246   4.600  1.00 20.00     0.010 A 
ENDBRANCH   2   9
TORSDOF 3
ENDMDL
MODEL 4
REMARK VINA RESULT:      -2.0      2.375      4.350
REMARK  3 active torsions:
REMARK  status: ('A' for Active; 'I' for Inactive)
REMARK    1  A    between atoms: C1_1  and  C3_3 
REMARK    2  A    between atoms: C2_2  and  C6_6 
REMARK    3  A    between atoms: C3_3  and  O10_10 
ROOT
HETATM    1  C1  UNL     1     -32.792   6.663   2.070  1.00 20.00     0.014 C 
HETATM    2  C2  UNL     1     -33.727   6.497   3.036  1.00 20.00    -0.067 C 
HETATM    3  C7  UNL     1     -32.351   5.619   1.084  1.00 20.00     0.056 C 
HETATM    4  C8  UNL     1     -34.167   7.558   3.989  1.00 20.00     0.044 C 
ENDROOT
BRANCH   1   5
HETATM    5  C3  UNL     1     -32.156   7.998   1.918  1.00 20.00     0.171 C 
HETATM    6  O9  UNL     1     -32.373   8.793   1.019  1.00 20.00    -0.646 OA
BRANCH   5   7
HETATM    7  O10 UNL     1     -31.284   8.203   2.934  1.00 20.00    -0.773 OA
HETATM    8  H22 UNL     1     -30.677   8.951   2.751  1.00 20.00     0.167 HD
ENDBRANCH   5   7
ENDBRANCH   1   5
BRANCH   2   9
HETATM    9  C6  UNL     1     -34.406   5.164   3.266  1.00 20.00     0.015 A 
HETATM   10  C4  UNL     1     -33.801   4.269   4.275  1.00 20.00     0.010 A 
HETATM   11  C5  UNL     1     -35.093   4.977   4.560  1.00 20.00     0.010 A 
ENDBRANCH   2   9
TORSDOF 3
ENDMDL
MODEL 5
REMARK VINA RESULT:      -1.0      0.531      2.090
REMARK  3 active torsions:
REMARK  status: ('A' for Active; 'I' for Inactive)
REMARK    1  A    between atoms: C1_1  and  C3_3 
REMARK    2  A    between atoms: C2_2  and  C6_6 
REMARK    3  A    between atoms: C3_3  and  O10_10 
ROOT
HETATM    1  C1  UNL     1     -33.504   6.273   2.850  1.00 20.00     0.014 C 
HETATM    2  C2  UNL     1     -33.040   7.485   3.237  1.00 20.00    -0.067 C 
HETATM    3  C7  UNL     1     -33.040   5.496   1.651  1.00 20.00     0.056 C 
HETATM    4  C8  UNL     1     -33.499   8.227   4.448  1.00 20.00     0.044 C 
ENDROOT
BRANCH   1   5
HETATM    5  C3  UNL     1     -34.534   5.605   3.687  1.00 20.00     0.171 C 
HETATM    6  O9  UNL     1     -35.603   6.088   4.022  1.00 20.00    -0.646 OA
BRANCH   5   7
HETATM    7  O10 UNL     1     -34.106   4.367   4.033  1.00 20.00    -0.773 OA
HETATM    8  H22 UNL     1     -34.838   3.805   4.364  1.00 20.00     0.167 HD
ENDBRANCH   5   7
ENDBRANCH   1   5
BRANCH   2   9
HETATM    9  C6  UNL     1     -32.006   8.237   2.428  1.00 20.00     0.015 A 
HETATM   10  C4  UNL     1     -31.806   7.806   1.028  1.00 20.00     0.010 A 
HETATM   11  C5  UNL     1     -32.505   9.097   1.335  1.00 20.00     0.010 A 
ENDBRANCH   2   9
TORSDOF 3
ENDMDL
MODEL 6
REMARK VINA RESULT:      -1.0      0.887      2.092
REMARK  3 active torsions:
REMARK  status: ('A' for Active; 'I' for Inactive)
REMARK    1  A    between atoms: C1_1  and  C3_3 
REMARK    2  A    between atoms: C2_2  and  C6_6 
REMARK    3  A    between atoms: C3_3  and  O10_10 
ROOT
HETATM    1  C1  UNL     1     -33.771   5.886   2.937  1.00 20.00     0.014 C 
HETATM    2  C2  UNL     1     -33.536   7.171   3.297  1.00 20.00    -0.067 C 
HETATM    3  C7  UNL     1     -33.358   5.247   1.642  1.00 20.00     0.056 C 
HETATM    4  C8  UNL     1     -33.935   7.778   4.601  1.00 20.00     0.044 C 
ENDROOT
BRANCH   1   5
HETATM    5  C3  UNL     1     -34.459   4.991   3.903  1.00 20.00     0.171 C 
HETATM    6  O9  UNL     1     -34.046   3.911   4.293  1.00 20.00    -0.646 OA
BRANCH   5   7
HETATM    7  O10 UNL     1     -35.628   5.554   4.291  1.00 20.00    -0.773 OA
HETATM    8  H22 UNL     1     -35.487   6.305   4.905  1.00 20.00     0.167 HD
ENDBRANCH   5   7
ENDBRANCH   1   5
BRANCH   2   9
HETATM    9  C6  UNL     1     -32.859   8.149   2.362  1.00 20.00     0.015 A 
HETATM   10  C4  UNL     1     -31.499   8.597   2.730  1.00 20.00     0.010 A 
HETATM   11  C5  UNL     1     -31.706   7.647   1.587  1.00 20.00     0.010 A 
ENDBRANCH   2   9
TORSDOF 3
ENDMDL
MODEL 7
REMARK VINA RESULT:      -0.6      0.600      1.848
REMARK  3 active torsions:
REMARK  status: ('A' for Active; 'I' for Inactive)
REMARK    1  A    between atoms: C1_1  and  C3_3 
REMARK    2  A    between atoms: C2_2  and  C6_6 
REMARK    3  A    between atoms: C3_3  and  O10_10 
ROOT
HETATM    1  C1  UNL     1     -33.410   6.147   2.748  1.00 20.00     0.014 C 
HETATM    2  C2  UNL     1     -33.003   7.400   3.062  1.00 20.00    -0.067 C 
HETATM    3  C7  UNL     1     -32.897   5.316   1.607  1.00 20.00     0.056 C 
HETATM    4  C8  UNL     1     -33.510   8.199   4.217  1.00 20.00     0.044 C 
ENDROOT
BRANCH   1   5
HETATM    5  C3  UNL     1     -34.424   5.491   3.615  1.00 20.00     0.171 C 
HETATM    6  O9  UNL     1     -34.318   4.390   4.128  1.00 20.00    -0.646 OA
BRANCH   5   7
HETATM    7  O10 UNL     1     -35.500   6.303   3.750  1.00 20.00    -0.773 OA
HETATM    8  H22 UNL     1     -35.238   7.241   3.866  1.00 20.00     0.167 HD
ENDBRANCH   5   7
ENDBRANCH   1   5
BRANCH   2   9
HETATM    9  C6  UNL     1     -31.989   8.143   2.218  1.00 20.00     0.015 A 
HETATM   10  C4  UNL     1     -32.229   8.180   0.761  1.00 20.00     0.010 A 
HETATM   11  C5  UNL     1     -32.432   9.408   1.597  1.00 20.00     0.010 A 
ENDBRANCH   2   9
TORSDOF 3
ENDMDL
MODEL 8
REMARK VINA RESULT:      -0.6      2.421      3.870
REMARK  3 active torsions:
REMARK  status: ('A' for Active; 'I' for Inactive)
REMARK    1  A    between atoms: C1_1  and  C3_3 
REMARK    2  A    between atoms: C2_2  and  C6_6 
REMARK    3  A    between atoms: C3_3  and  O10_10 
ROOT
HETATM    1  C1  UNL     1     -33.264   7.185   3.019  1.00 20.00     0.014 C 
HETATM    2  C2  UNL     1     -33.248   5.914   2.552  1.00 20.00    -0.067 C 
HETATM    3  C7  UNL     1     -34.171   7.717   4.091  1.00 20.00     0.056 C 
HETATM    4  C8  UNL     1     -32.320   5.401   1.503  1.00 20.00     0.044 C 
ENDROOT
BRANCH   1   5
HETATM    5  C3  UNL     1     -32.280   8.156   2.472  1.00 20.00     0.171 C 
HETATM    6  O9  UNL     1     -32.230   8.546   1.317  1.00 20.00    -0.646 OA
BRANCH   5   7
HETATM    7  O10 UNL     1     -31.432   8.545   3.454  1.00 20.00    -0.773 OA
HETATM    8  H22 UNL     1     -31.099   7.783   3.973  1.00 20.00     0.167 HD
ENDBRANCH   5   7
ENDBRANCH   1   5
BRANCH   2   9
HETATM    9  C6  UNL     1     -34.231   4.873   3.045  1.00 20.00     0.015 A 
HETATM   10  C4  UNL     1     -33.747   3.928   4.073  1.00 20.00     0.010 A 
HETATM   11  C5  UNL     1     -34.717   5.014   4.433  1.00 20.00     0.010 A 
ENDBRANCH   2   9
TORSDOF 3
ENDMDL
MODEL 9
REMARK VINA RESULT:      -0.3      1.948      3.537
REMARK  3 active torsions:
REMARK  status: ('A' for Active; 'I' for Inactive)
REMARK    1  A    between atoms: C1_1  and  C3_3 
REMARK    2  A    between atoms: C2_2  and  C6_6 
REMARK    3  A    between atoms: C3_3  and  O10_10 
ROOT
HETATM    1  C1  UNL     1     -32.731   6.795   1.907  1.00 20.00     0.014 C 
HETATM    2  C2  UNL     1     -33.548   6.780   2.988  1.00 20.00    -0.067 C 
HETATM    3  C7  UNL     1     -31.935   7.973   1.424  1.00 20.00     0.056 C 
HETATM    4  C8  UNL     1     -34.311   5.589   3.465  1.00 20.00     0.044 C 
ENDROOT
BRANCH   1   5
HETATM    5  C3  UNL     1     -32.554   5.539   1.132  1.00 20.00     0.171 C 
HETATM    6  O9  UNL     1     -33.363   5.061   0.354  1.00 20.00    -0.646 OA
BRANCH   5   7
HETATM    7  O10 UNL     1     -31.349   4.993   1.423  1.00 20.00    -0.773 OA
HETATM    8  H22 UNL     1     -31.234   4.115   1.003  1.00 20.00     0.167 HD
ENDBRANCH   5   7
ENDBRANCH   1   5
BRANCH   2   9
HETATM    9  C6  UNL     1     -33.795   8.022   3.816  1.00 20.00     0.015 A 
HETATM   10  C4  UNL     1     -34.129   7.822   5.242  1.00 20.00     0.010 A 
HETATM   11  C5  UNL     1     -32.786   8.355   4.842  1.00 20.00     0.010 A 
ENDBRANCH   2   9
TORSDOF 3
ENDMDL
