MODEL 1
REMARK VINA RESULT:      -2.8      0.000      0.000
REMARK  3 active torsions:
REMARK  status: ('A' for Active; 'I' for Inactive)
REMARK    1  A    between atoms: C1_1  and  C5_5 
REMARK    2  A    between atoms: C2_2  and  C6_6 
REMARK    3  A    between atoms: C6_6  and  C7_7 
ROOT
HETATM    1  C1  UNL     1     -32.413   8.393   1.666  1.00 20.00    -0.026 C 
HETATM    2  C2  UNL     1     -32.576   7.066   1.543  1.00 20.00    -0.029 C 
ENDROOT
BRANCH   1   3
HETATM    3  C5  UNL     1     -31.863   9.290   0.634  1.00 20.00     0.008 A 
HETATM    4  C3  UNL     1     -32.692   9.568  -0.580  1.00 20.00     0.009 A 
HETATM    5  C4  UNL     1     -32.493  10.635   0.454  1.00 20.00     0.009 A 
ENDBRANCH   1   3
BRANCH   2   6
HETATM    6  C6  UNL     1     -33.146   6.186   2.618  1.00 20.00     0.042 C 
BRANCH   6   7
HETATM    7  C7  UNL     1     -33.970   6.964   3.640  1.00 20.00     0.118 C 
HETATM    8 CL8  UNL     1     -35.461   6.095   4.080  1.00 20.00    -0.130 Cl
ENDBRANCH   6   7
ENDBRANCH   2   6
TORSDOF 3
ENDMDL
MODEL 2
REMARK VINA RESULT:      -2.6      1.574      2.507
REMARK  3 active torsions:
REMARK  status: ('A' for Active; 'I' for Inactive)
REMARK    1  A    between atoms: C1_1  and  C5_5 
REMARK    2  A    between atoms: C2_2  and  C6_6 
REMARK    3  A    between atoms: C6_6  and  C7_7 
ROOT
HETATM    1  C1  UNL     1     -33.349   7.732   3.336  1.00 20.00    -0.026 C 
HETATM    2  C2  UNL     1     -34.042   6.585   3.245  1.00 20.00    -0.029 C 
ENDROOT
BRANCH   1   3
HETATM    3  C5  UNL     1     -32.123   8.056   2.585  1.00 20.00     0.008 A 
HETATM    4  C3  UNL     1     -31.783   7.228   1.387  1.00 20.00     0.009 A 
HETATM    5  C4  UNL     1     -32.264   8.637   1.214  1.00 20.00     0.009 A 
ENDBRANCH   1   3
BRANCH   2   6
HETATM    6  C6  UNL     1     -35.292   6.296   4.024  1.00 20.00     0.042 C 
BRANCH   6   7
HETATM    7  C7  UNL     1     -35.288   4.903   4.649  1.00 20.00     0.118 C 
HETATM    8 CL8  UNL     1     -33.891   3.943   4.102  1.00 20.00    -0.130 Cl
ENDBRANCH   6   7
ENDBRANCH   2   6
TORSDOF 3
ENDMDL
MODEL 3
REMARK VINA RESULT:      -2.6      2.364      4.446
REMARK  3 active torsions:
REMARK  status: ('A' for Active; 'I' for Inactive)
REMARK    1  A    between atoms: C1_1  and  C5_5 
REMARK    2  A    between atoms: C2_2  and  C6_6 
REMARK    3  A    between atoms: C6_6  and  C7_7 
ROOT
HETATM    1  C1  UNL     1     -32.968   7.034   2.063  1.00 20.00    -0.026 C 
HETATM    2  C2  UNL     1     -32.152   8.071   1.820  1.00 20.00    -0.029 C 
ENDROOT
BRANCH   1   3
HETATM    3  C5  UNL     1     -33.468   6.626   3.388  1.00 20.00     0.008 A 
HETATM    4  C3  UNL     1     -34.130   7.656   4.246  1.00 20.00     0.009 A 
HETATM    5  C4  UNL     1     -34.948   6.576   3.604  1.00 20.00     0.009 A 
ENDBRANCH   1   3
BRANCH   2   6
HETATM    6  C6  UNL     1     -31.670   8.459   0.452  1.00 20.00     0.042 C 
BRANCH   6   7
HETATM    7  C7  UNL     1     -32.493   9.584  -0.166  1.00 20.00     0.118 C 
HETATM    8 CL8  UNL     1     -32.741  10.924   0.982  1.00 20.00    -0.130 Cl
ENDBRANCH   6   7
ENDBRANCH   2   6
TORSDOF 3
ENDMDL
MODEL 4
REMARK VINA RESULT:      -2.6      2.538      4.622
REMARK  3 active torsions:
REMARK  status: ('A' for Active; 'I' for Inactive)
REMARK    1  A    between atoms: C1_1  and  C5_5 
REMARK    2  A    between atoms: C2_2  and  C6_6 
REMARK    3  A    between atoms: C6_6  and  C7_7 
ROOT
HETATM    1  C1  UNL     1     -33.409   7.746   3.185  1.00 20.00    -0.026 C 
HETATM    2  C2  UNL     1     -32.675   7.213   2.195  1.00 20.00    -0.029 C 
ENDROOT
BRANCH   1   3
HETATM    3  C5  UNL     1     -34.234   6.990   4.144  1.00 20.00     0.008 A 
HETATM    4  C3  UNL     1     -35.562   6.475   3.687  1.00 20.00     0.009 A 
HETATM    5  C4  UNL     1     -34.426   5.524   3.914  1.00 20.00     0.009 A 
ENDBRANCH   1   3
BRANCH   2   6
HETATM    6  C6  UNL     1     -31.841   8.020   1.241  1.00 20.00     0.042 C 
BRANCH   6   7
HETATM    7  C7  UNL     1     -32.323   9.461   1.110  1.00 20.00     0.118 C 
HETATM    8 CL8  UNL     1     -32.731   9.866  -0.576  1.00 20.00    -0.130 Cl
ENDBRANCH   6   7
ENDBRANCH   2   6
TORSDOF 3
ENDMDL
MODEL 5
REMARK VINA RESULT:      -2.1      2.191      3.109
REMARK  3 active torsions:
REMARK  status: ('A' for Active; 'I' for Inactive)
REMARK    1  A    between atoms: C1_1  and  C5_5 
REMARK    2  A    between atoms: C2_2  and  C6_6 
REMARK    3  A    between atoms: C6_6  and  C7_7 
ROOT
HETATM    1  C1  UNL     1     -33.398   6.510   2.955  1.00 20.00    -0.026 C 
HETATM    2  C2  UNL     1     -34.466   6.302   3.741  1.00 20.00    -0.029 C 
ENDROOT
BRANCH   1   3
HETATM    3  C5  UNL     1     -33.026   7.793   2.333  1.00 20.00     0.008 A 
HETATM    4  C3  UNL     1     -31.713   8.407   2.703  1.00 20.00     0.009 A 
HETATM    5  C4  UNL     1     -31.903   7.803   1.344  1.00 20.00     0.009 A 
ENDBRANCH   1   3
BRANCH   2   6
HETATM    6  C6  UNL     1     -34.807   4.978   4.362  1.00 20.00     0.042 C 
BRANCH   6   7
HETATM    7  C7  UNL     1     -33.945   3.838   3.830  1.00 20.00     0.118 C 
HETATM    8 CL8  UNL     1     -33.072   3.008   5.142  1.00 20.00    -0.130 Cl
ENDBRANCH   6   7
ENDBRANCH   2   6
TORSDOF 3
ENDMDL
MODEL 6
REMARK VINA RESULT:      -1.7      3.082      5.680
REMARK  3 active torsions:
REMARK  status: ('A' for Active; 'I' for Inactive)
REMARK    1  A    between atoms: C1_1  and  C5_5 
REMARK    2  A    between atoms: C2_2  and  C6_6 
REMARK    3  A    between atoms: C6_6  and  C7_7 
ROOT
HETATM    1  C1  UNL     1     -33.859   4.937   3.827  1.00 20.00    -0.026 C 
HETATM    2  C2  UNL     1     -34.588   6.037   4.071  1.00 20.00    -0.029 C 
ENDROOT
BRANCH   1   3
HETATM    3  C5  UNL     1     -34.017   3.635   4.500  1.00 20.00     0.008 A 
HETATM    4  C3  UNL     1     -33.068   2.534   4.149  1.00 20.00     0.009 A 
HETATM    5  C4  UNL     1     -32.972   3.213   5.483  1.00 20.00     0.009 A 
ENDBRANCH   1   3
BRANCH   2   6
HETATM    6  C6  UNL     1     -34.398   7.345   3.358  1.00 20.00     0.042 C 
BRANCH   6   7
HETATM    7  C7  UNL     1     -32.949   7.821   3.373  1.00 20.00     0.118 C 
HETATM    8 CL8  UNL     1     -32.181   7.641   1.776  1.00 20.00    -0.130 Cl
ENDBRANCH   6   7
ENDBRANCH   2   6
TORSDOF 3
ENDMDL
MODEL 7
REMARK VINA RESULT:      -1.5      1.451      1.567
REMARK  3 active torsions:
REMARK  status: ('A' for Active; 'I' for Inactive)
REMARK    1  A    between atoms: C1_1  and  C5_5 
REMARK    2  A    between atoms: C2_2  and  C6_6 
REMARK    3  A    between atoms: C6_6  and  C7_7 
ROOT
HETATM    1  C1  UNL     1     -31.971   8.340   1.665  1.00 20.00    -0.026 C 
HETATM    2  C2  UNL     1     -33.092   8.280   2.400  1.00 20.00    -0.029 C 
ENDROOT
BRANCH   1   3
HETATM    3  C5  UNL     1     -31.703   9.303   0.583  1.00 20.00     0.008 A 
HETATM    4  C3  UNL     1     -32.693   9.410  -0.533  1.00 20.00     0.009 A 
HETATM    5  C4  UNL     1     -32.577  10.513   0.476  1.00 20.00     0.009 A 
ENDBRANCH   1   3
BRANCH   2   6
HETATM    6  C6  UNL     1     -33.324   7.286   3.501  1.00 20.00     0.042 C 
BRANCH   6   7
HETATM    7  C7  UNL     1     -33.828   5.941   2.984  1.00 20.00     0.118 C 
HETATM    8 CL8  UNL     1     -32.908   5.399   1.558  1.00 20.00    -0.130 Cl
ENDBRANCH   6   7
ENDBRANCH   2   6
TORSDOF 3
ENDMDL
MODEL 8
REMARK VINA RESULT:      -1.2      3.205      4.496
REMARK  3 active torsions:
REMARK  status: ('A' for Active; 'I' for Inactive)
REMARK    1  A    between atoms: C1_1  and  C5_5 
REMARK    2  A    between atoms: C2_2  and  C6_6 
REMARK    3  A    between atoms: C6_6  and  C7_7 
ROOT
HETATM    1  C1  UNL     1     -34.729   5.532   4.214  1.00 20.00    -0.026 C 
HETATM    2  C2  UNL     1     -33.847   4.585   3.854  1.00 20.00    -0.029 C 
ENDROOT
BRANCH   1   3
HETATM    3  C5  UNL     1     -34.769   6.910   3.695  1.00 20.00     0.008 A 
HETATM    4  C3  UNL     1     -33.945   7.953   4.381  1.00 20.00     0.009 A 
HETATM    5  C4  UNL     1     -33.546   7.452   3.025  1.00 20.00     0.009 A 
ENDBRANCH   1   3
BRANCH   2   6
HETATM    6  C6  UNL     1     -33.844   3.188   4.404  1.00 20.00     0.042 C 
BRANCH   6   7
HETATM    7  C7  UNL     1     -32.489   2.784   4.978  1.00 20.00     0.118 C 
HETATM    8 CL8  UNL     1     -32.302   3.326   6.664  1.00 20.00    -0.130 Cl
ENDBRANCH   6   7
ENDBRANCH   2   6
TORSDOF 3
ENDMDL
MODEL 9
REMARK VINA RESULT:      -1.2      2.368      4.549
REMARK  3 active torsions:
REMARK  status: ('A' for Active; 'I' for Inactive)
REMARK    1  A    between atoms: C1_1  and  C5_5 
REMARK    2  A    between atoms: C2_2  and  C6_6 
REMARK    3  A    between atoms: C6_6  and  C7_7 
ROOT
HETATM    1  C1  UNL     1     -33.637   7.439   3.879  1.00 20.00    -0.026 C 
HETATM    2  C2  UNL     1     -33.404   7.597   2.567  1.00 20.00    -0.029 C 
ENDROOT
BRANCH   1   3
HETATM    3  C5  UNL     1     -34.827   6.802   4.470  1.00 20.00     0.008 A 
HETATM    4  C3  UNL     1     -35.875   6.263   3.549  1.00 20.00     0.009 A 
HETATM    5  C4  UNL     1     -34.992   5.323   4.312  1.00 20.00     0.009 A 
ENDBRANCH   1   3
BRANCH   2   6
HETATM    6  C6  UNL     1     -32.173   8.248   2.005  1.00 20.00     0.042 C 
BRANCH   6   7
HETATM    7  C7  UNL     1     -31.278   7.267   1.253  1.00 20.00     0.118 C 
HETATM    8 CL8  UNL     1     -31.978   5.629   1.227  1.00 20.00    -0.130 Cl
ENDBRANCH   6   7
ENDBRANCH   2   6
TORSDOF 3
ENDMDL
