MODEL 1
REMARK VINA RESULT:      -1.5      0.000      0.000
REMARK  2 active torsions:
REMARK  status: ('A' for Active; 'I' for Inactive)
REMARK    1  A    between atoms: C1_1  and  C6_6 
REMARK    2  A    between atoms: C2_2  and  C7_7 
ROOT
HETATM    1  C1  UNL     1     -32.414   7.920   2.230  1.00 20.00    -0.015 C 
HETATM    2  C2  UNL     1     -33.418   7.031   2.294  1.00 20.00    -0.021 C 
ENDROOT
BRANCH   2   3
HETATM    3  C7  UNL     1     -34.219   6.621   3.522  1.00 20.00    -0.034 C 
HETATM    4  C3  UNL     1     -33.826   7.550   4.684  1.00 20.00     0.018 C 
HETATM    5  C4  UNL     1     -35.746   6.692   3.334  1.00 20.00     0.018 C 
HETATM    6  C5  UNL     1     -33.837   5.175   3.884  1.00 20.00     0.018 C 
ENDBRANCH   2   3
BRANCH   1   7
HETATM    7  C6  UNL     1     -31.693   8.258   0.966  1.00 20.00     0.141 C 
HETATM    8 CL8  UNL     1     -32.409   9.710   0.233  1.00 20.00    -0.126 Cl
ENDBRANCH   1   7
TORSDOF 2
ENDMDL
MODEL 2
REMARK VINA RESULT:      -1.5      0.142      1.523
REMARK  2 active torsions:
REMARK  status: ('A' for Active; 'I' for Inactive)
REMARK    1  A    between atoms: C1_1  and  C6_6 
REMARK    2  A    between atoms: C2_2  and  C7_7 
ROOT
HETATM    1  C1  UNL     1     -32.481   7.877   2.280  1.00 20.00    -0.015 C 
HETATM    2  C2  UNL     1     -33.456   6.957   2.355  1.00 20.00    -0.021 C 
ENDROOT
BRANCH   2   3
HETATM    3  C7  UNL     1     -34.283   6.578   3.576  1.00 20.00    -0.034 C 
HETATM    4  C3  UNL     1     -35.770   6.772   3.228  1.00 20.00     0.018 C 
HETATM    5  C4  UNL     1     -34.078   5.128   4.054  1.00 20.00     0.018 C 
HETATM    6  C5  UNL     1     -33.908   7.530   4.726  1.00 20.00     0.018 C 
ENDBRANCH   2   3
BRANCH   1   7
HETATM    7  C6  UNL     1     -31.730   8.180   1.024  1.00 20.00     0.141 C 
HETATM    8 CL8  UNL     1     -32.365   9.665   0.284  1.00 20.00    -0.126 Cl
ENDBRANCH   1   7
TORSDOF 2
ENDMDL
MODEL 3
REMARK VINA RESULT:      -1.3      0.105      1.536
REMARK  2 active torsions:
REMARK  status: ('A' for Active; 'I' for Inactive)
REMARK    1  A    between atoms: C1_1  and  C6_6 
REMARK    2  A    between atoms: C2_2  and  C7_7 
ROOT
HETATM    1  C1  UNL     1     -32.420   7.986   2.204  1.00 20.00    -0.015 C 
HETATM    2  C2  UNL     1     -33.434   7.112   2.304  1.00 20.00    -0.021 C 
ENDROOT
BRANCH   2   3
HETATM    3  C7  UNL     1     -34.186   6.703   3.563  1.00 20.00    -0.034 C 
HETATM    4  C3  UNL     1     -33.821   5.243   3.888  1.00 20.00     0.018 C 
HETATM    5  C4  UNL     1     -33.873   7.571   4.797  1.00 20.00     0.018 C 
HETATM    6  C5  UNL     1     -35.694   6.792   3.272  1.00 20.00     0.018 C 
ENDBRANCH   2   3
BRANCH   1   7
HETATM    7  C6  UNL     1     -31.750   8.325   0.911  1.00 20.00     0.141 C 
HETATM    8 CL8  UNL     1     -32.415   9.842   0.267  1.00 20.00    -0.126 Cl
ENDBRANCH   1   7
TORSDOF 2
ENDMDL
MODEL 4
REMARK VINA RESULT:      -1.1      2.614      4.208
REMARK  2 active torsions:
REMARK  status: ('A' for Active; 'I' for Inactive)
REMARK    1  A    between atoms: C1_1  and  C6_6 
REMARK    2  A    between atoms: C2_2  and  C7_7 
ROOT
HETATM    1  C1  UNL     1     -34.118   7.216   3.695  1.00 20.00    -0.015 C 
HETATM    2  C2  UNL     1     -33.466   7.117   2.526  1.00 20.00    -0.021 C 
ENDROOT
BRANCH   2   3
HETATM    3  C7  UNL     1     -32.289   7.954   2.044  1.00 20.00    -0.034 C 
HETATM    4  C3  UNL     1     -31.267   7.011   1.384  1.00 20.00     0.018 C 
HETATM    5  C4  UNL     1     -32.666   9.052   1.032  1.00 20.00     0.018 C 
HETATM    6  C5  UNL     1     -31.640   8.621   3.270  1.00 20.00     0.018 C 
ENDBRANCH   2   3
BRANCH   1   7
HETATM    7  C6  UNL     1     -35.264   6.336   4.076  1.00 20.00     0.141 C 
HETATM    8 CL8  UNL     1     -34.699   4.663   4.277  1.00 20.00    -0.126 Cl
ENDBRANCH   1   7
TORSDOF 2
ENDMDL
MODEL 5
REMARK VINA RESULT:      -1.0      2.638      4.211
REMARK  2 active torsions:
REMARK  status: ('A' for Active; 'I' for Inactive)
REMARK    1  A    between atoms: C1_1  and  C6_6 
REMARK    2  A    between atoms: C2_2  and  C7_7 
ROOT
HETATM    1  C1  UNL     1     -34.066   7.220   3.706  1.00 20.00    -0.015 C 
HETATM    2  C2  UNL     1     -33.506   7.223   2.486  1.00 20.00    -0.021 C 
ENDROOT
BRANCH   2   3
HETATM    3  C7  UNL     1     -32.246   7.957   2.044  1.00 20.00    -0.034 C 
HETATM    4  C3  UNL     1     -32.651   9.032   1.020  1.00 20.00     0.018 C 
HETATM    5  C4  UNL     1     -31.477   8.639   3.191  1.00 20.00     0.018 C 
HETATM    6  C5  UNL     1     -31.312   6.941   1.364  1.00 20.00     0.018 C 
ENDBRANCH   2   3
BRANCH   1   7
HETATM    7  C6  UNL     1     -35.306   6.456   4.040  1.00 20.00     0.141 C 
HETATM    8 CL8  UNL     1     -34.898   4.761   4.383  1.00 20.00    -0.126 Cl
ENDBRANCH   1   7
TORSDOF 2
ENDMDL
MODEL 6
REMARK VINA RESULT:      -0.9      2.741      4.325
REMARK  2 active torsions:
REMARK  status: ('A' for Active; 'I' for Inactive)
REMARK    1  A    between atoms: C1_1  and  C6_6 
REMARK    2  A    between atoms: C2_2  and  C7_7 
ROOT
HETATM    1  C1  UNL     1     -33.866   6.642   3.344  1.00 20.00    -0.015 C 
HETATM    2  C2  UNL     1     -33.498   7.745   2.673  1.00 20.00    -0.021 C 
ENDROOT
BRANCH   2   3
HETATM    3  C7  UNL     1     -32.200   7.980   1.913  1.00 20.00    -0.034 C 
HETATM    4  C3  UNL     1     -31.148   8.499   2.910  1.00 20.00     0.018 C 
HETATM    5  C4  UNL     1     -31.638   6.726   1.218  1.00 20.00     0.018 C 
HETATM    6  C5  UNL     1     -32.455   9.058   0.845  1.00 20.00     0.018 C 
ENDBRANCH   2   3
BRANCH   1   7
HETATM    7  C6  UNL     1     -35.174   6.509   4.055  1.00 20.00     0.141 C 
HETATM    8 CL8  UNL     1     -35.367   4.849   4.659  1.00 20.00    -0.126 Cl
ENDBRANCH   1   7
TORSDOF 2
ENDMDL
MODEL 7
REMARK VINA RESULT:      -0.8      3.331      4.586
REMARK  2 active torsions:
REMARK  status: ('A' for Active; 'I' for Inactive)
REMARK    1  A    between atoms: C1_1  and  C6_6 
REMARK    2  A    between atoms: C2_2  and  C7_7 
ROOT
HETATM    1  C1  UNL     1     -33.804   3.910   3.801  1.00 20.00    -0.015 C 
HETATM    2  C2  UNL     1     -33.833   5.145   4.326  1.00 20.00    -0.021 C 
ENDROOT
BRANCH   2   3
HETATM    3  C7  UNL     1     -34.240   6.439   3.634  1.00 20.00    -0.034 C 
HETATM    4  C3  UNL     1     -35.769   6.426   3.452  1.00 20.00     0.018 C 
HETATM    5  C4  UNL     1     -33.850   7.716   4.401  1.00 20.00     0.018 C 
HETATM    6  C5  UNL     1     -33.569   6.475   2.249  1.00 20.00     0.018 C 
ENDBRANCH   2   3
BRANCH   1   7
HETATM    7  C6  UNL     1     -33.393   2.697   4.571  1.00 20.00     0.141 C 
HETATM    8 CL8  UNL     1     -32.505   3.183   6.033  1.00 20.00    -0.126 Cl
ENDBRANCH   1   7
TORSDOF 2
ENDMDL
MODEL 8
REMARK VINA RESULT:      -0.7      3.326      4.519
REMARK  2 active torsions:
REMARK  status: ('A' for Active; 'I' for Inactive)
REMARK    1  A    between atoms: C1_1  and  C6_6 
REMARK    2  A    between atoms: C2_2  and  C7_7 
ROOT
HETATM    1  C1  UNL     1     -33.661   3.987   3.788  1.00 20.00    -0.015 C 
HETATM    2  C2  UNL     1     -34.040   5.157   4.325  1.00 20.00    -0.021 C 
ENDROOT
BRANCH   2   3
HETATM    3  C7  UNL     1     -34.306   6.469   3.598  1.00 20.00    -0.034 C 
HETATM    4  C3  UNL     1     -33.886   7.625   4.524  1.00 20.00     0.018 C 
HETATM    5  C4  UNL     1     -33.555   6.615   2.262  1.00 20.00     0.018 C 
HETATM    6  C5  UNL     1     -35.817   6.569   3.324  1.00 20.00     0.018 C 
ENDBRANCH   2   3
BRANCH   1   7
HETATM    7  C6  UNL     1     -33.432   2.749   4.593  1.00 20.00     0.141 C 
HETATM    8 CL8  UNL     1     -32.520   3.146   6.065  1.00 20.00    -0.126 Cl
ENDBRANCH   1   7
TORSDOF 2
ENDMDL
MODEL 9
REMARK VINA RESULT:      -0.4      1.791      1.794
REMARK  2 active torsions:
REMARK  status: ('A' for Active; 'I' for Inactive)
REMARK    1  A    between atoms: C1_1  and  C6_6 
REMARK    2  A    between atoms: C2_2  and  C7_7 
ROOT
HETATM    1  C1  UNL     1     -32.765   7.264   2.294  1.00 20.00    -0.015 C 
HETATM    2  C2  UNL     1     -33.627   6.322   2.709  1.00 20.00    -0.021 C 
ENDROOT
BRANCH   2   3
HETATM    3  C7  UNL     1     -34.734   6.467   3.744  1.00 20.00    -0.034 C 
HETATM    4  C3  UNL     1     -34.302   7.535   4.764  1.00 20.00     0.018 C 
HETATM    5  C4  UNL     1     -36.098   6.875   3.156  1.00 20.00     0.018 C 
HETATM    6  C5  UNL     1     -34.897   5.118   4.467  1.00 20.00     0.018 C 
ENDBRANCH   2   3
BRANCH   1   7
HETATM    7  C6  UNL     1     -31.712   7.020   1.262  1.00 20.00     0.141 C 
HETATM    8 CL8  UNL     1     -31.626   5.285   0.886  1.00 20.00    -0.126 Cl
ENDBRANCH   1   7
TORSDOF 2
ENDMDL
