MODEL 1
REMARK VINA RESULT:      -2.8      0.000      0.000
REMARK  2 active torsions:
REMARK  status: ('A' for Active; 'I' for Inactive)
REMARK    1  A    between atoms: C2_2  and  C4_4 
REMARK    2  A    between atoms: C4_4  and  C5_5 
ROOT
HETATM    1  C1  UNL     1     -34.156   7.269   3.728  1.00 20.00    -0.035 C 
HETATM    2  C2  UNL     1     -33.282   7.179   2.713  1.00 20.00    -0.030 C 
HETATM    3  C3  UNL     1     -35.236   6.308   4.018  1.00 20.00     0.036 C 
ENDROOT
BRANCH   2   4
HETATM    4  C4  UNL     1     -32.191   8.178   2.455  1.00 20.00     0.042 C 
BRANCH   4   5
HETATM    5  C5  UNL     1     -31.956   8.425   0.969  1.00 20.00     0.118 C 
HETATM    6 CL6  UNL     1     -32.559  10.024   0.465  1.00 20.00    -0.130 Cl
ENDBRANCH   4   5
ENDBRANCH   2   4
TORSDOF 2
ENDMDL
MODEL 2
REMARK VINA RESULT:      -2.8      0.943      1.039
REMARK  2 active torsions:
REMARK  status: ('A' for Active; 'I' for Inactive)
REMARK    1  A    between atoms: C2_2  and  C4_4 
REMARK    2  A    between atoms: C4_4  and  C5_5 
ROOT
HETATM    1  C1  UNL     1     -34.057   6.747   3.321  1.00 20.00    -0.035 C 
HETATM    2  C2  UNL     1     -33.407   6.110   2.334  1.00 20.00    -0.030 C 
HETATM    3  C3  UNL     1     -35.192   6.206   4.090  1.00 20.00     0.036 C 
ENDROOT
BRANCH   2   4
HETATM    4  C4  UNL     1     -32.249   6.695   1.578  1.00 20.00     0.042 C 
BRANCH   4   5
HETATM    5  C5  UNL     1     -31.967   8.145   1.957  1.00 20.00     0.118 C 
HETATM    6 CL6  UNL     1     -32.297   9.254   0.604  1.00 20.00    -0.130 Cl
ENDBRANCH   4   5
ENDBRANCH   2   4
TORSDOF 2
ENDMDL
MODEL 3
REMARK VINA RESULT:      -2.7      2.499      3.593
REMARK  2 active torsions:
REMARK  status: ('A' for Active; 'I' for Inactive)
REMARK    1  A    between atoms: C2_2  and  C4_4 
REMARK    2  A    between atoms: C4_4  and  C5_5 
ROOT
HETATM    1  C1  UNL     1     -33.789   4.209   4.049  1.00 20.00    -0.035 C 
HETATM    2  C2  UNL     1     -34.845   4.943   4.436  1.00 20.00    -0.030 C 
HETATM    3  C3  UNL     1     -33.391   2.911   4.622  1.00 20.00     0.036 C 
ENDROOT
BRANCH   2   4
HETATM    4  C4  UNL     1     -35.221   6.260   3.821  1.00 20.00     0.042 C 
BRANCH   4   5
HETATM    5  C5  UNL     1     -34.177   7.345   4.064  1.00 20.00     0.118 C 
HETATM    6 CL6  UNL     1     -33.036   7.477   2.703  1.00 20.00    -0.130 Cl
ENDBRANCH   4   5
ENDBRANCH   2   4
TORSDOF 2
ENDMDL
MODEL 4
REMARK VINA RESULT:      -2.5      2.518      3.929
REMARK  2 active torsions:
REMARK  status: ('A' for Active; 'I' for Inactive)
REMARK    1  A    between atoms: C2_2  and  C4_4 
REMARK    2  A    between atoms: C4_4  and  C5_5 
ROOT
HETATM    1  C1  UNL     1     -32.240   9.160   0.400  1.00 20.00    -0.035 C 
HETATM    2  C2  UNL     1     -32.244   8.452   1.541  1.00 20.00    -0.030 C 
HETATM    3  C3  UNL     1     -32.573  10.590   0.276  1.00 20.00     0.036 C 
ENDROOT
BRANCH   2   4
HETATM    4  C4  UNL     1     -31.892   6.995   1.626  1.00 20.00     0.042 C 
BRANCH   4   5
HETATM    5  C5  UNL     1     -33.081   6.122   2.013  1.00 20.00     0.118 C 
HETATM    6 CL6  UNL     1     -33.975   6.803   3.394  1.00 20.00    -0.130 Cl
ENDBRANCH   4   5
ENDBRANCH   2   4
TORSDOF 2
ENDMDL
MODEL 5
REMARK VINA RESULT:      -2.5      3.031      4.460
REMARK  2 active torsions:
REMARK  status: ('A' for Active; 'I' for Inactive)
REMARK    1  A    between atoms: C2_2  and  C4_4 
REMARK    2  A    between atoms: C4_4  and  C5_5 
ROOT
HETATM    1  C1  UNL     1     -33.117   7.653   2.684  1.00 20.00    -0.035 C 
HETATM    2  C2  UNL     1     -33.750   6.516   3.012  1.00 20.00    -0.030 C 
HETATM    3  C3  UNL     1     -31.935   7.756   1.810  1.00 20.00     0.036 C 
ENDROOT
BRANCH   2   4
HETATM    4  C4  UNL     1     -34.957   6.454   3.903  1.00 20.00     0.042 C 
BRANCH   4   5
HETATM    5  C5  UNL     1     -35.163   5.077   4.524  1.00 20.00     0.118 C 
HETATM    6 CL6  UNL     1     -33.871   3.944   4.055  1.00 20.00    -0.130 Cl
ENDBRANCH   4   5
ENDBRANCH   2   4
TORSDOF 2
ENDMDL
MODEL 6
REMARK VINA RESULT:      -2.3      2.468      4.029
REMARK  2 active torsions:
REMARK  status: ('A' for Active; 'I' for Inactive)
REMARK    1  A    between atoms: C2_2  and  C4_4 
REMARK    2  A    between atoms: C4_4  and  C5_5 
ROOT
HETATM    1  C1  UNL     1     -32.765   9.036   0.892  1.00 20.00    -0.035 C 
HETATM    2  C2  UNL     1     -32.085   8.089   1.557  1.00 20.00    -0.030 C 
HETATM    3  C3  UNL     1     -32.166  10.140   0.120  1.00 20.00     0.036 C 
ENDROOT
BRANCH   2   4
HETATM    4  C4  UNL     1     -32.734   6.976   2.328  1.00 20.00     0.042 C 
BRANCH   4   5
HETATM    5  C5  UNL     1     -33.500   7.472   3.551  1.00 20.00     0.118 C 
HETATM    6 CL6  UNL     1     -34.960   6.499   3.851  1.00 20.00    -0.130 Cl
ENDBRANCH   4   5
ENDBRANCH   2   4
TORSDOF 2
ENDMDL
MODEL 7
REMARK VINA RESULT:      -2.2      1.916      1.935
REMARK  2 active torsions:
REMARK  status: ('A' for Active; 'I' for Inactive)
REMARK    1  A    between atoms: C2_2  and  C4_4 
REMARK    2  A    between atoms: C4_4  and  C5_5 
ROOT
HETATM    1  C1  UNL     1     -34.818   6.684   3.632  1.00 20.00    -0.035 C 
HETATM    2  C2  UNL     1     -33.502   6.921   3.518  1.00 20.00    -0.030 C 
HETATM    3  C3  UNL     1     -35.428   5.585   4.402  1.00 20.00     0.036 C 
ENDROOT
BRANCH   2   4
HETATM    4  C4  UNL     1     -32.920   8.059   2.728  1.00 20.00     0.042 C 
BRANCH   4   5
HETATM    5  C5  UNL     1     -31.964   7.591   1.636  1.00 20.00     0.118 C 
HETATM    6 CL6  UNL     1     -32.118   5.842   1.333  1.00 20.00    -0.130 Cl
ENDBRANCH   4   5
ENDBRANCH   2   4
TORSDOF 2
ENDMDL
MODEL 8
REMARK VINA RESULT:      -1.9      3.171      4.247
REMARK  2 active torsions:
REMARK  status: ('A' for Active; 'I' for Inactive)
REMARK    1  A    between atoms: C2_2  and  C4_4 
REMARK    2  A    between atoms: C4_4  and  C5_5 
ROOT
HETATM    1  C1  UNL     1     -33.182   6.164   1.817  1.00 20.00    -0.035 C 
HETATM    2  C2  UNL     1     -33.128   6.715   3.040  1.00 20.00    -0.030 C 
HETATM    3  C3  UNL     1     -32.032   5.625   1.068  1.00 20.00     0.036 C 
ENDROOT
BRANCH   2   4
HETATM    4  C4  UNL     1     -34.326   7.248   3.773  1.00 20.00     0.042 C 
BRANCH   4   5
HETATM    5  C5  UNL     1     -35.375   6.176   4.048  1.00 20.00     0.118 C 
HETATM    6 CL6  UNL     1     -34.626   4.601   4.407  1.00 20.00    -0.130 Cl
ENDBRANCH   4   5
ENDBRANCH   2   4
TORSDOF 2
ENDMDL
MODEL 9
REMARK VINA RESULT:      -1.9      2.330      3.953
REMARK  2 active torsions:
REMARK  status: ('A' for Active; 'I' for Inactive)
REMARK    1  A    between atoms: C2_2  and  C4_4 
REMARK    2  A    between atoms: C4_4  and  C5_5 
ROOT
HETATM    1  C1  UNL     1     -32.665   9.483   0.789  1.00 20.00    -0.035 C 
HETATM    2  C2  UNL     1     -31.988   8.436   1.286  1.00 20.00    -0.030 C 
HETATM    3  C3  UNL     1     -32.380  10.161  -0.488  1.00 20.00     0.036 C 
ENDROOT
BRANCH   2   4
HETATM    4  C4  UNL     1     -32.315   7.769   2.592  1.00 20.00     0.042 C 
BRANCH   4   5
HETATM    5  C5  UNL     1     -33.213   6.548   2.422  1.00 20.00     0.118 C 
HETATM    6 CL6  UNL     1     -32.545   5.400   1.236  1.00 20.00    -0.130 Cl
ENDBRANCH   4   5
ENDBRANCH   2   4
TORSDOF 2
ENDMDL
