MODEL 1
REMARK VINA RESULT:       0.5      0.000      0.000
REMARK  0 active torsions:
REMARK  status: ('A' for Active; 'I' for Inactive)
ROOT
HETATM    1  C1  UNL     1     -33.797   8.028   3.877  1.00 20.00     0.109 C 
HETATM    2  C2  UNL     1     -34.025   6.525   3.690  1.00 20.00     0.226 C 
HETATM    3  C3  UNL     1     -32.274   6.232   2.013  1.00 20.00     0.230 C 
HETATM    4  C4  UNL     1     -31.824   7.708   1.959  1.00 20.00     0.076 C 
HETATM    5  C5  UNL     1     -35.493   6.190   3.967  1.00 20.00     0.043 C 
HETATM    6  C6  UNL     1     -31.996   5.512   0.687  1.00 20.00     0.043 C 
HETATM    7  C7  UNL     1     -32.507   8.552   0.880  1.00 20.00     0.023 C 
HETATM    8  N8  UNL     1     -33.701   6.078   2.328  1.00 20.00     0.093 N 
HETATM    9  S9  UNL     1     -32.063   8.492   3.597  1.00 20.00    -0.160 SA
HETATM   10  H24 UNL     1     -33.963   5.097   2.229  1.00 20.00     0.316 HD
ENDROOT
TORSDOF 0
ENDMDL
MODEL 2
REMARK VINA RESULT:       0.7      0.920      3.252
REMARK  0 active torsions:
REMARK  status: ('A' for Active; 'I' for Inactive)
ROOT
HETATM    1  C1  UNL     1     -31.870   7.330   1.791  1.00 20.00     0.109 C 
HETATM    2  C2  UNL     1     -32.704   6.068   1.558  1.00 20.00     0.226 C 
HETATM    3  C3  UNL     1     -34.453   6.645   3.162  1.00 20.00     0.230 C 
HETATM    4  C4  UNL     1     -33.838   7.983   3.628  1.00 20.00     0.076 C 
HETATM    5  C5  UNL     1     -31.786   4.914   1.144  1.00 20.00     0.043 C 
HETATM    6  C6  UNL     1     -35.328   6.019   4.255  1.00 20.00     0.043 C 
HETATM    7  C7  UNL     1     -32.945   7.885   4.867  1.00 20.00     0.023 C 
HETATM    8  N8  UNL     1     -33.442   5.658   2.761  1.00 20.00     0.093 N 
HETATM    9  S9  UNL     1     -32.903   8.751   2.253  1.00 20.00    -0.160 SA
HETATM   10  H24 UNL     1     -33.898   4.763   2.583  1.00 20.00     0.316 HD
ENDROOT
TORSDOF 0
ENDMDL
MODEL 3
REMARK VINA RESULT:       1.4      1.658      3.867
REMARK  0 active torsions:
REMARK  status: ('A' for Active; 'I' for Inactive)
ROOT
HETATM    1  C1  UNL     1     -32.968   6.356   1.321  1.00 20.00     0.109 C 
HETATM    2  C2  UNL     1     -32.170   7.541   1.873  1.00 20.00     0.226 C 
HETATM    3  C3  UNL     1     -33.141   7.450   4.112  1.00 20.00     0.230 C 
HETATM    4  C4  UNL     1     -34.089   6.260   3.852  1.00 20.00     0.076 C 
HETATM    5  C5  UNL     1     -31.852   8.519   0.739  1.00 20.00     0.043 C 
HETATM    6  C6  UNL     1     -33.677   8.364   5.221  1.00 20.00     0.043 C 
HETATM    7  C7  UNL     1     -35.505   6.647   3.418  1.00 20.00     0.023 C 
HETATM    8  N8  UNL     1     -32.906   8.269   2.916  1.00 20.00     0.093 N 
HETATM    9  S9  UNL     1     -33.350   5.135   2.610  1.00 20.00    -0.160 SA
HETATM   10  H24 UNL     1     -32.376   9.101   3.177  1.00 20.00     0.316 HD
ENDROOT
TORSDOF 0
ENDMDL
MODEL 4
REMARK VINA RESULT:       2.1      1.745      3.061
REMARK  0 active torsions:
REMARK  status: ('A' for Active; 'I' for Inactive)
ROOT
HETATM    1  C1  UNL     1     -33.322   7.710   3.886  1.00 20.00     0.109 C 
HETATM    2  C2  UNL     1     -32.602   7.959   2.558  1.00 20.00     0.226 C 
HETATM    3  C3  UNL     1     -33.221   5.822   1.553  1.00 20.00     0.230 C 
HETATM    4  C4  UNL     1     -34.011   5.274   2.760  1.00 20.00     0.076 C 
HETATM    5  C5  UNL     1     -31.396   8.874   2.792  1.00 20.00     0.043 C 
HETATM    6  C6  UNL     1     -32.638   4.687   0.701  1.00 20.00     0.043 C 
HETATM    7  C7  UNL     1     -33.195   4.411   3.726  1.00 20.00     0.023 C 
HETATM    8  N8  UNL     1     -32.121   6.715   1.943  1.00 20.00     0.093 N 
HETATM    9  S9  UNL     1     -34.788   6.658   3.676  1.00 20.00    -0.160 SA
HETATM   10  H24 UNL     1     -31.566   6.944   1.118  1.00 20.00     0.316 HD
ENDROOT
TORSDOF 0
ENDMDL
MODEL 5
REMARK VINA RESULT:       2.7      1.780      2.614
REMARK  0 active torsions:
REMARK  status: ('A' for Active; 'I' for Inactive)
ROOT
HETATM    1  C1  UNL     1     -33.878   6.067   3.711  1.00 20.00     0.109 C 
HETATM    2  C2  UNL     1     -33.744   7.592   3.714  1.00 20.00     0.226 C 
HETATM    3  C3  UNL     1     -32.665   7.736   1.528  1.00 20.00     0.230 C 
HETATM    4  C4  UNL     1     -32.635   6.219   1.239  1.00 20.00     0.076 C 
HETATM    5  C5  UNL     1     -33.613   8.092   5.155  1.00 20.00     0.043 C 
HETATM    6  C6  UNL     1     -31.532   8.469   0.800  1.00 20.00     0.043 C 
HETATM    7  C7  UNL     1     -31.347   5.508   1.660  1.00 20.00     0.023 C 
HETATM    8  N8  UNL     1     -32.569   8.049   2.960  1.00 20.00     0.093 N 
HETATM    9  S9  UNL     1     -34.074   5.406   2.029  1.00 20.00    -0.160 SA
HETATM   10  H24 UNL     1     -32.471   9.058   3.077  1.00 20.00     0.316 HD
ENDROOT
TORSDOF 0
ENDMDL
MODEL 6
REMARK VINA RESULT:       2.8      2.124      3.154
REMARK  0 active torsions:
REMARK  status: ('A' for Active; 'I' for Inactive)
ROOT
HETATM    1  C1  UNL     1     -32.672   4.449   2.337  1.00 20.00     0.109 C 
HETATM    2  C2  UNL     1     -33.732   4.448   3.441  1.00 20.00     0.226 C 
HETATM    3  C3  UNL     1     -34.226   6.835   3.292  1.00 20.00     0.230 C 
HETATM    4  C4  UNL     1     -33.211   7.162   2.176  1.00 20.00     0.076 C 
HETATM    5  C5  UNL     1     -33.413   3.347   4.457  1.00 20.00     0.043 C 
HETATM    6  C6  UNL     1     -34.500   8.057   4.177  1.00 20.00     0.043 C 
HETATM    7  C7  UNL     1     -31.840   7.631   2.668  1.00 20.00     0.023 C 
HETATM    8  N8  UNL     1     -33.792   5.730   4.157  1.00 20.00     0.093 N 
HETATM    9  S9  UNL     1     -33.008   5.712   1.074  1.00 20.00    -0.160 SA
HETATM   10  H24 UNL     1     -34.438   5.643   4.942  1.00 20.00     0.316 HD
ENDROOT
TORSDOF 0
ENDMDL
MODEL 7
REMARK VINA RESULT:       3.3      2.071      3.872
REMARK  0 active torsions:
REMARK  status: ('A' for Active; 'I' for Inactive)
ROOT
HETATM    1  C1  UNL     1     -33.533   4.464   2.462  1.00 20.00     0.109 C 
HETATM    2  C2  UNL     1     -32.541   5.610   2.244  1.00 20.00     0.226 C 
HETATM    3  C3  UNL     1     -33.605   7.141   3.822  1.00 20.00     0.230 C 
HETATM    4  C4  UNL     1     -34.758   6.202   4.238  1.00 20.00     0.076 C 
HETATM    5  C5  UNL     1     -31.989   5.546   0.817  1.00 20.00     0.043 C 
HETATM    6  C6  UNL     1     -33.998   8.615   3.978  1.00 20.00     0.043 C 
HETATM    7  C7  UNL     1     -36.050   6.372   3.435  1.00 20.00     0.023 C 
HETATM    8  N8  UNL     1     -33.162   6.927   2.437  1.00 20.00     0.093 N 
HETATM    9  S9  UNL     1     -34.203   4.458   4.151  1.00 20.00    -0.160 SA
HETATM   10  H24 UNL     1     -32.491   7.652   2.184  1.00 20.00     0.316 HD
ENDROOT
TORSDOF 0
ENDMDL
MODEL 8
REMARK VINA RESULT:       3.4      1.683      2.442
REMARK  0 active torsions:
REMARK  status: ('A' for Active; 'I' for Inactive)
ROOT
HETATM    1  C1  UNL     1     -32.913   8.039   2.333  1.00 20.00     0.109 C 
HETATM    2  C2  UNL     1     -33.383   7.517   3.693  1.00 20.00     0.226 C 
HETATM    3  C3  UNL     1     -33.068   5.156   3.158  1.00 20.00     0.230 C 
HETATM    4  C4  UNL     1     -32.572   5.361   1.710  1.00 20.00     0.076 C 
HETATM    5  C5  UNL     1     -34.405   8.489   4.291  1.00 20.00     0.043 C 
HETATM    6  C6  UNL     1     -33.743   3.790   3.332  1.00 20.00     0.043 C 
HETATM    7  C7  UNL     1     -33.665   5.302   0.640  1.00 20.00     0.023 C 
HETATM    8  N8  UNL     1     -34.012   6.193   3.595  1.00 20.00     0.093 N 
HETATM    9  S9  UNL     1     -31.668   6.949   1.581  1.00 20.00    -0.160 SA
HETATM   10  H24 UNL     1     -34.394   5.938   4.505  1.00 20.00     0.316 HD
ENDROOT
TORSDOF 0
ENDMDL
