MODEL 1
REMARK VINA RESULT:      -0.8      0.000      0.000
REMARK  3 active torsions:
REMARK  status: ('A' for Active; 'I' for Inactive)
REMARK    1  A    between atoms: C4_4  and  O9_9 
REMARK    2  A    between atoms: C6_6  and  C7_7 
REMARK    3  A    between atoms: C6_6  and  N8_8 
ROOT
HETATM    1  C1  UNL     1     -34.598   7.335   4.141  1.00 20.00     0.064 C 
HETATM    2  C2  UNL     1     -33.145   7.756   3.980  1.00 20.00     0.275 C 
HETATM    3  C3  UNL     1     -33.332   5.796   2.754  1.00 20.00     0.304 C 
HETATM    4  C4  UNL     1     -34.696   6.002   3.405  1.00 20.00     0.150 C 
HETATM    5  N8  UNL     1     -32.672   7.109   2.748  1.00 20.00     0.092 N 
ENDROOT
BRANCH   5   6
HETATM    6  C6  UNL     1     -33.031   7.884   1.561  1.00 20.00     0.287 C 
BRANCH   6   7
HETATM    7  C7  UNL     1     -31.908   8.797   1.099  1.00 20.00     0.144 C 
HETATM    8 CL10 UNL     1     -32.536  10.171   0.154  1.00 20.00    -0.129 Cl
ENDBRANCH   6   7
ENDBRANCH   5   6
BRANCH   4   9
HETATM    9  O9  UNL     1     -34.960   4.945   4.313  1.00 20.00    -0.389 OA
HETATM   10  C5  UNL     1     -33.948   3.948   4.263  1.00 20.00     0.202 C 
ENDBRANCH   4   9
TORSDOF 3
ENDMDL
MODEL 2
REMARK VINA RESULT:      -0.8      3.371      4.527
REMARK  3 active torsions:
REMARK  status: ('A' for Active; 'I' for Inactive)
REMARK    1  A    between atoms: C4_4  and  O9_9 
REMARK    2  A    between atoms: C6_6  and  C7_7 
REMARK    3  A    between atoms: C6_6  and  N8_8 
ROOT
HETATM    1  C1  UNL     1     -34.177   7.740   4.283  1.00 20.00     0.064 C 
HETATM    2  C2  UNL     1     -35.324   6.860   3.808  1.00 20.00     0.275 C 
HETATM    3  C3  UNL     1     -33.460   6.062   2.681  1.00 20.00     0.304 C 
HETATM    4  C4  UNL     1     -32.972   7.269   3.476  1.00 20.00     0.150 C 
HETATM    5  N8  UNL     1     -34.705   5.618   3.324  1.00 20.00     0.092 N 
ENDROOT
BRANCH   5   6
HETATM    6  C6  UNL     1     -34.439   4.686   4.420  1.00 20.00     0.287 C 
BRANCH   6   7
HETATM    7  C7  UNL     1     -33.579   3.510   3.989  1.00 20.00     0.144 C 
HETATM    8 CL10 UNL     1     -32.707   2.804   5.372  1.00 20.00    -0.129 Cl
ENDBRANCH   6   7
ENDBRANCH   5   6
BRANCH   4   9
HETATM    9  O9  UNL     1     -32.533   8.284   2.588  1.00 20.00    -0.389 OA
HETATM   10  C5  UNL     1     -31.826   7.741   1.481  1.00 20.00     0.202 C 
ENDBRANCH   4   9
TORSDOF 3
ENDMDL
MODEL 3
REMARK VINA RESULT:      -0.6      3.413      4.686
REMARK  3 active torsions:
REMARK  status: ('A' for Active; 'I' for Inactive)
REMARK    1  A    between atoms: C4_4  and  O9_9 
REMARK    2  A    between atoms: C6_6  and  C7_7 
REMARK    3  A    between atoms: C6_6  and  N8_8 
ROOT
HETATM    1  C1  UNL     1     -33.050   7.943   3.804  1.00 20.00     0.064 C 
HETATM    2  C2  UNL     1     -34.269   7.039   3.694  1.00 20.00     0.275 C 
HETATM    3  C3  UNL     1     -33.103   6.704   1.716  1.00 20.00     0.304 C 
HETATM    4  C4  UNL     1     -32.332   7.785   2.467  1.00 20.00     0.150 C 
HETATM    5  N8  UNL     1     -33.912   5.998   2.720  1.00 20.00     0.092 N 
ENDROOT
BRANCH   5   6
HETATM    6  C6  UNL     1     -33.159   4.911   3.347  1.00 20.00     0.287 C 
BRANCH   6   7
HETATM    7  C7  UNL     1     -34.031   4.027   4.221  1.00 20.00     0.144 C 
HETATM    8 CL10 UNL     1     -33.076   2.737   4.996  1.00 20.00    -0.129 Cl
ENDBRANCH   6   7
ENDBRANCH   5   6
BRANCH   4   9
HETATM    9  O9  UNL     1     -32.364   8.997   1.732  1.00 20.00    -0.389 OA
HETATM   10  C5  UNL     1     -31.953   8.803   0.385  1.00 20.00     0.202 C 
ENDBRANCH   4   9
TORSDOF 3
ENDMDL
MODEL 4
REMARK VINA RESULT:      -0.1      1.126      1.871
REMARK  3 active torsions:
REMARK  status: ('A' for Active; 'I' for Inactive)
REMARK    1  A    between atoms: C4_4  and  O9_9 
REMARK    2  A    between atoms: C6_6  and  C7_7 
REMARK    3  A    between atoms: C6_6  and  N8_8 
ROOT
HETATM    1  C1  UNL     1     -32.532   4.799   2.488  1.00 20.00     0.064 C 
HETATM    2  C2  UNL     1     -33.110   5.781   1.479  1.00 20.00     0.275 C 
HETATM    3  C3  UNL     1     -34.239   6.230   3.455  1.00 20.00     0.304 C 
HETATM    4  C4  UNL     1     -33.337   5.040   3.762  1.00 20.00     0.150 C 
HETATM    5  N8  UNL     1     -33.672   6.886   2.267  1.00 20.00     0.092 N 
ENDROOT
BRANCH   5   6
HETATM    6  C6  UNL     1     -32.645   7.862   2.634  1.00 20.00     0.287 C 
BRANCH   6   7
HETATM    7  C7  UNL     1     -31.758   8.243   1.461  1.00 20.00     0.144 C 
HETATM    8 CL10 UNL     1     -32.445   9.608   0.545  1.00 20.00    -0.129 Cl
ENDBRANCH   6   7
ENDBRANCH   5   6
BRANCH   4   9
HETATM    9  O9  UNL     1     -34.128   3.906   4.079  1.00 20.00    -0.389 OA
HETATM   10  C5  UNL     1     -33.350   2.875   4.671  1.00 20.00     0.202 C 
ENDBRANCH   4   9
TORSDOF 3
ENDMDL
MODEL 5
REMARK VINA RESULT:       0.1      3.228      4.789
REMARK  3 active torsions:
REMARK  status: ('A' for Active; 'I' for Inactive)
REMARK    1  A    between atoms: C4_4  and  O9_9 
REMARK    2  A    between atoms: C6_6  and  C7_7 
REMARK    3  A    between atoms: C6_6  and  N8_8 
ROOT
HETATM    1  C1  UNL     1     -33.039   6.647   0.923  1.00 20.00     0.064 C 
HETATM    2  C2  UNL     1     -32.788   5.682   2.073  1.00 20.00     0.275 C 
HETATM    3  C3  UNL     1     -32.906   7.774   3.070  1.00 20.00     0.304 C 
HETATM    4  C4  UNL     1     -33.030   8.028   1.571  1.00 20.00     0.150 C 
HETATM    5  N8  UNL     1     -33.266   6.364   3.283  1.00 20.00     0.092 N 
ENDROOT
BRANCH   5   6
HETATM    6  C6  UNL     1     -34.710   6.202   3.458  1.00 20.00     0.287 C 
BRANCH   6   7
HETATM    7  C7  UNL     1     -35.057   5.106   4.451  1.00 20.00     0.144 C 
HETATM    8 CL10 UNL     1     -33.920   3.739   4.332  1.00 20.00    -0.129 Cl
ENDBRANCH   6   7
ENDBRANCH   5   6
BRANCH   4   9
HETATM    9  O9  UNL     1     -31.922   8.789   1.119  1.00 20.00    -0.389 OA
HETATM   10  C5  UNL     1     -32.326   9.823   0.232  1.00 20.00     0.202 C 
ENDBRANCH   4   9
TORSDOF 3
ENDMDL
MODEL 6
REMARK VINA RESULT:       0.3      1.694      1.727
REMARK  3 active torsions:
REMARK  status: ('A' for Active; 'I' for Inactive)
REMARK    1  A    between atoms: C4_4  and  O9_9 
REMARK    2  A    between atoms: C6_6  and  C7_7 
REMARK    3  A    between atoms: C6_6  and  N8_8 
ROOT
HETATM    1  C1  UNL     1     -35.376   6.547   3.910  1.00 20.00     0.064 C 
HETATM    2  C2  UNL     1     -34.341   7.588   4.312  1.00 20.00     0.275 C 
HETATM    3  C3  UNL     1     -33.099   5.760   3.604  1.00 20.00     0.304 C 
HETATM    4  C4  UNL     1     -34.557   5.319   3.528  1.00 20.00     0.150 C 
HETATM    5  N8  UNL     1     -33.110   7.231   3.592  1.00 20.00     0.092 N 
ENDROOT
BRANCH   5   6
HETATM    6  C6  UNL     1     -33.113   7.755   2.226  1.00 20.00     0.287 C 
BRANCH   6   7
HETATM    7  C7  UNL     1     -31.844   7.408   1.467  1.00 20.00     0.144 C 
HETATM    8 CL10 UNL     1     -31.825   5.693   0.985  1.00 20.00    -0.129 Cl
ENDBRANCH   6   7
ENDBRANCH   5   6
BRANCH   4   9
HETATM    9  O9  UNL     1     -34.786   4.257   4.440  1.00 20.00    -0.389 OA
HETATM   10  C5  UNL     1     -33.653   3.407   4.548  1.00 20.00     0.202 C 
ENDBRANCH   4   9
TORSDOF 3
ENDMDL
MODEL 7
REMARK VINA RESULT:       0.4      3.176      4.530
REMARK  3 active torsions:
REMARK  status: ('A' for Active; 'I' for Inactive)
REMARK    1  A    between atoms: C4_4  and  O9_9 
REMARK    2  A    between atoms: C6_6  and  C7_7 
REMARK    3  A    between atoms: C6_6  and  N8_8 
ROOT
HETATM    1  C1  UNL     1     -32.456   8.042   2.976  1.00 20.00     0.064 C 
HETATM    2  C2  UNL     1     -33.812   7.381   3.179  1.00 20.00     0.275 C 
HETATM    3  C3  UNL     1     -32.887   6.289   1.353  1.00 20.00     0.304 C 
HETATM    4  C4  UNL     1     -31.889   7.381   1.724  1.00 20.00     0.150 C 
HETATM    5  N8  UNL     1     -33.713   6.058   2.547  1.00 20.00     0.092 N 
ENDROOT
BRANCH   5   6
HETATM    6  C6  UNL     1     -33.098   5.078   3.443  1.00 20.00     0.287 C 
BRANCH   6   7
HETATM    7  C7  UNL     1     -34.122   4.186   4.122  1.00 20.00     0.144 C 
HETATM    8 CL10 UNL     1     -35.555   5.114   4.632  1.00 20.00    -0.129 Cl
ENDBRANCH   6   7
ENDBRANCH   5   6
BRANCH   4   9
HETATM    9  O9  UNL     1     -31.785   8.317   0.664  1.00 20.00    -0.389 OA
HETATM   10  C5  UNL     1     -32.487   9.518   0.956  1.00 20.00     0.202 C 
ENDBRANCH   4   9
TORSDOF 3
ENDMDL
MODEL 8
REMARK VINA RESULT:       0.4      1.171      1.922
REMARK  3 active torsions:
REMARK  status: ('A' for Active; 'I' for Inactive)
REMARK    1  A    between atoms: C4_4  and  O9_9 
REMARK    2  A    between atoms: C6_6  and  C7_7 
REMARK    3  A    between atoms: C6_6  and  N8_8 
ROOT
HETATM    1  C1  UNL     1     -32.671   5.083   2.073  1.00 20.00     0.064 C 
HETATM    2  C2  UNL     1     -33.073   6.117   1.030  1.00 20.00     0.275 C 
HETATM    3  C3  UNL     1     -33.792   7.002   3.051  1.00 20.00     0.304 C 
HETATM    4  C4  UNL     1     -33.221   5.628   3.387  1.00 20.00     0.150 C 
HETATM    5  N8  UNL     1     -33.212   7.387   1.756  1.00 20.00     0.092 N 
ENDROOT
BRANCH   5   6
HETATM    6  C6  UNL     1     -31.922   8.055   1.925  1.00 20.00     0.287 C 
BRANCH   6   7
HETATM    7  C7  UNL     1     -31.500   8.830   0.688  1.00 20.00     0.144 C 
HETATM    8 CL10 UNL     1     -32.613  10.182   0.359  1.00 20.00    -0.129 Cl
ENDBRANCH   6   7
ENDBRANCH   5   6
BRANCH   4   9
HETATM    9  O9  UNL     1     -34.249   4.789   3.888  1.00 20.00    -0.389 OA
HETATM   10  C5  UNL     1     -35.374   5.543   4.319  1.00 20.00     0.202 C 
ENDBRANCH   4   9
TORSDOF 3
ENDMDL
MODEL 9
REMARK VINA RESULT:       1.0      1.815      2.171
REMARK  3 active torsions:
REMARK  status: ('A' for Active; 'I' for Inactive)
REMARK    1  A    between atoms: C4_4  and  O9_9 
REMARK    2  A    between atoms: C6_6  and  C7_7 
REMARK    3  A    between atoms: C6_6  and  N8_8 
ROOT
HETATM    1  C1  UNL     1     -33.856   6.825   2.907  1.00 20.00     0.064 C 
HETATM    2  C2  UNL     1     -32.902   7.811   3.566  1.00 20.00     0.275 C 
HETATM    3  C3  UNL     1     -31.808   7.126   1.638  1.00 20.00     0.304 C 
HETATM    4  C4  UNL     1     -33.097   6.313   1.687  1.00 20.00     0.150 C 
HETATM    5  N8  UNL     1     -32.026   8.302   2.494  1.00 20.00     0.092 N 
ENDROOT
BRANCH   5   6
HETATM    6  C6  UNL     1     -32.648   9.397   1.749  1.00 20.00     0.287 C 
BRANCH   6   7
HETATM    7  C7  UNL     1     -32.037   9.587   0.372  1.00 20.00     0.144 C 
HETATM    8 CL10 UNL     1     -33.150  10.451  -0.718  1.00 20.00    -0.129 Cl
ENDBRANCH   6   7
ENDBRANCH   5   6
BRANCH   4   9
HETATM    9  O9  UNL     1     -32.792   4.935   1.825  1.00 20.00    -0.389 OA
HETATM   10  C5  UNL     1     -31.658   4.571   1.050  1.00 20.00     0.202 C 
ENDBRANCH   4   9
TORSDOF 3
ENDMDL
