MODEL 1
REMARK VINA RESULT:      -1.2      0.000      0.000
REMARK  0 active torsions:
REMARK  status: ('A' for Active; 'I' for Inactive)
ROOT
HETATM    1  C1  UNL     1     -34.146   6.445   3.551  1.00 20.00    -0.088 C 
HETATM    2  C2  UNL     1     -35.425   6.257   3.908  1.00 20.00     0.014 C 
HETATM    3  C3  UNL     1     -33.427   7.749   3.772  1.00 20.00     0.033 C 
HETATM    4  C4  UNL     1     -33.326   5.371   2.881  1.00 20.00     0.042 C 
HETATM    5  C5  UNL     1     -32.816   8.263   2.469  1.00 20.00     0.005 C 
HETATM    6  C6  UNL     1     -31.957   7.199   1.777  1.00 20.00     0.009 C 
HETATM    7  C7  UNL     1     -32.703   5.860   1.549  1.00 20.00    -0.044 C 
HETATM    8  C8  UNL     1     -31.698   4.806   1.049  1.00 20.00     0.015 C 
HETATM    9  C9  UNL     1     -33.794   6.026   0.473  1.00 20.00     0.015 C 
ENDROOT
TORSDOF 0
ENDMDL
MODEL 2
REMARK VINA RESULT:      -0.1      1.168      2.760
REMARK  0 active torsions:
REMARK  status: ('A' for Active; 'I' for Inactive)
ROOT
HETATM    1  C1  UNL     1     -33.860   7.469   3.665  1.00 20.00    -0.088 C 
HETATM    2  C2  UNL     1     -33.956   7.788   4.964  1.00 20.00     0.014 C 
HETATM    3  C3  UNL     1     -34.032   6.062   3.162  1.00 20.00     0.033 C 
HETATM    4  C4  UNL     1     -33.554   8.494   2.600  1.00 20.00     0.042 C 
HETATM    5  C5  UNL     1     -32.830   5.632   2.321  1.00 20.00     0.005 C 
HETATM    6  C6  UNL     1     -32.510   6.643   1.215  1.00 20.00     0.009 C 
HETATM    7  C7  UNL     1     -32.330   8.091   1.740  1.00 20.00    -0.044 C 
HETATM    8  C8  UNL     1     -32.225   9.048   0.538  1.00 20.00     0.015 C 
HETATM    9  C9  UNL     1     -31.031   8.211   2.560  1.00 20.00     0.015 C 
ENDROOT
TORSDOF 0
ENDMDL
MODEL 3
REMARK VINA RESULT:       0.0      0.848      3.209
REMARK  0 active torsions:
REMARK  status: ('A' for Active; 'I' for Inactive)
ROOT
HETATM    1  C1  UNL     1     -32.623   6.299   1.560  1.00 20.00    -0.088 C 
HETATM    2  C2  UNL     1     -31.860   5.391   0.935  1.00 20.00     0.014 C 
HETATM    3  C3  UNL     1     -32.113   7.663   1.938  1.00 20.00     0.033 C 
HETATM    4  C4  UNL     1     -34.054   6.023   1.952  1.00 20.00     0.042 C 
HETATM    5  C5  UNL     1     -32.332   7.935   3.426  1.00 20.00     0.005 C 
HETATM    6  C6  UNL     1     -33.784   7.686   3.849  1.00 20.00     0.009 C 
HETATM    7  C7  UNL     1     -34.304   6.278   3.459  1.00 20.00    -0.044 C 
HETATM    8  C8  UNL     1     -35.817   6.210   3.735  1.00 20.00     0.015 C 
HETATM    9  C9  UNL     1     -33.615   5.193   4.311  1.00 20.00     0.015 C 
ENDROOT
TORSDOF 0
ENDMDL
MODEL 4
REMARK VINA RESULT:       0.1      1.193      3.662
REMARK  0 active torsions:
REMARK  status: ('A' for Active; 'I' for Inactive)
ROOT
HETATM    1  C1  UNL     1     -32.137   8.010   1.612  1.00 20.00    -0.088 C 
HETATM    2  C2  UNL     1     -32.077   8.970   0.678  1.00 20.00     0.014 C 
HETATM    3  C3  UNL     1     -32.006   6.548   1.280  1.00 20.00     0.033 C 
HETATM    4  C4  UNL     1     -32.358   8.313   3.074  1.00 20.00     0.042 C 
HETATM    5  C5  UNL     1     -33.192   5.755   1.828  1.00 20.00     0.005 C 
HETATM    6  C6  UNL     1     -33.426   6.025   3.318  1.00 20.00     0.009 C 
HETATM    7  C7  UNL     1     -33.563   7.533   3.654  1.00 20.00    -0.044 C 
HETATM    8  C8  UNL     1     -33.582   7.704   5.185  1.00 20.00     0.015 C 
HETATM    9  C9  UNL     1     -34.887   8.092   3.096  1.00 20.00     0.015 C 
ENDROOT
TORSDOF 0
ENDMDL
MODEL 5
REMARK VINA RESULT:       0.6      1.008      2.881
REMARK  0 active torsions:
REMARK  status: ('A' for Active; 'I' for Inactive)
ROOT
HETATM    1  C1  UNL     1     -33.094   5.690   1.646  1.00 20.00    -0.088 C 
HETATM    2  C2  UNL     1     -33.418   5.069   0.503  1.00 20.00     0.014 C 
HETATM    3  C3  UNL     1     -33.949   5.608   2.882  1.00 20.00     0.033 C 
HETATM    4  C4  UNL     1     -31.853   6.536   1.785  1.00 20.00     0.042 C 
HETATM    5  C5  UNL     1     -34.297   7.004   3.398  1.00 20.00     0.005 C 
HETATM    6  C6  UNL     1     -33.052   7.880   3.572  1.00 20.00     0.009 C 
HETATM    7  C7  UNL     1     -32.176   7.963   2.295  1.00 20.00    -0.044 C 
HETATM    8  C8  UNL     1     -30.859   8.684   2.639  1.00 20.00     0.015 C 
HETATM    9  C9  UNL     1     -32.894   8.778   1.200  1.00 20.00     0.015 C 
ENDROOT
TORSDOF 0
ENDMDL
MODEL 6
REMARK VINA RESULT:       1.0      1.111      3.182
REMARK  0 active torsions:
REMARK  status: ('A' for Active; 'I' for Inactive)
ROOT
HETATM    1  C1  UNL     1     -33.884   5.112   3.319  1.00 20.00    -0.088 C 
HETATM    2  C2  UNL     1     -33.856   4.065   4.156  1.00 20.00     0.014 C 
HETATM    3  C3  UNL     1     -33.083   5.152   2.046  1.00 20.00     0.033 C 
HETATM    4  C4  UNL     1     -34.709   6.346   3.591  1.00 20.00     0.042 C 
HETATM    5  C5  UNL     1     -32.217   6.411   1.985  1.00 20.00     0.005 C 
HETATM    6  C6  UNL     1     -33.033   7.683   2.235  1.00 20.00     0.009 C 
HETATM    7  C7  UNL     1     -33.855   7.638   3.549  1.00 20.00    -0.044 C 
HETATM    8  C8  UNL     1     -34.791   8.860   3.596  1.00 20.00     0.015 C 
HETATM    9  C9  UNL     1     -32.919   7.707   4.773  1.00 20.00     0.015 C 
ENDROOT
TORSDOF 0
ENDMDL
MODEL 7
REMARK VINA RESULT:       1.1      1.264      2.563
REMARK  0 active torsions:
REMARK  status: ('A' for Active; 'I' for Inactive)
ROOT
HETATM    1  C1  UNL     1     -33.743   4.452   4.035  1.00 20.00    -0.088 C 
HETATM    2  C2  UNL     1     -33.650   3.115   3.992  1.00 20.00     0.014 C 
HETATM    3  C3  UNL     1     -34.924   5.162   4.640  1.00 20.00     0.033 C 
HETATM    4  C4  UNL     1     -32.679   5.358   3.466  1.00 20.00     0.042 C 
HETATM    5  C5  UNL     1     -35.528   6.158   3.650  1.00 20.00     0.005 C 
HETATM    6  C6  UNL     1     -34.473   7.107   3.073  1.00 20.00     0.009 C 
HETATM    7  C7  UNL     1     -33.260   6.371   2.448  1.00 20.00    -0.044 C 
HETATM    8  C8  UNL     1     -32.175   7.405   2.094  1.00 20.00     0.015 C 
HETATM    9  C9  UNL     1     -33.675   5.652   1.149  1.00 20.00     0.015 C 
ENDROOT
TORSDOF 0
ENDMDL
MODEL 8
REMARK VINA RESULT:       1.6      0.865      2.653
REMARK  0 active torsions:
REMARK  status: ('A' for Active; 'I' for Inactive)
ROOT
HETATM    1  C1  UNL     1     -32.387   8.021   2.585  1.00 20.00    -0.088 C 
HETATM    2  C2  UNL     1     -31.265   8.719   2.814  1.00 20.00     0.014 C 
HETATM    3  C3  UNL     1     -33.489   7.905   3.603  1.00 20.00     0.033 C 
HETATM    4  C4  UNL     1     -32.631   7.279   1.295  1.00 20.00     0.042 C 
HETATM    5  C5  UNL     1     -33.831   6.439   3.873  1.00 20.00     0.005 C 
HETATM    6  C6  UNL     1     -34.107   5.665   2.580  1.00 20.00     0.009 C 
HETATM    7  C7  UNL     1     -32.967   5.786   1.536  1.00 20.00    -0.044 C 
HETATM    8  C8  UNL     1     -33.434   5.156   0.211  1.00 20.00     0.015 C 
HETATM    9  C9  UNL     1     -31.716   5.021   2.013  1.00 20.00     0.015 C 
ENDROOT
TORSDOF 0
ENDMDL
