MODEL 1
REMARK VINA RESULT:      -2.8      0.000      0.000
REMARK  4 active torsions:
REMARK  status: ('A' for Active; 'I' for Inactive)
REMARK    1  A    between atoms: C2_2  and  C4_4 
REMARK    2  A    between atoms: C3_3  and  O7_7 
REMARK    3  A    between atoms: C4_4  and  C5_5 
REMARK    4  A    between atoms: C5_5  and  C6_6 
ROOT
HETATM    1  C1  UNL     1     -34.247   7.249   4.481  1.00 20.00     0.039 A 
HETATM    2  C2  UNL     1     -34.273   6.834   3.037  1.00 20.00     0.017 A 
HETATM    3  C3  UNL     1     -35.351   6.361   3.977  1.00 20.00     0.122 A 
ENDROOT
BRANCH   2   4
HETATM    4  C4  UNL     1     -33.216   5.886   2.494  1.00 20.00     0.008 C 
BRANCH   4   5
HETATM    5  C5  UNL     1     -32.344   6.564   1.437  1.00 20.00     0.015 C 
BRANCH   5   6
HETATM    6  C6  UNL     1     -31.936   7.963   1.880  1.00 20.00     0.114 C 
HETATM    7 CL8  UNL     1     -32.299   9.148   0.604  1.00 20.00    -0.130 Cl
ENDBRANCH   5   6
ENDBRANCH   4   5
ENDBRANCH   2   4
BRANCH   3   8
HETATM    8  O7  UNL     1     -35.300   4.990   4.405  1.00 20.00    -0.395 OA
HETATM    9  H19 UNL     1     -34.370   4.731   4.351  1.00 20.00     0.210 HD
ENDBRANCH   3   8
TORSDOF 4
ENDMDL
MODEL 2
REMARK VINA RESULT:      -2.1      3.091      4.303
REMARK  4 active torsions:
REMARK  status: ('A' for Active; 'I' for Inactive)
REMARK    1  A    between atoms: C2_2  and  C4_4 
REMARK    2  A    between atoms: C3_3  and  O7_7 
REMARK    3  A    between atoms: C4_4  and  C5_5 
REMARK    4  A    between atoms: C5_5  and  C6_6 
ROOT
HETATM    1  C1  UNL     1     -32.078   6.110   1.570  1.00 20.00     0.039 A 
HETATM    2  C2  UNL     1     -33.346   6.744   2.073  1.00 20.00     0.017 A 
HETATM    3  C3  UNL     1     -32.232   7.606   1.537  1.00 20.00     0.122 A 
ENDROOT
BRANCH   2   4
HETATM    4  C4  UNL     1     -33.684   6.707   3.554  1.00 20.00     0.008 C 
BRANCH   4   5
HETATM    5  C5  UNL     1     -35.158   6.374   3.784  1.00 20.00     0.015 C 
BRANCH   5   6
HETATM    6  C6  UNL     1     -35.311   5.072   4.561  1.00 20.00     0.114 C 
HETATM    7 CL8  UNL     1     -33.954   3.977   4.209  1.00 20.00    -0.130 Cl
ENDBRANCH   5   6
ENDBRANCH   4   5
ENDBRANCH   2   4
BRANCH   3   8
HETATM    8  O7  UNL     1     -31.447   8.339   2.493  1.00 20.00    -0.395 OA
HETATM    9  H19 UNL     1     -30.882   8.929   1.974  1.00 20.00     0.210 HD
ENDBRANCH   3   8
TORSDOF 4
ENDMDL
MODEL 3
REMARK VINA RESULT:      -1.9      2.733      4.006
REMARK  4 active torsions:
REMARK  status: ('A' for Active; 'I' for Inactive)
REMARK    1  A    between atoms: C2_2  and  C4_4 
REMARK    2  A    between atoms: C3_3  and  O7_7 
REMARK    3  A    between atoms: C4_4  and  C5_5 
REMARK    4  A    between atoms: C5_5  and  C6_6 
ROOT
HETATM    1  C1  UNL     1     -31.984   8.047   1.451  1.00 20.00     0.039 A 
HETATM    2  C2  UNL     1     -32.539   7.639   2.788  1.00 20.00     0.017 A 
HETATM    3  C3  UNL     1     -32.002   6.595   1.843  1.00 20.00     0.122 A 
ENDROOT
BRANCH   2   4
HETATM    4  C4  UNL     1     -34.027   7.769   3.070  1.00 20.00     0.008 C 
BRANCH   4   5
HETATM    5  C5  UNL     1     -34.410   7.086   4.383  1.00 20.00     0.015 C 
BRANCH   5   6
HETATM    6  C6  UNL     1     -35.257   5.846   4.129  1.00 20.00     0.114 C 
HETATM    7 CL8  UNL     1     -34.240   4.386   4.140  1.00 20.00    -0.130 Cl
ENDBRANCH   5   6
ENDBRANCH   4   5
ENDBRANCH   2   4
BRANCH   3   8
HETATM    8  O7  UNL     1     -32.958   5.770   1.157  1.00 20.00    -0.395 OA
HETATM    9  H19 UNL     1     -32.442   5.194   0.577  1.00 20.00     0.210 HD
ENDBRANCH   3   8
TORSDOF 4
ENDMDL
MODEL 4
REMARK VINA RESULT:      -1.7      3.499      4.719
REMARK  4 active torsions:
REMARK  status: ('A' for Active; 'I' for Inactive)
REMARK    1  A    between atoms: C2_2  and  C4_4 
REMARK    2  A    between atoms: C3_3  and  O7_7 
REMARK    3  A    between atoms: C4_4  and  C5_5 
REMARK    4  A    between atoms: C5_5  and  C6_6 
ROOT
HETATM    1  C1  UNL     1     -31.169   9.203   0.070  1.00 20.00     0.039 A 
HETATM    2  C2  UNL     1     -32.265   8.424   0.741  1.00 20.00     0.017 A 
HETATM    3  C3  UNL     1     -32.562   9.767   0.126  1.00 20.00     0.122 A 
ENDROOT
BRANCH   2   4
HETATM    4  C4  UNL     1     -32.250   8.222   2.247  1.00 20.00     0.008 C 
BRANCH   4   5
HETATM    5  C5  UNL     1     -33.137   7.049   2.665  1.00 20.00     0.015 C 
BRANCH   5   6
HETATM    6  C6  UNL     1     -34.039   7.433   3.831  1.00 20.00     0.114 C 
HETATM    7 CL8  UNL     1     -35.342   6.238   4.027  1.00 20.00    -0.130 Cl
ENDBRANCH   5   6
ENDBRANCH   4   5
ENDBRANCH   2   4
BRANCH   3   8
HETATM    8  O7  UNL     1     -32.757  10.874   1.021  1.00 20.00    -0.395 OA
HETATM    9  H19 UNL     1     -31.896  11.307   1.097  1.00 20.00     0.210 HD
ENDBRANCH   3   8
TORSDOF 4
ENDMDL
MODEL 5
REMARK VINA RESULT:      -1.6      1.085      1.228
REMARK  4 active torsions:
REMARK  status: ('A' for Active; 'I' for Inactive)
REMARK    1  A    between atoms: C2_2  and  C4_4 
REMARK    2  A    between atoms: C3_3  and  O7_7 
REMARK    3  A    between atoms: C4_4  and  C5_5 
REMARK    4  A    between atoms: C5_5  and  C6_6 
ROOT
HETATM    1  C1  UNL     1     -34.480   5.020   4.062  1.00 20.00     0.039 A 
HETATM    2  C2  UNL     1     -33.669   6.097   3.397  1.00 20.00     0.017 A 
HETATM    3  C3  UNL     1     -34.992   6.434   4.035  1.00 20.00     0.122 A 
ENDROOT
BRANCH   2   4
HETATM    4  C4  UNL     1     -33.489   6.097   1.888  1.00 20.00     0.008 C 
BRANCH   4   5
HETATM    5  C5  UNL     1     -32.145   6.704   1.483  1.00 20.00     0.015 C 
BRANCH   5   6
HETATM    6  C6  UNL     1     -32.031   8.147   1.958  1.00 20.00     0.114 C 
HETATM    7 CL8  UNL     1     -32.268   9.268   0.598  1.00 20.00    -0.130 Cl
ENDBRANCH   5   6
ENDBRANCH   4   5
ENDBRANCH   2   4
BRANCH   3   8
HETATM    8  O7  UNL     1     -36.103   6.684   3.160  1.00 20.00    -0.395 OA
HETATM    9  H19 UNL     1     -35.896   6.227   2.333  1.00 20.00     0.210 HD
ENDBRANCH   3   8
TORSDOF 4
ENDMDL
MODEL 6
REMARK VINA RESULT:      -1.6      3.185      4.299
REMARK  4 active torsions:
REMARK  status: ('A' for Active; 'I' for Inactive)
REMARK    1  A    between atoms: C2_2  and  C4_4 
REMARK    2  A    between atoms: C3_3  and  O7_7 
REMARK    3  A    between atoms: C4_4  and  C5_5 
REMARK    4  A    between atoms: C5_5  and  C6_6 
ROOT
HETATM    1  C1  UNL     1     -31.463   8.380   2.574  1.00 20.00     0.039 A 
HETATM    2  C2  UNL     1     -32.079   7.205   1.866  1.00 20.00     0.017 A 
HETATM    3  C3  UNL     1     -31.711   8.444   1.092  1.00 20.00     0.122 A 
ENDROOT
BRANCH   2   4
HETATM    4  C4  UNL     1     -33.528   6.829   2.127  1.00 20.00     0.008 C 
BRANCH   4   5
HETATM    5  C5  UNL     1     -33.954   7.188   3.551  1.00 20.00     0.015 C 
BRANCH   5   6
HETATM    6  C6  UNL     1     -35.073   6.275   4.035  1.00 20.00     0.114 C 
HETATM    7 CL8  UNL     1     -34.495   4.598   4.161  1.00 20.00    -0.130 Cl
ENDBRANCH   5   6
ENDBRANCH   4   5
ENDBRANCH   2   4
BRANCH   3   8
HETATM    8  O7  UNL     1     -32.783   9.302   0.670  1.00 20.00    -0.395 OA
HETATM    9  H19 UNL     1     -33.571   8.987   1.132  1.00 20.00     0.210 HD
ENDBRANCH   3   8
TORSDOF 4
ENDMDL
MODEL 7
REMARK VINA RESULT:      -1.6      3.296      4.091
REMARK  4 active torsions:
REMARK  status: ('A' for Active; 'I' for Inactive)
REMARK    1  A    between atoms: C2_2  and  C4_4 
REMARK    2  A    between atoms: C3_3  and  O7_7 
REMARK    3  A    between atoms: C4_4  and  C5_5 
REMARK    4  A    between atoms: C5_5  and  C6_6 
ROOT
HETATM    1  C1  UNL     1     -34.018   8.425   3.323  1.00 20.00     0.039 A 
HETATM    2  C2  UNL     1     -34.091   7.144   4.107  1.00 20.00     0.017 A 
HETATM    3  C3  UNL     1     -32.974   7.361   3.119  1.00 20.00     0.122 A 
ENDROOT
BRANCH   2   4
HETATM    4  C4  UNL     1     -35.207   6.147   3.842  1.00 20.00     0.008 C 
BRANCH   4   5
HETATM    5  C5  UNL     1     -34.965   4.827   4.575  1.00 20.00     0.015 C 
BRANCH   5   6
HETATM    6  C6  UNL     1     -33.914   3.988   3.861  1.00 20.00     0.114 C 
HETATM    7 CL8  UNL     1     -33.093   2.910   5.013  1.00 20.00    -0.130 Cl
ENDBRANCH   5   6
ENDBRANCH   4   5
ENDBRANCH   2   4
BRANCH   3   8
HETATM    8  O7  UNL     1     -33.042   6.643   1.877  1.00 20.00    -0.395 OA
HETATM    9  H19 UNL     1     -33.401   7.266   1.230  1.00 20.00     0.210 HD
ENDBRANCH   3   8
TORSDOF 4
ENDMDL
MODEL 8
REMARK VINA RESULT:      -1.5      3.512      4.634
REMARK  4 active torsions:
REMARK  status: ('A' for Active; 'I' for Inactive)
REMARK    1  A    between atoms: C2_2  and  C4_4 
REMARK    2  A    between atoms: C3_3  and  O7_7 
REMARK    3  A    between atoms: C4_4  and  C5_5 
REMARK    4  A    between atoms: C5_5  and  C6_6 
ROOT
HETATM    1  C1  UNL     1     -32.827  10.354   1.196  1.00 20.00     0.039 A 
HETATM    2  C2  UNL     1     -31.822   9.235   1.191  1.00 20.00     0.017 A 
HETATM    3  C3  UNL     1     -32.182   9.933  -0.095  1.00 20.00     0.122 A 
ENDROOT
BRANCH   2   4
HETATM    4  C4  UNL     1     -32.263   7.809   1.475  1.00 20.00     0.008 C 
BRANCH   4   5
HETATM    5  C5  UNL     1     -32.992   7.704   2.815  1.00 20.00     0.015 C 
BRANCH   5   6
HETATM    6  C6  UNL     1     -33.631   6.332   2.985  1.00 20.00     0.114 C 
HETATM    7 CL8  UNL     1     -35.141   6.462   3.916  1.00 20.00    -0.130 Cl
ENDBRANCH   5   6
ENDBRANCH   4   5
ENDBRANCH   2   4
BRANCH   3   8
HETATM    8  O7  UNL     1     -33.025   9.223  -1.018  1.00 20.00    -0.395 OA
HETATM    9  H19 UNL     1     -33.931   9.375  -0.717  1.00 20.00     0.210 HD
ENDBRANCH   3   8
TORSDOF 4
ENDMDL
MODEL 9
REMARK VINA RESULT:      -1.5      1.398      1.585
REMARK  4 active torsions:
REMARK  status: ('A' for Active; 'I' for Inactive)
REMARK    1  A    between atoms: C2_2  and  C4_4 
REMARK    2  A    between atoms: C3_3  and  O7_7 
REMARK    3  A    between atoms: C4_4  and  C5_5 
REMARK    4  A    between atoms: C5_5  and  C6_6 
ROOT
HETATM    1  C1  UNL     1     -35.200   6.164   3.889  1.00 20.00     0.039 A 
HETATM    2  C2  UNL     1     -33.803   6.149   3.334  1.00 20.00     0.017 A 
HETATM    3  C3  UNL     1     -34.216   7.221   4.310  1.00 20.00     0.122 A 
ENDROOT
BRANCH   2   4
HETATM    4  C4  UNL     1     -33.559   6.458   1.866  1.00 20.00     0.008 C 
BRANCH   4   5
HETATM    5  C5  UNL     1     -32.072   6.671   1.578  1.00 20.00     0.015 C 
BRANCH   5   6
HETATM    6  C6  UNL     1     -31.662   8.113   1.852  1.00 20.00     0.114 C 
HETATM    7 CL8  UNL     1     -32.327   9.194   0.606  1.00 20.00    -0.130 Cl
ENDBRANCH   5   6
ENDBRANCH   4   5
ENDBRANCH   2   4
BRANCH   3   8
HETATM    8  O7  UNL     1     -34.446   8.539   3.785  1.00 20.00    -0.395 OA
HETATM    9  H19 UNL     1     -34.599   8.423   2.838  1.00 20.00     0.210 HD
ENDBRANCH   3   8
TORSDOF 4
ENDMDL
