MODEL 1
REMARK VINA RESULT:      -0.1      0.000      0.000
REMARK  3 active torsions:
REMARK  status: ('A' for Active; 'I' for Inactive)
REMARK    1  A    between atoms: C6_6  and  C8_8 
REMARK    2  A    between atoms: C6_6  and  C9_9 
REMARK    3  A    between atoms: C9_9  and  O10_10 
ROOT
HETATM    1  C1  UNL     1     -34.295   6.141   3.380  1.00 20.00     0.000 C 
HETATM    2  C2  UNL     1     -33.092   5.555   2.650  1.00 20.00     0.001 C 
HETATM    3  C3  UNL     1     -34.044   7.576   3.830  1.00 20.00     0.001 C 
HETATM    4  C4  UNL     1     -32.652   6.441   1.484  1.00 20.00     0.011 C 
HETATM    5  C5  UNL     1     -33.607   8.465   2.665  1.00 20.00     0.011 C 
HETATM    6  C6  UNL     1     -32.389   7.909   1.892  1.00 20.00    -0.019 C 
ENDROOT
BRANCH   6   7
HETATM    7  C8  UNL     1     -32.178   8.752   0.620  1.00 20.00     0.007 C 
HETATM    8  C7  UNL     1     -32.733  10.124   0.785  1.00 20.00     0.006 C 
ENDBRANCH   6   7
BRANCH   6   9
HETATM    9  C9  UNL     1     -31.111   8.013   2.746  1.00 20.00     0.173 C 
BRANCH   9  10
HETATM   10  O10 UNL     1     -31.380   8.880   3.826  1.00 20.00    -0.400 OA
HETATM   11  H28 UNL     1     -32.332   8.813   4.022  1.00 20.00     0.209 HD
ENDBRANCH   9  10
ENDBRANCH   6   9
TORSDOF 3
ENDMDL
MODEL 2
REMARK VINA RESULT:      -0.1      2.044      3.100
REMARK  3 active torsions:
REMARK  status: ('A' for Active; 'I' for Inactive)
REMARK    1  A    between atoms: C6_6  and  C8_8 
REMARK    2  A    between atoms: C6_6  and  C9_9 
REMARK    3  A    between atoms: C9_9  and  O10_10 
ROOT
HETATM    1  C1  UNL     1     -35.002   5.183   4.568  1.00 20.00     0.000 C 
HETATM    2  C2  UNL     1     -35.365   6.455   3.811  1.00 20.00     0.001 C 
HETATM    3  C3  UNL     1     -34.100   4.269   3.746  1.00 20.00     0.001 C 
HETATM    4  C4  UNL     1     -34.121   7.192   3.315  1.00 20.00     0.011 C 
HETATM    5  C5  UNL     1     -32.853   5.003   3.251  1.00 20.00     0.011 C 
HETATM    6  C6  UNL     1     -33.173   6.303   2.478  1.00 20.00    -0.019 C 
ENDROOT
BRANCH   6   7
HETATM    7  C8  UNL     1     -31.861   7.070   2.227  1.00 20.00     0.007 C 
HETATM    8  C7  UNL     1     -32.115   8.354   1.517  1.00 20.00     0.006 C 
ENDBRANCH   6   7
BRANCH   6   9
HETATM    9  C9  UNL     1     -33.801   5.979   1.109  1.00 20.00     0.173 C 
BRANCH   9  10
HETATM   10  O10 UNL     1     -33.004   4.997   0.486  1.00 20.00    -0.400 OA
HETATM   11  H28 UNL     1     -33.134   4.164   0.976  1.00 20.00     0.209 HD
ENDBRANCH   9  10
ENDBRANCH   6   9
TORSDOF 3
ENDMDL
MODEL 3
REMARK VINA RESULT:      -0.0      2.199      4.064
REMARK  3 active torsions:
REMARK  status: ('A' for Active; 'I' for Inactive)
REMARK    1  A    between atoms: C6_6  and  C8_8 
REMARK    2  A    between atoms: C6_6  and  C9_9 
REMARK    3  A    between atoms: C9_9  and  O10_10 
ROOT
HETATM    1  C1  UNL     1     -31.822   7.593   1.907  1.00 20.00     0.000 C 
HETATM    2  C2  UNL     1     -32.702   6.552   1.225  1.00 20.00     0.001 C 
HETATM    3  C3  UNL     1     -32.567   8.329   3.015  1.00 20.00     0.001 C 
HETATM    4  C4  UNL     1     -33.312   5.579   2.234  1.00 20.00     0.011 C 
HETATM    5  C5  UNL     1     -33.176   7.359   4.027  1.00 20.00     0.011 C 
HETATM    6  C6  UNL     1     -34.076   6.281   3.380  1.00 20.00    -0.019 C 
ENDROOT
BRANCH   6   7
HETATM    7  C8  UNL     1     -34.448   5.235   4.447  1.00 20.00     0.007 C 
HETATM    8  C7  UNL     1     -33.832   3.913   4.145  1.00 20.00     0.006 C 
ENDBRANCH   6   7
BRANCH   6   9
HETATM    9  C9  UNL     1     -35.382   6.909   2.856  1.00 20.00     0.173 C 
BRANCH   9  10
HETATM   10  O10 UNL     1     -36.461   6.266   3.498  1.00 20.00    -0.400 OA
HETATM   11  H28 UNL     1     -36.911   5.718   2.830  1.00 20.00     0.209 HD
ENDBRANCH   9  10
ENDBRANCH   6   9
TORSDOF 3
ENDMDL
MODEL 4
REMARK VINA RESULT:       0.5      1.694      1.897
REMARK  3 active torsions:
REMARK  status: ('A' for Active; 'I' for Inactive)
REMARK    1  A    between atoms: C6_6  and  C8_8 
REMARK    2  A    between atoms: C6_6  and  C9_9 
REMARK    3  A    between atoms: C9_9  and  O10_10 
ROOT
HETATM    1  C1  UNL     1     -34.065   7.569   4.350  1.00 20.00     0.000 C 
HETATM    2  C2  UNL     1     -34.299   6.528   3.262  1.00 20.00     0.001 C 
HETATM    3  C3  UNL     1     -32.633   8.092   4.339  1.00 20.00     0.001 C 
HETATM    4  C4  UNL     1     -33.904   7.054   1.882  1.00 20.00     0.011 C 
HETATM    5  C5  UNL     1     -32.236   8.622   2.961  1.00 20.00     0.011 C 
HETATM    6  C6  UNL     1     -32.459   7.600   1.822  1.00 20.00    -0.019 C 
ENDROOT
BRANCH   6   7
HETATM    7  C8  UNL     1     -32.245   8.304   0.470  1.00 20.00     0.007 C 
HETATM    8  C7  UNL     1     -32.430   9.777   0.594  1.00 20.00     0.006 C 
ENDBRANCH   6   7
BRANCH   6   9
HETATM    9  C9  UNL     1     -31.440   6.447   1.922  1.00 20.00     0.173 C 
BRANCH   9  10
HETATM   10  O10 UNL     1     -31.936   5.363   1.170  1.00 20.00    -0.400 OA
HETATM   11  H28 UNL     1     -32.757   5.062   1.601  1.00 20.00     0.209 HD
ENDBRANCH   9  10
ENDBRANCH   6   9
TORSDOF 3
ENDMDL
MODEL 5
REMARK VINA RESULT:       0.6      2.171      3.937
REMARK  3 active torsions:
REMARK  status: ('A' for Active; 'I' for Inactive)
REMARK    1  A    between atoms: C6_6  and  C8_8 
REMARK    2  A    between atoms: C6_6  and  C9_9 
REMARK    3  A    between atoms: C9_9  and  O10_10 
ROOT
HETATM    1  C1  UNL     1     -32.134   7.809   1.870  1.00 20.00     0.000 C 
HETATM    2  C2  UNL     1     -32.255   7.966   3.381  1.00 20.00     0.001 C 
HETATM    3  C3  UNL     1     -32.529   6.411   1.409  1.00 20.00     0.001 C 
HETATM    4  C4  UNL     1     -33.648   7.583   3.879  1.00 20.00     0.011 C 
HETATM    5  C5  UNL     1     -33.923   6.026   1.903  1.00 20.00     0.011 C 
HETATM    6  C6  UNL     1     -34.094   6.172   3.433  1.00 20.00    -0.019 C 
ENDROOT
BRANCH   6   7
HETATM    7  C8  UNL     1     -35.580   5.981   3.790  1.00 20.00     0.007 C 
HETATM    8  C7  UNL     1     -36.447   6.892   2.993  1.00 20.00     0.006 C 
ENDBRANCH   6   7
BRANCH   6   9
HETATM    9  C9  UNL     1     -33.286   5.088   4.174  1.00 20.00     0.173 C 
BRANCH   9  10
HETATM   10  O10 UNL     1     -34.046   3.900   4.169  1.00 20.00    -0.400 OA
HETATM   11  H28 UNL     1     -33.603   3.276   3.565  1.00 20.00     0.209 HD
ENDBRANCH   9  10
ENDBRANCH   6   9
TORSDOF 3
ENDMDL
MODEL 6
REMARK VINA RESULT:       0.7      1.554      2.767
REMARK  3 active torsions:
REMARK  status: ('A' for Active; 'I' for Inactive)
REMARK    1  A    between atoms: C6_6  and  C8_8 
REMARK    2  A    between atoms: C6_6  and  C9_9 
REMARK    3  A    between atoms: C9_9  and  O10_10 
ROOT
HETATM    1  C1  UNL     1     -33.496   7.889   4.947  1.00 20.00     0.000 C 
HETATM    2  C2  UNL     1     -32.365   8.766   4.423  1.00 20.00     0.001 C 
HETATM    3  C3  UNL     1     -34.435   7.444   3.832  1.00 20.00     0.001 C 
HETATM    4  C4  UNL     1     -31.603   8.085   3.286  1.00 20.00     0.011 C 
HETATM    5  C5  UNL     1     -33.676   6.760   2.695  1.00 20.00     0.011 C 
HETATM    6  C6  UNL     1     -32.516   7.612   2.131  1.00 20.00    -0.019 C 
ENDROOT
BRANCH   6   7
HETATM    7  C8  UNL     1     -31.688   6.749   1.161  1.00 20.00     0.007 C 
HETATM    8  C7  UNL     1     -32.169   5.339   1.149  1.00 20.00     0.006 C 
ENDBRANCH   6   7
BRANCH   6   9
HETATM    9  C9  UNL     1     -33.062   8.818   1.343  1.00 20.00     0.173 C 
BRANCH   9  10
HETATM   10  O10 UNL     1     -32.045   9.267   0.475  1.00 20.00    -0.400 OA
HETATM   11  H28 UNL     1     -31.648  10.060   0.879  1.00 20.00     0.209 HD
ENDBRANCH   9  10
ENDBRANCH   6   9
TORSDOF 3
ENDMDL
MODEL 7
REMARK VINA RESULT:       0.8      1.306      3.572
REMARK  3 active torsions:
REMARK  status: ('A' for Active; 'I' for Inactive)
REMARK    1  A    between atoms: C6_6  and  C8_8 
REMARK    2  A    between atoms: C6_6  and  C9_9 
REMARK    3  A    between atoms: C9_9  and  O10_10 
ROOT
HETATM    1  C1  UNL     1     -31.815   7.371   0.984  1.00 20.00     0.000 C 
HETATM    2  C2  UNL     1     -32.241   8.583   1.805  1.00 20.00     0.001 C 
HETATM    3  C3  UNL     1     -31.891   6.080   1.790  1.00 20.00     0.001 C 
HETATM    4  C4  UNL     1     -33.625   8.388   2.423  1.00 20.00     0.011 C 
HETATM    5  C5  UNL     1     -33.276   5.881   2.407  1.00 20.00     0.011 C 
HETATM    6  C6  UNL     1     -33.753   7.087   3.249  1.00 20.00    -0.019 C 
ENDROOT
BRANCH   6   7
HETATM    7  C8  UNL     1     -35.231   6.878   3.629  1.00 20.00     0.007 C 
HETATM    8  C7  UNL     1     -35.426   5.586   4.342  1.00 20.00     0.006 C 
ENDBRANCH   6   7
BRANCH   6   9
HETATM    9  C9  UNL     1     -32.939   7.193   4.554  1.00 20.00     0.173 C 
BRANCH   9  10
HETATM   10  O10 UNL     1     -33.342   8.367   5.223  1.00 20.00    -0.400 OA
HETATM   11  H28 UNL     1     -33.475   9.055   4.547  1.00 20.00     0.209 HD
ENDBRANCH   9  10
ENDBRANCH   6   9
TORSDOF 3
ENDMDL
MODEL 8
REMARK VINA RESULT:       0.8      1.531      2.098
REMARK  3 active torsions:
REMARK  status: ('A' for Active; 'I' for Inactive)
REMARK    1  A    between atoms: C6_6  and  C8_8 
REMARK    2  A    between atoms: C6_6  and  C9_9 
REMARK    3  A    between atoms: C9_9  and  O10_10 
ROOT
HETATM    1  C1  UNL     1     -34.964   4.580   4.126  1.00 20.00     0.000 C 
HETATM    2  C2  UNL     1     -33.458   4.545   3.897  1.00 20.00     0.001 C 
HETATM    3  C3  UNL     1     -35.461   5.989   4.434  1.00 20.00     0.001 C 
HETATM    4  C4  UNL     1     -33.026   5.541   2.821  1.00 20.00     0.011 C 
HETATM    5  C5  UNL     1     -35.033   6.986   3.357  1.00 20.00     0.011 C 
HETATM    6  C6  UNL     1     -33.511   6.984   3.088  1.00 20.00    -0.019 C 
ENDROOT
BRANCH   6   7
HETATM    7  C8  UNL     1     -33.222   7.847   1.846  1.00 20.00     0.007 C 
HETATM    8  C7  UNL     1     -31.757   7.974   1.606  1.00 20.00     0.006 C 
ENDBRANCH   6   7
BRANCH   6   9
HETATM    9  C9  UNL     1     -32.749   7.599   4.279  1.00 20.00     0.173 C 
BRANCH   9  10
HETATM   10  O10 UNL     1     -33.675   8.319   5.061  1.00 20.00    -0.400 OA
HETATM   11  H28 UNL     1     -33.165   8.906   5.648  1.00 20.00     0.209 HD
ENDBRANCH   9  10
ENDBRANCH   6   9
TORSDOF 3
ENDMDL
MODEL 9
REMARK VINA RESULT:       1.3      2.406      3.361
REMARK  3 active torsions:
REMARK  status: ('A' for Active; 'I' for Inactive)
REMARK    1  A    between atoms: C6_6  and  C8_8 
REMARK    2  A    between atoms: C6_6  and  C9_9 
REMARK    3  A    between atoms: C9_9  and  O10_10 
ROOT
HETATM    1  C1  UNL     1     -34.197   8.176   4.352  1.00 20.00     0.000 C 
HETATM    2  C2  UNL     1     -35.024   6.898   4.278  1.00 20.00     0.001 C 
HETATM    3  C3  UNL     1     -32.731   7.927   4.016  1.00 20.00     0.001 C 
HETATM    4  C4  UNL     1     -34.868   6.202   2.926  1.00 20.00     0.011 C 
HETATM    5  C5  UNL     1     -32.572   7.234   2.663  1.00 20.00     0.011 C 
HETATM    6  C6  UNL     1     -33.396   5.931   2.540  1.00 20.00    -0.019 C 
ENDROOT
BRANCH   6   7
HETATM    7  C8  UNL     1     -33.342   5.443   1.080  1.00 20.00     0.007 C 
HETATM    8  C7  UNL     1     -31.974   4.982   0.715  1.00 20.00     0.006 C 
ENDBRANCH   6   7
BRANCH   6   9
HETATM    9  C9  UNL     1     -32.797   4.825   3.431  1.00 20.00     0.173 C 
BRANCH   9  10
HETATM   10  O10 UNL     1     -33.856   4.012   3.884  1.00 20.00    -0.400 OA
HETATM   11  H28 UNL     1     -33.469   3.325   4.457  1.00 20.00     0.209 HD
ENDBRANCH   9  10
ENDBRANCH   6   9
TORSDOF 3
ENDMDL
