MODEL 1
REMARK VINA RESULT:      -2.0      0.000      0.000
REMARK  2 active torsions:
REMARK  status: ('A' for Active; 'I' for Inactive)
REMARK    1  A    between atoms: C2_2  and  C6_6 
REMARK    2  A    between atoms: C3_3  and  O7_7 
ROOT
HETATM    1  C1  UNL     1     -33.763   5.822   2.459  1.00 20.00     0.045 A 
HETATM    2  C2  UNL     1     -33.495   5.199   3.805  1.00 20.00     0.022 A 
HETATM    3  C3  UNL     1     -34.402   6.400   3.696  1.00 20.00     0.058 A 
HETATM    4  C4  UNL     1     -33.950   7.724   4.218  1.00 20.00     0.046 C 
ENDROOT
BRANCH   3   5
HETATM    5  O7  UNL     1     -35.815   6.176   3.836  1.00 20.00    -0.390 OA
HETATM    6  H19 UNL     1     -36.223   7.052   3.839  1.00 20.00     0.210 HD
ENDBRANCH   3   5
BRANCH   2   7
HETATM    7  C6  UNL     1     -34.030   3.843   4.120  1.00 20.00     0.003 C 
HETATM    8  C5  UNL     1     -33.033   2.970   4.839  1.00 20.00     0.005 C 
ENDBRANCH   2   7
TORSDOF 2
ENDMDL
MODEL 2
REMARK VINA RESULT:      -1.7      2.749      3.594
REMARK  2 active torsions:
REMARK  status: ('A' for Active; 'I' for Inactive)
REMARK    1  A    between atoms: C2_2  and  C6_6 
REMARK    2  A    between atoms: C3_3  and  O7_7 
ROOT
HETATM    1  C1  UNL     1     -32.091   8.259   3.352  1.00 20.00     0.045 A 
HETATM    2  C2  UNL     1     -33.422   7.736   2.876  1.00 20.00     0.022 A 
HETATM    3  C3  UNL     1     -32.285   7.912   1.898  1.00 20.00     0.058 A 
HETATM    4  C4  UNL     1     -32.343   8.998   0.876  1.00 20.00     0.046 C 
ENDROOT
BRANCH   3   5
HETATM    5  O7  UNL     1     -31.616   6.724   1.442  1.00 20.00    -0.390 OA
HETATM    6  H19 UNL     1     -30.865   6.599   2.036  1.00 20.00     0.210 HD
ENDBRANCH   3   5
BRANCH   2   7
HETATM    7  C6  UNL     1     -33.887   6.383   3.296  1.00 20.00     0.003 C 
HETATM    8  C5  UNL     1     -35.233   6.409   3.975  1.00 20.00     0.005 C 
ENDBRANCH   2   7
TORSDOF 2
ENDMDL
MODEL 3
REMARK VINA RESULT:      -1.6      3.478      4.951
REMARK  2 active torsions:
REMARK  status: ('A' for Active; 'I' for Inactive)
REMARK    1  A    between atoms: C2_2  and  C6_6 
REMARK    2  A    between atoms: C3_3  and  O7_7 
ROOT
HETATM    1  C1  UNL     1     -31.992   6.927   1.786  1.00 20.00     0.045 A 
HETATM    2  C2  UNL     1     -32.705   8.197   1.397  1.00 20.00     0.022 A 
HETATM    3  C3  UNL     1     -32.588   7.810   2.852  1.00 20.00     0.058 A 
HETATM    4  C4  UNL     1     -33.797   7.359   3.602  1.00 20.00     0.046 C 
ENDROOT
BRANCH   3   5
HETATM    5  O7  UNL     1     -31.649   8.543   3.657  1.00 20.00    -0.390 OA
HETATM    6  H19 UNL     1     -30.773   8.277   3.350  1.00 20.00     0.210 HD
ENDBRANCH   3   5
BRANCH   2   7
HETATM    7  C6  UNL     1     -31.936   9.342   0.831  1.00 20.00     0.003 C 
HETATM    8  C5  UNL     1     -32.665  10.042  -0.289  1.00 20.00     0.005 C 
ENDBRANCH   2   7
TORSDOF 2
ENDMDL
MODEL 4
REMARK VINA RESULT:      -1.6      3.417      5.146
REMARK  2 active torsions:
REMARK  status: ('A' for Active; 'I' for Inactive)
REMARK    1  A    between atoms: C2_2  and  C6_6 
REMARK    2  A    between atoms: C3_3  and  O7_7 
ROOT
HETATM    1  C1  UNL     1     -31.119   7.778   1.974  1.00 20.00     0.045 A 
HETATM    2  C2  UNL     1     -32.099   8.251   0.931  1.00 20.00     0.022 A 
HETATM    3  C3  UNL     1     -32.527   7.240   1.967  1.00 20.00     0.058 A 
HETATM    4  C4  UNL     1     -32.781   5.825   1.567  1.00 20.00     0.046 C 
ENDROOT
BRANCH   3   5
HETATM    5  O7  UNL     1     -33.380   7.703   3.028  1.00 20.00    -0.390 OA
HETATM    6  H19 UNL     1     -33.580   8.626   2.824  1.00 20.00     0.210 HD
ENDBRANCH   3   5
BRANCH   2   7
HETATM    7  C6  UNL     1     -32.599   9.655   0.957  1.00 20.00     0.003 C 
HETATM    8  C5  UNL     1     -32.736  10.257  -0.419  1.00 20.00     0.005 C 
ENDBRANCH   2   7
TORSDOF 2
ENDMDL
MODEL 5
REMARK VINA RESULT:      -1.4      1.663      3.093
REMARK  2 active torsions:
REMARK  status: ('A' for Active; 'I' for Inactive)
REMARK    1  A    between atoms: C2_2  and  C6_6 
REMARK    2  A    between atoms: C3_3  and  O7_7 
ROOT
HETATM    1  C1  UNL     1     -34.051   7.457   4.277  1.00 20.00     0.045 A 
HETATM    2  C2  UNL     1     -33.542   6.461   3.267  1.00 20.00     0.022 A 
HETATM    3  C3  UNL     1     -34.961   6.366   3.772  1.00 20.00     0.058 A 
HETATM    4  C4  UNL     1     -35.355   5.248   4.679  1.00 20.00     0.046 C 
ENDROOT
BRANCH   3   5
HETATM    5  O7  UNL     1     -36.009   6.785   2.882  1.00 20.00    -0.390 OA
HETATM    6  H19 UNL     1     -36.390   7.580   3.277  1.00 20.00     0.210 HD
ENDBRANCH   3   5
BRANCH   2   7
HETATM    7  C6  UNL     1     -33.237   6.899   1.874  1.00 20.00     0.003 C 
HETATM    8  C5  UNL     1     -32.079   7.860   1.800  1.00 20.00     0.005 C 
ENDBRANCH   2   7
TORSDOF 2
ENDMDL
MODEL 6
REMARK VINA RESULT:      -1.3      2.446      3.930
REMARK  2 active torsions:
REMARK  status: ('A' for Active; 'I' for Inactive)
REMARK    1  A    between atoms: C2_2  and  C6_6 
REMARK    2  A    between atoms: C3_3  and  O7_7 
ROOT
HETATM    1  C1  UNL     1     -32.942   5.935   2.661  1.00 20.00     0.045 A 
HETATM    2  C2  UNL     1     -33.174   7.262   1.986  1.00 20.00     0.022 A 
HETATM    3  C3  UNL     1     -33.674   7.031   3.391  1.00 20.00     0.058 A 
HETATM    4  C4  UNL     1     -35.138   6.904   3.649  1.00 20.00     0.046 C 
ENDROOT
BRANCH   3   5
HETATM    5  O7  UNL     1     -32.951   7.662   4.462  1.00 20.00    -0.390 OA
HETATM    6  H19 UNL     1     -33.279   8.570   4.504  1.00 20.00     0.210 HD
ENDBRANCH   3   5
BRANCH   2   7
HETATM    7  C6  UNL     1     -32.024   8.169   1.707  1.00 20.00     0.003 C 
HETATM    8  C5  UNL     1     -32.354   9.244   0.702  1.00 20.00     0.005 C 
ENDBRANCH   2   7
TORSDOF 2
ENDMDL
MODEL 7
REMARK VINA RESULT:      -1.1      1.496      1.704
REMARK  2 active torsions:
REMARK  status: ('A' for Active; 'I' for Inactive)
REMARK    1  A    between atoms: C2_2  and  C6_6 
REMARK    2  A    between atoms: C3_3  and  O7_7 
ROOT
HETATM    1  C1  UNL     1     -35.274   6.935   3.194  1.00 20.00     0.045 A 
HETATM    2  C2  UNL     1     -34.309   5.796   3.397  1.00 20.00     0.022 A 
HETATM    3  C3  UNL     1     -33.854   7.219   3.613  1.00 20.00     0.058 A 
HETATM    4  C4  UNL     1     -32.907   7.852   2.649  1.00 20.00     0.046 C 
ENDROOT
BRANCH   3   5
HETATM    5  O7  UNL     1     -33.676   7.658   4.970  1.00 20.00    -0.390 OA
HETATM    6  H19 UNL     1     -32.971   8.318   4.945  1.00 20.00     0.210 HD
ENDBRANCH   3   5
BRANCH   2   7
HETATM    7  C6  UNL     1     -34.494   4.855   4.539  1.00 20.00     0.003 C 
HETATM    8  C5  UNL     1     -33.735   3.563   4.365  1.00 20.00     0.005 C 
ENDBRANCH   2   7
TORSDOF 2
ENDMDL
MODEL 8
REMARK VINA RESULT:      -1.0      2.715      3.400
REMARK  2 active torsions:
REMARK  status: ('A' for Active; 'I' for Inactive)
REMARK    1  A    between atoms: C2_2  and  C6_6 
REMARK    2  A    between atoms: C3_3  and  O7_7 
ROOT
HETATM    1  C1  UNL     1     -33.045   6.437   1.645  1.00 20.00     0.045 A 
HETATM    2  C2  UNL     1     -32.961   6.998   3.041  1.00 20.00     0.022 A 
HETATM    3  C3  UNL     1     -32.383   7.770   1.881  1.00 20.00     0.058 A 
HETATM    4  C4  UNL     1     -30.903   7.901   1.736  1.00 20.00     0.046 C 
ENDROOT
BRANCH   3   5
HETATM    5  O7  UNL     1     -33.112   8.922   1.425  1.00 20.00    -0.390 OA
HETATM    6  H19 UNL     1     -32.446   9.561   1.140  1.00 20.00     0.210 HD
ENDBRANCH   3   5
BRANCH   2   7
HETATM    7  C6  UNL     1     -34.197   7.450   3.741  1.00 20.00     0.003 C 
HETATM    8  C5  UNL     1     -35.183   6.334   3.974  1.00 20.00     0.005 C 
ENDBRANCH   2   7
TORSDOF 2
ENDMDL
MODEL 9
REMARK VINA RESULT:      -0.9      1.406      3.326
REMARK  2 active torsions:
REMARK  status: ('A' for Active; 'I' for Inactive)
REMARK    1  A    between atoms: C2_2  and  C6_6 
REMARK    2  A    between atoms: C3_3  and  O7_7 
ROOT
HETATM    1  C1  UNL     1     -35.597   6.140   3.563  1.00 20.00     0.045 A 
HETATM    2  C2  UNL     1     -34.475   6.700   4.398  1.00 20.00     0.022 A 
HETATM    3  C3  UNL     1     -34.233   5.499   3.516  1.00 20.00     0.058 A 
HETATM    4  C4  UNL     1     -34.021   4.156   4.130  1.00 20.00     0.046 C 
ENDROOT
BRANCH   3   5
HETATM    5  O7  UNL     1     -33.484   5.707   2.307  1.00 20.00    -0.390 OA
HETATM    6  H19 UNL     1     -33.259   4.826   1.980  1.00 20.00     0.210 HD
ENDBRANCH   3   5
BRANCH   2   7
HETATM    7  C6  UNL     1     -33.897   8.035   4.072  1.00 20.00     0.003 C 
HETATM    8  C5  UNL     1     -32.781   8.436   5.004  1.00 20.00     0.005 C 
ENDBRANCH   2   7
TORSDOF 2
ENDMDL
