MODEL 1
REMARK VINA RESULT:      -3.1      0.000      0.000
REMARK  3 active torsions:
REMARK  status: ('A' for Active; 'I' for Inactive)
REMARK    1  A    between atoms: C1_1  and  C6_6 
REMARK    2  A    between atoms: C2_2  and  C7_7 
REMARK    3  A    between atoms: C3_3  and  C7_7 
ROOT
HETATM    1  C1  UNL     1     -33.013   7.093   2.133  1.00 20.00    -0.026 C 
HETATM    2  C2  UNL     1     -32.188   8.133   1.934  1.00 20.00    -0.020 C 
ENDROOT
BRANCH   2   3
HETATM    3  C7  UNL     1     -31.708   8.573   0.586  1.00 20.00     0.140 C 
BRANCH   3   4
HETATM    4  C3  UNL     1     -32.514   9.803   0.181  1.00 20.00     0.176 C 
HETATM    5  O8  UNL     1     -32.971   9.780  -0.997  1.00 20.00    -0.648 OA
HETATM    6  O9  UNL     1     -32.613  10.697   1.069  1.00 20.00    -0.648 OA
ENDBRANCH   3   4
ENDBRANCH   2   3
BRANCH   1   7
HETATM    7  C6  UNL     1     -33.501   6.620   3.440  1.00 20.00     0.008 A 
HETATM    8  C4  UNL     1     -34.199   7.595   4.334  1.00 20.00     0.009 A 
HETATM    9  C5  UNL     1     -34.977   6.511   3.650  1.00 20.00     0.009 A 
ENDBRANCH   1   7
TORSDOF 3
ENDMDL
MODEL 2
REMARK VINA RESULT:      -3.1      0.017      1.079
REMARK  3 active torsions:
REMARK  status: ('A' for Active; 'I' for Inactive)
REMARK    1  A    between atoms: C1_1  and  C6_6 
REMARK    2  A    between atoms: C2_2  and  C7_7 
REMARK    3  A    between atoms: C3_3  and  C7_7 
ROOT
HETATM    1  C1  UNL     1     -33.022   7.082   2.136  1.00 20.00    -0.026 C 
HETATM    2  C2  UNL     1     -32.211   8.132   1.931  1.00 20.00    -0.020 C 
ENDROOT
BRANCH   2   3
HETATM    3  C7  UNL     1     -31.731   8.565   0.582  1.00 20.00     0.140 C 
BRANCH   3   4
HETATM    4  C3  UNL     1     -32.517   9.809   0.182  1.00 20.00     0.176 C 
HETATM    5  O8  UNL     1     -32.626  10.688   1.083  1.00 20.00    -0.648 OA
HETATM    6  O9  UNL     1     -32.974   9.800  -0.997  1.00 20.00    -0.648 OA
ENDBRANCH   3   4
ENDBRANCH   2   3
BRANCH   1   7
HETATM    7  C6  UNL     1     -33.511   6.614   3.445  1.00 20.00     0.008 A 
HETATM    8  C4  UNL     1     -34.202   7.595   4.337  1.00 20.00     0.009 A 
HETATM    9  C5  UNL     1     -34.987   6.512   3.657  1.00 20.00     0.009 A 
ENDBRANCH   1   7
TORSDOF 3
ENDMDL
MODEL 3
REMARK VINA RESULT:      -2.7      2.699      4.656
REMARK  3 active torsions:
REMARK  status: ('A' for Active; 'I' for Inactive)
REMARK    1  A    between atoms: C1_1  and  C6_6 
REMARK    2  A    between atoms: C2_2  and  C7_7 
REMARK    3  A    between atoms: C3_3  and  C7_7 
ROOT
HETATM    1  C1  UNL     1     -32.032   7.957   1.391  1.00 20.00    -0.026 C 
HETATM    2  C2  UNL     1     -33.140   7.756   2.121  1.00 20.00    -0.020 C 
ENDROOT
BRANCH   2   3
HETATM    3  C7  UNL     1     -33.443   6.482   2.845  1.00 20.00     0.140 C 
BRANCH   3   4
HETATM    4  C3  UNL     1     -34.442   6.798   3.952  1.00 20.00     0.176 C 
HETATM    5  O8  UNL     1     -34.186   7.835   4.626  1.00 20.00    -0.648 OA
HETATM    6  O9  UNL     1     -35.395   5.975   4.067  1.00 20.00    -0.648 OA
ENDBRANCH   3   4
ENDBRANCH   2   3
BRANCH   1   7
HETATM    7  C6  UNL     1     -31.698   9.189   0.655  1.00 20.00     0.008 A 
HETATM    8  C4  UNL     1     -32.549   9.572  -0.513  1.00 20.00     0.009 A 
HETATM    9  C5  UNL     1     -32.626  10.355   0.764  1.00 20.00     0.009 A 
ENDBRANCH   1   7
TORSDOF 3
ENDMDL
MODEL 4
REMARK VINA RESULT:      -2.7      2.709      4.580
REMARK  3 active torsions:
REMARK  status: ('A' for Active; 'I' for Inactive)
REMARK    1  A    between atoms: C1_1  and  C6_6 
REMARK    2  A    between atoms: C2_2  and  C7_7 
REMARK    3  A    between atoms: C3_3  and  C7_7 
ROOT
HETATM    1  C1  UNL     1     -32.056   7.946   1.393  1.00 20.00    -0.026 C 
HETATM    2  C2  UNL     1     -33.147   7.752   2.149  1.00 20.00    -0.020 C 
ENDROOT
BRANCH   2   3
HETATM    3  C7  UNL     1     -33.453   6.472   2.861  1.00 20.00     0.140 C 
BRANCH   3   4
HETATM    4  C3  UNL     1     -34.454   6.778   3.969  1.00 20.00     0.176 C 
HETATM    5  O8  UNL     1     -35.401   5.949   4.081  1.00 20.00    -0.648 OA
HETATM    6  O9  UNL     1     -34.220   7.830   4.629  1.00 20.00    -0.648 OA
ENDBRANCH   3   4
ENDBRANCH   2   3
BRANCH   1   7
HETATM    7  C6  UNL     1     -31.720   9.185   0.668  1.00 20.00     0.008 A 
HETATM    8  C4  UNL     1     -32.566   9.576  -0.501  1.00 20.00     0.009 A 
HETATM    9  C5  UNL     1     -32.651  10.348   0.781  1.00 20.00     0.009 A 
ENDBRANCH   1   7
TORSDOF 3
ENDMDL
MODEL 5
REMARK VINA RESULT:      -1.8      3.616      5.127
REMARK  3 active torsions:
REMARK  status: ('A' for Active; 'I' for Inactive)
REMARK    1  A    between atoms: C1_1  and  C6_6 
REMARK    2  A    between atoms: C2_2  and  C7_7 
REMARK    3  A    between atoms: C3_3  and  C7_7 
ROOT
HETATM    1  C1  UNL     1     -32.993   7.884   3.227  1.00 20.00    -0.026 C 
HETATM    2  C2  UNL     1     -33.848   6.876   2.995  1.00 20.00    -0.020 C 
ENDROOT
BRANCH   2   3
HETATM    3  C7  UNL     1     -34.964   6.499   3.919  1.00 20.00     0.140 C 
BRANCH   3   4
HETATM    4  C3  UNL     1     -34.812   5.020   4.259  1.00 20.00     0.176 C 
HETATM    5  O8  UNL     1     -33.802   4.454   3.754  1.00 20.00    -0.648 OA
HETATM    6  O9  UNL     1     -35.723   4.542   4.994  1.00 20.00    -0.648 OA
ENDBRANCH   3   4
ENDBRANCH   2   3
BRANCH   1   7
HETATM    7  C6  UNL     1     -31.876   8.283   2.352  1.00 20.00     0.008 A 
HETATM    8  C4  UNL     1     -31.638   7.499   1.101  1.00 20.00     0.009 A 
HETATM    9  C5  UNL     1     -32.196   8.889   1.023  1.00 20.00     0.009 A 
ENDBRANCH   1   7
TORSDOF 3
ENDMDL
MODEL 6
REMARK VINA RESULT:      -1.8      3.592      5.139
REMARK  3 active torsions:
REMARK  status: ('A' for Active; 'I' for Inactive)
REMARK    1  A    between atoms: C1_1  and  C6_6 
REMARK    2  A    between atoms: C2_2  and  C7_7 
REMARK    3  A    between atoms: C3_3  and  C7_7 
ROOT
HETATM    1  C1  UNL     1     -32.906   7.873   3.268  1.00 20.00    -0.026 C 
HETATM    2  C2  UNL     1     -33.842   6.947   3.005  1.00 20.00    -0.020 C 
ENDROOT
BRANCH   2   3
HETATM    3  C7  UNL     1     -34.918   6.552   3.966  1.00 20.00     0.140 C 
BRANCH   3   4
HETATM    4  C3  UNL     1     -34.788   5.055   4.227  1.00 20.00     0.176 C 
HETATM    5  O8  UNL     1     -35.711   4.550   4.926  1.00 20.00    -0.648 OA
HETATM    6  O9  UNL     1     -33.766   4.509   3.722  1.00 20.00    -0.648 OA
ENDBRANCH   3   4
ENDBRANCH   2   3
BRANCH   1   7
HETATM    7  C6  UNL     1     -31.824   8.286   2.356  1.00 20.00     0.008 A 
HETATM    8  C4  UNL     1     -31.591   7.480   1.119  1.00 20.00     0.009 A 
HETATM    9  C5  UNL     1     -32.195   8.849   1.023  1.00 20.00     0.009 A 
ENDBRANCH   1   7
TORSDOF 3
ENDMDL
MODEL 7
REMARK VINA RESULT:      -1.8      2.848      4.597
REMARK  3 active torsions:
REMARK  status: ('A' for Active; 'I' for Inactive)
REMARK    1  A    between atoms: C1_1  and  C6_6 
REMARK    2  A    between atoms: C2_2  and  C7_7 
REMARK    3  A    between atoms: C3_3  and  C7_7 
ROOT
HETATM    1  C1  UNL     1     -32.001   8.315   1.967  1.00 20.00    -0.026 C 
HETATM    2  C2  UNL     1     -33.209   8.223   2.545  1.00 20.00    -0.020 C 
ENDROOT
BRANCH   2   3
HETATM    3  C7  UNL     1     -33.466   7.503   3.831  1.00 20.00     0.140 C 
BRANCH   3   4
HETATM    4  C3  UNL     1     -34.288   6.258   3.515  1.00 20.00     0.176 C 
HETATM    5  O8  UNL     1     -33.698   5.388   2.815  1.00 20.00    -0.648 OA
HETATM    6  O9  UNL     1     -35.463   6.257   3.983  1.00 20.00    -0.648 OA
ENDBRANCH   3   4
ENDBRANCH   2   3
BRANCH   1   7
HETATM    7  C6  UNL     1     -31.704   9.004   0.699  1.00 20.00     0.008 A 
HETATM    8  C4  UNL     1     -32.767   9.050  -0.351  1.00 20.00     0.009 A 
HETATM    9  C5  UNL     1     -32.406  10.292   0.409  1.00 20.00     0.009 A 
ENDBRANCH   1   7
TORSDOF 3
ENDMDL
MODEL 8
REMARK VINA RESULT:      -1.8      2.878      4.683
REMARK  3 active torsions:
REMARK  status: ('A' for Active; 'I' for Inactive)
REMARK    1  A    between atoms: C1_1  and  C6_6 
REMARK    2  A    between atoms: C2_2  and  C7_7 
REMARK    3  A    between atoms: C3_3  and  C7_7 
ROOT
HETATM    1  C1  UNL     1     -32.014   8.325   2.005  1.00 20.00    -0.026 C 
HETATM    2  C2  UNL     1     -33.240   8.155   2.523  1.00 20.00    -0.020 C 
ENDROOT
BRANCH   2   3
HETATM    3  C7  UNL     1     -33.507   7.481   3.832  1.00 20.00     0.140 C 
BRANCH   3   4
HETATM    4  C3  UNL     1     -34.319   6.221   3.553  1.00 20.00     0.176 C 
HETATM    5  O8  UNL     1     -35.501   6.234   4.000  1.00 20.00    -0.648 OA
HETATM    6  O9  UNL     1     -33.704   5.314   2.922  1.00 20.00    -0.648 OA
ENDBRANCH   3   4
ENDBRANCH   2   3
BRANCH   1   7
HETATM    7  C6  UNL     1     -31.705   8.973   0.718  1.00 20.00     0.008 A 
HETATM    8  C4  UNL     1     -32.769   9.008  -0.333  1.00 20.00     0.009 A 
HETATM    9  C5  UNL     1     -32.384  10.264   0.392  1.00 20.00     0.009 A 
ENDBRANCH   1   7
TORSDOF 3
ENDMDL
MODEL 9
REMARK VINA RESULT:      -1.6      3.161      4.544
REMARK  3 active torsions:
REMARK  status: ('A' for Active; 'I' for Inactive)
REMARK    1  A    between atoms: C1_1  and  C6_6 
REMARK    2  A    between atoms: C2_2  and  C7_7 
REMARK    3  A    between atoms: C3_3  and  C7_7 
ROOT
HETATM    1  C1  UNL     1     -34.061   4.659   4.015  1.00 20.00    -0.026 C 
HETATM    2  C2  UNL     1     -35.048   5.541   4.235  1.00 20.00    -0.020 C 
ENDROOT
BRANCH   2   3
HETATM    3  C7  UNL     1     -35.129   6.885   3.582  1.00 20.00     0.140 C 
BRANCH   3   4
HETATM    4  C3  UNL     1     -33.790   7.586   3.785  1.00 20.00     0.176 C 
HETATM    5  O8  UNL     1     -33.592   8.039   4.948  1.00 20.00    -0.648 OA
HETATM    6  O9  UNL     1     -33.051   7.638   2.761  1.00 20.00    -0.648 OA
ENDBRANCH   3   4
ENDBRANCH   2   3
BRANCH   1   7
HETATM    7  C6  UNL     1     -33.936   3.332   4.642  1.00 20.00     0.008 A 
HETATM    8  C4  UNL     1     -32.776   2.470   4.260  1.00 20.00     0.009 A 
HETATM    9  C5  UNL     1     -32.825   3.107   5.617  1.00 20.00     0.009 A 
ENDBRANCH   1   7
TORSDOF 3
ENDMDL
