MODEL 1
REMARK VINA RESULT:      -2.8      0.000      0.000
REMARK  3 active torsions:
REMARK  status: ('A' for Active; 'I' for Inactive)
REMARK    1  A    between atoms: C4_4  and  C5_5 
REMARK    2  A    between atoms: C5_5  and  C6_6 
REMARK    3  A    between atoms: C6_6  and  N8_8 
ROOT
HETATM    1  C1  UNL     1     -32.465   9.384   0.377  1.00 20.00     0.177 C 
HETATM    2  N7  UNL     1     -32.810   9.907  -0.598  1.00 20.00    -0.172 NA
HETATM    3  N8  UNL     1     -32.063   8.737   1.515  1.00 20.00    -0.329 N 
HETATM    4  H18 UNL     1     -32.185   9.253   2.417  1.00 20.00     0.171 HD
ENDROOT
BRANCH   3   5
HETATM    5  C6  UNL     1     -31.953   7.312   1.659  1.00 20.00     0.132 C 
BRANCH   5   6
HETATM    6  C5  UNL     1     -33.305   6.644   1.875  1.00 20.00     0.025 C 
BRANCH   6   7
HETATM    7  C4  UNL     1     -33.637   6.448   3.347  1.00 20.00    -0.013 A 
HETATM    8  C2  UNL     1     -34.271   7.560   4.136  1.00 20.00     0.005 A 
HETATM    9  C3  UNL     1     -35.069   6.334   3.791  1.00 20.00     0.005 A 
ENDBRANCH   6   7
ENDBRANCH   5   6
ENDBRANCH   3   5
TORSDOF 3
ENDMDL
MODEL 2
REMARK VINA RESULT:      -2.8      0.668      1.003
REMARK  3 active torsions:
REMARK  status: ('A' for Active; 'I' for Inactive)
REMARK    1  A    between atoms: C4_4  and  C5_5 
REMARK    2  A    between atoms: C5_5  and  C6_6 
REMARK    3  A    between atoms: C6_6  and  N8_8 
ROOT
HETATM    1  C1  UNL     1     -32.227   9.114   0.825  1.00 20.00     0.177 C 
HETATM    2  N7  UNL     1     -32.452   9.985   0.094  1.00 20.00    -0.172 NA
HETATM    3  N8  UNL     1     -31.972   8.064   1.667  1.00 20.00    -0.329 N 
HETATM    4  H18 UNL     1     -31.928   8.282   2.689  1.00 20.00     0.171 HD
ENDROOT
BRANCH   3   5
HETATM    5  C6  UNL     1     -32.232   6.684   1.366  1.00 20.00     0.132 C 
BRANCH   5   6
HETATM    6  C5  UNL     1     -33.055   5.998   2.449  1.00 20.00     0.025 C 
BRANCH   6   7
HETATM    7  C4  UNL     1     -34.208   6.858   2.946  1.00 20.00    -0.013 A 
HETATM    8  C2  UNL     1     -35.140   6.338   4.007  1.00 20.00     0.005 A 
HETATM    9  C3  UNL     1     -34.174   7.444   4.330  1.00 20.00     0.005 A 
ENDBRANCH   6   7
ENDBRANCH   5   6
ENDBRANCH   3   5
TORSDOF 3
ENDMDL
MODEL 3
REMARK VINA RESULT:      -2.7      3.393      4.835
REMARK  3 active torsions:
REMARK  status: ('A' for Active; 'I' for Inactive)
REMARK    1  A    between atoms: C4_4  and  C5_5 
REMARK    2  A    between atoms: C5_5  and  C6_6 
REMARK    3  A    between atoms: C6_6  and  N8_8 
ROOT
HETATM    1  C1  UNL     1     -34.475   4.307   4.374  1.00 20.00     0.177 C 
HETATM    2  N7  UNL     1     -33.693   3.458   4.272  1.00 20.00    -0.172 NA
HETATM    3  N8  UNL     1     -35.381   5.329   4.476  1.00 20.00    -0.329 N 
HETATM    4  H18 UNL     1     -35.980   5.341   5.333  1.00 20.00     0.171 HD
ENDROOT
BRANCH   3   5
HETATM    5  C6  UNL     1     -35.271   6.598   3.811  1.00 20.00     0.132 C 
BRANCH   5   6
HETATM    6  C5  UNL     1     -33.825   7.054   3.666  1.00 20.00     0.025 C 
BRANCH   6   7
HETATM    7  C4  UNL     1     -33.388   7.170   2.213  1.00 20.00    -0.013 A 
HETATM    8  C2  UNL     1     -31.993   7.620   1.875  1.00 20.00     0.005 A 
HETATM    9  C3  UNL     1     -32.399   6.192   1.640  1.00 20.00     0.005 A 
ENDBRANCH   6   7
ENDBRANCH   5   6
ENDBRANCH   3   5
TORSDOF 3
ENDMDL
MODEL 4
REMARK VINA RESULT:      -2.4      2.126      4.395
REMARK  3 active torsions:
REMARK  status: ('A' for Active; 'I' for Inactive)
REMARK    1  A    between atoms: C4_4  and  C5_5 
REMARK    2  A    between atoms: C5_5  and  C6_6 
REMARK    3  A    between atoms: C6_6  and  N8_8 
ROOT
HETATM    1  C1  UNL     1     -34.480   6.761   3.726  1.00 20.00     0.177 C 
HETATM    2  N7  UNL     1     -35.381   6.139   4.107  1.00 20.00    -0.172 NA
HETATM    3  N8  UNL     1     -33.410   7.473   3.255  1.00 20.00    -0.329 N 
HETATM    4  H18 UNL     1     -32.956   8.137   3.923  1.00 20.00     0.171 HD
ENDROOT
BRANCH   3   5
HETATM    5  C6  UNL     1     -32.573   7.075   2.157  1.00 20.00     0.132 C 
BRANCH   5   6
HETATM    6  C5  UNL     1     -31.839   8.253   1.529  1.00 20.00     0.025 C 
BRANCH   6   7
HETATM    7  C4  UNL     1     -32.750   9.133   0.687  1.00 20.00    -0.013 A 
HETATM    8  C2  UNL     1     -32.676  10.631   0.804  1.00 20.00     0.005 A 
HETATM    9  C3  UNL     1     -32.183   9.950  -0.441  1.00 20.00     0.005 A 
ENDBRANCH   6   7
ENDBRANCH   5   6
ENDBRANCH   3   5
TORSDOF 3
ENDMDL
MODEL 5
REMARK VINA RESULT:      -2.4      0.797      1.018
REMARK  3 active torsions:
REMARK  status: ('A' for Active; 'I' for Inactive)
REMARK    1  A    between atoms: C4_4  and  C5_5 
REMARK    2  A    between atoms: C5_5  and  C6_6 
REMARK    3  A    between atoms: C6_6  and  N8_8 
ROOT
HETATM    1  C1  UNL     1     -32.454   9.455   0.312  1.00 20.00     0.177 C 
HETATM    2  N7  UNL     1     -32.864   9.940  -0.658  1.00 20.00    -0.172 NA
HETATM    3  N8  UNL     1     -31.984   8.856   1.451  1.00 20.00    -0.329 N 
HETATM    4  H18 UNL     1     -31.725   9.489   2.242  1.00 20.00     0.171 HD
ENDROOT
BRANCH   3   5
HETATM    5  C6  UNL     1     -32.257   7.501   1.842  1.00 20.00     0.132 C 
BRANCH   5   6
HETATM    6  C5  UNL     1     -33.094   7.420   3.113  1.00 20.00     0.025 C 
BRANCH   6   7
HETATM    7  C4  UNL     1     -34.230   6.413   3.007  1.00 20.00    -0.013 A 
HETATM    8  C2  UNL     1     -34.316   5.264   3.973  1.00 20.00     0.005 A 
HETATM    9  C3  UNL     1     -35.315   6.385   4.047  1.00 20.00     0.005 A 
ENDBRANCH   6   7
ENDBRANCH   5   6
ENDBRANCH   3   5
TORSDOF 3
ENDMDL
MODEL 6
REMARK VINA RESULT:      -2.1      3.052      4.820
REMARK  3 active torsions:
REMARK  status: ('A' for Active; 'I' for Inactive)
REMARK    1  A    between atoms: C4_4  and  C5_5 
REMARK    2  A    between atoms: C5_5  and  C6_6 
REMARK    3  A    between atoms: C6_6  and  N8_8 
ROOT
HETATM    1  C1  UNL     1     -34.439   4.508   4.282  1.00 20.00     0.177 C 
HETATM    2  N7  UNL     1     -33.895   3.488   4.377  1.00 20.00    -0.172 NA
HETATM    3  N8  UNL     1     -35.054   5.726   4.161  1.00 20.00    -0.329 N 
HETATM    4  H18 UNL     1     -35.934   5.864   4.709  1.00 20.00     0.171 HD
ENDROOT
BRANCH   3   5
HETATM    5  C6  UNL     1     -34.400   6.945   3.773  1.00 20.00     0.132 C 
BRANCH   5   6
HETATM    6  C5  UNL     1     -33.513   6.763   2.547  1.00 20.00     0.025 C 
BRANCH   6   7
HETATM    7  C4  UNL     1     -32.453   7.848   2.422  1.00 20.00    -0.013 A 
HETATM    8  C2  UNL     1     -31.329   7.698   1.434  1.00 20.00     0.005 A 
HETATM    9  C3  UNL     1     -32.404   8.721   1.199  1.00 20.00     0.005 A 
ENDBRANCH   6   7
ENDBRANCH   5   6
ENDBRANCH   3   5
TORSDOF 3
ENDMDL
MODEL 7
REMARK VINA RESULT:      -2.0      3.200      4.958
REMARK  3 active torsions:
REMARK  status: ('A' for Active; 'I' for Inactive)
REMARK    1  A    between atoms: C4_4  and  C5_5 
REMARK    2  A    between atoms: C5_5  and  C6_6 
REMARK    3  A    between atoms: C6_6  and  N8_8 
ROOT
HETATM    1  C1  UNL     1     -33.848   3.883   4.312  1.00 20.00     0.177 C 
HETATM    2  N7  UNL     1     -33.237   3.048   4.836  1.00 20.00    -0.172 NA
HETATM    3  N8  UNL     1     -34.564   4.889   3.720  1.00 20.00    -0.329 N 
HETATM    4  H18 UNL     1     -35.291   4.601   3.025  1.00 20.00     0.171 HD
ENDROOT
BRANCH   3   5
HETATM    5  C6  UNL     1     -34.761   6.199   4.275  1.00 20.00     0.132 C 
BRANCH   5   6
HETATM    6  C5  UNL     1     -34.256   7.302   3.353  1.00 20.00     0.025 C 
BRANCH   6   7
HETATM    7  C4  UNL     1     -32.815   7.088   2.913  1.00 20.00    -0.013 A 
HETATM    8  C2  UNL     1     -32.512   6.605   1.521  1.00 20.00     0.005 A 
HETATM    9  C3  UNL     1     -32.183   8.018   1.915  1.00 20.00     0.005 A 
ENDBRANCH   6   7
ENDBRANCH   5   6
ENDBRANCH   3   5
TORSDOF 3
ENDMDL
MODEL 8
REMARK VINA RESULT:      -1.8      2.623      3.542
REMARK  3 active torsions:
REMARK  status: ('A' for Active; 'I' for Inactive)
REMARK    1  A    between atoms: C4_4  and  C5_5 
REMARK    2  A    between atoms: C5_5  and  C6_6 
REMARK    3  A    between atoms: C6_6  and  N8_8 
ROOT
HETATM    1  C1  UNL     1     -32.844   7.531   2.607  1.00 20.00     0.177 C 
HETATM    2  N7  UNL     1     -32.022   7.632   1.795  1.00 20.00    -0.172 NA
HETATM    3  N8  UNL     1     -33.817   7.382   3.558  1.00 20.00    -0.329 N 
HETATM    4  H18 UNL     1     -34.338   8.245   3.837  1.00 20.00     0.171 HD
ENDROOT
BRANCH   3   5
HETATM    5  C6  UNL     1     -34.507   6.156   3.847  1.00 20.00     0.132 C 
BRANCH   5   6
HETATM    6  C5  UNL     1     -33.653   4.927   3.559  1.00 20.00     0.025 C 
BRANCH   6   7
HETATM    7  C4  UNL     1     -33.939   3.775   4.511  1.00 20.00    -0.013 A 
HETATM    8  C2  UNL     1     -33.282   2.438   4.302  1.00 20.00     0.005 A 
HETATM    9  C3  UNL     1     -32.877   3.300   5.464  1.00 20.00     0.005 A 
ENDBRANCH   6   7
ENDBRANCH   5   6
ENDBRANCH   3   5
TORSDOF 3
ENDMDL
MODEL 9
REMARK VINA RESULT:      -1.5      3.361      5.000
REMARK  3 active torsions:
REMARK  status: ('A' for Active; 'I' for Inactive)
REMARK    1  A    between atoms: C4_4  and  C5_5 
REMARK    2  A    between atoms: C5_5  and  C6_6 
REMARK    3  A    between atoms: C6_6  and  N8_8 
ROOT
HETATM    1  C1  UNL     1     -33.734   3.715   4.527  1.00 20.00     0.177 C 
HETATM    2  N7  UNL     1     -33.093   2.794   4.819  1.00 20.00    -0.172 NA
HETATM    3  N8  UNL     1     -34.470   4.810   4.160  1.00 20.00    -0.329 N 
HETATM    4  H18 UNL     1     -35.089   5.227   4.893  1.00 20.00     0.171 HD
ENDROOT
BRANCH   3   5
HETATM    5  C6  UNL     1     -34.138   5.705   3.087  1.00 20.00     0.132 C 
BRANCH   5   6
HETATM    6  C5  UNL     1     -33.711   7.079   3.587  1.00 20.00     0.025 C 
BRANCH   6   7
HETATM    7  C4  UNL     1     -33.075   7.931   2.497  1.00 20.00    -0.013 A 
HETATM    8  C2  UNL     1     -31.608   8.260   2.551  1.00 20.00     0.005 A 
HETATM    9  C3  UNL     1     -32.128   7.310   1.508  1.00 20.00     0.005 A 
ENDBRANCH   6   7
ENDBRANCH   5   6
ENDBRANCH   3   5
TORSDOF 3
ENDMDL
