MODEL 1
REMARK VINA RESULT:       3.1      0.000      0.000
REMARK  1 active torsions:
REMARK  status: ('A' for Active; 'I' for Inactive)
REMARK    1  A    between atoms: C1_1  and  C7_7 
ROOT
HETATM    1  C2  UNL     1     -32.700   5.275   1.118  1.00 20.00     0.002 C 
HETATM    2  C3  UNL     1     -31.493   6.054   1.638  1.00 20.00     0.010 C 
HETATM    3  C4  UNL     1     -34.046   5.929   1.452  1.00 20.00     0.009 C 
HETATM    4  C5  UNL     1     -30.737   8.522   1.828  1.00 20.00     0.026 A 
HETATM    5  C6  UNL     1     -32.925   7.695   2.925  1.00 20.00     0.019 C 
HETATM    6  C7  UNL     1     -31.715   8.453   0.685  1.00 20.00     0.096 A 
HETATM    7  C8  UNL     1     -31.848   7.501   1.870  1.00 20.00    -0.025 A 
HETATM    8  C9  UNL     1     -34.072   6.648   2.820  1.00 20.00    -0.047 C 
HETATM    9  C10 UNL     1     -35.428   7.363   2.972  1.00 20.00     0.015 C 
HETATM   10  C11 UNL     1     -33.955   5.616   3.959  1.00 20.00     0.015 C 
ENDROOT
BRANCH   6  11
HETATM   11  C1  UNL     1     -32.656   9.545   0.532  1.00 20.00     0.177 C 
HETATM   12  O12 UNL     1     -32.769  10.303   1.534  1.00 20.00    -0.648 OA
HETATM   13  O13 UNL     1     -33.236   9.591  -0.589  1.00 20.00    -0.648 OA
ENDBRANCH   6  11
TORSDOF 1
ENDMDL
MODEL 2
REMARK VINA RESULT:       3.5      2.498      3.949
REMARK  1 active torsions:
REMARK  status: ('A' for Active; 'I' for Inactive)
REMARK    1  A    between atoms: C1_1  and  C7_7 
ROOT
HETATM    1  C2  UNL     1     -32.560   8.334   1.189  1.00 20.00     0.002 C 
HETATM    2  C3  UNL     1     -32.284   8.232   2.688  1.00 20.00     0.010 C 
HETATM    3  C4  UNL     1     -33.177   7.066   0.589  1.00 20.00     0.009 C 
HETATM    4  C5  UNL     1     -33.446   7.278   4.795  1.00 20.00     0.026 A 
HETATM    5  C6  UNL     1     -32.873   5.773   2.775  1.00 20.00     0.019 C 
HETATM    6  C7  UNL     1     -34.533   7.577   3.796  1.00 20.00     0.096 A 
HETATM    7  C8  UNL     1     -33.143   7.166   3.321  1.00 20.00    -0.025 A 
HETATM    8  C9  UNL     1     -32.669   5.756   1.233  1.00 20.00    -0.047 C 
HETATM    9  C10 UNL     1     -33.454   4.576   0.629  1.00 20.00     0.015 C 
HETATM   10  C11 UNL     1     -31.178   5.547   0.896  1.00 20.00     0.015 C 
ENDROOT
BRANCH   6  11
HETATM   11  C1  UNL     1     -35.634   6.640   3.693  1.00 20.00     0.177 C 
HETATM   12  O12 UNL     1     -36.516   6.938   2.841  1.00 20.00    -0.648 OA
HETATM   13  O13 UNL     1     -35.561   5.649   4.472  1.00 20.00    -0.648 OA
ENDBRANCH   6  11
TORSDOF 1
ENDMDL
MODEL 3
REMARK VINA RESULT:       4.0      2.084      3.897
REMARK  1 active torsions:
REMARK  status: ('A' for Active; 'I' for Inactive)
REMARK    1  A    between atoms: C1_1  and  C7_7 
ROOT
HETATM    1  C2  UNL     1     -30.607   7.401   1.948  1.00 20.00     0.002 C 
HETATM    2  C3  UNL     1     -31.484   6.235   1.493  1.00 20.00     0.010 C 
HETATM    3  C4  UNL     1     -31.366   8.725   2.084  1.00 20.00     0.009 C 
HETATM    4  C5  UNL     1     -33.861   5.324   1.960  1.00 20.00     0.026 A 
HETATM    5  C6  UNL     1     -33.487   7.720   1.069  1.00 20.00     0.019 C 
HETATM    6  C7  UNL     1     -33.448   6.108   3.178  1.00 20.00     0.096 A 
HETATM    7  C8  UNL     1     -32.936   6.505   1.797  1.00 20.00    -0.025 A 
HETATM    8  C9  UNL     1     -32.491   8.914   1.041  1.00 20.00    -0.047 C 
HETATM    9  C10 UNL     1     -33.248  10.216   1.367  1.00 20.00     0.015 C 
HETATM   10  C11 UNL     1     -31.883   9.066  -0.368  1.00 20.00     0.015 C 
ENDROOT
BRANCH   6  11
HETATM   11  C1  UNL     1     -34.453   6.920   3.834  1.00 20.00     0.177 C 
HETATM   12  O12 UNL     1     -34.018   7.957   4.407  1.00 20.00    -0.648 OA
HETATM   13  O13 UNL     1     -35.633   6.479   3.742  1.00 20.00    -0.648 OA
ENDBRANCH   6  11
TORSDOF 1
ENDMDL
MODEL 4
REMARK VINA RESULT:       4.8      0.852      1.226
REMARK  1 active torsions:
REMARK  status: ('A' for Active; 'I' for Inactive)
REMARK    1  A    between atoms: C1_1  and  C7_7 
ROOT
HETATM    1  C2  UNL     1     -33.264   5.780   1.087  1.00 20.00     0.002 C 
HETATM    2  C3  UNL     1     -31.834   6.319   1.044  1.00 20.00     0.010 C 
HETATM    3  C4  UNL     1     -34.230   6.662   1.885  1.00 20.00     0.009 C 
HETATM    4  C5  UNL     1     -30.651   8.606   0.777  1.00 20.00     0.026 A 
HETATM    5  C6  UNL     1     -32.331   8.172   2.693  1.00 20.00     0.019 C 
HETATM    6  C7  UNL     1     -32.000   8.733   0.119  1.00 20.00     0.096 A 
HETATM    7  C8  UNL     1     -31.812   7.803   1.312  1.00 20.00    -0.025 A 
HETATM    8  C9  UNL     1     -33.586   7.352   3.108  1.00 20.00    -0.047 C 
HETATM    9  C10 UNL     1     -34.624   8.299   3.741  1.00 20.00     0.015 C 
HETATM   10  C11 UNL     1     -33.205   6.298   4.168  1.00 20.00     0.015 C 
ENDROOT
BRANCH   6  11
HETATM   11  C1  UNL     1     -32.720   9.980   0.285  1.00 20.00     0.177 C 
HETATM   12  O12 UNL     1     -33.360  10.372  -0.729  1.00 20.00    -0.648 OA
HETATM   13  O13 UNL     1     -32.608  10.507   1.427  1.00 20.00    -0.648 OA
ENDBRANCH   6  11
TORSDOF 1
ENDMDL
MODEL 5
REMARK VINA RESULT:       5.0      2.121      3.903
REMARK  1 active torsions:
REMARK  status: ('A' for Active; 'I' for Inactive)
REMARK    1  A    between atoms: C1_1  and  C7_7 
ROOT
HETATM    1  C2  UNL     1     -32.693   3.988   3.529  1.00 20.00     0.002 C 
HETATM    2  C3  UNL     1     -34.183   4.324   3.591  1.00 20.00     0.010 C 
HETATM    3  C4  UNL     1     -31.861   5.023   2.764  1.00 20.00     0.009 C 
HETATM    4  C5  UNL     1     -35.667   6.415   3.942  1.00 20.00     0.026 A 
HETATM    5  C6  UNL     1     -33.954   6.286   2.012  1.00 20.00     0.019 C 
HETATM    6  C7  UNL     1     -34.346   6.702   4.605  1.00 20.00     0.096 A 
HETATM    7  C8  UNL     1     -34.410   5.799   3.378  1.00 20.00    -0.025 A 
HETATM    8  C9  UNL     1     -32.600   5.662   1.567  1.00 20.00    -0.047 C 
HETATM    9  C10 UNL     1     -31.704   6.765   0.970  1.00 20.00     0.015 C 
HETATM   10  C11 UNL     1     -32.837   4.606   0.469  1.00 20.00     0.015 C 
ENDROOT
BRANCH   6  11
HETATM   11  C1  UNL     1     -33.805   8.042   4.485  1.00 20.00     0.177 C 
HETATM   12  O12 UNL     1     -32.692   8.226   5.050  1.00 20.00    -0.648 OA
HETATM   13  O13 UNL     1     -34.524   8.846   3.828  1.00 20.00    -0.648 OA
ENDBRANCH   6  11
TORSDOF 1
ENDMDL
MODEL 6
REMARK VINA RESULT:       5.8      2.071      2.999
REMARK  1 active torsions:
REMARK  status: ('A' for Active; 'I' for Inactive)
REMARK    1  A    between atoms: C1_1  and  C7_7 
ROOT
HETATM    1  C2  UNL     1     -34.600   4.964   4.220  1.00 20.00     0.002 C 
HETATM    2  C3  UNL     1     -33.196   4.719   3.669  1.00 20.00     0.010 C 
HETATM    3  C4  UNL     1     -35.178   6.333   3.845  1.00 20.00     0.009 C 
HETATM    4  C5  UNL     1     -31.890   5.153   1.477  1.00 20.00     0.026 A 
HETATM    5  C6  UNL     1     -32.963   7.088   2.812  1.00 20.00     0.019 C 
HETATM    6  C7  UNL     1     -33.349   5.087   1.109  1.00 20.00     0.096 A 
HETATM    7  C8  UNL     1     -32.924   5.605   2.479  1.00 20.00    -0.025 A 
HETATM    8  C9  UNL     1     -34.125   7.462   3.777  1.00 20.00    -0.047 C 
HETATM    9  C10 UNL     1     -34.812   8.745   3.271  1.00 20.00     0.015 C 
HETATM   10  C11 UNL     1     -33.571   7.751   5.187  1.00 20.00     0.015 C 
ENDROOT
BRANCH   6  11
HETATM   11  C1  UNL     1     -33.838   6.015   0.109  1.00 20.00     0.177 C 
HETATM   12  O12 UNL     1     -33.262   7.137   0.088  1.00 20.00    -0.648 OA
HETATM   13  O13 UNL     1     -34.778   5.572  -0.609  1.00 20.00    -0.648 OA
ENDBRANCH   6  11
TORSDOF 1
ENDMDL
MODEL 7
REMARK VINA RESULT:       6.1      2.427      3.860
REMARK  1 active torsions:
REMARK  status: ('A' for Active; 'I' for Inactive)
REMARK    1  A    between atoms: C1_1  and  C7_7 
ROOT
HETATM    1  C2  UNL     1     -32.238   8.670   1.393  1.00 20.00     0.002 C 
HETATM    2  C3  UNL     1     -31.952   8.605   2.892  1.00 20.00     0.010 C 
HETATM    3  C4  UNL     1     -32.796   7.365   0.815  1.00 20.00     0.009 C 
HETATM    4  C5  UNL     1     -33.062   7.633   5.019  1.00 20.00     0.026 A 
HETATM    5  C6  UNL     1     -32.425   6.123   3.021  1.00 20.00     0.019 C 
HETATM    6  C7  UNL     1     -34.164   7.864   4.019  1.00 20.00     0.096 A 
HETATM    7  C8  UNL     1     -32.758   7.511   3.545  1.00 20.00    -0.025 A 
HETATM    8  C9  UNL     1     -32.225   6.090   1.478  1.00 20.00    -0.047 C 
HETATM    9  C10 UNL     1     -32.957   4.865   0.897  1.00 20.00     0.015 C 
HETATM   10  C11 UNL     1     -30.728   5.947   1.139  1.00 20.00     0.015 C 
ENDROOT
BRANCH   6  11
HETATM   11  C1  UNL     1     -35.221   6.875   3.935  1.00 20.00     0.177 C 
HETATM   12  O12 UNL     1     -35.035   5.829   4.615  1.00 20.00    -0.648 OA
HETATM   13  O13 UNL     1     -36.190   7.198   3.192  1.00 20.00    -0.648 OA
ENDBRANCH   6  11
TORSDOF 1
ENDMDL
