MODEL 1
REMARK VINA RESULT:       0.6      0.000      0.000
REMARK  0 active torsions:
REMARK  status: ('A' for Active; 'I' for Inactive)
ROOT
HETATM    1  C1  UNL     1     -33.508   5.397   2.988  1.00 20.00     0.290 C 
HETATM    2  C2  UNL     1     -33.535   7.671   3.573  1.00 20.00     0.344 C 
HETATM    3  C3  UNL     1     -32.855   5.926   1.700  1.00 20.00     0.029 C 
HETATM    4  C4  UNL     1     -33.841   5.975   0.529  1.00 20.00     0.028 C 
HETATM    5  C5  UNL     1     -31.614   5.118   1.327  1.00 20.00     0.028 C 
HETATM    6  N6  UNL     1     -34.355   6.463   3.528  1.00 20.00     0.093 N 
HETATM    7  S7  UNL     1     -32.395   7.632   2.163  1.00 20.00    -0.128 SA
HETATM    8  H18 UNL     1     -35.133   6.621   2.888  1.00 20.00     0.316 HD
ENDROOT
TORSDOF 0
ENDMDL
MODEL 2
REMARK VINA RESULT:       0.8      1.952      2.627
REMARK  0 active torsions:
REMARK  status: ('A' for Active; 'I' for Inactive)
ROOT
HETATM    1  C1  UNL     1     -33.205   7.235   4.084  1.00 20.00     0.290 C 
HETATM    2  C2  UNL     1     -32.334   7.460   1.914  1.00 20.00     0.344 C 
HETATM    3  C3  UNL     1     -34.119   6.199   3.411  1.00 20.00     0.029 C 
HETATM    4  C4  UNL     1     -35.526   6.747   3.156  1.00 20.00     0.028 C 
HETATM    5  C5  UNL     1     -34.183   4.901   4.214  1.00 20.00     0.028 C 
HETATM    6  N6  UNL     1     -32.819   8.216   3.067  1.00 20.00     0.093 N 
HETATM    7  S7  UNL     1     -33.288   5.921   1.808  1.00 20.00    -0.128 SA
HETATM    8  H18 UNL     1     -33.646   8.741   2.786  1.00 20.00     0.316 HD
ENDROOT
TORSDOF 0
ENDMDL
MODEL 3
REMARK VINA RESULT:       0.9      1.838      2.833
REMARK  0 active torsions:
REMARK  status: ('A' for Active; 'I' for Inactive)
ROOT
HETATM    1  C1  UNL     1     -33.859   6.175   1.793  1.00 20.00     0.290 C 
HETATM    2  C2  UNL     1     -32.166   7.720   2.305  1.00 20.00     0.344 C 
HETATM    3  C3  UNL     1     -34.059   6.168   3.317  1.00 20.00     0.029 C 
HETATM    4  C4  UNL     1     -33.448   4.927   3.975  1.00 20.00     0.028 C 
HETATM    5  C5  UNL     1     -35.533   6.307   3.691  1.00 20.00     0.028 C 
HETATM    6  N6  UNL     1     -32.459   6.518   1.528  1.00 20.00     0.093 N 
HETATM    7  S7  UNL     1     -33.121   7.644   3.845  1.00 20.00    -0.128 SA
HETATM    8  H18 UNL     1     -31.866   5.760   1.865  1.00 20.00     0.316 HD
ENDROOT
TORSDOF 0
ENDMDL
MODEL 4
REMARK VINA RESULT:       1.0      2.100      2.588
REMARK  0 active torsions:
REMARK  status: ('A' for Active; 'I' for Inactive)
ROOT
HETATM    1  C1  UNL     1     -31.822   6.479   1.699  1.00 20.00     0.290 C 
HETATM    2  C2  UNL     1     -33.855   5.935   2.743  1.00 20.00     0.344 C 
HETATM    3  C3  UNL     1     -32.177   7.901   2.162  1.00 20.00     0.029 C 
HETATM    4  C4  UNL     1     -32.725   8.762   1.020  1.00 20.00     0.028 C 
HETATM    5  C5  UNL     1     -30.988   8.586   2.832  1.00 20.00     0.028 C 
HETATM    6  N6  UNL     1     -33.076   5.742   1.521  1.00 20.00     0.093 N 
HETATM    7  S7  UNL     1     -33.511   7.600   3.373  1.00 20.00    -0.128 SA
HETATM    8  H18 UNL     1     -33.589   6.150   0.741  1.00 20.00     0.316 HD
ENDROOT
TORSDOF 0
ENDMDL
MODEL 5
REMARK VINA RESULT:       1.0      1.867      2.741
REMARK  0 active torsions:
REMARK  status: ('A' for Active; 'I' for Inactive)
ROOT
HETATM    1  C1  UNL     1     -33.676   8.214   2.846  1.00 20.00     0.290 C 
HETATM    2  C2  UNL     1     -33.684   5.866   2.864  1.00 20.00     0.344 C 
HETATM    3  C3  UNL     1     -32.391   8.020   2.026  1.00 20.00     0.029 C 
HETATM    4  C4  UNL     1     -31.129   8.255   2.862  1.00 20.00     0.028 C 
HETATM    5  C5  UNL     1     -32.383   8.900   0.778  1.00 20.00     0.028 C 
HETATM    6  N6  UNL     1     -33.831   7.044   3.715  1.00 20.00     0.093 N 
HETATM    7  S7  UNL     1     -32.479   6.255   1.565  1.00 20.00    -0.128 SA
HETATM    8  H18 UNL     1     -33.080   7.044   4.404  1.00 20.00     0.316 HD
ENDROOT
TORSDOF 0
ENDMDL
MODEL 6
REMARK VINA RESULT:       1.2      1.548      2.199
REMARK  0 active torsions:
REMARK  status: ('A' for Active; 'I' for Inactive)
ROOT
HETATM    1  C1  UNL     1     -32.533   7.580   1.483  1.00 20.00     0.290 C 
HETATM    2  C2  UNL     1     -33.317   7.628   3.696  1.00 20.00     0.344 C 
HETATM    3  C3  UNL     1     -32.865   6.083   1.592  1.00 20.00     0.029 C 
HETATM    4  C4  UNL     1     -31.614   5.226   1.807  1.00 20.00     0.028 C 
HETATM    5  C5  UNL     1     -33.653   5.593   0.379  1.00 20.00     0.028 C 
HETATM    6  N6  UNL     1     -32.226   8.068   2.829  1.00 20.00     0.093 N 
HETATM    7  S7  UNL     1     -33.898   6.017   3.098  1.00 20.00    -0.128 SA
HETATM    8  H18 UNL     1     -31.361   7.631   3.148  1.00 20.00     0.316 HD
ENDROOT
TORSDOF 0
ENDMDL
MODEL 7
REMARK VINA RESULT:       1.4      1.979      2.873
REMARK  0 active torsions:
REMARK  status: ('A' for Active; 'I' for Inactive)
ROOT
HETATM    1  C1  UNL     1     -35.235   6.664   3.276  1.00 20.00     0.290 C 
HETATM    2  C2  UNL     1     -34.862   4.623   4.377  1.00 20.00     0.344 C 
HETATM    3  C3  UNL     1     -33.700   6.738   3.285  1.00 20.00     0.029 C 
HETATM    4  C4  UNL     1     -33.172   7.686   4.366  1.00 20.00     0.028 C 
HETATM    5  C5  UNL     1     -33.148   7.123   1.914  1.00 20.00     0.028 C 
HETATM    6  N6  UNL     1     -35.649   5.853   4.424  1.00 20.00     0.093 N 
HETATM    7  S7  UNL     1     -33.224   5.026   3.710  1.00 20.00    -0.128 SA
HETATM    8  H18 UNL     1     -35.417   6.355   5.281  1.00 20.00     0.316 HD
ENDROOT
TORSDOF 0
ENDMDL
MODEL 8
REMARK VINA RESULT:       1.5      1.835      3.152
REMARK  0 active torsions:
REMARK  status: ('A' for Active; 'I' for Inactive)
ROOT
HETATM    1  C1  UNL     1     -33.057   7.632   2.447  1.00 20.00     0.290 C 
HETATM    2  C2  UNL     1     -32.666   5.388   1.876  1.00 20.00     0.344 C 
HETATM    3  C3  UNL     1     -33.940   7.008   3.540  1.00 20.00     0.029 C 
HETATM    4  C4  UNL     1     -35.430   7.081   3.193  1.00 20.00     0.028 C 
HETATM    5  C5  UNL     1     -33.673   7.638   4.905  1.00 20.00     0.028 C 
HETATM    6  N6  UNL     1     -33.012   6.695   1.322  1.00 20.00     0.093 N 
HETATM    7  S7  UNL     1     -33.410   5.260   3.525  1.00 20.00    -0.128 SA
HETATM    8  H18 UNL     1     -33.940   6.637   0.905  1.00 20.00     0.316 HD
ENDROOT
TORSDOF 0
ENDMDL
MODEL 9
REMARK VINA RESULT:       1.9      1.621      1.713
REMARK  0 active torsions:
REMARK  status: ('A' for Active; 'I' for Inactive)
ROOT
HETATM    1  C1  UNL     1     -32.845   5.143   3.112  1.00 20.00     0.290 C 
HETATM    2  C2  UNL     1     -34.843   5.783   4.169  1.00 20.00     0.344 C 
HETATM    3  C3  UNL     1     -33.166   6.334   2.193  1.00 20.00     0.029 C 
HETATM    4  C4  UNL     1     -33.747   5.887   0.848  1.00 20.00     0.028 C 
HETATM    5  C5  UNL     1     -31.945   7.226   1.985  1.00 20.00     0.028 C 
HETATM    6  N6  UNL     1     -34.113   4.633   3.639  1.00 20.00     0.093 N 
HETATM    7  S7  UNL     1     -34.456   7.221   3.134  1.00 20.00    -0.128 SA
HETATM    8  H18 UNL     1     -34.651   4.232   2.871  1.00 20.00     0.316 HD
ENDROOT
TORSDOF 0
ENDMDL
