MODEL 1
REMARK VINA RESULT:      -0.8      0.000      0.000
REMARK  4 active torsions:
REMARK  status: ('A' for Active; 'I' for Inactive)
REMARK    1  A    between atoms: C2_2  and  C8_8 
REMARK    2  A    between atoms: C2_2  and  C9_9 
REMARK    3  A    between atoms: C3_3  and  C8_8 
REMARK    4  A    between atoms: C3_3  and  C10_10 
ROOT
HETATM    1  C3  UNL     1     -33.218   6.781   2.515  1.00 20.00     0.138 C 
HETATM    2  O11 UNL     1     -33.135   5.972   1.587  1.00 20.00    -0.297 OA
ENDROOT
BRANCH   1   3
HETATM    3  C8  UNL     1     -32.258   7.964   2.611  1.00 20.00     0.112 C 
BRANCH   3   4
HETATM    4  C2  UNL     1     -32.046   8.602   1.263  1.00 20.00    -0.083 C 
HETATM    5  C1  UNL     1     -31.220   8.052   0.357  1.00 20.00     0.014 C 
BRANCH   4   6
HETATM    6  C9  UNL     1     -32.788   9.886   0.965  1.00 20.00     0.029 C 
HETATM    7  C4  UNL     1     -32.780  10.242  -0.514  1.00 20.00     0.010 C 
ENDBRANCH   4   6
ENDBRANCH   3   4
ENDBRANCH   1   3
BRANCH   1   8
HETATM    8  C10 UNL     1     -34.305   6.643   3.601  1.00 20.00     0.010 C 
HETATM    9  C5  UNL     1     -33.985   7.599   4.757  1.00 20.00     0.022 C 
HETATM   10  C6  UNL     1     -35.689   6.951   3.015  1.00 20.00     0.022 C 
HETATM   11  C7  UNL     1     -34.314   5.201   4.140  1.00 20.00     0.022 C 
ENDBRANCH   1   8
TORSDOF 4
ENDMDL
MODEL 2
REMARK VINA RESULT:      -0.8      0.074      1.305
REMARK  4 active torsions:
REMARK  status: ('A' for Active; 'I' for Inactive)
REMARK    1  A    between atoms: C2_2  and  C8_8 
REMARK    2  A    between atoms: C2_2  and  C9_9 
REMARK    3  A    between atoms: C3_3  and  C8_8 
REMARK    4  A    between atoms: C3_3  and  C10_10 
ROOT
HETATM    1  C3  UNL     1     -33.176   6.737   2.468  1.00 20.00     0.138 C 
HETATM    2  O11 UNL     1     -33.124   5.938   1.528  1.00 20.00    -0.297 OA
ENDROOT
BRANCH   1   3
HETATM    3  C8  UNL     1     -32.185   7.895   2.566  1.00 20.00     0.112 C 
BRANCH   3   4
HETATM    4  C2  UNL     1     -32.023   8.585   1.237  1.00 20.00    -0.083 C 
HETATM    5  C1  UNL     1     -31.216   8.083   0.288  1.00 20.00     0.014 C 
BRANCH   4   6
HETATM    6  C9  UNL     1     -32.795   9.866   1.009  1.00 20.00     0.029 C 
HETATM    7  C4  UNL     1     -32.790  10.306  -0.448  1.00 20.00     0.010 C 
ENDBRANCH   4   6
ENDBRANCH   3   4
ENDBRANCH   1   3
BRANCH   1   8
HETATM    8  C10 UNL     1     -34.252   6.611   3.566  1.00 20.00     0.010 C 
HETATM    9  C5  UNL     1     -34.259   5.173   4.100  1.00 20.00     0.022 C 
HETATM   10  C6  UNL     1     -33.977   7.605   4.701  1.00 20.00     0.022 C 
HETATM   11  C7  UNL     1     -35.636   6.923   2.968  1.00 20.00     0.022 C 
ENDBRANCH   1   8
TORSDOF 4
ENDMDL
MODEL 3
REMARK VINA RESULT:      -0.8      0.039      1.306
REMARK  4 active torsions:
REMARK  status: ('A' for Active; 'I' for Inactive)
REMARK    1  A    between atoms: C2_2  and  C8_8 
REMARK    2  A    between atoms: C2_2  and  C9_9 
REMARK    3  A    between atoms: C3_3  and  C8_8 
REMARK    4  A    between atoms: C3_3  and  C10_10 
ROOT
HETATM    1  C3  UNL     1     -33.208   6.763   2.490  1.00 20.00     0.138 C 
HETATM    2  O11 UNL     1     -33.142   5.961   1.554  1.00 20.00    -0.297 OA
ENDROOT
BRANCH   1   3
HETATM    3  C8  UNL     1     -32.228   7.930   2.591  1.00 20.00     0.112 C 
BRANCH   3   4
HETATM    4  C2  UNL     1     -32.042   8.599   1.254  1.00 20.00    -0.083 C 
HETATM    5  C1  UNL     1     -31.214   8.085   0.330  1.00 20.00     0.014 C 
BRANCH   4   6
HETATM    6  C9  UNL     1     -32.812   9.873   0.990  1.00 20.00     0.029 C 
HETATM    7  C4  UNL     1     -32.791  10.283  -0.476  1.00 20.00     0.010 C 
ENDBRANCH   4   6
ENDBRANCH   3   4
ENDBRANCH   1   3
BRANCH   1   8
HETATM    8  C10 UNL     1     -34.291   6.632   3.580  1.00 20.00     0.010 C 
HETATM    9  C5  UNL     1     -35.655   6.997   2.980  1.00 20.00     0.022 C 
HETATM   10  C6  UNL     1     -34.316   5.204   4.142  1.00 20.00     0.022 C 
HETATM   11  C7  UNL     1     -33.982   7.605   4.733  1.00 20.00     0.022 C 
ENDBRANCH   1   8
TORSDOF 4
ENDMDL
MODEL 4
REMARK VINA RESULT:      -0.4      1.610      4.910
REMARK  4 active torsions:
REMARK  status: ('A' for Active; 'I' for Inactive)
REMARK    1  A    between atoms: C2_2  and  C8_8 
REMARK    2  A    between atoms: C2_2  and  C9_9 
REMARK    3  A    between atoms: C3_3  and  C8_8 
REMARK    4  A    between atoms: C3_3  and  C10_10 
ROOT
HETATM    1  C3  UNL     1     -33.325   7.503   3.210  1.00 20.00     0.138 C 
HETATM    2  O11 UNL     1     -33.289   8.031   4.325  1.00 20.00    -0.297 OA
ENDROOT
BRANCH   1   3
HETATM    3  C8  UNL     1     -34.450   6.541   2.836  1.00 20.00     0.112 C 
BRANCH   3   4
HETATM    4  C2  UNL     1     -34.487   5.359   3.770  1.00 20.00    -0.083 C 
HETATM    5  C1  UNL     1     -35.443   5.244   4.707  1.00 20.00     0.014 C 
BRANCH   4   6
HETATM    6  C9  UNL     1     -33.407   4.310   3.622  1.00 20.00     0.029 C 
HETATM    7  C4  UNL     1     -33.507   3.209   4.668  1.00 20.00     0.010 C 
ENDBRANCH   4   6
ENDBRANCH   3   4
ENDBRANCH   1   3
BRANCH   1   8
HETATM    8  C10 UNL     1     -32.253   7.811   2.145  1.00 20.00     0.010 C 
HETATM    9  C5  UNL     1     -30.997   8.353   2.838  1.00 20.00     0.022 C 
HETATM   10  C6  UNL     1     -31.920   6.547   1.341  1.00 20.00     0.022 C 
HETATM   11  C7  UNL     1     -32.783   8.881   1.174  1.00 20.00     0.022 C 
ENDBRANCH   1   8
TORSDOF 4
ENDMDL
MODEL 5
REMARK VINA RESULT:      -0.3      1.606      4.915
REMARK  4 active torsions:
REMARK  status: ('A' for Active; 'I' for Inactive)
REMARK    1  A    between atoms: C2_2  and  C8_8 
REMARK    2  A    between atoms: C2_2  and  C9_9 
REMARK    3  A    between atoms: C3_3  and  C8_8 
REMARK    4  A    between atoms: C3_3  and  C10_10 
ROOT
HETATM    1  C3  UNL     1     -33.321   7.489   3.191  1.00 20.00     0.138 C 
HETATM    2  O11 UNL     1     -33.290   8.007   4.310  1.00 20.00    -0.297 OA
ENDROOT
BRANCH   1   3
HETATM    3  C8  UNL     1     -34.434   6.515   2.809  1.00 20.00     0.112 C 
BRANCH   3   4
HETATM    4  C2  UNL     1     -34.480   5.345   3.757  1.00 20.00    -0.083 C 
HETATM    5  C1  UNL     1     -35.429   5.256   4.703  1.00 20.00     0.014 C 
BRANCH   4   6
HETATM    6  C9  UNL     1     -33.419   4.278   3.611  1.00 20.00     0.029 C 
HETATM    7  C4  UNL     1     -33.493   3.219   4.702  1.00 20.00     0.010 C 
ENDBRANCH   4   6
ENDBRANCH   3   4
ENDBRANCH   1   3
BRANCH   1   8
HETATM    8  C10 UNL     1     -32.252   7.818   2.128  1.00 20.00     0.010 C 
HETATM    9  C5  UNL     1     -31.906   6.541   1.352  1.00 20.00     0.022 C 
HETATM   10  C6  UNL     1     -32.764   8.905   1.173  1.00 20.00     0.022 C 
HETATM   11  C7  UNL     1     -30.979   8.337   2.820  1.00 20.00     0.022 C 
ENDBRANCH   1   8
TORSDOF 4
ENDMDL
MODEL 6
REMARK VINA RESULT:       0.1      1.087      4.766
REMARK  4 active torsions:
REMARK  status: ('A' for Active; 'I' for Inactive)
REMARK    1  A    between atoms: C2_2  and  C8_8 
REMARK    2  A    between atoms: C2_2  and  C9_9 
REMARK    3  A    between atoms: C3_3  and  C8_8 
REMARK    4  A    between atoms: C3_3  and  C10_10 
ROOT
HETATM    1  C3  UNL     1     -33.145   6.925   2.160  1.00 20.00     0.138 C 
HETATM    2  O11 UNL     1     -33.317   6.024   1.335  1.00 20.00    -0.297 OA
ENDROOT
BRANCH   1   3
HETATM    3  C8  UNL     1     -33.950   6.962   3.458  1.00 20.00     0.112 C 
BRANCH   3   4
HETATM    4  C2  UNL     1     -34.408   5.582   3.852  1.00 20.00    -0.083 C 
HETATM    5  C1  UNL     1     -35.601   5.388   4.438  1.00 20.00     0.014 C 
BRANCH   4   6
HETATM    6  C9  UNL     1     -33.477   4.424   3.572  1.00 20.00     0.029 C 
HETATM    7  C4  UNL     1     -33.512   3.363   4.663  1.00 20.00     0.010 C 
ENDBRANCH   4   6
ENDBRANCH   3   4
ENDBRANCH   1   3
BRANCH   1   8
HETATM    8  C10 UNL     1     -32.100   8.036   1.926  1.00 20.00     0.010 C 
HETATM    9  C5  UNL     1     -30.817   7.408   1.369  1.00 20.00     0.022 C 
HETATM   10  C6  UNL     1     -32.648   9.091   0.956  1.00 20.00     0.022 C 
HETATM   11  C7  UNL     1     -31.773   8.725   3.263  1.00 20.00     0.022 C 
ENDBRANCH   1   8
TORSDOF 4
ENDMDL
MODEL 7
REMARK VINA RESULT:       0.1      1.006      4.491
REMARK  4 active torsions:
REMARK  status: ('A' for Active; 'I' for Inactive)
REMARK    1  A    between atoms: C2_2  and  C8_8 
REMARK    2  A    between atoms: C2_2  and  C9_9 
REMARK    3  A    between atoms: C3_3  and  C8_8 
REMARK    4  A    between atoms: C3_3  and  C10_10 
ROOT
HETATM    1  C3  UNL     1     -32.767   6.887   1.823  1.00 20.00     0.138 C 
HETATM    2  O11 UNL     1     -32.230   5.784   1.691  1.00 20.00    -0.297 OA
ENDROOT
BRANCH   1   3
HETATM    3  C8  UNL     1     -34.227   7.000   2.256  1.00 20.00     0.112 C 
BRANCH   3   4
HETATM    4  C2  UNL     1     -34.374   6.772   3.738  1.00 20.00    -0.083 C 
HETATM    5  C1  UNL     1     -33.895   7.659   4.627  1.00 20.00     0.014 C 
BRANCH   4   6
HETATM    6  C9  UNL     1     -35.071   5.510   4.192  1.00 20.00     0.029 C 
HETATM    7  C4  UNL     1     -34.155   4.293   4.179  1.00 20.00     0.010 C 
ENDBRANCH   4   6
ENDBRANCH   3   4
ENDBRANCH   1   3
BRANCH   1   8
HETATM    8  C10 UNL     1     -31.983   8.193   1.578  1.00 20.00     0.010 C 
HETATM    9  C5  UNL     1     -31.076   8.468   2.784  1.00 20.00     0.022 C 
HETATM   10  C6  UNL     1     -31.151   8.085   0.293  1.00 20.00     0.022 C 
HETATM   11  C7  UNL     1     -32.969   9.365   1.424  1.00 20.00     0.022 C 
ENDBRANCH   1   8
TORSDOF 4
ENDMDL
MODEL 8
REMARK VINA RESULT:       0.1      1.449      1.947
REMARK  4 active torsions:
REMARK  status: ('A' for Active; 'I' for Inactive)
REMARK    1  A    between atoms: C2_2  and  C8_8 
REMARK    2  A    between atoms: C2_2  and  C9_9 
REMARK    3  A    between atoms: C3_3  and  C8_8 
REMARK    4  A    between atoms: C3_3  and  C10_10 
ROOT
HETATM    1  C3  UNL     1     -33.917   5.546   3.000  1.00 20.00     0.138 C 
HETATM    2  O11 UNL     1     -33.391   4.513   3.423  1.00 20.00    -0.297 OA
ENDROOT
BRANCH   1   3
HETATM    3  C8  UNL     1     -33.622   6.053   1.590  1.00 20.00     0.112 C 
BRANCH   3   4
HETATM    4  C2  UNL     1     -32.149   6.309   1.402  1.00 20.00    -0.083 C 
HETATM    5  C1  UNL     1     -31.336   5.358   0.913  1.00 20.00     0.014 C 
BRANCH   4   6
HETATM    6  C9  UNL     1     -31.615   7.670   1.790  1.00 20.00     0.029 C 
HETATM    7  C4  UNL     1     -32.230   8.799   0.975  1.00 20.00     0.010 C 
ENDBRANCH   4   6
ENDBRANCH   3   4
ENDBRANCH   1   3
BRANCH   1   8
HETATM    8  C10 UNL     1     -34.908   6.352   3.865  1.00 20.00     0.010 C 
HETATM    9  C5  UNL     1     -34.159   7.506   4.543  1.00 20.00     0.022 C 
HETATM   10  C6  UNL     1     -36.057   6.889   3.002  1.00 20.00     0.022 C 
HETATM   11  C7  UNL     1     -35.501   5.439   4.954  1.00 20.00     0.022 C 
ENDBRANCH   1   8
TORSDOF 4
ENDMDL
MODEL 9
REMARK VINA RESULT:       0.5      1.599      2.082
REMARK  4 active torsions:
REMARK  status: ('A' for Active; 'I' for Inactive)
REMARK    1  A    between atoms: C2_2  and  C8_8 
REMARK    2  A    between atoms: C2_2  and  C9_9 
REMARK    3  A    between atoms: C3_3  and  C8_8 
REMARK    4  A    between atoms: C3_3  and  C10_10 
ROOT
HETATM    1  C3  UNL     1     -32.877   7.297   2.533  1.00 20.00     0.138 C 
HETATM    2  O11 UNL     1     -33.732   7.755   3.296  1.00 20.00    -0.297 OA
ENDROOT
BRANCH   1   3
HETATM    3  C8  UNL     1     -31.630   8.107   2.180  1.00 20.00     0.112 C 
BRANCH   3   4
HETATM    4  C2  UNL     1     -31.823   8.869   0.895  1.00 20.00    -0.083 C 
HETATM    5  C1  UNL     1     -31.192   8.501  -0.231  1.00 20.00     0.014 C 
BRANCH   4   6
HETATM    6  C9  UNL     1     -32.746  10.067   0.918  1.00 20.00     0.029 C 
HETATM    7  C4  UNL     1     -33.044  10.608  -0.473  1.00 20.00     0.010 C 
ENDBRANCH   4   6
ENDBRANCH   3   4
ENDBRANCH   1   3
BRANCH   1   8
HETATM    8  C10 UNL     1     -33.019   5.887   1.924  1.00 20.00     0.010 C 
HETATM    9  C5  UNL     1     -33.698   4.966   2.945  1.00 20.00     0.022 C 
HETATM   10  C6  UNL     1     -33.835   5.945   0.626  1.00 20.00     0.022 C 
HETATM   11  C7  UNL     1     -31.624   5.323   1.599  1.00 20.00     0.022 C 
ENDBRANCH   1   8
TORSDOF 4
ENDMDL
