MODEL 1
REMARK VINA RESULT:      -2.3      0.000      0.000
REMARK  3 active torsions:
REMARK  status: ('A' for Active; 'I' for Inactive)
REMARK    1  A    between atoms: C1_1  and  C5_5 
REMARK    2  A    between atoms: C3_3  and  C5_5 
REMARK    3  A    between atoms: C4_4  and  C5_5 
ROOT
HETATM    1  C5  UNL     1     -33.416   7.127   2.268  1.00 20.00     0.085 C 
ENDROOT
BRANCH   1   2
HETATM    2  C1  UNL     1     -33.932   7.265   3.701  1.00 20.00     0.224 C 
HETATM    3  O6  UNL     1     -33.396   8.014   4.516  1.00 20.00    -0.279 OA
HETATM    4 CL7  UNL     1     -35.323   6.266   4.015  1.00 20.00    -0.043 Cl
ENDBRANCH   1   2
BRANCH   1   5
HETATM    5  C3  UNL     1     -32.082   7.880   2.122  1.00 20.00     0.010 C 
HETATM    6  C2  UNL     1     -32.115   8.928   1.018  1.00 20.00     0.006 C 
ENDBRANCH   1   5
BRANCH   1   7
HETATM    7  C4  UNL     1     -33.222   5.644   1.928  1.00 20.00     0.128 C 
HETATM    8 CL8  UNL     1     -31.668   5.362   1.099  1.00 20.00    -0.130 Cl
ENDBRANCH   1   7
TORSDOF 3
ENDMDL
MODEL 2
REMARK VINA RESULT:      -2.2      2.277      3.380
REMARK  3 active torsions:
REMARK  status: ('A' for Active; 'I' for Inactive)
REMARK    1  A    between atoms: C1_1  and  C5_5 
REMARK    2  A    between atoms: C3_3  and  C5_5 
REMARK    3  A    between atoms: C4_4  and  C5_5 
ROOT
HETATM    1  C5  UNL     1     -33.519   5.472   3.485  1.00 20.00     0.085 C 
ENDROOT
BRANCH   1   2
HETATM    2  C1  UNL     1     -34.545   6.535   3.881  1.00 20.00     0.224 C 
HETATM    3  O6  UNL     1     -35.752   6.364   3.724  1.00 20.00    -0.279 OA
HETATM    4 CL7  UNL     1     -33.811   7.960   4.560  1.00 20.00    -0.043 Cl
ENDBRANCH   1   2
BRANCH   1   5
HETATM    5  C3  UNL     1     -34.089   4.071   3.765  1.00 20.00     0.010 C 
HETATM    6  C2  UNL     1     -33.202   3.247   4.690  1.00 20.00     0.006 C 
ENDBRANCH   1   5
BRANCH   1   7
HETATM    7  C4  UNL     1     -33.176   5.612   1.997  1.00 20.00     0.128 C 
HETATM    8 CL8  UNL     1     -32.241   7.096   1.679  1.00 20.00    -0.130 Cl
ENDBRANCH   1   7
TORSDOF 3
ENDMDL
MODEL 3
REMARK VINA RESULT:      -2.0      1.343      1.343
REMARK  3 active torsions:
REMARK  status: ('A' for Active; 'I' for Inactive)
REMARK    1  A    between atoms: C1_1  and  C5_5 
REMARK    2  A    between atoms: C3_3  and  C5_5 
REMARK    3  A    between atoms: C4_4  and  C5_5 
ROOT
HETATM    1  C5  UNL     1     -33.505   6.946   2.357  1.00 20.00     0.085 C 
ENDROOT
BRANCH   1   2
HETATM    2  C1  UNL     1     -34.203   7.078   3.711  1.00 20.00     0.224 C 
HETATM    3  O6  UNL     1     -35.238   6.468   3.973  1.00 20.00    -0.279 OA
HETATM    4 CL7  UNL     1     -33.373   8.161   4.793  1.00 20.00    -0.043 Cl
ENDBRANCH   1   2
BRANCH   1   5
HETATM    5  C3  UNL     1     -32.224   7.797   2.349  1.00 20.00     0.010 C 
HETATM    6  C2  UNL     1     -32.171   8.772   1.180  1.00 20.00     0.006 C 
ENDBRANCH   1   5
BRANCH   1   7
HETATM    7  C4  UNL     1     -33.160   5.475   2.093  1.00 20.00     0.128 C 
HETATM    8 CL8  UNL     1     -31.749   5.319   1.014  1.00 20.00    -0.130 Cl
ENDBRANCH   1   7
TORSDOF 3
ENDMDL
MODEL 4
REMARK VINA RESULT:      -1.9      2.534      3.422
REMARK  3 active torsions:
REMARK  status: ('A' for Active; 'I' for Inactive)
REMARK    1  A    between atoms: C1_1  and  C5_5 
REMARK    2  A    between atoms: C3_3  and  C5_5 
REMARK    3  A    between atoms: C4_4  and  C5_5 
ROOT
HETATM    1  C5  UNL     1     -33.430   5.975   3.389  1.00 20.00     0.085 C 
ENDROOT
BRANCH   1   2
HETATM    2  C1  UNL     1     -32.864   6.167   1.981  1.00 20.00     0.224 C 
HETATM    3  O6  UNL     1     -32.958   5.298   1.118  1.00 20.00    -0.279 OA
HETATM    4 CL7  UNL     1     -32.102   7.718   1.768  1.00 20.00    -0.043 Cl
ENDBRANCH   1   2
BRANCH   1   5
HETATM    5  C3  UNL     1     -34.331   7.169   3.753  1.00 20.00     0.010 C 
HETATM    6  C2  UNL     1     -33.739   8.039   4.853  1.00 20.00     0.006 C 
ENDBRANCH   1   5
BRANCH   1   7
HETATM    7  C4  UNL     1     -34.236   4.672   3.450  1.00 20.00     0.128 C 
HETATM    8 CL8  UNL     1     -33.461   3.474   4.520  1.00 20.00    -0.130 Cl
ENDBRANCH   1   7
TORSDOF 3
ENDMDL
MODEL 5
REMARK VINA RESULT:      -1.9      2.703      3.315
REMARK  3 active torsions:
REMARK  status: ('A' for Active; 'I' for Inactive)
REMARK    1  A    between atoms: C1_1  and  C5_5 
REMARK    2  A    between atoms: C3_3  and  C5_5 
REMARK    3  A    between atoms: C4_4  and  C5_5 
ROOT
HETATM    1  C5  UNL     1     -33.621   5.831   3.511  1.00 20.00     0.085 C 
ENDROOT
BRANCH   1   2
HETATM    2  C1  UNL     1     -34.393   4.702   4.196  1.00 20.00     0.224 C 
HETATM    3  O6  UNL     1     -35.557   4.840   4.566  1.00 20.00    -0.279 OA
HETATM    4 CL7  UNL     1     -33.446   3.251   4.375  1.00 20.00    -0.043 Cl
ENDBRANCH   1   2
BRANCH   1   5
HETATM    5  C3  UNL     1     -33.533   5.556   2.000  1.00 20.00     0.010 C 
HETATM    6  C2  UNL     1     -32.143   5.819   1.434  1.00 20.00     0.006 C 
ENDBRANCH   1   5
BRANCH   1   7
HETATM    7  C4  UNL     1     -34.329   7.168   3.761  1.00 20.00     0.128 C 
HETATM    8 CL8  UNL     1     -33.453   8.158   4.957  1.00 20.00    -0.130 Cl
ENDBRANCH   1   7
TORSDOF 3
ENDMDL
MODEL 6
REMARK VINA RESULT:      -1.9      1.743      3.323
REMARK  3 active torsions:
REMARK  status: ('A' for Active; 'I' for Inactive)
REMARK    1  A    between atoms: C1_1  and  C5_5 
REMARK    2  A    between atoms: C3_3  and  C5_5 
REMARK    3  A    between atoms: C4_4  and  C5_5 
ROOT
HETATM    1  C5  UNL     1     -33.387   7.210   2.317  1.00 20.00     0.085 C 
ENDROOT
BRANCH   1   2
HETATM    2  C1  UNL     1     -32.213   8.165   2.098  1.00 20.00     0.224 C 
HETATM    3  O6  UNL     1     -31.284   8.249   2.898  1.00 20.00    -0.279 OA
HETATM    4 CL7  UNL     1     -32.357   9.082   0.624  1.00 20.00    -0.043 Cl
ENDBRANCH   1   2
BRANCH   1   5
HETATM    5  C3  UNL     1     -32.902   5.755   2.191  1.00 20.00     0.010 C 
HETATM    6  C2  UNL     1     -32.097   5.510   0.922  1.00 20.00     0.006 C 
ENDBRANCH   1   5
BRANCH   1   7
HETATM    7  C4  UNL     1     -33.993   7.443   3.706  1.00 20.00     0.128 C 
HETATM    8 CL8  UNL     1     -35.303   6.282   4.050  1.00 20.00    -0.130 Cl
ENDBRANCH   1   7
TORSDOF 3
ENDMDL
MODEL 7
REMARK VINA RESULT:      -1.8      2.236      3.018
REMARK  3 active torsions:
REMARK  status: ('A' for Active; 'I' for Inactive)
REMARK    1  A    between atoms: C1_1  and  C5_5 
REMARK    2  A    between atoms: C3_3  and  C5_5 
REMARK    3  A    between atoms: C4_4  and  C5_5 
ROOT
HETATM    1  C5  UNL     1     -33.493   7.172   2.473  1.00 20.00     0.085 C 
ENDROOT
BRANCH   1   2
HETATM    2  C1  UNL     1     -33.159   5.692   2.282  1.00 20.00     0.224 C 
HETATM    3  O6  UNL     1     -32.489   5.293   1.332  1.00 20.00    -0.279 OA
HETATM    4 CL7  UNL     1     -33.823   4.685   3.539  1.00 20.00    -0.043 Cl
ENDBRANCH   1   2
BRANCH   1   5
HETATM    5  C3  UNL     1     -34.149   7.383   3.849  1.00 20.00     0.010 C 
HETATM    6  C2  UNL     1     -33.265   8.167   4.809  1.00 20.00     0.006 C 
ENDBRANCH   1   5
BRANCH   1   7
HETATM    7  C4  UNL     1     -32.214   8.010   2.368  1.00 20.00     0.128 C 
HETATM    8 CL8  UNL     1     -32.222   9.035   0.908  1.00 20.00    -0.130 Cl
ENDBRANCH   1   7
TORSDOF 3
ENDMDL
MODEL 8
REMARK VINA RESULT:      -1.7      2.018      2.588
REMARK  3 active torsions:
REMARK  status: ('A' for Active; 'I' for Inactive)
REMARK    1  A    between atoms: C1_1  and  C5_5 
REMARK    2  A    between atoms: C3_3  and  C5_5 
REMARK    3  A    between atoms: C4_4  and  C5_5 
ROOT
HETATM    1  C5  UNL     1     -33.102   6.269   2.862  1.00 20.00     0.085 C 
ENDROOT
BRANCH   1   2
HETATM    2  C1  UNL     1     -34.306   5.751   3.649  1.00 20.00     0.224 C 
HETATM    3  O6  UNL     1     -35.287   6.456   3.877  1.00 20.00    -0.279 OA
HETATM    4 CL7  UNL     1     -34.115   4.097   4.159  1.00 20.00    -0.043 Cl
ENDBRANCH   1   2
BRANCH   1   5
HETATM    5  C3  UNL     1     -33.156   5.734   1.420  1.00 20.00     0.010 C 
HETATM    6  C2  UNL     1     -31.896   4.976   1.025  1.00 20.00     0.006 C 
ENDBRANCH   1   5
BRANCH   1   7
HETATM    7  C4  UNL     1     -33.109   7.802   2.853  1.00 20.00     0.128 C 
HETATM    8 CL8  UNL     1     -32.098   8.453   1.536  1.00 20.00    -0.130 Cl
ENDBRANCH   1   7
TORSDOF 3
ENDMDL
MODEL 9
REMARK VINA RESULT:      -1.6      1.984      2.945
REMARK  3 active torsions:
REMARK  status: ('A' for Active; 'I' for Inactive)
REMARK    1  A    between atoms: C1_1  and  C5_5 
REMARK    2  A    between atoms: C3_3  and  C5_5 
REMARK    3  A    between atoms: C4_4  and  C5_5 
ROOT
HETATM    1  C5  UNL     1     -32.923   6.980   2.963  1.00 20.00     0.085 C 
ENDROOT
BRANCH   1   2
HETATM    2  C1  UNL     1     -32.099   8.222   2.621  1.00 20.00     0.224 C 
HETATM    3  O6  UNL     1     -31.397   8.788   3.457  1.00 20.00    -0.279 OA
HETATM    4 CL7  UNL     1     -32.273   8.709   0.958  1.00 20.00    -0.043 Cl
ENDBRANCH   1   2
BRANCH   1   5
HETATM    5  C3  UNL     1     -34.206   7.398   3.703  1.00 20.00     0.010 C 
HETATM    6  C2  UNL     1     -35.148   6.228   3.957  1.00 20.00     0.006 C 
ENDBRANCH   1   5
BRANCH   1   7
HETATM    7  C4  UNL     1     -33.282   6.226   1.677  1.00 20.00     0.128 C 
HETATM    8 CL8  UNL     1     -31.933   5.199   1.124  1.00 20.00    -0.130 Cl
ENDBRANCH   1   7
TORSDOF 3
ENDMDL
