MODEL 1
REMARK VINA RESULT:      -0.3      0.000      0.000
REMARK  5 active torsions:
REMARK  status: ('A' for Active; 'I' for Inactive)
REMARK    1  A    between atoms: C4_4  and  C7_7 
REMARK    2  A    between atoms: C5_5  and  C9_9 
REMARK    3  A    between atoms: C6_6  and  C9_9 
REMARK    4  A    between atoms: C7_7  and  C9_9 
REMARK    5  A    between atoms: C8_8  and  C9_9 
ROOT
HETATM    1  C9  UNL     1     -33.308   6.228   2.570  1.00 20.00    -0.029 C 
ENDROOT
BRANCH   1   2
HETATM    2  C5  UNL     1     -34.592   6.676   3.345  1.00 20.00     0.006 C 
HETATM    3  C2  UNL     1     -34.400   7.755   4.404  1.00 20.00     0.006 C 
ENDBRANCH   1   2
BRANCH   1   4
HETATM    4  C6  UNL     1     -32.211   7.338   2.614  1.00 20.00     0.006 C 
HETATM    5  C3  UNL     1     -32.033   8.163   1.345  1.00 20.00     0.006 C 
ENDBRANCH   1   4
BRANCH   1   6
HETATM    6  C7  UNL     1     -32.810   4.914   3.263  1.00 20.00     0.010 C 
BRANCH   6   7
HETATM    7  C4  UNL     1     -33.876   4.091   3.996  1.00 20.00    -0.004 C 
HETATM    8  C1  UNL     1     -33.246   2.921   4.742  1.00 20.00     0.005 C 
ENDBRANCH   6   7
ENDBRANCH   1   6
BRANCH   1   9
HETATM    9  C8  UNL     1     -33.619   5.987   1.063  1.00 20.00     0.124 C 
HETATM   10 CL10 UNL     1     -32.673   4.677   0.311  1.00 20.00    -0.130 Cl
ENDBRANCH   1   9
TORSDOF 5
ENDMDL
MODEL 2
REMARK VINA RESULT:      -0.3      1.340      2.800
REMARK  5 active torsions:
REMARK  status: ('A' for Active; 'I' for Inactive)
REMARK    1  A    between atoms: C4_4  and  C7_7 
REMARK    2  A    between atoms: C5_5  and  C9_9 
REMARK    3  A    between atoms: C6_6  and  C9_9 
REMARK    4  A    between atoms: C7_7  and  C9_9 
REMARK    5  A    between atoms: C8_8  and  C9_9 
ROOT
HETATM    1  C9  UNL     1     -33.331   6.141   2.648  1.00 20.00    -0.029 C 
ENDROOT
BRANCH   1   2
HETATM    2  C5  UNL     1     -33.497   5.812   1.127  1.00 20.00     0.006 C 
HETATM    3  C2  UNL     1     -32.488   4.837   0.532  1.00 20.00     0.006 C 
ENDBRANCH   1   2
BRANCH   1   4
HETATM    4  C6  UNL     1     -34.690   6.588   3.276  1.00 20.00     0.006 C 
HETATM    5  C3  UNL     1     -34.616   7.673   4.343  1.00 20.00     0.006 C 
ENDBRANCH   1   4
BRANCH   1   6
HETATM    6  C7  UNL     1     -32.798   4.835   3.327  1.00 20.00     0.010 C 
BRANCH   6   7
HETATM    7  C4  UNL     1     -33.837   3.986   4.070  1.00 20.00    -0.004 C 
HETATM    8  C1  UNL     1     -33.170   2.851   4.837  1.00 20.00     0.005 C 
ENDBRANCH   6   7
ENDBRANCH   1   6
BRANCH   1   9
HETATM    9  C8  UNL     1     -32.346   7.328   2.859  1.00 20.00     0.124 C 
HETATM   10 CL10 UNL     1     -32.008   8.281   1.390  1.00 20.00    -0.130 Cl
ENDBRANCH   1   9
TORSDOF 5
ENDMDL
MODEL 3
REMARK VINA RESULT:      -0.1      1.593      3.967
REMARK  5 active torsions:
REMARK  status: ('A' for Active; 'I' for Inactive)
REMARK    1  A    between atoms: C4_4  and  C7_7 
REMARK    2  A    between atoms: C5_5  and  C9_9 
REMARK    3  A    between atoms: C6_6  and  C9_9 
REMARK    4  A    between atoms: C7_7  and  C9_9 
REMARK    5  A    between atoms: C8_8  and  C9_9 
ROOT
HETATM    1  C9  UNL     1     -33.400   7.066   2.875  1.00 20.00    -0.029 C 
ENDROOT
BRANCH   1   2
HETATM    2  C5  UNL     1     -32.492   7.877   3.859  1.00 20.00     0.006 C 
HETATM    3  C2  UNL     1     -33.145   8.337   5.157  1.00 20.00     0.006 C 
ENDBRANCH   1   2
BRANCH   1   4
HETATM    4  C6  UNL     1     -34.878   7.031   3.377  1.00 20.00     0.006 C 
HETATM    5  C3  UNL     1     -35.307   5.776   4.126  1.00 20.00     0.006 C 
ENDBRANCH   1   4
BRANCH   1   6
HETATM    6  C7  UNL     1     -33.292   7.779   1.485  1.00 20.00     0.010 C 
BRANCH   6   7
HETATM    7  C4  UNL     1     -32.072   8.685   1.282  1.00 20.00    -0.004 C 
HETATM    8  C1  UNL     1     -32.383   9.813   0.306  1.00 20.00     0.005 C 
ENDBRANCH   6   7
ENDBRANCH   1   6
BRANCH   1   9
HETATM    9  C8  UNL     1     -32.939   5.581   2.784  1.00 20.00     0.124 C 
HETATM   10 CL10 UNL     1     -32.261   5.111   1.204  1.00 20.00    -0.130 Cl
ENDBRANCH   1   9
TORSDOF 5
ENDMDL
MODEL 4
REMARK VINA RESULT:      -0.1      2.200      4.370
REMARK  5 active torsions:
REMARK  status: ('A' for Active; 'I' for Inactive)
REMARK    1  A    between atoms: C4_4  and  C7_7 
REMARK    2  A    between atoms: C5_5  and  C9_9 
REMARK    3  A    between atoms: C6_6  and  C9_9 
REMARK    4  A    between atoms: C7_7  and  C9_9 
REMARK    5  A    between atoms: C8_8  and  C9_9 
ROOT
HETATM    1  C9  UNL     1     -33.318   7.157   2.778  1.00 20.00    -0.029 C 
ENDROOT
BRANCH   1   2
HETATM    2  C5  UNL     1     -32.856   5.670   2.611  1.00 20.00     0.006 C 
HETATM    3  C2  UNL     1     -32.370   5.265   1.225  1.00 20.00     0.006 C 
ENDBRANCH   1   2
BRANCH   1   4
HETATM    4  C6  UNL     1     -32.454   7.895   3.849  1.00 20.00     0.006 C 
HETATM    5  C3  UNL     1     -33.171   8.305   5.129  1.00 20.00     0.006 C 
ENDBRANCH   1   4
BRANCH   1   6
HETATM    6  C7  UNL     1     -33.166   7.827   1.370  1.00 20.00     0.010 C 
BRANCH   6   7
HETATM    7  C4  UNL     1     -32.057   8.877   1.237  1.00 20.00    -0.004 C 
HETATM    8  C1  UNL     1     -32.457   9.976   0.261  1.00 20.00     0.005 C 
ENDBRANCH   6   7
ENDBRANCH   1   6
BRANCH   1   9
HETATM    9  C8  UNL     1     -34.789   7.233   3.282  1.00 20.00     0.124 C 
HETATM   10 CL10 UNL     1     -35.345   5.788   4.167  1.00 20.00    -0.130 Cl
ENDBRANCH   1   9
TORSDOF 5
ENDMDL
MODEL 5
REMARK VINA RESULT:      -0.0      1.615      3.634
REMARK  5 active torsions:
REMARK  status: ('A' for Active; 'I' for Inactive)
REMARK    1  A    between atoms: C4_4  and  C7_7 
REMARK    2  A    between atoms: C5_5  and  C9_9 
REMARK    3  A    between atoms: C6_6  and  C9_9 
REMARK    4  A    between atoms: C7_7  and  C9_9 
REMARK    5  A    between atoms: C8_8  and  C9_9 
ROOT
HETATM    1  C9  UNL     1     -33.299   6.187   2.507  1.00 20.00    -0.029 C 
ENDROOT
BRANCH   1   2
HETATM    2  C5  UNL     1     -34.639   6.611   3.198  1.00 20.00     0.006 C 
HETATM    3  C2  UNL     1     -34.523   7.624   4.331  1.00 20.00     0.006 C 
ENDBRANCH   1   2
BRANCH   1   4
HETATM    4  C6  UNL     1     -33.540   5.788   1.016  1.00 20.00     0.006 C 
HETATM    5  C3  UNL     1     -32.656   4.677   0.463  1.00 20.00     0.006 C 
ENDBRANCH   1   4
BRANCH   1   6
HETATM    6  C7  UNL     1     -32.338   7.419   2.614  1.00 20.00     0.010 C 
BRANCH   6   7
HETATM    7  C4  UNL     1     -31.730   7.917   1.298  1.00 20.00    -0.004 C 
HETATM    8  C1  UNL     1     -32.348   9.245   0.876  1.00 20.00     0.005 C 
ENDBRANCH   6   7
ENDBRANCH   1   6
BRANCH   1   9
HETATM    9  C8  UNL     1     -32.687   4.933   3.197  1.00 20.00     0.124 C 
HETATM   10 CL10 UNL     1     -33.860   3.931   4.090  1.00 20.00    -0.130 Cl
ENDBRANCH   1   9
TORSDOF 5
ENDMDL
MODEL 6
REMARK VINA RESULT:      -0.0      2.550      3.521
REMARK  5 active torsions:
REMARK  status: ('A' for Active; 'I' for Inactive)
REMARK    1  A    between atoms: C4_4  and  C7_7 
REMARK    2  A    between atoms: C5_5  and  C9_9 
REMARK    3  A    between atoms: C6_6  and  C9_9 
REMARK    4  A    between atoms: C7_7  and  C9_9 
REMARK    5  A    between atoms: C8_8  and  C9_9 
ROOT
HETATM    1  C9  UNL     1     -32.394   7.624   1.871  1.00 20.00    -0.029 C 
ENDROOT
BRANCH   1   2
HETATM    2  C5  UNL     1     -32.012   6.122   1.651  1.00 20.00     0.006 C 
HETATM    3  C2  UNL     1     -32.831   5.361   0.617  1.00 20.00     0.006 C 
ENDBRANCH   1   2
BRANCH   1   4
HETATM    4  C6  UNL     1     -32.617   8.351   0.507  1.00 20.00     0.006 C 
HETATM    5  C3  UNL     1     -32.394   9.858   0.501  1.00 20.00     0.006 C 
ENDBRANCH   1   4
BRANCH   1   6
HETATM    6  C7  UNL     1     -33.703   7.625   2.731  1.00 20.00     0.010 C 
BRANCH   6   7
HETATM    7  C4  UNL     1     -33.953   6.376   3.583  1.00 20.00    -0.004 C 
HETATM    8  C1  UNL     1     -35.426   6.251   3.953  1.00 20.00     0.005 C 
ENDBRANCH   6   7
ENDBRANCH   1   6
BRANCH   1   9
HETATM    9  C8  UNL     1     -31.248   8.394   2.590  1.00 20.00     0.124 C 
HETATM   10 CL10 UNL     1     -31.663   8.994   4.216  1.00 20.00    -0.130 Cl
ENDBRANCH   1   9
TORSDOF 5
ENDMDL
MODEL 7
REMARK VINA RESULT:       0.0      2.548      4.347
REMARK  5 active torsions:
REMARK  status: ('A' for Active; 'I' for Inactive)
REMARK    1  A    between atoms: C4_4  and  C7_7 
REMARK    2  A    between atoms: C5_5  and  C9_9 
REMARK    3  A    between atoms: C6_6  and  C9_9 
REMARK    4  A    between atoms: C7_7  and  C9_9 
REMARK    5  A    between atoms: C8_8  and  C9_9 
ROOT
HETATM    1  C9  UNL     1     -33.229   7.237   2.713  1.00 20.00    -0.029 C 
ENDROOT
BRANCH   1   2
HETATM    2  C5  UNL     1     -34.705   7.315   3.229  1.00 20.00     0.006 C 
HETATM    3  C2  UNL     1     -35.222   6.097   3.984  1.00 20.00     0.006 C 
ENDBRANCH   1   2
BRANCH   1   4
HETATM    4  C6  UNL     1     -32.765   5.753   2.566  1.00 20.00     0.006 C 
HETATM    5  C3  UNL     1     -32.383   5.301   1.162  1.00 20.00     0.006 C 
ENDBRANCH   1   4
BRANCH   1   6
HETATM    6  C7  UNL     1     -33.204   7.975   1.331  1.00 20.00     0.010 C 
BRANCH   6   7
HETATM    7  C4  UNL     1     -32.060   8.972   1.117  1.00 20.00    -0.004 C 
HETATM    8  C1  UNL     1     -32.486  10.103   0.188  1.00 20.00     0.005 C 
ENDBRANCH   6   7
ENDBRANCH   1   6
BRANCH   1   9
HETATM    9  C8  UNL     1     -32.247   7.900   3.723  1.00 20.00     0.124 C 
HETATM   10 CL10 UNL     1     -32.995   8.407   5.259  1.00 20.00    -0.130 Cl
ENDBRANCH   1   9
TORSDOF 5
ENDMDL
MODEL 8
REMARK VINA RESULT:       0.2      1.826      2.803
REMARK  5 active torsions:
REMARK  status: ('A' for Active; 'I' for Inactive)
REMARK    1  A    between atoms: C4_4  and  C7_7 
REMARK    2  A    between atoms: C5_5  and  C9_9 
REMARK    3  A    between atoms: C6_6  and  C9_9 
REMARK    4  A    between atoms: C7_7  and  C9_9 
REMARK    5  A    between atoms: C8_8  and  C9_9 
ROOT
HETATM    1  C9  UNL     1     -33.291   6.181   2.510  1.00 20.00    -0.029 C 
ENDROOT
BRANCH   1   2
HETATM    2  C5  UNL     1     -32.089   7.185   2.519  1.00 20.00     0.006 C 
HETATM    3  C2  UNL     1     -32.116   8.282   1.461  1.00 20.00     0.006 C 
ENDBRANCH   1   2
BRANCH   1   4
HETATM    4  C6  UNL     1     -33.732   5.850   1.048  1.00 20.00     0.006 C 
HETATM    5  C3  UNL     1     -32.945   4.757   0.337  1.00 20.00     0.006 C 
ENDBRANCH   1   4
BRANCH   1   6
HETATM    6  C7  UNL     1     -32.798   4.895   3.255  1.00 20.00     0.010 C 
BRANCH   6   7
HETATM    7  C4  UNL     1     -33.863   4.115   4.034  1.00 20.00    -0.004 C 
HETATM    8  C1  UNL     1     -33.256   2.898   4.723  1.00 20.00     0.005 C 
ENDBRANCH   6   7
ENDBRANCH   1   6
BRANCH   1   9
HETATM    9  C8  UNL     1     -34.538   6.795   3.210  1.00 20.00     0.124 C 
HETATM   10 CL10 UNL     1     -34.165   7.834   4.610  1.00 20.00    -0.130 Cl
ENDBRANCH   1   9
TORSDOF 5
ENDMDL
MODEL 9
REMARK VINA RESULT:       0.2      1.810      2.961
REMARK  5 active torsions:
REMARK  status: ('A' for Active; 'I' for Inactive)
REMARK    1  A    between atoms: C4_4  and  C7_7 
REMARK    2  A    between atoms: C5_5  and  C9_9 
REMARK    3  A    between atoms: C6_6  and  C9_9 
REMARK    4  A    between atoms: C7_7  and  C9_9 
REMARK    5  A    between atoms: C8_8  and  C9_9 
ROOT
HETATM    1  C9  UNL     1     -33.799   6.268   3.255  1.00 20.00    -0.029 C 
ENDROOT
BRANCH   1   2
HETATM    2  C5  UNL     1     -33.833   6.224   1.691  1.00 20.00     0.006 C 
HETATM    3  C2  UNL     1     -32.748   5.395   1.014  1.00 20.00     0.006 C 
ENDBRANCH   1   2
BRANCH   1   4
HETATM    4  C6  UNL     1     -35.243   6.322   3.846  1.00 20.00     0.006 C 
HETATM    5  C3  UNL     1     -36.325   6.885   2.932  1.00 20.00     0.006 C 
ENDBRANCH   1   4
BRANCH   1   6
HETATM    6  C7  UNL     1     -33.048   4.973   3.717  1.00 20.00     0.010 C 
BRANCH   6   7
HETATM    7  C4  UNL     1     -33.926   3.842   4.265  1.00 20.00    -0.004 C 
HETATM    8  C1  UNL     1     -33.077   2.745   4.894  1.00 20.00     0.005 C 
ENDBRANCH   6   7
ENDBRANCH   1   6
BRANCH   1   9
HETATM    9  C8  UNL     1     -33.075   7.550   3.762  1.00 20.00     0.124 C 
HETATM   10 CL10 UNL     1     -32.018   8.330   2.557  1.00 20.00    -0.130 Cl
ENDBRANCH   1   9
TORSDOF 5
ENDMDL
