MODEL 1
REMARK VINA RESULT:      -3.7      0.000      0.000
REMARK  2 active torsions:
REMARK  status: ('A' for Active; 'I' for Inactive)
REMARK    1  A    between atoms: C1_1  and  C2_2 
REMARK    2  A    between atoms: C1_1  and  C3_3 
ROOT
HETATM    1  C1  UNL     1     -33.450   6.018   3.241  1.00 20.00     0.299 C 
HETATM    2  F4  UNL     1     -33.732   4.687   3.347  1.00 20.00    -0.238 F 
ENDROOT
BRANCH   1   3
HETATM    3  C2  UNL     1     -34.682   6.789   3.658  1.00 20.00     0.392 C 
HETATM    4  F5  UNL     1     -35.540   5.977   4.322  1.00 20.00    -0.211 F 
HETATM    5  F6  UNL     1     -34.325   7.774   4.520  1.00 20.00    -0.211 F 
ENDBRANCH   1   3
BRANCH   1   6
HETATM    6  C3  UNL     1     -33.038   6.296   1.813  1.00 20.00     0.392 C 
HETATM    7  F7  UNL     1     -32.168   5.348   1.384  1.00 20.00    -0.211 F 
HETATM    8  F8  UNL     1     -32.386   7.483   1.756  1.00 20.00    -0.211 F 
ENDBRANCH   1   6
TORSDOF 2
ENDMDL
MODEL 2
REMARK VINA RESULT:      -3.5      1.113      3.267
REMARK  2 active torsions:
REMARK  status: ('A' for Active; 'I' for Inactive)
REMARK    1  A    between atoms: C1_1  and  C2_2 
REMARK    2  A    between atoms: C1_1  and  C3_3 
ROOT
HETATM    1  C1  UNL     1     -33.418   6.828   2.229  1.00 20.00     0.299 C 
HETATM    2  F4  UNL     1     -32.975   5.598   1.839  1.00 20.00    -0.238 F 
ENDROOT
BRANCH   1   3
HETATM    3  C2  UNL     1     -32.248   7.783   2.177  1.00 20.00     0.392 C 
HETATM    4  F5  UNL     1     -31.195   7.200   1.555  1.00 20.00    -0.211 F 
HETATM    5  F6  UNL     1     -32.587   8.870   1.441  1.00 20.00    -0.211 F 
ENDBRANCH   1   3
BRANCH   1   6
HETATM    6  C3  UNL     1     -34.007   6.694   3.615  1.00 20.00     0.392 C 
HETATM    7  F7  UNL     1     -35.355   6.567   3.541  1.00 20.00    -0.211 F 
HETATM    8  F8  UNL     1     -33.757   7.823   4.321  1.00 20.00    -0.211 F 
ENDBRANCH   1   6
TORSDOF 2
ENDMDL
MODEL 3
REMARK VINA RESULT:      -3.5      1.235      3.166
REMARK  2 active torsions:
REMARK  status: ('A' for Active; 'I' for Inactive)
REMARK    1  A    between atoms: C1_1  and  C2_2 
REMARK    2  A    between atoms: C1_1  and  C3_3 
ROOT
HETATM    1  C1  UNL     1     -33.129   6.867   2.008  1.00 20.00     0.299 C 
HETATM    2  F4  UNL     1     -32.758   5.610   1.626  1.00 20.00    -0.238 F 
ENDROOT
BRANCH   1   3
HETATM    3  C2  UNL     1     -31.950   7.787   1.787  1.00 20.00     0.392 C 
HETATM    4  F5  UNL     1     -32.292   8.791   0.943  1.00 20.00    -0.211 F 
HETATM    5  F6  UNL     1     -31.604   8.364   2.965  1.00 20.00    -0.211 F 
ENDBRANCH   1   3
BRANCH   1   6
HETATM    6  C3  UNL     1     -33.566   6.806   3.453  1.00 20.00     0.392 C 
HETATM    7  F7  UNL     1     -34.284   5.678   3.679  1.00 20.00    -0.211 F 
HETATM    8  F8  UNL     1     -34.385   7.853   3.720  1.00 20.00    -0.211 F 
ENDBRANCH   1   6
TORSDOF 2
ENDMDL
MODEL 4
REMARK VINA RESULT:      -3.5      0.950      3.449
REMARK  2 active torsions:
REMARK  status: ('A' for Active; 'I' for Inactive)
REMARK    1  A    between atoms: C1_1  and  C2_2 
REMARK    2  A    between atoms: C1_1  and  C3_3 
ROOT
HETATM    1  C1  UNL     1     -33.574   7.090   3.639  1.00 20.00     0.299 C 
HETATM    2  F4  UNL     1     -34.263   8.157   4.138  1.00 20.00    -0.238 F 
ENDROOT
BRANCH   1   3
HETATM    3  C2  UNL     1     -32.950   7.510   2.328  1.00 20.00     0.392 C 
HETATM    4  F5  UNL     1     -31.804   8.195   2.553  1.00 20.00    -0.211 F 
HETATM    5  F6  UNL     1     -32.615   6.405   1.615  1.00 20.00    -0.211 F 
ENDBRANCH   1   3
BRANCH   1   6
HETATM    6  C3  UNL     1     -34.541   5.939   3.489  1.00 20.00     0.392 C 
HETATM    7  F7  UNL     1     -35.614   6.120   4.298  1.00 20.00    -0.211 F 
HETATM    8  F8  UNL     1     -33.939   4.791   3.886  1.00 20.00    -0.211 F 
ENDBRANCH   1   6
TORSDOF 2
ENDMDL
MODEL 5
REMARK VINA RESULT:      -3.4      1.248      1.516
REMARK  2 active torsions:
REMARK  status: ('A' for Active; 'I' for Inactive)
REMARK    1  A    between atoms: C1_1  and  C2_2 
REMARK    2  A    between atoms: C1_1  and  C3_3 
ROOT
HETATM    1  C1  UNL     1     -33.061   6.800   2.917  1.00 20.00     0.299 C 
HETATM    2  F4  UNL     1     -33.386   5.939   1.910  1.00 20.00    -0.238 F 
ENDROOT
BRANCH   1   3
HETATM    3  C2  UNL     1     -34.340   7.208   3.612  1.00 20.00     0.392 C 
HETATM    4  F5  UNL     1     -35.028   6.110   4.010  1.00 20.00    -0.211 F 
HETATM    5  F6  UNL     1     -34.039   7.911   4.732  1.00 20.00    -0.211 F 
ENDBRANCH   1   3
BRANCH   1   6
HETATM    6  C3  UNL     1     -32.323   7.971   2.310  1.00 20.00     0.392 C 
HETATM    7  F7  UNL     1     -31.483   7.540   1.336  1.00 20.00    -0.211 F 
HETATM    8  F8  UNL     1     -31.554   8.559   3.259  1.00 20.00    -0.211 F 
ENDBRANCH   1   6
TORSDOF 2
ENDMDL
MODEL 6
REMARK VINA RESULT:      -3.4      1.107      2.157
REMARK  2 active torsions:
REMARK  status: ('A' for Active; 'I' for Inactive)
REMARK    1  A    between atoms: C1_1  and  C2_2 
REMARK    2  A    between atoms: C1_1  and  C3_3 
ROOT
HETATM    1  C1  UNL     1     -34.062   7.465   3.707  1.00 20.00     0.299 C 
HETATM    2  F4  UNL     1     -33.520   8.046   4.816  1.00 20.00    -0.238 F 
ENDROOT
BRANCH   1   3
HETATM    3  C2  UNL     1     -34.981   6.355   4.164  1.00 20.00     0.392 C 
HETATM    4  F5  UNL     1     -36.125   6.366   3.439  1.00 20.00    -0.211 F 
HETATM    5  F6  UNL     1     -34.385   5.157   3.940  1.00 20.00    -0.211 F 
ENDBRANCH   1   3
BRANCH   1   6
HETATM    6  C3  UNL     1     -32.928   6.970   2.839  1.00 20.00     0.392 C 
HETATM    7  F7  UNL     1     -32.225   8.018   2.344  1.00 20.00    -0.211 F 
HETATM    8  F8  UNL     1     -33.436   6.300   1.775  1.00 20.00    -0.211 F 
ENDBRANCH   1   6
TORSDOF 2
ENDMDL
MODEL 7
REMARK VINA RESULT:      -3.4      0.923      1.940
REMARK  2 active torsions:
REMARK  status: ('A' for Active; 'I' for Inactive)
REMARK    1  A    between atoms: C1_1  and  C2_2 
REMARK    2  A    between atoms: C1_1  and  C3_3 
ROOT
HETATM    1  C1  UNL     1     -33.408   7.287   2.535  1.00 20.00     0.299 C 
HETATM    2  F4  UNL     1     -32.295   8.016   2.840  1.00 20.00    -0.238 F 
ENDROOT
BRANCH   1   3
HETATM    3  C2  UNL     1     -34.097   6.925   3.831  1.00 20.00     0.392 C 
HETATM    4  F5  UNL     1     -34.117   7.993   4.664  1.00 20.00    -0.211 F 
HETATM    5  F6  UNL     1     -35.389   6.600   3.577  1.00 20.00    -0.211 F 
ENDBRANCH   1   3
BRANCH   1   6
HETATM    6  C3  UNL     1     -32.970   6.076   1.744  1.00 20.00     0.392 C 
HETATM    7  F7  UNL     1     -33.098   4.954   2.495  1.00 20.00    -0.211 F 
HETATM    8  F8  UNL     1     -31.656   6.192   1.432  1.00 20.00    -0.211 F 
ENDBRANCH   1   6
TORSDOF 2
ENDMDL
MODEL 8
REMARK VINA RESULT:      -3.1      1.265      2.771
REMARK  2 active torsions:
REMARK  status: ('A' for Active; 'I' for Inactive)
REMARK    1  A    between atoms: C1_1  and  C2_2 
REMARK    2  A    between atoms: C1_1  and  C3_3 
ROOT
HETATM    1  C1  UNL     1     -34.759   6.234   3.615  1.00 20.00     0.299 C 
HETATM    2  F4  UNL     1     -35.631   6.022   4.642  1.00 20.00    -0.238 F 
ENDROOT
BRANCH   1   3
HETATM    3  C2  UNL     1     -33.695   5.163   3.679  1.00 20.00     0.392 C 
HETATM    4  F5  UNL     1     -34.229   3.997   4.115  1.00 20.00    -0.211 F 
HETATM    5  F6  UNL     1     -33.212   4.933   2.432  1.00 20.00    -0.211 F 
ENDBRANCH   1   3
BRANCH   1   6
HETATM    6  C3  UNL     1     -34.198   7.630   3.759  1.00 20.00     0.392 C 
HETATM    7  F7  UNL     1     -33.049   7.748   3.049  1.00 20.00    -0.211 F 
HETATM    8  F8  UNL     1     -33.883   7.857   5.057  1.00 20.00    -0.211 F 
ENDBRANCH   1   6
TORSDOF 2
ENDMDL
MODEL 9
REMARK VINA RESULT:      -3.1      1.659      3.040
REMARK  2 active torsions:
REMARK  status: ('A' for Active; 'I' for Inactive)
REMARK    1  A    between atoms: C1_1  and  C2_2 
REMARK    2  A    between atoms: C1_1  and  C3_3 
ROOT
HETATM    1  C1  UNL     1     -33.144   7.135   1.959  1.00 20.00     0.299 C 
HETATM    2  F4  UNL     1     -33.492   7.248   3.273  1.00 20.00    -0.238 F 
ENDROOT
BRANCH   1   3
HETATM    3  C2  UNL     1     -32.967   5.666   1.649  1.00 20.00     0.392 C 
HETATM    4  F5  UNL     1     -31.678   5.408   1.323  1.00 20.00    -0.211 F 
HETATM    5  F6  UNL     1     -33.247   4.936   2.757  1.00 20.00    -0.211 F 
ENDBRANCH   1   3
BRANCH   1   6
HETATM    6  C3  UNL     1     -31.883   7.938   1.739  1.00 20.00     0.392 C 
HETATM    7  F7  UNL     1     -31.444   8.453   2.914  1.00 20.00    -0.211 F 
HETATM    8  F8  UNL     1     -32.155   8.990   0.928  1.00 20.00    -0.211 F 
ENDBRANCH   1   6
TORSDOF 2
ENDMDL
