MODEL 1
REMARK VINA RESULT:      -0.4      0.000      0.000
REMARK  0 active torsions:
REMARK  status: ('A' for Active; 'I' for Inactive)
ROOT
HETATM    1  C1  UNL     1     -32.290   5.803   1.552  1.00 20.00    -0.021 C 
HETATM    2  C2  UNL     1     -31.214   6.606   1.524  1.00 20.00    -0.025 C 
HETATM    3  C3  UNL     1     -33.439   7.317   3.101  1.00 20.00    -0.076 C 
HETATM    4  C4  UNL     1     -34.294   7.124   4.108  1.00 20.00    -0.027 C 
HETATM    5  C5  UNL     1     -32.232   8.248   3.104  1.00 20.00     0.043 C 
HETATM    6  C6  UNL     1     -33.031   7.889   0.890  1.00 20.00     0.022 C 
HETATM    7  C7  UNL     1     -33.504   6.689   1.720  1.00 20.00     0.037 C 
HETATM    8  C8  UNL     1     -31.712   8.032   1.662  1.00 20.00     0.013 C 
HETATM    9  C9  UNL     1     -35.463   6.196   4.048  1.00 20.00     0.036 C 
ENDROOT
TORSDOF 0
ENDMDL
MODEL 2
REMARK VINA RESULT:      -0.1      0.994      2.074
REMARK  0 active torsions:
REMARK  status: ('A' for Active; 'I' for Inactive)
ROOT
HETATM    1  C1  UNL     1     -33.056   9.113   1.612  1.00 20.00    -0.021 C 
HETATM    2  C2  UNL     1     -32.181   8.747   0.661  1.00 20.00    -0.025 C 
HETATM    3  C3  UNL     1     -33.149   6.821   2.477  1.00 20.00    -0.076 C 
HETATM    4  C4  UNL     1     -34.118   6.087   3.029  1.00 20.00    -0.027 C 
HETATM    5  C5  UNL     1     -32.166   6.365   1.406  1.00 20.00     0.043 C 
HETATM    6  C6  UNL     1     -31.259   8.148   2.696  1.00 20.00     0.022 C 
HETATM    7  C7  UNL     1     -32.783   8.253   2.825  1.00 20.00     0.037 C 
HETATM    8  C8  UNL     1     -31.314   7.649   1.247  1.00 20.00     0.013 C 
HETATM    9  C9  UNL     1     -35.054   6.589   4.078  1.00 20.00     0.036 C 
ENDROOT
TORSDOF 0
ENDMDL
MODEL 3
REMARK VINA RESULT:       0.3      1.956      3.432
REMARK  0 active torsions:
REMARK  status: ('A' for Active; 'I' for Inactive)
ROOT
HETATM    1  C1  UNL     1     -33.009   7.059   4.079  1.00 20.00    -0.021 C 
HETATM    2  C2  UNL     1     -34.143   7.776   4.140  1.00 20.00    -0.025 C 
HETATM    3  C3  UNL     1     -34.277   4.961   4.115  1.00 20.00    -0.076 C 
HETATM    4  C4  UNL     1     -34.039   3.753   4.633  1.00 20.00    -0.027 C 
HETATM    5  C5  UNL     1     -35.585   5.739   4.197  1.00 20.00     0.043 C 
HETATM    6  C6  UNL     1     -34.315   6.395   2.292  1.00 20.00     0.022 C 
HETATM    7  C7  UNL     1     -33.316   5.803   3.295  1.00 20.00     0.037 C 
HETATM    8  C8  UNL     1     -35.206   7.002   3.384  1.00 20.00     0.013 C 
HETATM    9  C9  UNL     1     -32.734   3.036   4.522  1.00 20.00     0.036 C 
ENDROOT
TORSDOF 0
ENDMDL
MODEL 4
REMARK VINA RESULT:       0.4      1.397      1.675
REMARK  0 active torsions:
REMARK  status: ('A' for Active; 'I' for Inactive)
ROOT
HETATM    1  C1  UNL     1     -31.622   6.127   1.767  1.00 20.00    -0.021 C 
HETATM    2  C2  UNL     1     -31.693   7.468   1.783  1.00 20.00    -0.025 C 
HETATM    3  C3  UNL     1     -33.612   5.957   3.189  1.00 20.00    -0.076 C 
HETATM    4  C4  UNL     1     -33.988   5.103   4.145  1.00 20.00    -0.027 C 
HETATM    5  C5  UNL     1     -33.720   7.477   3.240  1.00 20.00     0.043 C 
HETATM    6  C6  UNL     1     -33.723   6.692   0.992  1.00 20.00     0.022 C 
HETATM    7  C7  UNL     1     -33.039   5.604   1.828  1.00 20.00     0.037 C 
HETATM    8  C8  UNL     1     -33.162   7.840   1.842  1.00 20.00     0.013 C 
HETATM    9  C9  UNL     1     -33.858   3.619   4.040  1.00 20.00     0.036 C 
ENDROOT
TORSDOF 0
ENDMDL
MODEL 5
REMARK VINA RESULT:       0.6      1.430      3.648
REMARK  0 active torsions:
REMARK  status: ('A' for Active; 'I' for Inactive)
ROOT
HETATM    1  C1  UNL     1     -33.545   7.842   3.867  1.00 20.00    -0.021 C 
HETATM    2  C2  UNL     1     -34.246   7.345   4.900  1.00 20.00    -0.025 C 
HETATM    3  C3  UNL     1     -33.534   5.655   2.759  1.00 20.00    -0.076 C 
HETATM    4  C4  UNL     1     -32.648   5.021   1.987  1.00 20.00    -0.027 C 
HETATM    5  C5  UNL     1     -34.320   5.051   3.918  1.00 20.00     0.043 C 
HETATM    6  C6  UNL     1     -35.468   6.916   2.983  1.00 20.00     0.022 C 
HETATM    7  C7  UNL     1     -33.988   7.098   2.627  1.00 20.00     0.037 C 
HETATM    8  C8  UNL     1     -35.167   6.276   4.344  1.00 20.00     0.013 C 
HETATM    9  C9  UNL     1     -31.906   5.665   0.863  1.00 20.00     0.036 C 
ENDROOT
TORSDOF 0
ENDMDL
MODEL 6
REMARK VINA RESULT:       0.6      1.087      3.690
REMARK  0 active torsions:
REMARK  status: ('A' for Active; 'I' for Inactive)
ROOT
HETATM    1  C1  UNL     1     -33.950   7.913   4.511  1.00 20.00    -0.021 C 
HETATM    2  C2  UNL     1     -34.431   6.816   5.119  1.00 20.00    -0.025 C 
HETATM    3  C3  UNL     1     -33.285   6.595   2.554  1.00 20.00    -0.076 C 
HETATM    4  C4  UNL     1     -32.267   6.677   1.694  1.00 20.00    -0.027 C 
HETATM    5  C5  UNL     1     -33.810   5.326   3.216  1.00 20.00     0.043 C 
HETATM    6  C6  UNL     1     -35.510   6.988   3.080  1.00 20.00     0.022 C 
HETATM    7  C7  UNL     1     -34.171   7.734   3.026  1.00 20.00     0.037 C 
HETATM    8  C8  UNL     1     -34.986   5.910   4.037  1.00 20.00     0.013 C 
HETATM    9  C9  UNL     1     -31.794   7.952   1.075  1.00 20.00     0.036 C 
ENDROOT
TORSDOF 0
ENDMDL
MODEL 7
REMARK VINA RESULT:       1.0      1.956      3.439
REMARK  0 active torsions:
REMARK  status: ('A' for Active; 'I' for Inactive)
ROOT
HETATM    1  C1  UNL     1     -35.678   6.210   3.967  1.00 20.00    -0.021 C 
HETATM    2  C2  UNL     1     -35.501   7.059   2.941  1.00 20.00    -0.025 C 
HETATM    3  C3  UNL     1     -33.550   5.096   3.476  1.00 20.00    -0.076 C 
HETATM    4  C4  UNL     1     -33.130   3.832   3.579  1.00 20.00    -0.027 C 
HETATM    5  C5  UNL     1     -33.318   6.033   2.296  1.00 20.00     0.043 C 
HETATM    6  C6  UNL     1     -33.648   7.257   4.312  1.00 20.00     0.022 C 
HETATM    7  C7  UNL     1     -34.309   5.890   4.524  1.00 20.00     0.037 C 
HETATM    8  C8  UNL     1     -34.011   7.315   2.822  1.00 20.00     0.013 C 
HETATM    9  C9  UNL     1     -33.388   2.958   4.762  1.00 20.00     0.036 C 
ENDROOT
TORSDOF 0
ENDMDL
MODEL 8
REMARK VINA RESULT:       1.2      1.317      3.481
REMARK  0 active torsions:
REMARK  status: ('A' for Active; 'I' for Inactive)
ROOT
HETATM    1  C1  UNL     1     -34.778   5.362   3.804  1.00 20.00    -0.021 C 
HETATM    2  C2  UNL     1     -35.459   6.502   4.002  1.00 20.00    -0.025 C 
HETATM    3  C3  UNL     1     -33.204   6.504   2.310  1.00 20.00    -0.076 C 
HETATM    4  C4  UNL     1     -32.535   6.125   1.218  1.00 20.00    -0.027 C 
HETATM    5  C5  UNL     1     -33.957   7.815   2.502  1.00 20.00     0.043 C 
HETATM    6  C6  UNL     1     -33.260   6.914   4.593  1.00 20.00     0.022 C 
HETATM    7  C7  UNL     1     -33.325   5.736   3.614  1.00 20.00     0.037 C 
HETATM    8  C8  UNL     1     -34.455   7.638   3.957  1.00 20.00     0.013 C 
HETATM    9  C9  UNL     1     -31.814   4.824   1.087  1.00 20.00     0.036 C 
ENDROOT
TORSDOF 0
ENDMDL
MODEL 9
REMARK VINA RESULT:       1.3      1.084      3.476
REMARK  0 active torsions:
REMARK  status: ('A' for Active; 'I' for Inactive)
ROOT
HETATM    1  C1  UNL     1     -35.196   6.489   2.298  1.00 20.00    -0.021 C 
HETATM    2  C2  UNL     1     -35.751   6.665   3.509  1.00 20.00    -0.025 C 
HETATM    3  C3  UNL     1     -33.107   7.527   3.053  1.00 20.00    -0.076 C 
HETATM    4  C4  UNL     1     -32.191   8.290   2.451  1.00 20.00    -0.027 C 
HETATM    5  C5  UNL     1     -33.706   7.754   4.436  1.00 20.00     0.043 C 
HETATM    6  C6  UNL     1     -33.806   5.454   3.825  1.00 20.00     0.022 C 
HETATM    7  C7  UNL     1     -33.720   6.246   2.515  1.00 20.00     0.037 C 
HETATM    8  C8  UNL     1     -34.644   6.525   4.536  1.00 20.00     0.013 C 
HETATM    9  C9  UNL     1     -31.639   8.019   1.090  1.00 20.00     0.036 C 
ENDROOT
TORSDOF 0
ENDMDL
