MODEL 1
REMARK VINA RESULT:      -2.9      0.000      0.000
REMARK  3 active torsions:
REMARK  status: ('A' for Active; 'I' for Inactive)
REMARK    1  A    between atoms: C2_2  and  C6_6 
REMARK    2  A    between atoms: C6_6  and  C7_7 
REMARK    3  A    between atoms: C7_7  and  C8_8 
ROOT
HETATM    1  C6  UNL     1     -32.108   8.106   2.243  1.00 20.00     0.027 C 
ENDROOT
BRANCH   1   2
HETATM    2  C2  UNL     1     -31.871   8.270   0.769  1.00 20.00    -0.031 C 
HETATM    3  C1  UNL     1     -32.175   9.382   0.085  1.00 20.00    -0.035 C 
HETATM    4  C3  UNL     1     -32.787  10.597   0.701  1.00 20.00     0.035 C 
ENDBRANCH   1   2
BRANCH   1   5
HETATM    5  C7  UNL     1     -33.159   7.036   2.566  1.00 20.00     0.007 C 
BRANCH   5   6
HETATM    6  C8  UNL     1     -34.209   7.438   3.622  1.00 20.00    -0.022 C 
HETATM    7  C4  UNL     1     -35.081   6.227   3.965  1.00 20.00     0.009 C 
HETATM    8  C5  UNL     1     -33.571   7.990   4.897  1.00 20.00     0.009 C 
ENDBRANCH   5   6
ENDBRANCH   1   5
TORSDOF 3
ENDMDL
MODEL 2
REMARK VINA RESULT:      -2.8      0.777      1.030
REMARK  3 active torsions:
REMARK  status: ('A' for Active; 'I' for Inactive)
REMARK    1  A    between atoms: C2_2  and  C6_6 
REMARK    2  A    between atoms: C6_6  and  C7_7 
REMARK    3  A    between atoms: C7_7  and  C8_8 
ROOT
HETATM    1  C6  UNL     1     -32.811   6.852   1.453  1.00 20.00     0.027 C 
ENDROOT
BRANCH   1   2
HETATM    2  C2  UNL     1     -31.798   7.921   1.742  1.00 20.00    -0.031 C 
HETATM    3  C1  UNL     1     -31.723   9.078   1.069  1.00 20.00    -0.035 C 
HETATM    4  C3  UNL     1     -32.637   9.450  -0.052  1.00 20.00     0.035 C 
ENDBRANCH   1   2
BRANCH   1   5
HETATM    5  C7  UNL     1     -33.329   6.158   2.719  1.00 20.00     0.007 C 
BRANCH   5   6
HETATM    6  C8  UNL     1     -34.414   6.927   3.499  1.00 20.00    -0.022 C 
HETATM    7  C4  UNL     1     -35.369   5.933   4.167  1.00 20.00     0.009 C 
HETATM    8  C5  UNL     1     -33.820   7.859   4.557  1.00 20.00     0.009 C 
ENDBRANCH   5   6
ENDBRANCH   1   5
TORSDOF 3
ENDMDL
MODEL 3
REMARK VINA RESULT:      -2.7      0.351      1.298
REMARK  3 active torsions:
REMARK  status: ('A' for Active; 'I' for Inactive)
REMARK    1  A    between atoms: C2_2  and  C6_6 
REMARK    2  A    between atoms: C6_6  and  C7_7 
REMARK    3  A    between atoms: C7_7  and  C8_8 
ROOT
HETATM    1  C6  UNL     1     -32.262   8.054   2.187  1.00 20.00     0.027 C 
ENDROOT
BRANCH   1   2
HETATM    2  C2  UNL     1     -31.848   8.261   0.758  1.00 20.00    -0.031 C 
HETATM    3  C1  UNL     1     -32.084   9.387   0.070  1.00 20.00    -0.035 C 
HETATM    4  C3  UNL     1     -32.786  10.577   0.636  1.00 20.00     0.035 C 
ENDBRANCH   1   2
BRANCH   1   5
HETATM    5  C7  UNL     1     -33.279   6.919   2.358  1.00 20.00     0.007 C 
BRANCH   5   6
HETATM    6  C8  UNL     1     -33.861   6.760   3.778  1.00 20.00    -0.022 C 
HETATM    7  C4  UNL     1     -33.705   8.074   4.548  1.00 20.00     0.009 C 
HETATM    8  C5  UNL     1     -35.334   6.347   3.760  1.00 20.00     0.009 C 
ENDBRANCH   5   6
ENDBRANCH   1   5
TORSDOF 3
ENDMDL
MODEL 4
REMARK VINA RESULT:      -2.6      1.187      4.610
REMARK  3 active torsions:
REMARK  status: ('A' for Active; 'I' for Inactive)
REMARK    1  A    between atoms: C2_2  and  C6_6 
REMARK    2  A    between atoms: C6_6  and  C7_7 
REMARK    3  A    between atoms: C7_7  and  C8_8 
ROOT
HETATM    1  C6  UNL     1     -33.761   7.215   4.078  1.00 20.00     0.027 C 
ENDROOT
BRANCH   1   2
HETATM    2  C2  UNL     1     -35.081   6.500   4.057  1.00 20.00    -0.031 C 
HETATM    3  C1  UNL     1     -35.209   5.169   4.161  1.00 20.00    -0.035 C 
HETATM    4  C3  UNL     1     -34.057   4.232   4.313  1.00 20.00     0.035 C 
ENDBRANCH   1   2
BRANCH   1   5
HETATM    5  C7  UNL     1     -33.449   7.936   2.762  1.00 20.00     0.007 C 
BRANCH   5   6
HETATM    6  C8  UNL     1     -32.221   7.407   1.992  1.00 20.00    -0.022 C 
HETATM    7  C4  UNL     1     -32.545   6.038   1.387  1.00 20.00     0.009 C 
HETATM    8  C5  UNL     1     -31.770   8.363   0.887  1.00 20.00     0.009 C 
ENDBRANCH   5   6
ENDBRANCH   1   5
TORSDOF 3
ENDMDL
MODEL 5
REMARK VINA RESULT:      -2.5      1.206      1.597
REMARK  3 active torsions:
REMARK  status: ('A' for Active; 'I' for Inactive)
REMARK    1  A    between atoms: C2_2  and  C6_6 
REMARK    2  A    between atoms: C6_6  and  C7_7 
REMARK    3  A    between atoms: C7_7  and  C8_8 
ROOT
HETATM    1  C6  UNL     1     -32.787   7.718   2.488  1.00 20.00     0.027 C 
ENDROOT
BRANCH   1   2
HETATM    2  C2  UNL     1     -31.718   7.872   1.445  1.00 20.00    -0.031 C 
HETATM    3  C1  UNL     1     -31.672   8.885   0.569  1.00 20.00    -0.035 C 
HETATM    4  C3  UNL     1     -32.676   9.989   0.519  1.00 20.00     0.035 C 
ENDBRANCH   1   2
BRANCH   1   5
HETATM    5  C7  UNL     1     -33.475   6.349   2.444  1.00 20.00     0.007 C 
BRANCH   5   6
HETATM    6  C8  UNL     1     -34.052   5.854   3.787  1.00 20.00    -0.022 C 
HETATM    7  C4  UNL     1     -35.487   6.363   3.949  1.00 20.00     0.009 C 
HETATM    8  C5  UNL     1     -34.032   4.329   3.903  1.00 20.00     0.009 C 
ENDBRANCH   5   6
ENDBRANCH   1   5
TORSDOF 3
ENDMDL
MODEL 6
REMARK VINA RESULT:      -2.2      0.998      4.413
REMARK  3 active torsions:
REMARK  status: ('A' for Active; 'I' for Inactive)
REMARK    1  A    between atoms: C2_2  and  C6_6 
REMARK    2  A    between atoms: C6_6  and  C7_7 
REMARK    3  A    between atoms: C7_7  and  C8_8 
ROOT
HETATM    1  C6  UNL     1     -33.171   7.608   4.325  1.00 20.00     0.027 C 
ENDROOT
BRANCH   1   2
HETATM    2  C2  UNL     1     -34.609   7.438   3.929  1.00 20.00    -0.031 C 
HETATM    3  C1  UNL     1     -35.233   6.253   3.876  1.00 20.00    -0.035 C 
HETATM    4  C3  UNL     1     -34.578   4.952   4.206  1.00 20.00     0.035 C 
ENDBRANCH   1   2
BRANCH   1   5
HETATM    5  C7  UNL     1     -32.322   8.274   3.235  1.00 20.00     0.007 C 
BRANCH   5   6
HETATM    6  C8  UNL     1     -32.604   7.800   1.794  1.00 20.00    -0.022 C 
HETATM    7  C4  UNL     1     -32.007   8.798   0.799  1.00 20.00     0.009 C 
HETATM    8  C5  UNL     1     -32.044   6.403   1.521  1.00 20.00     0.009 C 
ENDBRANCH   5   6
ENDBRANCH   1   5
TORSDOF 3
ENDMDL
MODEL 7
REMARK VINA RESULT:      -2.0      0.743      4.469
REMARK  3 active torsions:
REMARK  status: ('A' for Active; 'I' for Inactive)
REMARK    1  A    between atoms: C2_2  and  C6_6 
REMARK    2  A    between atoms: C6_6  and  C7_7 
REMARK    3  A    between atoms: C7_7  and  C8_8 
ROOT
HETATM    1  C6  UNL     1     -32.640   7.382   2.303  1.00 20.00     0.027 C 
ENDROOT
BRANCH   1   2
HETATM    2  C2  UNL     1     -33.192   7.963   3.573  1.00 20.00    -0.031 C 
HETATM    3  C1  UNL     1     -34.266   7.474   4.211  1.00 20.00    -0.035 C 
HETATM    4  C3  UNL     1     -35.046   6.291   3.740  1.00 20.00     0.035 C 
ENDBRANCH   1   2
BRANCH   1   5
HETATM    5  C7  UNL     1     -31.866   8.406   1.463  1.00 20.00     0.007 C 
BRANCH   5   6
HETATM    6  C8  UNL     1     -32.730   9.328   0.580  1.00 20.00    -0.022 C 
HETATM    7  C4  UNL     1     -32.641  10.767   1.097  1.00 20.00     0.009 C 
HETATM    8  C5  UNL     1     -32.314   9.284  -0.891  1.00 20.00     0.009 C 
ENDBRANCH   5   6
ENDBRANCH   1   5
TORSDOF 3
ENDMDL
MODEL 8
REMARK VINA RESULT:      -1.9      1.593      4.927
REMARK  3 active torsions:
REMARK  status: ('A' for Active; 'I' for Inactive)
REMARK    1  A    between atoms: C2_2  and  C6_6 
REMARK    2  A    between atoms: C6_6  and  C7_7 
REMARK    3  A    between atoms: C7_7  and  C8_8 
ROOT
HETATM    1  C6  UNL     1     -34.943   6.602   3.149  1.00 20.00     0.027 C 
ENDROOT
BRANCH   1   2
HETATM    2  C2  UNL     1     -35.324   5.878   4.409  1.00 20.00    -0.031 C 
HETATM    3  C1  UNL     1     -34.852   4.669   4.744  1.00 20.00    -0.035 C 
HETATM    4  C3  UNL     1     -33.888   3.891   3.911  1.00 20.00     0.035 C 
ENDBRANCH   1   2
BRANCH   1   5
HETATM    5  C7  UNL     1     -33.508   7.142   3.178  1.00 20.00     0.007 C 
BRANCH   5   6
HETATM    6  C8  UNL     1     -32.779   7.158   1.820  1.00 20.00    -0.022 C 
HETATM    7  C4  UNL     1     -31.642   8.183   1.858  1.00 20.00     0.009 C 
HETATM    8  C5  UNL     1     -32.221   5.784   1.443  1.00 20.00     0.009 C 
ENDBRANCH   5   6
ENDBRANCH   1   5
TORSDOF 3
ENDMDL
MODEL 9
REMARK VINA RESULT:      -1.8      2.192      5.130
REMARK  3 active torsions:
REMARK  status: ('A' for Active; 'I' for Inactive)
REMARK    1  A    between atoms: C2_2  and  C6_6 
REMARK    2  A    between atoms: C6_6  and  C7_7 
REMARK    3  A    between atoms: C7_7  and  C8_8 
ROOT
HETATM    1  C6  UNL     1     -34.679   5.178   4.580  1.00 20.00     0.027 C 
ENDROOT
BRANCH   1   2
HETATM    2  C2  UNL     1     -34.121   4.049   3.763  1.00 20.00    -0.031 C 
HETATM    3  C1  UNL     1     -33.313   3.100   4.258  1.00 20.00    -0.035 C 
HETATM    4  C3  UNL     1     -32.868   3.045   5.682  1.00 20.00     0.035 C 
ENDBRANCH   1   2
BRANCH   1   5
HETATM    5  C7  UNL     1     -35.166   6.354   3.724  1.00 20.00     0.007 C 
BRANCH   5   6
HETATM    6  C8  UNL     1     -34.166   7.519   3.569  1.00 20.00    -0.022 C 
HETATM    7  C4  UNL     1     -33.580   7.879   4.937  1.00 20.00     0.009 C 
HETATM    8  C5  UNL     1     -33.033   7.188   2.596  1.00 20.00     0.009 C 
ENDBRANCH   5   6
ENDBRANCH   1   5
TORSDOF 3
ENDMDL
