MODEL 1
REMARK VINA RESULT:      -2.3      0.000      0.000
REMARK  3 active torsions:
REMARK  status: ('A' for Active; 'I' for Inactive)
REMARK    1  A    between atoms: C5_5  and  C7_7 
REMARK    2  A    between atoms: C5_5  and  N8_8 
REMARK    3  A    between atoms: C6_6  and  C7_7 
ROOT
HETATM    1  C1  UNL     1     -32.120   9.027   0.806  1.00 20.00     0.157 C 
HETATM    2  N8  UNL     1     -31.752   8.079   1.395  1.00 20.00    -0.275 NA
HETATM    3  S9  UNL     1     -32.597  10.307  -0.014  1.00 20.00    -0.055 SA
ENDROOT
BRANCH   2   4
HETATM    4  C5  UNL     1     -32.524   7.767   2.602  1.00 20.00     0.155 C 
BRANCH   4   5
HETATM    5  C7  UNL     1     -33.418   6.534   2.375  1.00 20.00     0.005 C 
HETATM    6  C4  UNL     1     -32.649   5.483   1.560  1.00 20.00     0.012 C 
BRANCH   5   7
HETATM    7  C6  UNL     1     -33.999   5.943   3.694  1.00 20.00    -0.017 C 
HETATM    8  C2  UNL     1     -35.449   6.388   3.932  1.00 20.00     0.010 C 
HETATM    9  C3  UNL     1     -33.950   4.410   3.711  1.00 20.00     0.010 C 
ENDBRANCH   5   7
ENDBRANCH   4   5
ENDBRANCH   2   4
TORSDOF 3
ENDMDL
MODEL 2
REMARK VINA RESULT:      -2.2      0.886      1.209
REMARK  3 active torsions:
REMARK  status: ('A' for Active; 'I' for Inactive)
REMARK    1  A    between atoms: C5_5  and  C7_7 
REMARK    2  A    between atoms: C5_5  and  N8_8 
REMARK    3  A    between atoms: C6_6  and  C7_7 
ROOT
HETATM    1  C1  UNL     1     -32.148   9.248   0.596  1.00 20.00     0.157 C 
HETATM    2  N8  UNL     1     -31.684   8.263   1.036  1.00 20.00    -0.275 NA
HETATM    3  S9  UNL     1     -32.764  10.579  -0.026  1.00 20.00    -0.055 SA
ENDROOT
BRANCH   2   4
HETATM    4  C5  UNL     1     -32.106   7.939   2.401  1.00 20.00     0.155 C 
BRANCH   4   5
HETATM    5  C7  UNL     1     -33.320   6.992   2.388  1.00 20.00     0.005 C 
HETATM    6  C4  UNL     1     -32.947   5.686   1.671  1.00 20.00     0.012 C 
BRANCH   5   7
HETATM    7  C6  UNL     1     -33.917   6.734   3.803  1.00 20.00    -0.017 C 
HETATM    8  C2  UNL     1     -33.795   7.965   4.711  1.00 20.00     0.010 C 
HETATM    9  C3  UNL     1     -35.392   6.318   3.741  1.00 20.00     0.010 C 
ENDBRANCH   5   7
ENDBRANCH   4   5
ENDBRANCH   2   4
TORSDOF 3
ENDMDL
MODEL 3
REMARK VINA RESULT:      -2.1      1.009      1.392
REMARK  3 active torsions:
REMARK  status: ('A' for Active; 'I' for Inactive)
REMARK    1  A    between atoms: C5_5  and  C7_7 
REMARK    2  A    between atoms: C5_5  and  N8_8 
REMARK    3  A    between atoms: C6_6  and  C7_7 
ROOT
HETATM    1  C1  UNL     1     -32.129   9.197   0.661  1.00 20.00     0.157 C 
HETATM    2  N8  UNL     1     -31.663   8.224   1.127  1.00 20.00    -0.275 NA
HETATM    3  S9  UNL     1     -32.744  10.511   0.004  1.00 20.00    -0.055 SA
ENDROOT
BRANCH   2   4
HETATM    4  C5  UNL     1     -32.137   7.900   2.475  1.00 20.00     0.155 C 
BRANCH   4   5
HETATM    5  C7  UNL     1     -33.463   7.117   2.416  1.00 20.00     0.005 C 
HETATM    6  C4  UNL     1     -33.171   5.626   2.192  1.00 20.00     0.012 C 
BRANCH   5   7
HETATM    7  C6  UNL     1     -34.377   7.358   3.653  1.00 20.00    -0.017 C 
HETATM    8  C2  UNL     1     -35.107   6.079   4.085  1.00 20.00     0.010 C 
HETATM    9  C3  UNL     1     -33.591   7.900   4.854  1.00 20.00     0.010 C 
ENDBRANCH   5   7
ENDBRANCH   4   5
ENDBRANCH   2   4
TORSDOF 3
ENDMDL
MODEL 4
REMARK VINA RESULT:      -2.0      0.880      1.816
REMARK  3 active torsions:
REMARK  status: ('A' for Active; 'I' for Inactive)
REMARK    1  A    between atoms: C5_5  and  C7_7 
REMARK    2  A    between atoms: C5_5  and  N8_8 
REMARK    3  A    between atoms: C6_6  and  C7_7 
ROOT
HETATM    1  C1  UNL     1     -32.177   8.698   1.083  1.00 20.00     0.157 C 
HETATM    2  N8  UNL     1     -31.939   7.794   1.794  1.00 20.00    -0.275 NA
HETATM    3  S9  UNL     1     -32.474   9.937   0.126  1.00 20.00    -0.055 SA
ENDROOT
BRANCH   2   4
HETATM    4  C5  UNL     1     -32.988   6.773   1.865  1.00 20.00     0.155 C 
BRANCH   4   5
HETATM    5  C7  UNL     1     -33.369   6.481   3.329  1.00 20.00     0.005 C 
HETATM    6  C4  UNL     1     -33.860   7.772   4.000  1.00 20.00     0.012 C 
BRANCH   5   7
HETATM    7  C6  UNL     1     -34.391   5.316   3.479  1.00 20.00    -0.017 C 
HETATM    8  C2  UNL     1     -33.745   4.059   4.077  1.00 20.00     0.010 C 
HETATM    9  C3  UNL     1     -35.591   5.709   4.350  1.00 20.00     0.010 C 
ENDBRANCH   5   7
ENDBRANCH   4   5
ENDBRANCH   2   4
TORSDOF 3
ENDMDL
MODEL 5
REMARK VINA RESULT:      -1.3      3.495      4.789
REMARK  3 active torsions:
REMARK  status: ('A' for Active; 'I' for Inactive)
REMARK    1  A    between atoms: C5_5  and  C7_7 
REMARK    2  A    between atoms: C5_5  and  N8_8 
REMARK    3  A    between atoms: C6_6  and  C7_7 
ROOT
HETATM    1  C1  UNL     1     -34.219   4.340   4.469  1.00 20.00     0.157 C 
HETATM    2  N8  UNL     1     -34.860   5.323   4.509  1.00 20.00    -0.275 NA
HETATM    3  S9  UNL     1     -33.354   3.002   4.445  1.00 20.00    -0.055 SA
ENDROOT
BRANCH   2   4
HETATM    4  C5  UNL     1     -34.968   6.040   3.235  1.00 20.00     0.155 C 
BRANCH   4   5
HETATM    5  C7  UNL     1     -34.005   7.241   3.200  1.00 20.00     0.005 C 
HETATM    6  C4  UNL     1     -33.802   7.780   4.624  1.00 20.00     0.012 C 
BRANCH   5   7
HETATM    7  C6  UNL     1     -32.653   6.927   2.493  1.00 20.00    -0.017 C 
HETATM    8  C2  UNL     1     -32.791   5.794   1.467  1.00 20.00     0.010 C 
HETATM    9  C3  UNL     1     -32.071   8.158   1.786  1.00 20.00     0.010 C 
ENDBRANCH   5   7
ENDBRANCH   4   5
ENDBRANCH   2   4
TORSDOF 3
ENDMDL
MODEL 6
REMARK VINA RESULT:      -1.0      0.953      1.561
REMARK  3 active torsions:
REMARK  status: ('A' for Active; 'I' for Inactive)
REMARK    1  A    between atoms: C5_5  and  C7_7 
REMARK    2  A    between atoms: C5_5  and  N8_8 
REMARK    3  A    between atoms: C6_6  and  C7_7 
ROOT
HETATM    1  C1  UNL     1     -32.245   8.776   1.139  1.00 20.00     0.157 C 
HETATM    2  N8  UNL     1     -32.053   7.953   1.955  1.00 20.00    -0.275 NA
HETATM    3  S9  UNL     1     -32.477   9.902   0.037  1.00 20.00    -0.055 SA
ENDROOT
BRANCH   2   4
HETATM    4  C5  UNL     1     -33.208   7.102   2.254  1.00 20.00     0.155 C 
BRANCH   4   5
HETATM    5  C7  UNL     1     -33.380   6.928   3.775  1.00 20.00     0.005 C 
HETATM    6  C4  UNL     1     -33.544   8.305   4.435  1.00 20.00     0.012 C 
BRANCH   5   7
HETATM    7  C6  UNL     1     -34.532   5.953   4.158  1.00 20.00    -0.017 C 
HETATM    8  C2  UNL     1     -35.851   6.323   3.466  1.00 20.00     0.010 C 
HETATM    9  C3  UNL     1     -34.193   4.496   3.814  1.00 20.00     0.010 C 
ENDBRANCH   5   7
ENDBRANCH   4   5
ENDBRANCH   2   4
TORSDOF 3
ENDMDL
MODEL 7
REMARK VINA RESULT:      -0.8      1.167      2.088
REMARK  3 active torsions:
REMARK  status: ('A' for Active; 'I' for Inactive)
REMARK    1  A    between atoms: C5_5  and  C7_7 
REMARK    2  A    between atoms: C5_5  and  N8_8 
REMARK    3  A    between atoms: C6_6  and  C7_7 
ROOT
HETATM    1  C1  UNL     1     -32.342   8.813   0.878  1.00 20.00     0.157 C 
HETATM    2  N8  UNL     1     -32.243   7.960   1.679  1.00 20.00    -0.275 NA
HETATM    3  S9  UNL     1     -32.475   9.950  -0.230  1.00 20.00    -0.055 SA
ENDROOT
BRANCH   2   4
HETATM    4  C5  UNL     1     -32.242   8.418   3.070  1.00 20.00     0.155 C 
BRANCH   4   5
HETATM    5  C7  UNL     1     -33.001   7.428   3.973  1.00 20.00     0.005 C 
HETATM    6  C4  UNL     1     -33.712   8.196   5.097  1.00 20.00     0.012 C 
BRANCH   5   7
HETATM    7  C6  UNL     1     -33.976   6.501   3.188  1.00 20.00    -0.017 C 
HETATM    8  C2  UNL     1     -33.482   5.049   3.148  1.00 20.00     0.010 C 
HETATM    9  C3  UNL     1     -35.391   6.518   3.780  1.00 20.00     0.010 C 
ENDBRANCH   5   7
ENDBRANCH   4   5
ENDBRANCH   2   4
TORSDOF 3
ENDMDL
MODEL 8
REMARK VINA RESULT:      -0.2      2.455      4.461
REMARK  3 active torsions:
REMARK  status: ('A' for Active; 'I' for Inactive)
REMARK    1  A    between atoms: C5_5  and  C7_7 
REMARK    2  A    between atoms: C5_5  and  N8_8 
REMARK    3  A    between atoms: C6_6  and  C7_7 
ROOT
HETATM    1  C1  UNL     1     -33.770   6.127   2.716  1.00 20.00     0.157 C 
HETATM    2  N8  UNL     1     -33.104   5.809   1.802  1.00 20.00    -0.275 NA
HETATM    3  S9  UNL     1     -34.691   6.534   3.950  1.00 20.00    -0.055 SA
ENDROOT
BRANCH   2   4
HETATM    4  C5  UNL     1     -31.958   6.685   1.541  1.00 20.00     0.155 C 
BRANCH   4   5
HETATM    5  C7  UNL     1     -32.334   8.161   1.769  1.00 20.00     0.005 C 
HETATM    6  C4  UNL     1     -31.400   8.774   2.822  1.00 20.00     0.012 C 
BRANCH   5   7
HETATM    7  C6  UNL     1     -32.368   8.998   0.456  1.00 20.00    -0.017 C 
HETATM    8  C2  UNL     1     -32.715  10.469   0.721  1.00 20.00     0.010 C 
HETATM    9  C3  UNL     1     -31.034   8.940  -0.300  1.00 20.00     0.010 C 
ENDBRANCH   5   7
ENDBRANCH   4   5
ENDBRANCH   2   4
TORSDOF 3
ENDMDL
MODEL 9
REMARK VINA RESULT:      -0.1      2.459      4.535
REMARK  3 active torsions:
REMARK  status: ('A' for Active; 'I' for Inactive)
REMARK    1  A    between atoms: C5_5  and  C7_7 
REMARK    2  A    between atoms: C5_5  and  N8_8 
REMARK    3  A    between atoms: C6_6  and  C7_7 
ROOT
HETATM    1  C1  UNL     1     -33.683   6.251   2.583  1.00 20.00     0.157 C 
HETATM    2  N8  UNL     1     -33.022   6.035   1.636  1.00 20.00    -0.275 NA
HETATM    3  S9  UNL     1     -34.597   6.520   3.860  1.00 20.00    -0.055 SA
ENDROOT
BRANCH   2   4
HETATM    4  C5  UNL     1     -31.884   6.941   1.460  1.00 20.00     0.155 C 
BRANCH   4   5
HETATM    5  C7  UNL     1     -32.275   8.387   1.820  1.00 20.00     0.005 C 
HETATM    6  C4  UNL     1     -31.559   8.808   3.112  1.00 20.00     0.012 C 
BRANCH   5   7
HETATM    7  C6  UNL     1     -32.035   9.397   0.659  1.00 20.00    -0.017 C 
HETATM    8  C2  UNL     1     -32.474   8.829  -0.697  1.00 20.00     0.010 C 
HETATM    9  C3  UNL     1     -32.766  10.726   0.891  1.00 20.00     0.010 C 
ENDBRANCH   5   7
ENDBRANCH   4   5
ENDBRANCH   2   4
TORSDOF 3
ENDMDL
