MODEL 1
REMARK VINA RESULT:       0.9      0.000      0.000
REMARK  1 active torsions:
REMARK  status: ('A' for Active; 'I' for Inactive)
REMARK       I    between atoms: C1_1  and  N8_8 
REMARK    1  A    between atoms: C5_5  and  N8_8 
ROOT
HETATM    1  C2  UNL     1     -31.638   7.699   0.798  1.00 20.00     0.036 C 
HETATM    2  C3  UNL     1     -31.070   8.966   0.178  1.00 20.00     0.076 C 
HETATM    3  C4  UNL     1     -33.358   9.251   1.563  1.00 20.00     0.099 C 
HETATM    4  C5  UNL     1     -32.424   8.142   2.027  1.00 20.00     0.096 C 
HETATM    5  S10 UNL     1     -32.373  10.215   0.378  1.00 20.00    -0.167 SA
ENDROOT
BRANCH   4   6
HETATM    6  N8  UNL     1     -33.143   7.051   2.628  1.00 20.00    -0.351 N 
HETATM    7  C1  UNL     1     -33.922   7.219   3.785  1.00 20.00     0.215 C 
HETATM    8  C6  UNL     1     -35.120   6.318   3.949  1.00 20.00     0.117 C 
HETATM    9  O9  UNL     1     -33.672   8.055   4.657  1.00 20.00    -0.274 OA
HETATM   10  C7  UNL     1     -33.013   5.750   1.958  1.00 20.00     0.153 C 
ENDBRANCH   4   6
TORSDOF 1
ENDMDL
MODEL 2
REMARK VINA RESULT:       1.6      2.858      4.158
REMARK  1 active torsions:
REMARK  status: ('A' for Active; 'I' for Inactive)
REMARK       I    between atoms: C1_1  and  N8_8 
REMARK    1  A    between atoms: C5_5  and  N8_8 
ROOT
HETATM    1  C2  UNL     1     -32.057   6.157   1.402  1.00 20.00     0.036 C 
HETATM    2  C3  UNL     1     -32.901   4.946   1.769  1.00 20.00     0.076 C 
HETATM    3  C4  UNL     1     -33.526   7.243   3.019  1.00 20.00     0.099 C 
HETATM    4  C5  UNL     1     -32.947   7.376   1.617  1.00 20.00     0.096 C 
HETATM    5  S10 UNL     1     -33.883   5.471   3.202  1.00 20.00    -0.167 SA
ENDROOT
BRANCH   4   6
HETATM    6  N8  UNL     1     -32.222   8.607   1.449  1.00 20.00    -0.351 N 
HETATM    7  C1  UNL     1     -32.494   9.493   0.394  1.00 20.00     0.215 C 
HETATM    8  C6  UNL     1     -32.248  10.960   0.642  1.00 20.00     0.117 C 
HETATM    9  O9  UNL     1     -32.918   9.131  -0.707  1.00 20.00    -0.274 OA
HETATM   10  C7  UNL     1     -31.181   8.881   2.447  1.00 20.00     0.153 C 
ENDBRANCH   4   6
TORSDOF 1
ENDMDL
MODEL 3
REMARK VINA RESULT:       1.9      3.011      4.536
REMARK  1 active torsions:
REMARK  status: ('A' for Active; 'I' for Inactive)
REMARK       I    between atoms: C1_1  and  N8_8 
REMARK    1  A    between atoms: C5_5  and  N8_8 
ROOT
HETATM    1  C2  UNL     1     -33.069   5.066   3.615  1.00 20.00     0.036 C 
HETATM    2  C3  UNL     1     -34.121   4.034   3.992  1.00 20.00     0.076 C 
HETATM    3  C4  UNL     1     -34.899   6.606   4.093  1.00 20.00     0.099 C 
HETATM    4  C5  UNL     1     -33.830   6.267   3.064  1.00 20.00     0.096 C 
HETATM    5  S10 UNL     1     -35.499   4.994   4.680  1.00 20.00    -0.167 SA
ENDROOT
BRANCH   4   6
HETATM    6  N8  UNL     1     -32.959   7.382   2.806  1.00 20.00    -0.351 N 
HETATM    7  C1  UNL     1     -32.192   7.472   1.633  1.00 20.00     0.215 C 
HETATM    8  C6  UNL     1     -31.884   8.854   1.112  1.00 20.00     0.117 C 
HETATM    9  O9  UNL     1     -31.767   6.490   1.020  1.00 20.00    -0.274 OA
HETATM   10  C7  UNL     1     -32.919   8.420   3.844  1.00 20.00     0.153 C 
ENDBRANCH   4   6
TORSDOF 1
ENDMDL
MODEL 4
REMARK VINA RESULT:       1.9      2.185      2.758
REMARK  1 active torsions:
REMARK  status: ('A' for Active; 'I' for Inactive)
REMARK       I    between atoms: C1_1  and  N8_8 
REMARK    1  A    between atoms: C5_5  and  N8_8 
ROOT
HETATM    1  C2  UNL     1     -33.077   5.781   1.607  1.00 20.00     0.036 C 
HETATM    2  C3  UNL     1     -31.816   6.419   1.047  1.00 20.00     0.076 C 
HETATM    3  C4  UNL     1     -33.099   7.815   2.954  1.00 20.00     0.099 C 
HETATM    4  C5  UNL     1     -33.219   6.299   3.034  1.00 20.00     0.096 C 
HETATM    5  S10 UNL     1     -31.806   8.109   1.712  1.00 20.00    -0.167 SA
ENDROOT
BRANCH   4   6
HETATM    6  N8  UNL     1     -34.460   5.888   3.634  1.00 20.00    -0.351 N 
HETATM    7  C1  UNL     1     -34.581   4.681   4.341  1.00 20.00     0.215 C 
HETATM    8  C6  UNL     1     -35.590   4.633   5.461  1.00 20.00     0.117 C 
HETATM    9  O9  UNL     1     -33.912   3.675   4.090  1.00 20.00    -0.274 OA
HETATM   10  C7  UNL     1     -35.592   6.808   3.462  1.00 20.00     0.153 C 
ENDBRANCH   4   6
TORSDOF 1
ENDMDL
MODEL 5
REMARK VINA RESULT:       2.1      2.689      4.416
REMARK  1 active torsions:
REMARK  status: ('A' for Active; 'I' for Inactive)
REMARK       I    between atoms: C1_1  and  N8_8 
REMARK    1  A    between atoms: C5_5  and  N8_8 
ROOT
HETATM    1  C2  UNL     1     -34.837   6.650   3.202  1.00 20.00     0.036 C 
HETATM    2  C3  UNL     1     -35.367   6.002   4.471  1.00 20.00     0.076 C 
HETATM    3  C4  UNL     1     -33.308   4.751   3.276  1.00 20.00     0.099 C 
HETATM    4  C5  UNL     1     -33.365   6.263   3.109  1.00 20.00     0.096 C 
HETATM    5  S10 UNL     1     -34.549   4.383   4.551  1.00 20.00    -0.167 SA
ENDROOT
BRANCH   4   6
HETATM    6  N8  UNL     1     -32.775   6.689   1.868  1.00 20.00    -0.351 N 
HETATM    7  C1  UNL     1     -32.243   7.979   1.701  1.00 20.00     0.215 C 
HETATM    8  C6  UNL     1     -31.097   8.134   0.734  1.00 20.00     0.117 C 
HETATM    9  O9  UNL     1     -32.664   8.971   2.300  1.00 20.00    -0.274 OA
HETATM   10  C7  UNL     1     -32.763   5.696   0.787  1.00 20.00     0.153 C 
ENDBRANCH   4   6
TORSDOF 1
ENDMDL
MODEL 6
REMARK VINA RESULT:       2.4      2.268      3.090
REMARK  1 active torsions:
REMARK  status: ('A' for Active; 'I' for Inactive)
REMARK       I    between atoms: C1_1  and  N8_8 
REMARK    1  A    between atoms: C5_5  and  N8_8 
ROOT
HETATM    1  C2  UNL     1     -33.011   7.722   3.796  1.00 20.00     0.036 C 
HETATM    2  C3  UNL     1     -32.393   8.774   2.889  1.00 20.00     0.076 C 
HETATM    3  C4  UNL     1     -32.807   6.358   1.784  1.00 20.00     0.099 C 
HETATM    4  C5  UNL     1     -33.776   6.769   2.884  1.00 20.00     0.096 C 
HETATM    5  S10 UNL     1     -31.877   7.871   1.401  1.00 20.00    -0.167 SA
ENDROOT
BRANCH   4   6
HETATM    6  N8  UNL     1     -34.289   5.633   3.601  1.00 20.00    -0.351 N 
HETATM    7  C1  UNL     1     -33.613   4.402   3.626  1.00 20.00     0.215 C 
HETATM    8  C6  UNL     1     -33.783   3.544   4.855  1.00 20.00     0.117 C 
HETATM    9  O9  UNL     1     -32.901   3.998   2.703  1.00 20.00    -0.274 OA
HETATM   10  C7  UNL     1     -35.560   5.838   4.305  1.00 20.00     0.153 C 
ENDBRANCH   4   6
TORSDOF 1
ENDMDL
MODEL 7
REMARK VINA RESULT:       2.5      2.781      4.489
REMARK  1 active torsions:
REMARK  status: ('A' for Active; 'I' for Inactive)
REMARK       I    between atoms: C1_1  and  N8_8 
REMARK    1  A    between atoms: C5_5  and  N8_8 
ROOT
HETATM    1  C2  UNL     1     -34.777   7.118   3.551  1.00 20.00     0.036 C 
HETATM    2  C3  UNL     1     -35.477   5.977   4.272  1.00 20.00     0.076 C 
HETATM    3  C4  UNL     1     -33.013   5.448   3.334  1.00 20.00     0.099 C 
HETATM    4  C5  UNL     1     -33.282   6.890   3.743  1.00 20.00     0.096 C 
HETATM    5  S10 UNL     1     -34.441   4.518   3.964  1.00 20.00    -0.167 SA
ENDROOT
BRANCH   4   6
HETATM    6  N8  UNL     1     -32.494   7.821   2.980  1.00 20.00    -0.351 N 
HETATM    7  C1  UNL     1     -32.349   7.707   1.587  1.00 20.00     0.215 C 
HETATM    8  C6  UNL     1     -32.143   8.981   0.807  1.00 20.00     0.117 C 
HETATM    9  O9  UNL     1     -32.381   6.630   0.986  1.00 20.00    -0.274 OA
HETATM   10  C7  UNL     1     -31.851   8.896   3.745  1.00 20.00     0.153 C 
ENDBRANCH   4   6
TORSDOF 1
ENDMDL
MODEL 8
REMARK VINA RESULT:       2.6      1.503      1.898
REMARK  1 active torsions:
REMARK  status: ('A' for Active; 'I' for Inactive)
REMARK       I    between atoms: C1_1  and  N8_8 
REMARK    1  A    between atoms: C5_5  and  N8_8 
ROOT
HETATM    1  C2  UNL     1     -31.749   7.579   1.064  1.00 20.00     0.036 C 
HETATM    2  C3  UNL     1     -31.110   8.743   0.324  1.00 20.00     0.076 C 
HETATM    3  C4  UNL     1     -33.379   9.294   1.658  1.00 20.00     0.099 C 
HETATM    4  C5  UNL     1     -32.510   8.187   2.237  1.00 20.00     0.096 C 
HETATM    5  S10 UNL     1     -32.340  10.077   0.388  1.00 20.00    -0.167 SA
ENDROOT
BRANCH   4   6
HETATM    6  N8  UNL     1     -33.290   7.204   2.940  1.00 20.00    -0.351 N 
HETATM    7  C1  UNL     1     -33.362   5.868   2.513  1.00 20.00     0.215 C 
HETATM    8  C6  UNL     1     -33.571   4.814   3.571  1.00 20.00     0.117 C 
HETATM    9  O9  UNL     1     -33.264   5.524   1.332  1.00 20.00    -0.274 OA
HETATM   10  C7  UNL     1     -34.006   7.681   4.129  1.00 20.00     0.153 C 
ENDBRANCH   4   6
TORSDOF 1
ENDMDL
MODEL 9
REMARK VINA RESULT:       2.6      2.520      4.091
REMARK  1 active torsions:
REMARK  status: ('A' for Active; 'I' for Inactive)
REMARK       I    between atoms: C1_1  and  N8_8 
REMARK    1  A    between atoms: C5_5  and  N8_8 
ROOT
HETATM    1  C2  UNL     1     -33.940   6.621   2.978  1.00 20.00     0.036 C 
HETATM    2  C3  UNL     1     -34.670   6.867   4.289  1.00 20.00     0.076 C 
HETATM    3  C4  UNL     1     -32.494   8.384   3.847  1.00 20.00     0.099 C 
HETATM    4  C5  UNL     1     -33.267   7.940   2.612  1.00 20.00     0.096 C 
HETATM    5  S10 UNL     1     -33.574   7.955   5.244  1.00 20.00    -0.167 SA
ENDROOT
BRANCH   4   6
HETATM    6  N8  UNL     1     -32.413   7.806   1.463  1.00 20.00    -0.351 N 
HETATM    7  C1  UNL     1     -32.074   8.905   0.656  1.00 20.00     0.215 C 
HETATM    8  C6  UNL     1     -30.733   8.869  -0.034  1.00 20.00     0.117 C 
HETATM    9  O9  UNL     1     -32.810   9.881   0.491  1.00 20.00    -0.274 OA
HETATM   10  C7  UNL     1     -31.919   6.453   1.182  1.00 20.00     0.153 C 
ENDBRANCH   4   6
TORSDOF 1
ENDMDL
