MODEL 1
REMARK VINA RESULT:      -0.1      0.000      0.000
REMARK  1 active torsions:
REMARK  status: ('A' for Active; 'I' for Inactive)
REMARK    1  A    between atoms: C8_8  and  C9_9 
ROOT
HETATM    1  C1  UNL     1     -32.303   9.350   0.729  1.00 20.00     0.085 C 
HETATM    2  C2  UNL     1     -32.027   5.632   1.655  1.00 20.00     0.003 C 
HETATM    3  C3  UNL     1     -33.291   5.556   2.506  1.00 20.00     0.005 C 
HETATM    4  C6  UNL     1     -31.997   6.901   0.803  1.00 20.00     0.041 C 
HETATM    5  C7  UNL     1     -33.440   8.081   2.519  1.00 20.00     0.046 C 
HETATM    6  C9  UNL     1     -33.472   6.805   3.378  1.00 20.00    -0.008 C 
HETATM    7  C10 UNL     1     -32.192   8.185   1.624  1.00 20.00     0.125 C 
HETATM    8  N11 UNL     1     -32.390  10.268   0.024  1.00 20.00    -0.195 NA
HETATM    9 CL12 UNL     1     -30.739   8.487   2.641  1.00 20.00    -0.103 Cl
ENDROOT
BRANCH   6  10
HETATM   10  C8  UNL     1     -34.754   6.724   4.168  1.00 20.00    -0.010 A 
HETATM   11  C4  UNL     1     -36.038   6.338   3.488  1.00 20.00     0.005 A 
HETATM   12  C5  UNL     1     -35.385   5.390   4.452  1.00 20.00     0.005 A 
ENDBRANCH   6  10
TORSDOF 1
ENDMDL
MODEL 2
REMARK VINA RESULT:       0.4      2.453      3.492
REMARK  1 active torsions:
REMARK  status: ('A' for Active; 'I' for Inactive)
REMARK    1  A    between atoms: C8_8  and  C9_9 
ROOT
HETATM    1  C1  UNL     1     -32.215   7.296   2.073  1.00 20.00     0.085 C 
HETATM    2  C2  UNL     1     -35.686   6.545   3.538  1.00 20.00     0.003 C 
HETATM    3  C3  UNL     1     -35.250   5.443   4.499  1.00 20.00     0.005 C 
HETATM    4  C6  UNL     1     -34.493   7.351   3.025  1.00 20.00     0.041 C 
HETATM    5  C7  UNL     1     -32.994   5.335   3.359  1.00 20.00     0.046 C 
HETATM    6  C9  UNL     1     -34.194   4.521   3.875  1.00 20.00    -0.008 C 
HETATM    7  C10 UNL     1     -33.392   6.475   2.406  1.00 20.00     0.125 C 
HETATM    8  N11 UNL     1     -31.288   7.942   1.810  1.00 20.00    -0.195 NA
HETATM    9 CL12 UNL     1     -33.966   5.788   0.844  1.00 20.00    -0.103 Cl
ENDROOT
BRANCH   6  10
HETATM   10  C8  UNL     1     -33.745   3.476   4.865  1.00 20.00    -0.010 A 
HETATM   11  C4  UNL     1     -33.299   2.122   4.385  1.00 20.00     0.005 A 
HETATM   12  C5  UNL     1     -32.295   3.088   4.949  1.00 20.00     0.005 A 
ENDBRANCH   6  10
TORSDOF 1
ENDMDL
MODEL 3
REMARK VINA RESULT:       2.0      2.470      4.376
REMARK  1 active torsions:
REMARK  status: ('A' for Active; 'I' for Inactive)
REMARK    1  A    between atoms: C8_8  and  C9_9 
ROOT
HETATM    1  C1  UNL     1     -33.390   4.735   0.347  1.00 20.00     0.085 C 
HETATM    2  C2  UNL     1     -33.298   6.997   3.450  1.00 20.00     0.003 C 
HETATM    3  C3  UNL     1     -33.010   8.305   2.720  1.00 20.00     0.005 C 
HETATM    4  C6  UNL     1     -33.767   5.906   2.488  1.00 20.00     0.041 C 
HETATM    5  C7  UNL     1     -32.479   7.016   0.609  1.00 20.00     0.046 C 
HETATM    6  C9  UNL     1     -32.005   8.115   1.577  1.00 20.00    -0.008 C 
HETATM    7  C10 UNL     1     -32.806   5.685   1.309  1.00 20.00     0.125 C 
HETATM    8  N11 UNL     1     -33.849   3.985  -0.410  1.00 20.00    -0.195 NA
HETATM    9 CL12 UNL     1     -31.288   4.917   1.895  1.00 20.00    -0.103 Cl
ENDROOT
BRANCH   6  10
HETATM   10  C8  UNL     1     -31.780   9.413   0.842  1.00 20.00    -0.010 A 
HETATM   11  C4  UNL     1     -32.602   9.747  -0.372  1.00 20.00     0.005 A 
HETATM   12  C5  UNL     1     -32.809  10.507   0.907  1.00 20.00     0.005 A 
ENDBRANCH   6  10
TORSDOF 1
ENDMDL
MODEL 4
REMARK VINA RESULT:       2.1      2.660      4.408
REMARK  1 active torsions:
REMARK  status: ('A' for Active; 'I' for Inactive)
REMARK    1  A    between atoms: C8_8  and  C9_9 
ROOT
HETATM    1  C1  UNL     1     -33.529   7.779   4.908  1.00 20.00     0.085 C 
HETATM    2  C2  UNL     1     -32.857   5.594   1.822  1.00 20.00     0.003 C 
HETATM    3  C3  UNL     1     -32.140   6.656   0.993  1.00 20.00     0.005 C 
HETATM    4  C6  UNL     1     -32.962   6.002   3.291  1.00 20.00     0.041 C 
HETATM    5  C7  UNL     1     -32.903   8.443   2.613  1.00 20.00     0.046 C 
HETATM    6  C9  UNL     1     -32.798   8.034   1.132  1.00 20.00    -0.008 C 
HETATM    7  C10 UNL     1     -33.598   7.387   3.490  1.00 20.00     0.125 C 
HETATM    8  N11 UNL     1     -33.477   8.087   6.026  1.00 20.00    -0.195 NA
HETATM    9 CL12 UNL     1     -35.350   7.317   3.086  1.00 20.00    -0.103 Cl
ENDROOT
BRANCH   6  10
HETATM   10  C8  UNL     1     -32.038   9.072   0.345  1.00 20.00    -0.010 A 
HETATM   11  C4  UNL     1     -32.715   9.822  -0.769  1.00 20.00     0.005 A 
HETATM   12  C5  UNL     1     -32.361  10.531   0.508  1.00 20.00     0.005 A 
ENDBRANCH   6  10
TORSDOF 1
ENDMDL
MODEL 5
REMARK VINA RESULT:       2.3      2.459      3.110
REMARK  1 active torsions:
REMARK  status: ('A' for Active; 'I' for Inactive)
REMARK    1  A    between atoms: C8_8  and  C9_9 
ROOT
HETATM    1  C1  UNL     1     -31.728   4.760   0.476  1.00 20.00     0.085 C 
HETATM    2  C2  UNL     1     -32.394   8.244   1.949  1.00 20.00     0.003 C 
HETATM    3  C3  UNL     1     -33.017   7.778   3.261  1.00 20.00     0.005 C 
HETATM    4  C6  UNL     1     -31.660   7.108   1.238  1.00 20.00     0.041 C 
HETATM    5  C7  UNL     1     -33.202   5.428   2.343  1.00 20.00     0.046 C 
HETATM    6  C9  UNL     1     -33.943   6.572   3.060  1.00 20.00    -0.008 C 
HETATM    7  C10 UNL     1     -32.536   5.862   1.026  1.00 20.00     0.125 C 
HETATM    8  N11 UNL     1     -31.093   3.892   0.042  1.00 20.00    -0.195 NA
HETATM    9 CL12 UNL     1     -33.798   6.207  -0.209  1.00 20.00    -0.103 Cl
ENDROOT
BRANCH   6  10
HETATM   10  C8  UNL     1     -34.502   6.101   4.379  1.00 20.00    -0.010 A 
HETATM   11  C4  UNL     1     -35.881   5.506   4.446  1.00 20.00     0.005 A 
HETATM   12  C5  UNL     1     -34.676   4.632   4.646  1.00 20.00     0.005 A 
ENDBRANCH   6  10
TORSDOF 1
ENDMDL
