MODEL 1
REMARK VINA RESULT:      -0.6      0.000      0.000
REMARK  1 active torsions:
REMARK  status: ('A' for Active; 'I' for Inactive)
REMARK    1  A    between atoms: C8_8  and  C9_9 
ROOT
HETATM    1  C1  UNL     1     -33.975   7.278   3.344  1.00 20.00     0.004 C 
HETATM    2  C2  UNL     1     -32.821   8.283   3.355  1.00 20.00     0.005 C 
HETATM    3  C5  UNL     1     -33.500   5.883   2.947  1.00 20.00     0.040 C 
HETATM    4  C6  UNL     1     -31.613   6.927   1.577  1.00 20.00     0.045 C 
HETATM    5  C7  UNL     1     -32.690   4.699   0.781  1.00 20.00     0.207 A 
HETATM    6  C9  UNL     1     -32.052   8.331   2.023  1.00 20.00    -0.008 C 
HETATM    7  C10 UNL     1     -32.731   5.926   1.660  1.00 20.00     0.083 A 
HETATM    8  O11 UNL     1     -33.534   5.820   0.478  1.00 20.00    -0.375 OA
ENDROOT
BRANCH   6   9
HETATM    9  C8  UNL     1     -32.838   9.043   0.948  1.00 20.00    -0.010 A 
HETATM   10  C3  UNL     1     -32.654  10.519   0.727  1.00 20.00     0.005 A 
HETATM   11  C4  UNL     1     -32.147   9.537  -0.292  1.00 20.00     0.005 A 
ENDBRANCH   6   9
TORSDOF 1
ENDMDL
MODEL 2
REMARK VINA RESULT:       0.8      1.516      2.254
REMARK  1 active torsions:
REMARK  status: ('A' for Active; 'I' for Inactive)
REMARK    1  A    between atoms: C8_8  and  C9_9 
ROOT
HETATM    1  C1  UNL     1     -32.015   8.901   3.936  1.00 20.00     0.004 C 
HETATM    2  C2  UNL     1     -31.223   8.458   2.702  1.00 20.00     0.005 C 
HETATM    3  C5  UNL     1     -32.839   7.754   4.513  1.00 20.00     0.040 C 
HETATM    4  C6  UNL     1     -32.989   6.704   2.189  1.00 20.00     0.045 C 
HETATM    5  C7  UNL     1     -34.971   6.426   3.849  1.00 20.00     0.207 A 
HETATM    6  C9  UNL     1     -32.109   7.826   1.615  1.00 20.00    -0.008 C 
HETATM    7  C10 UNL     1     -33.688   7.119   3.453  1.00 20.00     0.083 A 
HETATM    8  O11 UNL     1     -34.967   7.736   3.260  1.00 20.00    -0.375 OA
ENDROOT
BRANCH   6   9
HETATM    9  C8  UNL     1     -32.926   8.864   0.883  1.00 20.00    -0.010 A 
HETATM   10  C3  UNL     1     -32.427  10.278   0.769  1.00 20.00     0.005 A 
HETATM   11  C4  UNL     1     -32.461   9.393  -0.446  1.00 20.00     0.005 A 
ENDBRANCH   6   9
TORSDOF 1
ENDMDL
MODEL 3
REMARK VINA RESULT:       1.1      1.886      4.403
REMARK  1 active torsions:
REMARK  status: ('A' for Active; 'I' for Inactive)
REMARK    1  A    between atoms: C8_8  and  C9_9 
ROOT
HETATM    1  C1  UNL     1     -34.125   7.541   4.390  1.00 20.00     0.004 C 
HETATM    2  C2  UNL     1     -34.991   6.341   3.997  1.00 20.00     0.005 C 
HETATM    3  C5  UNL     1     -33.566   8.254   3.161  1.00 20.00     0.040 C 
HETATM    4  C6  UNL     1     -33.641   6.055   1.863  1.00 20.00     0.045 C 
HETATM    5  C7  UNL     1     -31.768   7.783   1.347  1.00 20.00     0.207 A 
HETATM    6  C9  UNL     1     -34.259   5.347   3.079  1.00 20.00    -0.008 C 
HETATM    7  C10 UNL     1     -32.871   7.287   2.251  1.00 20.00     0.083 A 
HETATM    8  O11 UNL     1     -31.489   7.062   2.557  1.00 20.00    -0.375 OA
ENDROOT
BRANCH   6   9
HETATM    9  C8  UNL     1     -33.237   4.532   3.836  1.00 20.00    -0.010 A 
HETATM   10  C3  UNL     1     -33.634   3.785   5.079  1.00 20.00     0.005 A 
HETATM   11  C4  UNL     1     -33.306   3.030   3.820  1.00 20.00     0.005 A 
ENDBRANCH   6   9
TORSDOF 1
ENDMDL
MODEL 4
REMARK VINA RESULT:       1.6      1.744      3.860
REMARK  1 active torsions:
REMARK  status: ('A' for Active; 'I' for Inactive)
REMARK    1  A    between atoms: C8_8  and  C9_9 
ROOT
HETATM    1  C1  UNL     1     -32.320   8.109   3.150  1.00 20.00     0.004 C 
HETATM    2  C2  UNL     1     -33.841   8.032   3.311  1.00 20.00     0.005 C 
HETATM    3  C5  UNL     1     -31.876   7.601   1.781  1.00 20.00     0.040 C 
HETATM    4  C6  UNL     1     -33.921   6.073   1.694  1.00 20.00     0.045 C 
HETATM    5  C7  UNL     1     -31.705   5.309   0.570  1.00 20.00     0.207 A 
HETATM    6  C9  UNL     1     -34.404   6.625   3.045  1.00 20.00    -0.008 C 
HETATM    7  C10 UNL     1     -32.439   6.239   1.507  1.00 20.00     0.083 A 
HETATM    8  O11 UNL     1     -31.645   5.151   1.996  1.00 20.00    -0.375 OA
ENDROOT
BRANCH   6   9
HETATM    9  C8  UNL     1     -34.103   5.677   4.182  1.00 20.00    -0.010 A 
HETATM   10  C3  UNL     1     -35.194   4.823   4.766  1.00 20.00     0.005 A 
HETATM   11  C4  UNL     1     -34.102   4.192   3.947  1.00 20.00     0.005 A 
ENDBRANCH   6   9
TORSDOF 1
ENDMDL
MODEL 5
REMARK VINA RESULT:       1.8      1.892      2.958
REMARK  1 active torsions:
REMARK  status: ('A' for Active; 'I' for Inactive)
REMARK    1  A    between atoms: C8_8  and  C9_9 
ROOT
HETATM    1  C1  UNL     1     -35.806   6.446   3.676  1.00 20.00     0.004 C 
HETATM    2  C2  UNL     1     -34.786   7.573   3.858  1.00 20.00     0.005 C 
HETATM    3  C5  UNL     1     -35.430   5.214   4.493  1.00 20.00     0.040 C 
HETATM    4  C6  UNL     1     -32.965   5.862   4.320  1.00 20.00     0.045 C 
HETATM    5  C7  UNL     1     -33.625   3.349   4.395  1.00 20.00     0.207 A 
HETATM    6  C9  UNL     1     -33.344   7.136   3.547  1.00 20.00    -0.008 C 
HETATM    7  C10 UNL     1     -34.018   4.795   4.212  1.00 20.00     0.083 A 
HETATM    8  O11 UNL     1     -33.866   3.909   3.096  1.00 20.00    -0.375 OA
ENDROOT
BRANCH   6   9
HETATM    9  C8  UNL     1     -33.112   6.984   2.063  1.00 20.00    -0.010 A 
HETATM   10  C3  UNL     1     -31.957   7.685   1.401  1.00 20.00     0.005 A 
HETATM   11  C4  UNL     1     -31.940   6.189   1.558  1.00 20.00     0.005 A 
ENDBRANCH   6   9
TORSDOF 1
ENDMDL
MODEL 6
REMARK VINA RESULT:       2.0      1.594      3.893
REMARK  1 active torsions:
REMARK  status: ('A' for Active; 'I' for Inactive)
REMARK    1  A    between atoms: C8_8  and  C9_9 
ROOT
HETATM    1  C1  UNL     1     -33.273   6.611   0.421  1.00 20.00     0.004 C 
HETATM    2  C2  UNL     1     -32.720   6.117   1.760  1.00 20.00     0.005 C 
HETATM    3  C5  UNL     1     -32.451   7.772  -0.130  1.00 20.00     0.040 C 
HETATM    4  C6  UNL     1     -31.815   8.440   2.252  1.00 20.00     0.045 C 
HETATM    5  C7  UNL     1     -32.092  10.281   0.438  1.00 20.00     0.207 A 
HETATM    6  C9  UNL     1     -32.593   7.236   2.808  1.00 20.00    -0.008 C 
HETATM    7  C10 UNL     1     -32.305   8.857   0.894  1.00 20.00     0.083 A 
HETATM    8  O11 UNL     1     -33.368   9.818   0.906  1.00 20.00    -0.375 OA
ENDROOT
BRANCH   6   9
HETATM    9  C8  UNL     1     -33.938   7.642   3.361  1.00 20.00    -0.010 A 
HETATM   10  C3  UNL     1     -34.861   6.607   3.943  1.00 20.00     0.005 A 
HETATM   11  C4  UNL     1     -34.188   7.606   4.843  1.00 20.00     0.005 A 
ENDBRANCH   6   9
TORSDOF 1
ENDMDL
MODEL 7
REMARK VINA RESULT:       2.2      1.674      2.951
REMARK  1 active torsions:
REMARK  status: ('A' for Active; 'I' for Inactive)
REMARK    1  A    between atoms: C8_8  and  C9_9 
ROOT
HETATM    1  C1  UNL     1     -32.264   4.575   2.923  1.00 20.00     0.004 C 
HETATM    2  C2  UNL     1     -32.223   4.994   1.451  1.00 20.00     0.005 C 
HETATM    3  C5  UNL     1     -33.677   4.663   3.492  1.00 20.00     0.040 C 
HETATM    4  C6  UNL     1     -34.222   6.519   1.823  1.00 20.00     0.045 C 
HETATM    5  C7  UNL     1     -35.335   6.543   4.172  1.00 20.00     0.207 A 
HETATM    6  C9  UNL     1     -32.819   6.391   1.208  1.00 20.00    -0.008 C 
HETATM    7  C10 UNL     1     -34.272   6.016   3.238  1.00 20.00     0.083 A 
HETATM    8  O11 UNL     1     -33.975   6.999   4.238  1.00 20.00    -0.375 OA
ENDROOT
BRANCH   6   9
HETATM    9  C8  UNL     1     -31.894   7.486   1.683  1.00 20.00    -0.010 A 
HETATM   10  C3  UNL     1     -31.468   8.580   0.743  1.00 20.00     0.005 A 
HETATM   11  C4  UNL     1     -32.412   8.884   1.873  1.00 20.00     0.005 A 
ENDBRANCH   6   9
TORSDOF 1
ENDMDL
