MODEL 1
REMARK VINA RESULT:      -0.7      0.000      0.000
REMARK  1 active torsions:
REMARK  status: ('A' for Active; 'I' for Inactive)
REMARK    1  A    between atoms: C9_9  and  C10_10 
ROOT
HETATM    1  C1  UNL     1     -33.845   4.113   4.148  1.00 20.00     0.064 C 
HETATM    2  C2  UNL     1     -34.394   7.159   4.633  1.00 20.00     0.002 C 
HETATM    3  C3  UNL     1     -35.341   6.090   4.085  1.00 20.00     0.019 C 
HETATM    4  C4  UNL     1     -33.540   7.775   3.529  1.00 20.00     0.005 C 
HETATM    5  C7  UNL     1     -33.719   5.634   2.193  1.00 20.00     0.024 C 
HETATM    6  C8  UNL     1     -34.617   5.012   3.270  1.00 20.00     0.093 C 
HETATM    7  C10 UNL     1     -32.765   6.708   2.746  1.00 20.00    -0.009 C 
HETATM    8  N11 UNL     1     -33.238   3.406   4.839  1.00 20.00    -0.197 NA
ENDROOT
BRANCH   7   9
HETATM    9  C9  UNL     1     -31.966   7.337   1.633  1.00 20.00    -0.010 A 
HETATM   10  C5  UNL     1     -32.404   8.642   1.028  1.00 20.00     0.005 A 
HETATM   11  C6  UNL     1     -31.170   8.587   1.884  1.00 20.00     0.005 A 
ENDBRANCH   7   9
TORSDOF 1
ENDMDL
MODEL 2
REMARK VINA RESULT:      -0.7      1.841      2.831
REMARK  1 active torsions:
REMARK  status: ('A' for Active; 'I' for Inactive)
REMARK    1  A    between atoms: C9_9  and  C10_10 
ROOT
HETATM    1  C1  UNL     1     -34.991   6.705   3.491  1.00 20.00     0.064 C 
HETATM    2  C2  UNL     1     -32.891   5.348   1.604  1.00 20.00     0.002 C 
HETATM    3  C3  UNL     1     -32.935   5.366   3.133  1.00 20.00     0.019 C 
HETATM    4  C4  UNL     1     -32.183   6.578   1.045  1.00 20.00     0.005 C 
HETATM    5  C7  UNL     1     -32.853   7.898   3.096  1.00 20.00     0.024 C 
HETATM    6  C8  UNL     1     -33.531   6.661   3.697  1.00 20.00     0.093 C 
HETATM    7  C10 UNL     1     -32.811   7.880   1.557  1.00 20.00    -0.009 C 
HETATM    8  N11 UNL     1     -36.140   6.740   3.328  1.00 20.00    -0.197 NA
ENDROOT
BRANCH   7   9
HETATM    9  C9  UNL     1     -32.066   9.078   1.029  1.00 20.00    -0.010 A 
HETATM   10  C5  UNL     1     -32.432   9.672  -0.303  1.00 20.00     0.005 A 
HETATM   11  C6  UNL     1     -32.739  10.421   0.964  1.00 20.00     0.005 A 
ENDBRANCH   7   9
TORSDOF 1
ENDMDL
MODEL 3
REMARK VINA RESULT:      -0.3      2.587      4.566
REMARK  1 active torsions:
REMARK  status: ('A' for Active; 'I' for Inactive)
REMARK    1  A    between atoms: C9_9  and  C10_10 
ROOT
HETATM    1  C1  UNL     1     -32.247   9.050   0.811  1.00 20.00     0.064 C 
HETATM    2  C2  UNL     1     -32.127   8.806   3.931  1.00 20.00     0.002 C 
HETATM    3  C3  UNL     1     -31.073   8.406   2.898  1.00 20.00     0.019 C 
HETATM    4  C4  UNL     1     -33.142   7.691   4.163  1.00 20.00     0.005 C 
HETATM    5  C7  UNL     1     -32.743   6.837   1.815  1.00 20.00     0.024 C 
HETATM    6  C8  UNL     1     -31.685   7.922   1.578  1.00 20.00     0.093 C 
HETATM    7  C10 UNL     1     -33.804   7.242   2.854  1.00 20.00    -0.009 C 
HETATM    8  N11 UNL     1     -32.690   9.936   0.207  1.00 20.00    -0.197 NA
ENDROOT
BRANCH   7   9
HETATM    9  C9  UNL     1     -34.768   6.110   3.103  1.00 20.00    -0.010 A 
HETATM   10  C5  UNL     1     -34.361   4.943   3.959  1.00 20.00     0.005 A 
HETATM   11  C6  UNL     1     -35.383   5.924   4.462  1.00 20.00     0.005 A 
ENDBRANCH   7   9
TORSDOF 1
ENDMDL
MODEL 4
REMARK VINA RESULT:       0.2      2.811      4.250
REMARK  1 active torsions:
REMARK  status: ('A' for Active; 'I' for Inactive)
REMARK    1  A    between atoms: C9_9  and  C10_10 
ROOT
HETATM    1  C1  UNL     1     -32.276   9.253   1.117  1.00 20.00     0.064 C 
HETATM    2  C2  UNL     1     -33.761   7.826   3.478  1.00 20.00     0.002 C 
HETATM    3  C3  UNL     1     -32.393   8.510   3.481  1.00 20.00     0.019 C 
HETATM    4  C4  UNL     1     -33.664   6.372   3.030  1.00 20.00     0.005 C 
HETATM    5  C7  UNL     1     -31.608   6.927   1.664  1.00 20.00     0.024 C 
HETATM    6  C8  UNL     1     -31.661   8.385   2.139  1.00 20.00     0.093 C 
HETATM    7  C10 UNL     1     -32.987   6.241   1.660  1.00 20.00    -0.009 C 
HETATM    8  N11 UNL     1     -32.760   9.935   0.313  1.00 20.00    -0.197 NA
ENDROOT
BRANCH   7   9
HETATM    9  C9  UNL     1     -32.861   4.793   1.261  1.00 20.00    -0.010 A 
HETATM   10  C5  UNL     1     -33.269   4.348  -0.116  1.00 20.00     0.005 A 
HETATM   11  C6  UNL     1     -31.816   4.369   0.267  1.00 20.00     0.005 A 
ENDBRANCH   7   9
TORSDOF 1
ENDMDL
MODEL 5
REMARK VINA RESULT:       0.7      1.963      4.267
REMARK  1 active torsions:
REMARK  status: ('A' for Active; 'I' for Inactive)
REMARK    1  A    between atoms: C9_9  and  C10_10 
ROOT
HETATM    1  C1  UNL     1     -33.317   8.146   4.547  1.00 20.00     0.064 C 
HETATM    2  C2  UNL     1     -32.408   6.830   1.853  1.00 20.00     0.002 C 
HETATM    3  C3  UNL     1     -33.590   7.765   2.112  1.00 20.00     0.019 C 
HETATM    4  C4  UNL     1     -32.772   5.373   2.118  1.00 20.00     0.005 C 
HETATM    5  C7  UNL     1     -34.518   6.111   3.793  1.00 20.00     0.024 C 
HETATM    6  C8  UNL     1     -34.200   7.585   3.508  1.00 20.00     0.093 C 
HETATM    7  C10 UNL     1     -33.326   5.172   3.534  1.00 20.00    -0.009 C 
HETATM    8  N11 UNL     1     -32.622   8.587   5.365  1.00 20.00    -0.197 NA
ENDROOT
BRANCH   7   9
HETATM    9  C9  UNL     1     -33.721   3.734   3.755  1.00 20.00    -0.010 A 
HETATM   10  C5  UNL     1     -32.703   2.732   4.225  1.00 20.00     0.005 A 
HETATM   11  C6  UNL     1     -33.801   3.177   5.149  1.00 20.00     0.005 A 
ENDBRANCH   7   9
TORSDOF 1
ENDMDL
MODEL 6
REMARK VINA RESULT:       0.9      1.810      2.547
REMARK  1 active torsions:
REMARK  status: ('A' for Active; 'I' for Inactive)
REMARK    1  A    between atoms: C9_9  and  C10_10 
ROOT
HETATM    1  C1  UNL     1     -36.031   6.655   3.379  1.00 20.00     0.064 C 
HETATM    2  C2  UNL     1     -33.916   4.378   2.987  1.00 20.00     0.002 C 
HETATM    3  C3  UNL     1     -34.416   5.008   4.288  1.00 20.00     0.019 C 
HETATM    4  C4  UNL     1     -32.762   5.171   2.383  1.00 20.00     0.005 C 
HETATM    5  C7  UNL     1     -33.633   7.278   3.479  1.00 20.00     0.024 C 
HETATM    6  C8  UNL     1     -34.775   6.491   4.134  1.00 20.00     0.093 C 
HETATM    7  C10 UNL     1     -33.133   6.644   2.168  1.00 20.00    -0.009 C 
HETATM    8  N11 UNL     1     -37.020   6.785   2.785  1.00 20.00    -0.197 NA
ENDROOT
BRANCH   7   9
HETATM    9  C9  UNL     1     -31.962   7.415   1.614  1.00 20.00    -0.010 A 
HETATM   10  C5  UNL     1     -32.176   8.752   0.962  1.00 20.00     0.005 A 
HETATM   11  C6  UNL     1     -31.490   8.668   2.296  1.00 20.00     0.005 A 
ENDBRANCH   7   9
TORSDOF 1
ENDMDL
MODEL 7
REMARK VINA RESULT:       0.9      2.190      4.250
REMARK  1 active torsions:
REMARK  status: ('A' for Active; 'I' for Inactive)
REMARK    1  A    between atoms: C9_9  and  C10_10 
ROOT
HETATM    1  C1  UNL     1     -33.404   5.906   1.119  1.00 20.00     0.064 C 
HETATM    2  C2  UNL     1     -35.309   6.744   3.460  1.00 20.00     0.002 C 
HETATM    3  C3  UNL     1     -33.980   7.370   3.035  1.00 20.00     0.019 C 
HETATM    4  C4  UNL     1     -35.102   5.577   4.419  1.00 20.00     0.005 C 
HETATM    5  C7  UNL     1     -32.824   5.146   3.408  1.00 20.00     0.024 C 
HETATM    6  C8  UNL     1     -32.992   6.345   2.465  1.00 20.00     0.093 C 
HETATM    7  C10 UNL     1     -34.163   4.516   3.832  1.00 20.00    -0.009 C 
HETATM    8  N11 UNL     1     -33.727   5.560   0.059  1.00 20.00    -0.197 NA
ENDROOT
BRANCH   7   9
HETATM    9  C9  UNL     1     -33.938   3.396   4.816  1.00 20.00    -0.010 A 
HETATM   10  C5  UNL     1     -33.255   2.130   4.381  1.00 20.00     0.005 A 
HETATM   11  C6  UNL     1     -32.551   3.085   5.304  1.00 20.00     0.005 A 
ENDBRANCH   7   9
TORSDOF 1
ENDMDL
MODEL 8
REMARK VINA RESULT:       1.2      1.827      2.512
REMARK  1 active torsions:
REMARK  status: ('A' for Active; 'I' for Inactive)
REMARK    1  A    between atoms: C9_9  and  C10_10 
ROOT
HETATM    1  C1  UNL     1     -32.032   5.127   1.614  1.00 20.00     0.064 C 
HETATM    2  C2  UNL     1     -32.946   7.344   3.629  1.00 20.00     0.002 C 
HETATM    3  C3  UNL     1     -33.801   6.334   2.863  1.00 20.00     0.019 C 
HETATM    4  C4  UNL     1     -32.680   8.598   2.803  1.00 20.00     0.005 C 
HETATM    5  C7  UNL     1     -32.909   7.249   0.676  1.00 20.00     0.024 C 
HETATM    6  C8  UNL     1     -33.225   5.985   1.486  1.00 20.00     0.093 C 
HETATM    7  C10 UNL     1     -32.046   8.264   1.447  1.00 20.00    -0.009 C 
HETATM    8  N11 UNL     1     -31.093   4.452   1.713  1.00 20.00    -0.197 NA
ENDROOT
BRANCH   7   9
HETATM    9  C9  UNL     1     -31.835   9.514   0.632  1.00 20.00    -0.010 A 
HETATM   10  C5  UNL     1     -32.757   9.838  -0.511  1.00 20.00     0.005 A 
HETATM   11  C6  UNL     1     -32.799  10.663   0.744  1.00 20.00     0.005 A 
ENDBRANCH   7   9
TORSDOF 1
ENDMDL
MODEL 9
REMARK VINA RESULT:       1.9      1.558      2.343
REMARK  1 active torsions:
REMARK  status: ('A' for Active; 'I' for Inactive)
REMARK    1  A    between atoms: C9_9  and  C10_10 
ROOT
HETATM    1  C1  UNL     1     -35.260   5.514   4.377  1.00 20.00     0.064 C 
HETATM    2  C2  UNL     1     -33.130   7.810   4.314  1.00 20.00     0.002 C 
HETATM    3  C3  UNL     1     -34.643   7.901   4.108  1.00 20.00     0.019 C 
HETATM    4  C4  UNL     1     -32.403   7.479   3.015  1.00 20.00     0.005 C 
HETATM    5  C7  UNL     1     -34.465   6.291   2.160  1.00 20.00     0.024 C 
HETATM    6  C8  UNL     1     -35.230   6.652   3.439  1.00 20.00     0.093 C 
HETATM    7  C10 UNL     1     -32.943   6.197   2.369  1.00 20.00    -0.009 C 
HETATM    8  N11 UNL     1     -35.284   4.619   5.115  1.00 20.00    -0.197 NA
ENDROOT
BRANCH   7   9
HETATM    9  C9  UNL     1     -32.241   5.918   1.065  1.00 20.00    -0.010 A 
HETATM   10  C5  UNL     1     -31.321   4.735   0.937  1.00 20.00     0.005 A 
HETATM   11  C6  UNL     1     -32.645   4.738   0.225  1.00 20.00     0.005 A 
ENDBRANCH   7   9
TORSDOF 1
ENDMDL
