MODEL 1
REMARK VINA RESULT:      -0.6      0.000      0.000
REMARK  1 active torsions:
REMARK  status: ('A' for Active; 'I' for Inactive)
REMARK    1  A    between atoms: C8_8  and  C9_9 
ROOT
HETATM    1  C1  UNL     1     -33.928   7.358   3.381  1.00 20.00     0.004 C 
HETATM    2  C2  UNL     1     -32.738   8.325   3.336  1.00 20.00     0.005 C 
HETATM    3  C5  UNL     1     -33.515   5.944   2.982  1.00 20.00     0.040 C 
HETATM    4  C6  UNL     1     -31.629   6.888   1.559  1.00 20.00     0.045 C 
HETATM    5  C7  UNL     1     -33.514   5.485   0.410  1.00 20.00     0.207 A 
HETATM    6  C9  UNL     1     -32.003   8.318   1.984  1.00 20.00    -0.008 C 
HETATM    7  C10 UNL     1     -32.811   5.966   1.659  1.00 20.00     0.083 A 
HETATM    8  O11 UNL     1     -32.572   4.661   1.110  1.00 20.00    -0.375 OA
ENDROOT
BRANCH   6   9
HETATM    9  C8  UNL     1     -32.794   9.030   0.911  1.00 20.00    -0.010 A 
HETATM   10  C3  UNL     1     -32.774  10.530   0.826  1.00 20.00     0.005 A 
HETATM   11  C4  UNL     1     -32.084   9.709  -0.227  1.00 20.00     0.005 A 
ENDBRANCH   6   9
TORSDOF 1
ENDMDL
MODEL 2
REMARK VINA RESULT:       0.8      2.102      4.424
REMARK  1 active torsions:
REMARK  status: ('A' for Active; 'I' for Inactive)
REMARK    1  A    between atoms: C8_8  and  C9_9 
ROOT
HETATM    1  C1  UNL     1     -34.183   7.556   4.411  1.00 20.00     0.004 C 
HETATM    2  C2  UNL     1     -35.029   6.352   3.985  1.00 20.00     0.005 C 
HETATM    3  C5  UNL     1     -33.593   8.282   3.204  1.00 20.00     0.040 C 
HETATM    4  C6  UNL     1     -33.641   6.115   1.870  1.00 20.00     0.045 C 
HETATM    5  C7  UNL     1     -31.346   7.287   2.315  1.00 20.00     0.207 A 
HETATM    6  C9  UNL     1     -34.275   5.377   3.062  1.00 20.00    -0.008 C 
HETATM    7  C10 UNL     1     -32.858   7.312   2.328  1.00 20.00     0.083 A 
HETATM    8  O11 UNL     1     -32.099   7.939   1.283  1.00 20.00    -0.375 OA
ENDROOT
BRANCH   6   9
HETATM    9  C8  UNL     1     -33.254   4.562   3.820  1.00 20.00    -0.010 A 
HETATM   10  C3  UNL     1     -33.650   3.824   5.068  1.00 20.00     0.005 A 
HETATM   11  C4  UNL     1     -33.329   3.060   3.814  1.00 20.00     0.005 A 
ENDBRANCH   6   9
TORSDOF 1
ENDMDL
MODEL 3
REMARK VINA RESULT:       0.8      1.433      2.060
REMARK  1 active torsions:
REMARK  status: ('A' for Active; 'I' for Inactive)
REMARK    1  A    between atoms: C8_8  and  C9_9 
ROOT
HETATM    1  C1  UNL     1     -32.188   8.850   4.039  1.00 20.00     0.004 C 
HETATM    2  C2  UNL     1     -31.283   8.543   2.841  1.00 20.00     0.005 C 
HETATM    3  C5  UNL     1     -32.942   7.607   4.505  1.00 20.00     0.040 C 
HETATM    4  C6  UNL     1     -32.828   6.648   2.151  1.00 20.00     0.045 C 
HETATM    5  C7  UNL     1     -35.166   7.127   3.220  1.00 20.00     0.207 A 
HETATM    6  C9  UNL     1     -32.031   7.873   1.673  1.00 20.00    -0.008 C 
HETATM    7  C10 UNL     1     -33.667   6.981   3.351  1.00 20.00     0.083 A 
HETATM    8  O11 UNL     1     -34.567   5.931   3.737  1.00 20.00    -0.375 OA
ENDROOT
BRANCH   6   9
HETATM    9  C8  UNL     1     -32.906   8.854   0.930  1.00 20.00    -0.010 A 
HETATM   10  C3  UNL     1     -32.460  10.277   0.744  1.00 20.00     0.005 A 
HETATM   11  C4  UNL     1     -32.506   9.344  -0.434  1.00 20.00     0.005 A 
ENDBRANCH   6   9
TORSDOF 1
ENDMDL
MODEL 4
REMARK VINA RESULT:       1.8      1.906      3.912
REMARK  1 active torsions:
REMARK  status: ('A' for Active; 'I' for Inactive)
REMARK    1  A    between atoms: C8_8  and  C9_9 
ROOT
HETATM    1  C1  UNL     1     -33.284   6.529   0.443  1.00 20.00     0.004 C 
HETATM    2  C2  UNL     1     -32.763   6.034   1.797  1.00 20.00     0.005 C 
HETATM    3  C5  UNL     1     -32.426   7.666  -0.106  1.00 20.00     0.040 C 
HETATM    4  C6  UNL     1     -31.775   8.327   2.263  1.00 20.00     0.045 C 
HETATM    5  C7  UNL     1     -33.064  10.044   0.769  1.00 20.00     0.207 A 
HETATM    6  C9  UNL     1     -32.601   7.161   2.833  1.00 20.00    -0.008 C 
HETATM    7  C10 UNL     1     -32.292   8.752   0.919  1.00 20.00     0.083 A 
HETATM    8  O11 UNL     1     -31.677   9.948   0.415  1.00 20.00    -0.375 OA
ENDROOT
BRANCH   6   9
HETATM    9  C8  UNL     1     -33.934   7.630   3.367  1.00 20.00    -0.010 A 
HETATM   10  C3  UNL     1     -34.919   6.638   3.919  1.00 20.00     0.005 A 
HETATM   11  C4  UNL     1     -34.214   7.590   4.844  1.00 20.00     0.005 A 
ENDBRANCH   6   9
TORSDOF 1
ENDMDL
MODEL 5
REMARK VINA RESULT:       2.1      1.819      2.952
REMARK  1 active torsions:
REMARK  status: ('A' for Active; 'I' for Inactive)
REMARK    1  A    between atoms: C8_8  and  C9_9 
ROOT
HETATM    1  C1  UNL     1     -32.316   4.718   2.899  1.00 20.00     0.004 C 
HETATM    2  C2  UNL     1     -32.360   5.140   1.426  1.00 20.00     0.005 C 
HETATM    3  C5  UNL     1     -33.689   4.836   3.557  1.00 20.00     0.040 C 
HETATM    4  C6  UNL     1     -34.324   6.674   1.916  1.00 20.00     0.045 C 
HETATM    5  C7  UNL     1     -34.266   7.213   4.475  1.00 20.00     0.207 A 
HETATM    6  C9  UNL     1     -32.962   6.541   1.214  1.00 20.00    -0.008 C 
HETATM    7  C10 UNL     1     -34.247   6.211   3.343  1.00 20.00     0.083 A 
HETATM    8  O11 UNL     1     -35.437   6.474   4.100  1.00 20.00    -0.375 OA
ENDROOT
BRANCH   6   9
HETATM    9  C8  UNL     1     -32.007   7.632   1.637  1.00 20.00    -0.010 A 
HETATM   10  C3  UNL     1     -31.261   8.428   0.602  1.00 20.00     0.005 A 
HETATM   11  C4  UNL     1     -32.356   9.076   1.403  1.00 20.00     0.005 A 
ENDBRANCH   6   9
TORSDOF 1
ENDMDL
MODEL 6
REMARK VINA RESULT:       2.2      1.663      3.880
REMARK  1 active torsions:
REMARK  status: ('A' for Active; 'I' for Inactive)
REMARK    1  A    between atoms: C8_8  and  C9_9 
ROOT
HETATM    1  C1  UNL     1     -32.342   8.107   3.159  1.00 20.00     0.004 C 
HETATM    2  C2  UNL     1     -33.867   8.005   3.285  1.00 20.00     0.005 C 
HETATM    3  C5  UNL     1     -31.854   7.565   1.818  1.00 20.00     0.040 C 
HETATM    4  C6  UNL     1     -33.873   6.022   1.698  1.00 20.00     0.045 C 
HETATM    5  C7  UNL     1     -31.474   4.981   1.750  1.00 20.00     0.207 A 
HETATM    6  C9  UNL     1     -34.403   6.585   3.027  1.00 20.00    -0.008 C 
HETATM    7  C10 UNL     1     -32.383   6.180   1.597  1.00 20.00     0.083 A 
HETATM    8  O11 UNL     1     -31.807   5.517   0.462  1.00 20.00    -0.375 OA
ENDROOT
BRANCH   6   9
HETATM    9  C8  UNL     1     -34.112   5.657   4.182  1.00 20.00    -0.010 A 
HETATM   10  C3  UNL     1     -35.213   4.831   4.787  1.00 20.00     0.005 A 
HETATM   11  C4  UNL     1     -34.132   4.166   3.980  1.00 20.00     0.005 A 
ENDBRANCH   6   9
TORSDOF 1
ENDMDL
