MODEL 1
REMARK VINA RESULT:      -1.1      0.000      0.000
REMARK  1 active torsions:
REMARK  status: ('A' for Active; 'I' for Inactive)
REMARK    1  A    between atoms: C10_10  and  C11_11 
ROOT
HETATM    1  C1  UNL     1     -33.468   3.106   4.503  1.00 20.00     0.088 C 
HETATM    2  C2  UNL     1     -34.397   5.240   3.880  1.00 20.00    -0.070 C 
HETATM    3  C3  UNL     1     -34.425   4.141   4.649  1.00 20.00     0.096 C 
HETATM    4  C4  UNL     1     -35.405   6.345   4.024  1.00 20.00     0.035 C 
HETATM    5  C5  UNL     1     -33.319   5.447   2.844  1.00 20.00     0.039 C 
HETATM    6  C6  UNL     1     -34.721   7.693   4.257  1.00 20.00     0.005 C 
HETATM    7  C7  UNL     1     -33.445   7.904   3.432  1.00 20.00     0.005 C 
HETATM    8  C10 UNL     1     -33.296   6.886   2.294  1.00 20.00    -0.007 C 
HETATM    9  N12 UNL     1     -32.687   2.255   4.389  1.00 20.00    -0.192 NA
ENDROOT
BRANCH   8  10
HETATM   10  C11 UNL     1     -32.019   7.138   1.495  1.00 20.00    -0.010 A 
HETATM   11  C8  UNL     1     -31.896   8.375   0.664  1.00 20.00     0.005 A 
HETATM   12  C9  UNL     1     -31.083   8.224   1.919  1.00 20.00     0.005 A 
ENDBRANCH   8  10
TORSDOF 1
ENDMDL
MODEL 2
REMARK VINA RESULT:       1.4      3.107      4.712
REMARK  1 active torsions:
REMARK  status: ('A' for Active; 'I' for Inactive)
REMARK    1  A    between atoms: C10_10  and  C11_11 
ROOT
HETATM    1  C1  UNL     1     -32.433   9.805   0.333  1.00 20.00     0.088 C 
HETATM    2  C2  UNL     1     -32.654   8.512   2.353  1.00 20.00    -0.070 C 
HETATM    3  C3  UNL     1     -32.648   9.699   1.729  1.00 20.00     0.096 C 
HETATM    4  C4  UNL     1     -32.881   8.386   3.834  1.00 20.00     0.035 C 
HETATM    5  C5  UNL     1     -32.470   7.223   1.592  1.00 20.00     0.039 C 
HETATM    6  C6  UNL     1     -34.044   7.439   4.138  1.00 20.00     0.005 C 
HETATM    7  C7  UNL     1     -34.104   6.203   3.231  1.00 20.00     0.005 C 
HETATM    8  C10 UNL     1     -32.809   5.981   2.439  1.00 20.00    -0.007 C 
HETATM    9  N12 UNL     1     -32.258   9.898  -0.811  1.00 20.00    -0.192 NA
ENDROOT
BRANCH   8  10
HETATM   10  C11 UNL     1     -32.910   4.738   1.558  1.00 20.00    -0.010 A 
HETATM   11  C8  UNL     1     -33.398   4.865   0.151  1.00 20.00     0.005 A 
HETATM   12  C9  UNL     1     -31.953   4.555   0.424  1.00 20.00     0.005 A 
ENDBRANCH   8  10
TORSDOF 1
ENDMDL
MODEL 3
REMARK VINA RESULT:       1.6      2.200      2.857
REMARK  1 active torsions:
REMARK  status: ('A' for Active; 'I' for Inactive)
REMARK    1  A    between atoms: C10_10  and  C11_11 
ROOT
HETATM    1  C1  UNL     1     -31.859   4.344   0.807  1.00 20.00     0.088 C 
HETATM    2  C2  UNL     1     -33.051   6.030   2.047  1.00 20.00    -0.070 C 
HETATM    3  C3  UNL     1     -32.691   4.749   1.880  1.00 20.00     0.096 C 
HETATM    4  C4  UNL     1     -33.933   6.475   3.180  1.00 20.00     0.035 C 
HETATM    5  C5  UNL     1     -32.556   7.113   1.120  1.00 20.00     0.039 C 
HETATM    6  C6  UNL     1     -33.270   7.586   3.996  1.00 20.00     0.005 C 
HETATM    7  C7  UNL     1     -32.504   8.615   3.154  1.00 20.00     0.005 C 
HETATM    8  C10 UNL     1     -32.838   8.529   1.659  1.00 20.00    -0.007 C 
HETATM    9  N12 UNL     1     -31.177   4.004  -0.068  1.00 20.00    -0.192 NA
ENDROOT
BRANCH   8  10
HETATM   10  C11 UNL     1     -32.061   9.574   0.862  1.00 20.00    -0.010 A 
HETATM   11  C8  UNL     1     -32.427   9.842  -0.563  1.00 20.00     0.005 A 
HETATM   12  C9  UNL     1     -32.718  10.866   0.498  1.00 20.00     0.005 A 
ENDBRANCH   8  10
TORSDOF 1
ENDMDL
MODEL 4
REMARK VINA RESULT:       1.6      2.849      5.197
REMARK  1 active torsions:
REMARK  status: ('A' for Active; 'I' for Inactive)
REMARK    1  A    between atoms: C10_10  and  C11_11 
ROOT
HETATM    1  C1  UNL     1     -32.499   9.519  -0.056  1.00 20.00     0.088 C 
HETATM    2  C2  UNL     1     -32.007   8.696   2.154  1.00 20.00    -0.070 C 
HETATM    3  C3  UNL     1     -31.832   9.613   1.191  1.00 20.00     0.096 C 
HETATM    4  C4  UNL     1     -31.306   8.783   3.481  1.00 20.00     0.035 C 
HETATM    5  C5  UNL     1     -32.955   7.537   1.973  1.00 20.00     0.039 C 
HETATM    6  C6  UNL     1     -32.305   8.751   4.639  1.00 20.00     0.005 C 
HETATM    7  C7  UNL     1     -33.473   7.777   4.436  1.00 20.00     0.005 C 
HETATM    8  C10 UNL     1     -33.232   6.787   3.290  1.00 20.00    -0.007 C 
HETATM    9  N12 UNL     1     -33.043   9.449  -1.079  1.00 20.00    -0.192 NA
ENDROOT
BRANCH   8  10
HETATM   10  C11 UNL     1     -34.415   5.834   3.130  1.00 20.00    -0.010 A 
HETATM   11  C8  UNL     1     -34.603   4.716   4.105  1.00 20.00     0.005 A 
HETATM   12  C9  UNL     1     -35.545   5.886   4.107  1.00 20.00     0.005 A 
ENDBRANCH   8  10
TORSDOF 1
ENDMDL
MODEL 5
REMARK VINA RESULT:       1.8      1.917      4.339
REMARK  1 active torsions:
REMARK  status: ('A' for Active; 'I' for Inactive)
REMARK    1  A    between atoms: C10_10  and  C11_11 
ROOT
HETATM    1  C1  UNL     1     -32.013   5.197   0.593  1.00 20.00     0.088 C 
HETATM    2  C2  UNL     1     -33.169   6.146   2.481  1.00 20.00    -0.070 C 
HETATM    3  C3  UNL     1     -32.692   6.263   1.233  1.00 20.00     0.096 C 
HETATM    4  C4  UNL     1     -33.892   7.268   3.172  1.00 20.00     0.035 C 
HETATM    5  C5  UNL     1     -33.040   4.856   3.254  1.00 20.00     0.039 C 
HETATM    6  C6  UNL     1     -35.271   6.822   3.661  1.00 20.00     0.005 C 
HETATM    7  C7  UNL     1     -35.305   5.400   4.237  1.00 20.00     0.005 C 
HETATM    8  C10 UNL     1     -33.908   4.840   4.527  1.00 20.00    -0.007 C 
HETATM    9  N12 UNL     1     -31.456   4.328   0.062  1.00 20.00    -0.192 NA
ENDROOT
BRANCH   8  10
HETATM   10  C11 UNL     1     -33.990   3.428   5.105  1.00 20.00    -0.010 A 
HETATM   11  C8  UNL     1     -33.267   2.307   4.430  1.00 20.00     0.005 A 
HETATM   12  C9  UNL     1     -32.789   2.824   5.758  1.00 20.00     0.005 A 
ENDBRANCH   8  10
TORSDOF 1
ENDMDL
