MODEL 1
REMARK VINA RESULT:      -3.0      0.000      0.000
REMARK  1 active torsions:
REMARK  status: ('A' for Active; 'I' for Inactive)
REMARK    1  A    between atoms: C1_1  and  C2_2 
ROOT
HETATM    1  C1  UNL     1     -34.716   6.666   3.665  1.00 20.00     0.385 C 
HETATM    2  F3  UNL     1     -34.334   7.737   4.404  1.00 20.00    -0.212 F 
HETATM    3  F4  UNL     1     -35.676   6.021   4.375  1.00 20.00    -0.212 F 
ENDROOT
BRANCH   1   4
HETATM    4  C2  UNL     1     -33.544   5.735   3.422  1.00 20.00     0.242 C 
HETATM    5 CL5  UNL     1     -33.957   4.076   3.910  1.00 20.00    -0.102 Cl
HETATM    6 CL6  UNL     1     -33.068   5.755   1.706  1.00 20.00    -0.102 Cl
ENDBRANCH   1   4
TORSDOF 1
ENDMDL
MODEL 2
REMARK VINA RESULT:      -2.7      1.442      2.475
REMARK  1 active torsions:
REMARK  status: ('A' for Active; 'I' for Inactive)
REMARK    1  A    between atoms: C1_1  and  C2_2 
ROOT
HETATM    1  C1  UNL     1     -33.943   6.663   3.559  1.00 20.00     0.385 C 
HETATM    2  F3  UNL     1     -35.289   6.508   3.515  1.00 20.00    -0.212 F 
HETATM    3  F4  UNL     1     -33.698   7.751   4.333  1.00 20.00    -0.212 F 
ENDROOT
BRANCH   1   4
HETATM    4  C2  UNL     1     -33.381   6.884   2.169  1.00 20.00     0.242 C 
HETATM    5 CL5  UNL     1     -32.124   8.141   2.201  1.00 20.00    -0.102 Cl
HETATM    6 CL6  UNL     1     -32.703   5.372   1.516  1.00 20.00    -0.102 Cl
ENDBRANCH   1   4
TORSDOF 1
ENDMDL
MODEL 3
REMARK VINA RESULT:      -2.6      1.631      2.032
REMARK  1 active torsions:
REMARK  status: ('A' for Active; 'I' for Inactive)
REMARK    1  A    between atoms: C1_1  and  C2_2 
ROOT
HETATM    1  C1  UNL     1     -33.885   7.351   3.387  1.00 20.00     0.385 C 
HETATM    2  F3  UNL     1     -33.553   7.887   4.587  1.00 20.00    -0.212 F 
HETATM    3  F4  UNL     1     -34.529   6.183   3.643  1.00 20.00    -0.212 F 
ENDROOT
BRANCH   1   4
HETATM    4  C2  UNL     1     -32.646   7.084   2.555  1.00 20.00     0.242 C 
HETATM    5 CL5  UNL     1     -32.890   5.662   1.517  1.00 20.00    -0.102 Cl
HETATM    6 CL6  UNL     1     -32.243   8.499   1.553  1.00 20.00    -0.102 Cl
ENDBRANCH   1   4
TORSDOF 1
ENDMDL
MODEL 4
REMARK VINA RESULT:      -2.6      2.982      3.501
REMARK  1 active torsions:
REMARK  status: ('A' for Active; 'I' for Inactive)
REMARK    1  A    between atoms: C1_1  and  C2_2 
ROOT
HETATM    1  C1  UNL     1     -31.939   7.999   1.803  1.00 20.00     0.385 C 
HETATM    2  F3  UNL     1     -31.613   8.433   3.045  1.00 20.00    -0.212 F 
HETATM    3  F4  UNL     1     -32.314   9.092   1.090  1.00 20.00    -0.212 F 
ENDROOT
BRANCH   1   4
HETATM    4  C2  UNL     1     -33.084   7.007   1.862  1.00 20.00     0.242 C 
HETATM    5 CL5  UNL     1     -32.511   5.375   1.451  1.00 20.00    -0.102 Cl
HETATM    6 CL6  UNL     1     -33.825   6.995   3.481  1.00 20.00    -0.102 Cl
ENDBRANCH   1   4
TORSDOF 1
ENDMDL
MODEL 5
REMARK VINA RESULT:      -2.5      3.236      3.597
REMARK  1 active torsions:
REMARK  status: ('A' for Active; 'I' for Inactive)
REMARK    1  A    between atoms: C1_1  and  C2_2 
ROOT
HETATM    1  C1  UNL     1     -32.144   8.064   2.048  1.00 20.00     0.385 C 
HETATM    2  F3  UNL     1     -32.423   9.100   1.219  1.00 20.00    -0.212 F 
HETATM    3  F4  UNL     1     -30.993   7.502   1.601  1.00 20.00    -0.212 F 
ENDROOT
BRANCH   1   4
HETATM    4  C2  UNL     1     -33.261   7.039   2.023  1.00 20.00     0.242 C 
HETATM    5 CL5  UNL     1     -32.632   5.448   1.540  1.00 20.00    -0.102 Cl
HETATM    6 CL6  UNL     1     -34.041   6.918   3.619  1.00 20.00    -0.102 Cl
ENDBRANCH   1   4
TORSDOF 1
ENDMDL
MODEL 6
REMARK VINA RESULT:      -2.5      1.956      2.301
REMARK  1 active torsions:
REMARK  status: ('A' for Active; 'I' for Inactive)
REMARK    1  A    between atoms: C1_1  and  C2_2 
ROOT
HETATM    1  C1  UNL     1     -34.950   6.348   4.139  1.00 20.00     0.385 C 
HETATM    2  F3  UNL     1     -34.405   5.128   3.908  1.00 20.00    -0.212 F 
HETATM    3  F4  UNL     1     -36.140   6.376   3.487  1.00 20.00    -0.212 F 
ENDROOT
BRANCH   1   4
HETATM    4  C2  UNL     1     -34.049   7.449   3.615  1.00 20.00     0.242 C 
HETATM    5 CL5  UNL     1     -33.092   8.150   4.938  1.00 20.00    -0.102 Cl
HETATM    6 CL6  UNL     1     -32.962   6.825   2.350  1.00 20.00    -0.102 Cl
ENDBRANCH   1   4
TORSDOF 1
ENDMDL
MODEL 7
REMARK VINA RESULT:      -2.5      2.647      2.775
REMARK  1 active torsions:
REMARK  status: ('A' for Active; 'I' for Inactive)
REMARK    1  A    between atoms: C1_1  and  C2_2 
ROOT
HETATM    1  C1  UNL     1     -32.783   6.072   2.139  1.00 20.00     0.385 C 
HETATM    2  F3  UNL     1     -32.525   7.350   1.768  1.00 20.00    -0.212 F 
HETATM    3  F4  UNL     1     -32.957   5.359   0.997  1.00 20.00    -0.212 F 
ENDROOT
BRANCH   1   4
HETATM    4  C2  UNL     1     -34.038   6.000   2.986  1.00 20.00     0.242 C 
HETATM    5 CL5  UNL     1     -34.062   4.497   3.934  1.00 20.00    -0.102 Cl
HETATM    6 CL6  UNL     1     -34.142   7.402   4.079  1.00 20.00    -0.102 Cl
ENDBRANCH   1   4
TORSDOF 1
ENDMDL
MODEL 8
REMARK VINA RESULT:      -2.5      1.941      2.641
REMARK  1 active torsions:
REMARK  status: ('A' for Active; 'I' for Inactive)
REMARK    1  A    between atoms: C1_1  and  C2_2 
ROOT
HETATM    1  C1  UNL     1     -34.300   4.552   3.734  1.00 20.00     0.385 C 
HETATM    2  F3  UNL     1     -35.334   4.842   4.562  1.00 20.00    -0.212 F 
HETATM    3  F4  UNL     1     -33.525   3.643   4.377  1.00 20.00    -0.212 F 
ENDROOT
BRANCH   1   4
HETATM    4  C2  UNL     1     -33.489   5.796   3.430  1.00 20.00     0.242 C 
HETATM    5 CL5  UNL     1     -33.053   5.846   1.707  1.00 20.00    -0.102 Cl
HETATM    6 CL6  UNL     1     -34.398   7.264   3.863  1.00 20.00    -0.102 Cl
ENDBRANCH   1   4
TORSDOF 1
ENDMDL
MODEL 9
REMARK VINA RESULT:      -2.5      1.957      2.407
REMARK  1 active torsions:
REMARK  status: ('A' for Active; 'I' for Inactive)
REMARK    1  A    between atoms: C1_1  and  C2_2 
ROOT
HETATM    1  C1  UNL     1     -34.317   4.985   4.263  1.00 20.00     0.385 C 
HETATM    2  F3  UNL     1     -33.895   3.833   3.688  1.00 20.00    -0.212 F 
HETATM    3  F4  UNL     1     -35.588   4.771   4.688  1.00 20.00    -0.212 F 
ENDROOT
BRANCH   1   4
HETATM    4  C2  UNL     1     -34.294   6.126   3.265  1.00 20.00     0.242 C 
HETATM    5 CL5  UNL     1     -34.006   7.671   4.094  1.00 20.00    -0.102 Cl
HETATM    6 CL6  UNL     1     -33.036   5.860   2.033  1.00 20.00    -0.102 Cl
ENDBRANCH   1   4
TORSDOF 1
ENDMDL
