MODEL 1
REMARK VINA RESULT:      -2.6      0.000      0.000
REMARK  2 active torsions:
REMARK  status: ('A' for Active; 'I' for Inactive)
REMARK    1  A    between atoms: C3_3  and  C6_6 
REMARK    2  A    between atoms: C3_3  and  O8_8 
ROOT
HETATM    1  C1  UNL     1     -34.622   6.629   3.956  1.00 20.00     0.013 C 
HETATM    2  C2  UNL     1     -33.937   6.738   2.976  1.00 20.00    -0.103 C 
HETATM    3  C4  UNL     1     -32.361   5.571   1.485  1.00 20.00     0.034 C 
HETATM    4  C6  UNL     1     -33.102   6.875   1.769  1.00 20.00     0.159 C 
ENDROOT
BRANCH   4   5
HETATM    5  C3  UNL     1     -32.108   8.014   1.920  1.00 20.00     0.273 C 
HETATM    6  O7  UNL     1     -31.637   8.400   2.983  1.00 20.00    -0.264 OA
BRANCH   5   7
HETATM    7  O8  UNL     1     -31.821   8.533   0.689  1.00 20.00    -0.326 OA
HETATM    8  C5  UNL     1     -32.473   9.767   0.372  1.00 20.00     0.213 C 
ENDBRANCH   5   7
ENDBRANCH   4   5
TORSDOF 2
ENDMDL
MODEL 2
REMARK VINA RESULT:      -2.4      1.665      3.409
REMARK  2 active torsions:
REMARK  status: ('A' for Active; 'I' for Inactive)
REMARK    1  A    between atoms: C3_3  and  C6_6 
REMARK    2  A    between atoms: C3_3  and  O8_8 
ROOT
HETATM    1  C1  UNL     1     -32.303   9.377   0.701  1.00 20.00     0.013 C 
HETATM    2  C2  UNL     1     -32.301   8.374   1.360  1.00 20.00    -0.103 C 
HETATM    3  C4  UNL     1     -32.562   5.926   1.296  1.00 20.00     0.034 C 
HETATM    4  C6  UNL     1     -32.293   7.144   2.174  1.00 20.00     0.159 C 
ENDROOT
BRANCH   4   5
HETATM    5  C3  UNL     1     -33.324   7.220   3.287  1.00 20.00     0.273 C 
HETATM    6  O7  UNL     1     -33.385   8.105   4.130  1.00 20.00    -0.264 OA
BRANCH   5   7
HETATM    7  O8  UNL     1     -34.171   6.151   3.195  1.00 20.00    -0.326 OA
HETATM    8  C5  UNL     1     -35.308   6.187   4.063  1.00 20.00     0.213 C 
ENDBRANCH   5   7
ENDBRANCH   4   5
TORSDOF 2
ENDMDL
MODEL 3
REMARK VINA RESULT:      -2.3      2.014      2.863
REMARK  2 active torsions:
REMARK  status: ('A' for Active; 'I' for Inactive)
REMARK    1  A    between atoms: C3_3  and  C6_6 
REMARK    2  A    between atoms: C3_3  and  O8_8 
ROOT
HETATM    1  C1  UNL     1     -33.684   3.340   4.318  1.00 20.00     0.013 C 
HETATM    2  C2  UNL     1     -33.817   4.514   4.105  1.00 20.00    -0.103 C 
HETATM    3  C4  UNL     1     -35.455   6.319   3.750  1.00 20.00     0.034 C 
HETATM    4  C6  UNL     1     -33.976   5.957   3.847  1.00 20.00     0.159 C 
ENDROOT
BRANCH   4   5
HETATM    5  C3  UNL     1     -33.257   6.366   2.573  1.00 20.00     0.273 C 
HETATM    6  O7  UNL     1     -33.069   5.637   1.607  1.00 20.00    -0.264 OA
BRANCH   5   7
HETATM    7  O8  UNL     1     -32.860   7.670   2.674  1.00 20.00    -0.326 OA
HETATM    8  C5  UNL     1     -31.983   8.129   1.640  1.00 20.00     0.213 C 
ENDBRANCH   5   7
ENDBRANCH   4   5
TORSDOF 2
ENDMDL
MODEL 4
REMARK VINA RESULT:      -2.3      2.555      4.260
REMARK  2 active torsions:
REMARK  status: ('A' for Active; 'I' for Inactive)
REMARK    1  A    between atoms: C3_3  and  C6_6 
REMARK    2  A    between atoms: C3_3  and  O8_8 
ROOT
HETATM    1  C1  UNL     1     -31.995   7.597   1.758  1.00 20.00     0.013 C 
HETATM    2  C2  UNL     1     -32.848   7.610   2.603  1.00 20.00    -0.103 C 
HETATM    3  C4  UNL     1     -33.311   8.032   4.985  1.00 20.00     0.034 C 
HETATM    4  C6  UNL     1     -33.900   7.629   3.636  1.00 20.00     0.159 C 
ENDROOT
BRANCH   4   5
HETATM    5  C3  UNL     1     -34.576   6.273   3.750  1.00 20.00     0.273 C 
HETATM    6  O7  UNL     1     -35.753   6.096   4.041  1.00 20.00    -0.264 OA
BRANCH   5   7
HETATM    7  O8  UNL     1     -33.669   5.288   3.475  1.00 20.00    -0.326 OA
HETATM    8  C5  UNL     1     -33.897   4.038   4.135  1.00 20.00     0.213 C 
ENDBRANCH   5   7
ENDBRANCH   4   5
TORSDOF 2
ENDMDL
MODEL 5
REMARK VINA RESULT:      -1.9      1.875      3.520
REMARK  2 active torsions:
REMARK  status: ('A' for Active; 'I' for Inactive)
REMARK    1  A    between atoms: C3_3  and  C6_6 
REMARK    2  A    between atoms: C3_3  and  O8_8 
ROOT
HETATM    1  C1  UNL     1     -32.147   4.873   1.069  1.00 20.00     0.013 C 
HETATM    2  C2  UNL     1     -32.527   5.937   1.476  1.00 20.00    -0.103 C 
HETATM    3  C4  UNL     1     -31.861   8.257   1.964  1.00 20.00     0.034 C 
HETATM    4  C6  UNL     1     -33.000   7.242   1.973  1.00 20.00     0.159 C 
ENDROOT
BRANCH   4   5
HETATM    5  C3  UNL     1     -33.571   7.117   3.375  1.00 20.00     0.273 C 
HETATM    6  O7  UNL     1     -33.438   7.949   4.265  1.00 20.00    -0.264 OA
BRANCH   5   7
HETATM    7  O8  UNL     1     -34.255   5.939   3.484  1.00 20.00    -0.326 OA
HETATM    8  C5  UNL     1     -35.465   5.997   4.247  1.00 20.00     0.213 C 
ENDBRANCH   5   7
ENDBRANCH   4   5
TORSDOF 2
ENDMDL
MODEL 6
REMARK VINA RESULT:      -1.7      1.619      2.218
REMARK  2 active torsions:
REMARK  status: ('A' for Active; 'I' for Inactive)
REMARK    1  A    between atoms: C3_3  and  C6_6 
REMARK    2  A    between atoms: C3_3  and  O8_8 
ROOT
HETATM    1  C1  UNL     1     -33.732   8.294   5.112  1.00 20.00     0.013 C 
HETATM    2  C2  UNL     1     -33.910   7.503   4.227  1.00 20.00    -0.103 C 
HETATM    3  C4  UNL     1     -34.341   5.135   3.703  1.00 20.00     0.034 C 
HETATM    4  C6  UNL     1     -34.133   6.536   3.136  1.00 20.00     0.159 C 
ENDROOT
BRANCH   4   5
HETATM    5  C3  UNL     1     -32.967   6.534   2.162  1.00 20.00     0.273 C 
HETATM    6  O7  UNL     1     -32.704   5.627   1.382  1.00 20.00    -0.264 OA
BRANCH   5   7
HETATM    7  O8  UNL     1     -32.265   7.699   2.292  1.00 20.00    -0.326 OA
HETATM    8  C5  UNL     1     -32.089   8.451   1.087  1.00 20.00     0.213 C 
ENDBRANCH   5   7
ENDBRANCH   4   5
TORSDOF 2
ENDMDL
MODEL 7
REMARK VINA RESULT:      -1.6      2.670      3.507
REMARK  2 active torsions:
REMARK  status: ('A' for Active; 'I' for Inactive)
REMARK    1  A    between atoms: C3_3  and  C6_6 
REMARK    2  A    between atoms: C3_3  and  O8_8 
ROOT
HETATM    1  C1  UNL     1     -33.344   3.145   4.639  1.00 20.00     0.013 C 
HETATM    2  C2  UNL     1     -33.625   4.033   3.881  1.00 20.00    -0.103 C 
HETATM    3  C4  UNL     1     -32.750   5.546   2.146  1.00 20.00     0.034 C 
HETATM    4  C6  UNL     1     -33.975   5.120   2.949  1.00 20.00     0.159 C 
ENDROOT
BRANCH   4   5
HETATM    5  C3  UNL     1     -34.546   6.315   3.695  1.00 20.00     0.273 C 
HETATM    6  O7  UNL     1     -35.606   6.320   4.309  1.00 20.00    -0.264 OA
BRANCH   5   7
HETATM    7  O8  UNL     1     -33.692   7.375   3.576  1.00 20.00    -0.326 OA
HETATM    8  C5  UNL     1     -33.467   8.124   4.775  1.00 20.00     0.213 C 
ENDBRANCH   5   7
ENDBRANCH   4   5
TORSDOF 2
ENDMDL
MODEL 8
REMARK VINA RESULT:      -1.6      2.345      4.156
REMARK  2 active torsions:
REMARK  status: ('A' for Active; 'I' for Inactive)
REMARK    1  A    between atoms: C3_3  and  C6_6 
REMARK    2  A    between atoms: C3_3  and  O8_8 
ROOT
HETATM    1  C1  UNL     1     -31.660   8.400   1.535  1.00 20.00     0.013 C 
HETATM    2  C2  UNL     1     -32.581   7.885   2.108  1.00 20.00    -0.103 C 
HETATM    3  C4  UNL     1     -33.801   7.758   4.243  1.00 20.00     0.034 C 
HETATM    4  C6  UNL     1     -33.716   7.253   2.806  1.00 20.00     0.159 C 
ENDROOT
BRANCH   4   5
HETATM    5  C3  UNL     1     -33.588   5.739   2.795  1.00 20.00     0.273 C 
HETATM    6  O7  UNL     1     -32.972   5.091   1.958  1.00 20.00    -0.264 OA
BRANCH   5   7
HETATM    7  O8  UNL     1     -34.261   5.219   3.864  1.00 20.00    -0.326 OA
HETATM    8  C5  UNL     1     -33.886   3.890   4.243  1.00 20.00     0.213 C 
ENDBRANCH   5   7
ENDBRANCH   4   5
TORSDOF 2
ENDMDL
MODEL 9
REMARK VINA RESULT:      -1.5      3.578      4.597
REMARK  2 active torsions:
REMARK  status: ('A' for Active; 'I' for Inactive)
REMARK    1  A    between atoms: C3_3  and  C6_6 
REMARK    2  A    between atoms: C3_3  and  O8_8 
ROOT
HETATM    1  C1  UNL     1     -34.248   8.130   4.107  1.00 20.00     0.013 C 
HETATM    2  C2  UNL     1     -33.900   7.026   3.788  1.00 20.00    -0.103 C 
HETATM    3  C4  UNL     1     -33.472   5.526   1.881  1.00 20.00     0.034 C 
HETATM    4  C6  UNL     1     -33.469   5.670   3.401  1.00 20.00     0.159 C 
ENDROOT
BRANCH   4   5
HETATM    5  C3  UNL     1     -34.366   4.614   4.023  1.00 20.00     0.273 C 
HETATM    6  O7  UNL     1     -35.434   4.837   4.580  1.00 20.00    -0.264 OA
BRANCH   5   7
HETATM    7  O8  UNL     1     -33.799   3.381   3.858  1.00 20.00    -0.326 OA
HETATM    8  C5  UNL     1     -33.068   2.883   4.984  1.00 20.00     0.213 C 
ENDBRANCH   5   7
ENDBRANCH   4   5
TORSDOF 2
ENDMDL
