MODEL 1
REMARK VINA RESULT:      -3.1      0.000      0.000
REMARK  1 active torsions:
REMARK  status: ('A' for Active; 'I' for Inactive)
REMARK    1  A    between atoms: C1_1  and  C2_2 
ROOT
HETATM    1  C1  UNL     1     -34.705   6.696   3.667  1.00 20.00     0.401 C 
HETATM    2  F3  UNL     1     -34.339   7.718   4.478  1.00 20.00    -0.210 F 
HETATM    3  F4  UNL     1     -35.639   5.979   4.340  1.00 20.00    -0.210 F 
ENDROOT
BRANCH   1   4
HETATM    4  C2  UNL     1     -33.517   5.813   3.376  1.00 20.00     0.330 C 
HETATM    5  F5  UNL     1     -33.852   4.524   3.653  1.00 20.00    -0.227 F 
HETATM    6 CL6  UNL     1     -33.036   5.931   1.674  1.00 20.00    -0.084 Cl
ENDBRANCH   1   4
TORSDOF 1
ENDMDL
MODEL 2
REMARK VINA RESULT:      -3.0      1.212      2.182
REMARK  1 active torsions:
REMARK  status: ('A' for Active; 'I' for Inactive)
REMARK    1  A    between atoms: C1_1  and  C2_2 
ROOT
HETATM    1  C1  UNL     1     -34.823   6.390   4.152  1.00 20.00     0.401 C 
HETATM    2  F3  UNL     1     -34.165   5.297   3.696  1.00 20.00    -0.210 F 
HETATM    3  F4  UNL     1     -36.007   6.437   3.493  1.00 20.00    -0.210 F 
ENDROOT
BRANCH   1   4
HETATM    4  C2  UNL     1     -34.033   7.638   3.843  1.00 20.00     0.330 C 
HETATM    5  F5  UNL     1     -33.343   8.006   4.956  1.00 20.00    -0.227 F 
HETATM    6 CL6  UNL     1     -32.887   7.356   2.521  1.00 20.00    -0.084 Cl
ENDBRANCH   1   4
TORSDOF 1
ENDMDL
MODEL 3
REMARK VINA RESULT:      -3.0      1.876      2.401
REMARK  1 active torsions:
REMARK  status: ('A' for Active; 'I' for Inactive)
REMARK    1  A    between atoms: C1_1  and  C2_2 
ROOT
HETATM    1  C1  UNL     1     -34.142   7.433   3.728  1.00 20.00     0.401 C 
HETATM    2  F3  UNL     1     -33.263   6.966   2.807  1.00 20.00    -0.210 F 
HETATM    3  F4  UNL     1     -33.408   7.862   4.785  1.00 20.00    -0.210 F 
ENDROOT
BRANCH   1   4
HETATM    4  C2  UNL     1     -35.059   6.323   4.179  1.00 20.00     0.330 C 
HETATM    5  F5  UNL     1     -36.207   6.384   3.452  1.00 20.00    -0.227 F 
HETATM    6 CL6  UNL     1     -34.308   4.736   3.939  1.00 20.00    -0.084 Cl
ENDBRANCH   1   4
TORSDOF 1
ENDMDL
MODEL 4
REMARK VINA RESULT:      -2.9      1.358      2.152
REMARK  1 active torsions:
REMARK  status: ('A' for Active; 'I' for Inactive)
REMARK    1  A    between atoms: C1_1  and  C2_2 
ROOT
HETATM    1  C1  UNL     1     -34.126   6.859   3.802  1.00 20.00     0.401 C 
HETATM    2  F3  UNL     1     -35.417   6.531   3.551  1.00 20.00    -0.210 F 
HETATM    3  F4  UNL     1     -34.150   7.937   4.625  1.00 20.00    -0.210 F 
ENDROOT
BRANCH   1   4
HETATM    4  C2  UNL     1     -33.426   7.230   2.518  1.00 20.00     0.330 C 
HETATM    5  F5  UNL     1     -32.346   8.000   2.817  1.00 20.00    -0.227 F 
HETATM    6 CL6  UNL     1     -32.882   5.786   1.647  1.00 20.00    -0.084 Cl
ENDBRANCH   1   4
TORSDOF 1
ENDMDL
MODEL 5
REMARK VINA RESULT:      -2.9      1.501      1.501
REMARK  1 active torsions:
REMARK  status: ('A' for Active; 'I' for Inactive)
REMARK    1  A    between atoms: C1_1  and  C2_2 
ROOT
HETATM    1  C1  UNL     1     -34.235   7.377   3.660  1.00 20.00     0.401 C 
HETATM    2  F3  UNL     1     -33.836   7.956   4.819  1.00 20.00    -0.210 F 
HETATM    3  F4  UNL     1     -35.061   6.356   3.999  1.00 20.00    -0.210 F 
ENDROOT
BRANCH   1   4
HETATM    4  C2  UNL     1     -33.043   6.826   2.917  1.00 20.00     0.330 C 
HETATM    5  F5  UNL     1     -33.478   5.904   2.017  1.00 20.00    -0.227 F 
HETATM    6 CL6  UNL     1     -32.179   8.111   2.055  1.00 20.00    -0.084 Cl
ENDBRANCH   1   4
TORSDOF 1
ENDMDL
MODEL 6
REMARK VINA RESULT:      -2.9      2.883      3.319
REMARK  1 active torsions:
REMARK  status: ('A' for Active; 'I' for Inactive)
REMARK    1  A    between atoms: C1_1  and  C2_2 
ROOT
HETATM    1  C1  UNL     1     -31.939   7.745   1.817  1.00 20.00     0.401 C 
HETATM    2  F3  UNL     1     -31.931   8.318   3.044  1.00 20.00    -0.210 F 
HETATM    3  F4  UNL     1     -32.240   8.726   0.930  1.00 20.00    -0.210 F 
ENDROOT
BRANCH   1   4
HETATM    4  C2  UNL     1     -33.000   6.674   1.751  1.00 20.00     0.330 C 
HETATM    5  F5  UNL     1     -32.399   5.478   1.511  1.00 20.00    -0.227 F 
HETATM    6 CL6  UNL     1     -33.899   6.573   3.275  1.00 20.00    -0.084 Cl
ENDBRANCH   1   4
TORSDOF 1
ENDMDL
MODEL 7
REMARK VINA RESULT:      -2.7      1.692      2.062
REMARK  1 active torsions:
REMARK  status: ('A' for Active; 'I' for Inactive)
REMARK    1  A    between atoms: C1_1  and  C2_2 
ROOT
HETATM    1  C1  UNL     1     -33.998   7.325   3.546  1.00 20.00     0.401 C 
HETATM    2  F3  UNL     1     -33.402   7.835   4.651  1.00 20.00    -0.210 F 
HETATM    3  F4  UNL     1     -34.191   6.003   3.781  1.00 20.00    -0.210 F 
ENDROOT
BRANCH   1   4
HETATM    4  C2  UNL     1     -33.096   7.489   2.347  1.00 20.00     0.330 C 
HETATM    5  F5  UNL     1     -31.938   8.079   2.750  1.00 20.00    -0.227 F 
HETATM    6 CL6  UNL     1     -32.720   5.921   1.612  1.00 20.00    -0.084 Cl
ENDBRANCH   1   4
TORSDOF 1
ENDMDL
MODEL 8
REMARK VINA RESULT:      -2.7      2.316      2.786
REMARK  1 active torsions:
REMARK  status: ('A' for Active; 'I' for Inactive)
REMARK    1  A    between atoms: C1_1  and  C2_2 
ROOT
HETATM    1  C1  UNL     1     -32.746   6.222   2.148  1.00 20.00     0.401 C 
HETATM    2  F3  UNL     1     -32.582   7.451   1.600  1.00 20.00    -0.210 F 
HETATM    3  F4  UNL     1     -32.894   5.352   1.118  1.00 20.00    -0.210 F 
ENDROOT
BRANCH   1   4
HETATM    4  C2  UNL     1     -33.989   6.196   3.003  1.00 20.00     0.330 C 
HETATM    5  F5  UNL     1     -33.982   5.059   3.749  1.00 20.00    -0.227 F 
HETATM    6 CL6  UNL     1     -34.048   7.597   4.087  1.00 20.00    -0.084 Cl
ENDBRANCH   1   4
TORSDOF 1
ENDMDL
MODEL 9
REMARK VINA RESULT:      -2.7      2.232      3.153
REMARK  1 active torsions:
REMARK  status: ('A' for Active; 'I' for Inactive)
REMARK    1  A    between atoms: C1_1  and  C2_2 
ROOT
HETATM    1  C1  UNL     1     -33.354   7.129   2.395  1.00 20.00     0.401 C 
HETATM    2  F3  UNL     1     -32.952   5.983   1.793  1.00 20.00    -0.210 F 
HETATM    3  F4  UNL     1     -32.277   7.955   2.420  1.00 20.00    -0.210 F 
ENDROOT
BRANCH   1   4
HETATM    4  C2  UNL     1     -33.796   6.846   3.809  1.00 20.00     0.330 C 
HETATM    5  F5  UNL     1     -33.686   7.989   4.538  1.00 20.00    -0.227 F 
HETATM    6 CL6  UNL     1     -35.479   6.293   3.853  1.00 20.00    -0.084 Cl
ENDBRANCH   1   4
TORSDOF 1
ENDMDL
