MODEL 1
REMARK VINA RESULT:      -0.4      0.000      0.000
REMARK  0 active torsions:
REMARK  status: ('A' for Active; 'I' for Inactive)
ROOT
HETATM    1  C1  UNL     1     -34.099   5.837   3.337  1.00 20.00     0.127 C 
HETATM    2  C2  UNL     1     -34.162   7.278   3.791  1.00 20.00     0.079 C 
HETATM    3  C3  UNL     1     -33.529   5.588   1.959  1.00 20.00     0.079 C 
HETATM    4  C4  UNL     1     -32.809   7.953   3.604  1.00 20.00     0.017 C 
HETATM    5  C5  UNL     1     -32.195   6.305   1.790  1.00 20.00     0.017 C 
HETATM    6  C6  UNL     1     -31.667   9.001   0.495  1.00 20.00     0.002 C 
HETATM    7  C7  UNL     1     -31.040   8.620   1.849  1.00 20.00     0.009 C 
HETATM    8  C8  UNL     1     -33.046   8.696   1.107  1.00 20.00     0.009 C 
HETATM    9  C9  UNL     1     -32.325   7.792   2.158  1.00 20.00    -0.040 C 
HETATM   10  O10 UNL     1     -34.581   4.927   4.010  1.00 20.00    -0.298 OA
ENDROOT
TORSDOF 0
ENDMDL
MODEL 2
REMARK VINA RESULT:      -0.2      2.023      3.948
REMARK  0 active torsions:
REMARK  status: ('A' for Active; 'I' for Inactive)
ROOT
HETATM    1  C1  UNL     1     -32.095   7.759   1.817  1.00 20.00     0.127 C 
HETATM    2  C2  UNL     1     -32.277   8.123   3.274  1.00 20.00     0.079 C 
HETATM    3  C3  UNL     1     -32.559   6.380   1.403  1.00 20.00     0.079 C 
HETATM    4  C4  UNL     1     -33.708   7.847   3.714  1.00 20.00     0.017 C 
HETATM    5  C5  UNL     1     -33.979   6.121   1.889  1.00 20.00     0.017 C 
HETATM    6  C6  UNL     1     -34.863   4.641   4.390  1.00 20.00     0.002 C 
HETATM    7  C7  UNL     1     -35.482   5.994   3.992  1.00 20.00     0.009 C 
HETATM    8  C8  UNL     1     -33.481   5.318   4.341  1.00 20.00     0.009 C 
HETATM    9  C9  UNL     1     -34.098   6.399   3.397  1.00 20.00    -0.040 C 
HETATM   10  O10 UNL     1     -31.507   8.504   1.034  1.00 20.00    -0.298 OA
ENDROOT
TORSDOF 0
ENDMDL
MODEL 3
REMARK VINA RESULT:       0.5      1.640      2.855
REMARK  0 active torsions:
REMARK  status: ('A' for Active; 'I' for Inactive)
ROOT
HETATM    1  C1  UNL     1     -33.792   7.562   3.816  1.00 20.00     0.127 C 
HETATM    2  C2  UNL     1     -33.076   8.162   2.626  1.00 20.00     0.079 C 
HETATM    3  C3  UNL     1     -34.417   6.200   3.610  1.00 20.00     0.079 C 
HETATM    4  C4  UNL     1     -32.086   7.163   2.043  1.00 20.00     0.017 C 
HETATM    5  C5  UNL     1     -33.413   5.234   2.993  1.00 20.00     0.017 C 
HETATM    6  C6  UNL     1     -33.087   4.487   0.067  1.00 20.00     0.002 C 
HETATM    7  C7  UNL     1     -31.875   4.835   0.951  1.00 20.00     0.009 C 
HETATM    8  C8  UNL     1     -33.693   5.848   0.453  1.00 20.00     0.009 C 
HETATM    9  C9  UNL     1     -32.786   5.837   1.725  1.00 20.00    -0.040 C 
HETATM   10  O10 UNL     1     -33.947   8.192   4.861  1.00 20.00    -0.298 OA
ENDROOT
TORSDOF 0
ENDMDL
MODEL 4
REMARK VINA RESULT:       0.5      0.913      2.052
REMARK  0 active torsions:
REMARK  status: ('A' for Active; 'I' for Inactive)
ROOT
HETATM    1  C1  UNL     1     -34.439   5.644   3.911  1.00 20.00     0.127 C 
HETATM    2  C2  UNL     1     -33.343   5.036   3.063  1.00 20.00     0.079 C 
HETATM    3  C3  UNL     1     -34.368   7.138   4.134  1.00 20.00     0.079 C 
HETATM    4  C4  UNL     1     -33.198   5.802   1.755  1.00 20.00     0.017 C 
HETATM    5  C5  UNL     1     -34.187   7.873   2.812  1.00 20.00     0.017 C 
HETATM    6  C6  UNL     1     -31.606   8.884   1.570  1.00 20.00     0.002 C 
HETATM    7  C7  UNL     1     -32.651   8.112   0.744  1.00 20.00     0.009 C 
HETATM    8  C8  UNL     1     -31.578   7.696   2.549  1.00 20.00     0.009 C 
HETATM    9  C9  UNL     1     -32.996   7.297   2.028  1.00 20.00    -0.040 C 
HETATM   10  O10 UNL     1     -35.282   4.946   4.472  1.00 20.00    -0.298 OA
ENDROOT
TORSDOF 0
ENDMDL
MODEL 5
REMARK VINA RESULT:       0.5      2.050      4.093
REMARK  0 active torsions:
REMARK  status: ('A' for Active; 'I' for Inactive)
ROOT
HETATM    1  C1  UNL     1     -32.155   7.874   1.720  1.00 20.00     0.127 C 
HETATM    2  C2  UNL     1     -32.907   6.745   1.051  1.00 20.00     0.079 C 
HETATM    3  C3  UNL     1     -32.728   8.387   3.023  1.00 20.00     0.079 C 
HETATM    4  C4  UNL     1     -33.165   5.618   2.042  1.00 20.00     0.017 C 
HETATM    5  C5  UNL     1     -33.009   7.234   3.978  1.00 20.00     0.017 C 
HETATM    6  C6  UNL     1     -35.644   5.805   4.468  1.00 20.00     0.002 C 
HETATM    7  C7  UNL     1     -34.330   5.028   4.267  1.00 20.00     0.009 C 
HETATM    8  C8  UNL     1     -35.381   6.497   3.119  1.00 20.00     0.009 C 
HETATM    9  C9  UNL     1     -33.866   6.156   3.295  1.00 20.00    -0.040 C 
HETATM   10  O10 UNL     1     -31.191   8.415   1.182  1.00 20.00    -0.298 OA
ENDROOT
TORSDOF 0
ENDMDL
MODEL 6
REMARK VINA RESULT:       1.9      1.668      3.017
REMARK  0 active torsions:
REMARK  status: ('A' for Active; 'I' for Inactive)
ROOT
HETATM    1  C1  UNL     1     -33.580   7.716   4.090  1.00 20.00     0.127 C 
HETATM    2  C2  UNL     1     -34.101   6.296   4.062  1.00 20.00     0.079 C 
HETATM    3  C3  UNL     1     -32.383   8.013   3.215  1.00 20.00     0.079 C 
HETATM    4  C4  UNL     1     -34.318   5.840   2.625  1.00 20.00     0.017 C 
HETATM    5  C5  UNL     1     -32.617   7.513   1.795  1.00 20.00     0.017 C 
HETATM    6  C6  UNL     1     -31.694   4.898   0.553  1.00 20.00     0.002 C 
HETATM    7  C7  UNL     1     -33.134   5.413   0.373  1.00 20.00     0.009 C 
HETATM    8  C8  UNL     1     -31.904   4.999   2.075  1.00 20.00     0.009 C 
HETATM    9  C9  UNL     1     -33.041   6.034   1.801  1.00 20.00    -0.040 C 
HETATM   10  O10 UNL     1     -34.039   8.556   4.862  1.00 20.00    -0.298 OA
ENDROOT
TORSDOF 0
ENDMDL
MODEL 7
REMARK VINA RESULT:       2.2      1.772      3.235
REMARK  0 active torsions:
REMARK  status: ('A' for Active; 'I' for Inactive)
ROOT
HETATM    1  C1  UNL     1     -32.382   5.551   1.470  1.00 20.00     0.127 C 
HETATM    2  C2  UNL     1     -31.854   6.969   1.485  1.00 20.00     0.079 C 
HETATM    3  C3  UNL     1     -33.085   5.081   2.723  1.00 20.00     0.079 C 
HETATM    4  C4  UNL     1     -32.945   7.937   1.923  1.00 20.00     0.017 C 
HETATM    5  C5  UNL     1     -34.145   6.087   3.156  1.00 20.00     0.017 C 
HETATM    6  C6  UNL     1     -33.905   8.280   5.244  1.00 20.00     0.002 C 
HETATM    7  C7  UNL     1     -34.533   8.545   3.863  1.00 20.00     0.009 C 
HETATM    8  C8  UNL     1     -32.650   7.766   4.516  1.00 20.00     0.009 C 
HETATM    9  C9  UNL     1     -33.544   7.498   3.264  1.00 20.00    -0.040 C 
HETATM   10  O10 UNL     1     -32.159   4.790   0.530  1.00 20.00    -0.298 OA
ENDROOT
TORSDOF 0
ENDMDL
