MODEL 1
REMARK VINA RESULT:       0.4      0.000      0.000
REMARK  0 active torsions:
REMARK  status: ('A' for Active; 'I' for Inactive)
ROOT
HETATM    1  C1  UNL     1     -32.691   8.389   3.032  1.00 20.00     0.005 C 
HETATM    2  C2  UNL     1     -31.980   7.763   1.834  1.00 20.00     0.026 C 
HETATM    3  C3  UNL     1     -33.090   7.319   4.048  1.00 20.00     0.042 C 
HETATM    4  C4  UNL     1     -34.454   5.143   4.325  1.00 20.00     0.309 C 
HETATM    5  C5  UNL     1     -35.410   6.536   3.107  1.00 20.00     0.309 C 
HETATM    6  C6  UNL     1     -32.826   6.653   1.224  1.00 20.00     0.169 C 
HETATM    7  C7  UNL     1     -33.912   6.225   3.360  1.00 20.00     0.113 C 
HETATM    8  N8  UNL     1     -35.751   5.842   4.363  1.00 20.00     0.089 N 
HETATM    9  O9  UNL     1     -33.178   5.700   2.226  1.00 20.00    -0.377 OA
HETATM   10  H22 UNL     1     -36.547   5.210   4.264  1.00 20.00     0.316 HD
ENDROOT
TORSDOF 0
ENDMDL
MODEL 2
REMARK VINA RESULT:       0.5      1.130      2.015
REMARK  0 active torsions:
REMARK  status: ('A' for Active; 'I' for Inactive)
ROOT
HETATM    1  C1  UNL     1     -32.422   6.242   1.417  1.00 20.00     0.005 C 
HETATM    2  C2  UNL     1     -31.948   7.657   1.744  1.00 20.00     0.026 C 
HETATM    3  C3  UNL     1     -33.889   6.057   1.802  1.00 20.00     0.042 C 
HETATM    4  C4  UNL     1     -35.534   6.192   3.790  1.00 20.00     0.309 C 
HETATM    5  C5  UNL     1     -33.691   5.385   4.331  1.00 20.00     0.309 C 
HETATM    6  C6  UNL     1     -32.225   7.996   3.202  1.00 20.00     0.169 C 
HETATM    7  C7  UNL     1     -34.097   6.441   3.271  1.00 20.00     0.113 C 
HETATM    8  N8  UNL     1     -35.088   4.914   4.375  1.00 20.00     0.089 N 
HETATM    9  O9  UNL     1     -33.605   7.786   3.500  1.00 20.00    -0.377 OA
HETATM   10  H22 UNL     1     -35.428   4.773   5.327  1.00 20.00     0.316 HD
ENDROOT
TORSDOF 0
ENDMDL
MODEL 3
REMARK VINA RESULT:       0.5      2.506      3.865
REMARK  0 active torsions:
REMARK  status: ('A' for Active; 'I' for Inactive)
ROOT
HETATM    1  C1  UNL     1     -33.725   5.672   2.025  1.00 20.00     0.005 C 
HETATM    2  C2  UNL     1     -34.214   5.942   3.447  1.00 20.00     0.026 C 
HETATM    3  C3  UNL     1     -32.330   6.255   1.808  1.00 20.00     0.042 C 
HETATM    4  C4  UNL     1     -30.976   8.454   1.897  1.00 20.00     0.309 C 
HETATM    5  C5  UNL     1     -32.892   8.726   1.125  1.00 20.00     0.309 C 
HETATM    6  C6  UNL     1     -34.136   7.428   3.771  1.00 20.00     0.169 C 
HETATM    7  C7  UNL     1     -32.322   7.742   2.179  1.00 20.00     0.113 C 
HETATM    8  N8  UNL     1     -31.524   8.960   0.625  1.00 20.00     0.089 N 
HETATM    9  O9  UNL     1     -32.816   7.912   3.531  1.00 20.00    -0.377 OA
HETATM   10  H22 UNL     1     -31.322   9.948   0.471  1.00 20.00     0.316 HD
ENDROOT
TORSDOF 0
ENDMDL
MODEL 4
REMARK VINA RESULT:       1.2      2.089      3.113
REMARK  0 active torsions:
REMARK  status: ('A' for Active; 'I' for Inactive)
ROOT
HETATM    1  C1  UNL     1     -34.614   6.263   3.709  1.00 20.00     0.005 C 
HETATM    2  C2  UNL     1     -34.023   7.636   4.022  1.00 20.00     0.026 C 
HETATM    3  C3  UNL     1     -33.541   5.317   3.173  1.00 20.00     0.042 C 
HETATM    4  C4  UNL     1     -31.789   5.034   1.295  1.00 20.00     0.309 C 
HETATM    5  C5  UNL     1     -33.563   5.887   0.613  1.00 20.00     0.309 C 
HETATM    6  C6  UNL     1     -33.290   8.196   2.810  1.00 20.00     0.169 C 
HETATM    7  C7  UNL     1     -32.830   5.956   1.977  1.00 20.00     0.113 C 
HETATM    8  N8  UNL     1     -32.793   4.675   0.277  1.00 20.00     0.089 N 
HETATM    9  O9  UNL     1     -32.316   7.260   2.351  1.00 20.00    -0.377 OA
HETATM   10  H22 UNL     1     -32.419   4.693  -0.673  1.00 20.00     0.316 HD
ENDROOT
TORSDOF 0
ENDMDL
MODEL 5
REMARK VINA RESULT:       1.3      2.244      3.522
REMARK  0 active torsions:
REMARK  status: ('A' for Active; 'I' for Inactive)
ROOT
HETATM    1  C1  UNL     1     -34.174   7.364   4.219  1.00 20.00     0.005 C 
HETATM    2  C2  UNL     1     -34.488   5.904   3.898  1.00 20.00     0.026 C 
HETATM    3  C3  UNL     1     -34.000   8.178   2.939  1.00 20.00     0.042 C 
HETATM    4  C4  UNL     1     -32.625   8.323   0.756  1.00 20.00     0.309 C 
HETATM    5  C5  UNL     1     -31.465   7.774   2.397  1.00 20.00     0.309 C 
HETATM    6  C6  UNL     1     -33.437   5.320   2.963  1.00 20.00     0.169 C 
HETATM    7  C7  UNL     1     -32.951   7.519   2.038  1.00 20.00     0.113 C 
HETATM    8  N8  UNL     1     -31.436   8.883   1.425  1.00 20.00     0.089 N 
HETATM    9  O9  UNL     1     -33.312   6.135   1.798  1.00 20.00    -0.377 OA
HETATM   10  H22 UNL     1     -30.604   8.870   0.833  1.00 20.00     0.316 HD
ENDROOT
TORSDOF 0
ENDMDL
MODEL 6
REMARK VINA RESULT:       1.4      2.014      3.561
REMARK  0 active torsions:
REMARK  status: ('A' for Active; 'I' for Inactive)
ROOT
HETATM    1  C1  UNL     1     -34.095   4.348   3.741  1.00 20.00     0.005 C 
HETATM    2  C2  UNL     1     -35.210   5.039   4.525  1.00 20.00     0.026 C 
HETATM    3  C3  UNL     1     -32.888   5.271   3.583  1.00 20.00     0.042 C 
HETATM    4  C4  UNL     1     -32.158   7.575   2.669  1.00 20.00     0.309 C 
HETATM    5  C5  UNL     1     -33.537   6.624   1.430  1.00 20.00     0.309 C 
HETATM    6  C6  UNL     1     -35.566   6.376   3.891  1.00 20.00     0.169 C 
HETATM    7  C7  UNL     1     -33.326   6.603   2.966  1.00 20.00     0.113 C 
HETATM    8  N8  UNL     1     -32.161   7.129   1.263  1.00 20.00     0.089 N 
HETATM    9  O9  UNL     1     -34.396   7.181   3.756  1.00 20.00    -0.377 OA
HETATM   10  H22 UNL     1     -32.101   7.904   0.601  1.00 20.00     0.316 HD
ENDROOT
TORSDOF 0
ENDMDL
MODEL 7
REMARK VINA RESULT:       1.6      2.103      3.096
REMARK  0 active torsions:
REMARK  status: ('A' for Active; 'I' for Inactive)
ROOT
HETATM    1  C1  UNL     1     -32.787   7.991   3.892  1.00 20.00     0.005 C 
HETATM    2  C2  UNL     1     -34.227   7.812   4.369  1.00 20.00     0.026 C 
HETATM    3  C3  UNL     1     -32.664   7.673   2.403  1.00 20.00     0.042 C 
HETATM    4  C4  UNL     1     -33.057   5.818   0.648  1.00 20.00     0.309 C 
HETATM    5  C5  UNL     1     -32.306   5.075   2.444  1.00 20.00     0.309 C 
HETATM    6  C6  UNL     1     -34.745   6.424   4.014  1.00 20.00     0.169 C 
HETATM    7  C7  UNL     1     -33.227   6.278   2.117  1.00 20.00     0.113 C 
HETATM    8  N8  UNL     1     -31.857   5.056   1.039  1.00 20.00     0.089 N 
HETATM    9  O9  UNL     1     -34.585   6.186   2.617  1.00 20.00    -0.377 OA
HETATM   10  H22 UNL     1     -31.836   4.116   0.642  1.00 20.00     0.316 HD
ENDROOT
TORSDOF 0
ENDMDL
MODEL 8
REMARK VINA RESULT:       2.3      1.626      2.487
REMARK  0 active torsions:
REMARK  status: ('A' for Active; 'I' for Inactive)
ROOT
HETATM    1  C1  UNL     1     -32.612   5.251   2.300  1.00 20.00     0.005 C 
HETATM    2  C2  UNL     1     -32.015   5.995   1.107  1.00 20.00     0.026 C 
HETATM    3  C3  UNL     1     -33.839   5.983   2.840  1.00 20.00     0.042 C 
HETATM    4  C4  UNL     1     -34.636   8.245   3.802  1.00 20.00     0.309 C 
HETATM    5  C5  UNL     1     -32.744   7.705   4.489  1.00 20.00     0.309 C 
HETATM    6  C6  UNL     1     -31.728   7.447   1.466  1.00 20.00     0.169 C 
HETATM    7  C7  UNL     1     -33.484   7.440   3.152  1.00 20.00     0.113 C 
HETATM    8  N8  UNL     1     -34.039   8.004   5.129  1.00 20.00     0.089 N 
HETATM    9  O9  UNL     1     -32.907   8.066   1.978  1.00 20.00    -0.377 OA
HETATM   10  H22 UNL     1     -34.010   8.843   5.710  1.00 20.00     0.316 HD
ENDROOT
TORSDOF 0
ENDMDL
MODEL 9
REMARK VINA RESULT:       2.5      2.365      3.416
REMARK  0 active torsions:
REMARK  status: ('A' for Active; 'I' for Inactive)
ROOT
HETATM    1  C1  UNL     1     -33.435   6.327   3.116  1.00 20.00     0.005 C 
HETATM    2  C2  UNL     1     -34.887   6.689   3.421  1.00 20.00     0.026 C 
HETATM    3  C3  UNL     1     -33.275   4.817   2.944  1.00 20.00     0.042 C 
HETATM    4  C4  UNL     1     -33.629   2.555   4.141  1.00 20.00     0.309 C 
HETATM    5  C5  UNL     1     -32.926   4.038   5.425  1.00 20.00     0.309 C 
HETATM    6  C6  UNL     1     -35.400   5.899   4.618  1.00 20.00     0.169 C 
HETATM    7  C7  UNL     1     -33.835   4.089   4.170  1.00 20.00     0.113 C 
HETATM    8  N8  UNL     1     -32.441   2.711   5.001  1.00 20.00     0.089 N 
HETATM    9  O9  UNL     1     -35.206   4.503   4.402  1.00 20.00    -0.377 OA
HETATM   10  H22 UNL     1     -32.414   2.036   5.767  1.00 20.00     0.316 HD
ENDROOT
TORSDOF 0
ENDMDL
