MODEL 1
REMARK VINA RESULT:      -0.8      0.000      0.000
REMARK  1 active torsions:
REMARK  status: ('A' for Active; 'I' for Inactive)
REMARK    1  A    between atoms: C7_7  and  C10_10 
ROOT
HETATM    1  C1  UNL     1     -32.251   7.948   1.838  1.00 20.00     0.127 C 
HETATM    2  C2  UNL     1     -32.299   8.138   3.339  1.00 20.00     0.078 C 
HETATM    3  C3  UNL     1     -32.455   6.555   1.266  1.00 20.00     0.079 C 
HETATM    4  C4  UNL     1     -33.698   7.985   3.922  1.00 20.00     0.008 C 
HETATM    5  C5  UNL     1     -32.724   5.473   2.306  1.00 20.00     0.012 C 
HETATM    6  C6  UNL     1     -34.628   7.002   3.209  1.00 20.00     0.005 C 
HETATM    7  C7  UNL     1     -34.096   5.574   3.002  1.00 20.00    -0.011 C 
HETATM    8  O11 UNL     1     -32.043   8.904   1.088  1.00 20.00    -0.298 OA
ENDROOT
BRANCH   7   9
HETATM    9  C10 UNL     1     -34.071   4.793   4.319  1.00 20.00    -0.019 C 
HETATM   10  C8  UNL     1     -35.455   4.792   4.961  1.00 20.00     0.010 C 
HETATM   11  C9  UNL     1     -33.582   3.370   4.083  1.00 20.00     0.010 C 
ENDBRANCH   7   9
TORSDOF 1
ENDMDL
MODEL 2
REMARK VINA RESULT:       0.1      2.178      4.459
REMARK  1 active torsions:
REMARK  status: ('A' for Active; 'I' for Inactive)
REMARK    1  A    between atoms: C7_7  and  C10_10 
ROOT
HETATM    1  C1  UNL     1     -34.491   5.288   4.070  1.00 20.00     0.127 C 
HETATM    2  C2  UNL     1     -33.113   4.814   3.662  1.00 20.00     0.078 C 
HETATM    3  C3  UNL     1     -34.799   6.776   4.029  1.00 20.00     0.079 C 
HETATM    4  C4  UNL     1     -32.851   4.938   2.166  1.00 20.00     0.008 C 
HETATM    5  C5  UNL     1     -33.652   7.650   3.534  1.00 20.00     0.012 C 
HETATM    6  C6  UNL     1     -33.544   6.096   1.448  1.00 20.00     0.005 C 
HETATM    7  C7  UNL     1     -33.328   7.501   2.034  1.00 20.00    -0.011 C 
HETATM    8  O11 UNL     1     -35.350   4.485   4.437  1.00 20.00    -0.298 OA
ENDROOT
BRANCH   7   9
HETATM    9  C10 UNL     1     -31.911   8.009   1.754  1.00 20.00    -0.019 C 
HETATM   10  C8  UNL     1     -31.931   9.047   0.637  1.00 20.00     0.010 C 
HETATM   11  C9  UNL     1     -31.294   8.587   3.022  1.00 20.00     0.010 C 
ENDBRANCH   7   9
TORSDOF 1
ENDMDL
MODEL 3
REMARK VINA RESULT:       0.2      2.062      4.354
REMARK  1 active torsions:
REMARK  status: ('A' for Active; 'I' for Inactive)
REMARK    1  A    between atoms: C7_7  and  C10_10 
ROOT
HETATM    1  C1  UNL     1     -33.682   5.405   3.171  1.00 20.00     0.127 C 
HETATM    2  C2  UNL     1     -34.599   6.598   3.337  1.00 20.00     0.078 C 
HETATM    3  C3  UNL     1     -32.739   5.363   1.980  1.00 20.00     0.079 C 
HETATM    4  C4  UNL     1     -33.864   7.873   3.733  1.00 20.00     0.008 C 
HETATM    5  C5  UNL     1     -32.806   6.586   1.071  1.00 20.00     0.012 C 
HETATM    6  C6  UNL     1     -32.437   8.028   3.206  1.00 20.00     0.005 C 
HETATM    7  C7  UNL     1     -32.242   7.880   1.689  1.00 20.00    -0.011 C 
HETATM    8  O11 UNL     1     -33.702   4.479   3.983  1.00 20.00    -0.298 OA
ENDROOT
BRANCH   7   9
HETATM    9  C10 UNL     1     -32.786   9.097   0.937  1.00 20.00    -0.019 C 
HETATM   10  C8  UNL     1     -32.417  10.383   1.669  1.00 20.00     0.010 C 
HETATM   11  C9  UNL     1     -32.258   9.117  -0.493  1.00 20.00     0.010 C 
ENDBRANCH   7   9
TORSDOF 1
ENDMDL
MODEL 4
REMARK VINA RESULT:       1.0      2.222      4.480
REMARK  1 active torsions:
REMARK  status: ('A' for Active; 'I' for Inactive)
REMARK    1  A    between atoms: C7_7  and  C10_10 
ROOT
HETATM    1  C1  UNL     1     -34.582   5.331   4.143  1.00 20.00     0.127 C 
HETATM    2  C2  UNL     1     -33.238   4.856   3.633  1.00 20.00     0.078 C 
HETATM    3  C3  UNL     1     -34.855   6.824   4.216  1.00 20.00     0.079 C 
HETATM    4  C4  UNL     1     -33.049   5.075   2.137  1.00 20.00     0.008 C 
HETATM    5  C5  UNL     1     -33.712   7.705   3.721  1.00 20.00     0.012 C 
HETATM    6  C6  UNL     1     -33.748   6.294   1.534  1.00 20.00     0.005 C 
HETATM    7  C7  UNL     1     -33.468   7.651   2.201  1.00 20.00    -0.011 C 
HETATM    8  O11 UNL     1     -35.441   4.523   4.500  1.00 20.00    -0.298 OA
ENDROOT
BRANCH   7   9
HETATM    9  C10 UNL     1     -32.054   8.146   1.881  1.00 20.00    -0.019 C 
HETATM   10  C8  UNL     1     -31.207   7.007   1.324  1.00 20.00     0.010 C 
HETATM   11  C9  UNL     1     -32.109   9.311   0.900  1.00 20.00     0.010 C 
ENDBRANCH   7   9
TORSDOF 1
ENDMDL
MODEL 5
REMARK VINA RESULT:       1.2      0.813      2.330
REMARK  1 active torsions:
REMARK  status: ('A' for Active; 'I' for Inactive)
REMARK    1  A    between atoms: C7_7  and  C10_10 
ROOT
HETATM    1  C1  UNL     1     -32.384   8.078   1.375  1.00 20.00     0.127 C 
HETATM    2  C2  UNL     1     -33.203   7.047   0.628  1.00 20.00     0.078 C 
HETATM    3  C3  UNL     1     -32.550   8.200   2.880  1.00 20.00     0.079 C 
HETATM    4  C4  UNL     1     -32.766   5.614   0.904  1.00 20.00     0.008 C 
HETATM    5  C5  UNL     1     -33.539   7.215   3.494  1.00 20.00     0.012 C 
HETATM    6  C6  UNL     1     -32.200   5.331   2.296  1.00 20.00     0.005 C 
HETATM    7  C7  UNL     1     -33.071   5.747   3.493  1.00 20.00    -0.011 C 
HETATM    8  O11 UNL     1     -31.597   8.812   0.774  1.00 20.00    -0.298 OA
ENDROOT
BRANCH   7   9
HETATM    9  C10 UNL     1     -34.275   4.815   3.655  1.00 20.00    -0.019 C 
HETATM   10  C8  UNL     1     -33.881   3.571   4.443  1.00 20.00     0.010 C 
HETATM   11  C9  UNL     1     -35.425   5.547   4.336  1.00 20.00     0.010 C 
ENDBRANCH   7   9
TORSDOF 1
ENDMDL
MODEL 6
REMARK VINA RESULT:       1.2      2.206      4.212
REMARK  1 active torsions:
REMARK  status: ('A' for Active; 'I' for Inactive)
REMARK    1  A    between atoms: C7_7  and  C10_10 
ROOT
HETATM    1  C1  UNL     1     -34.521   5.149   3.813  1.00 20.00     0.127 C 
HETATM    2  C2  UNL     1     -35.241   6.469   3.642  1.00 20.00     0.078 C 
HETATM    3  C3  UNL     1     -33.381   4.805   2.869  1.00 20.00     0.079 C 
HETATM    4  C4  UNL     1     -34.397   7.672   4.047  1.00 20.00     0.008 C 
HETATM    5  C5  UNL     1     -33.061   5.883   1.838  1.00 20.00     0.012 C 
HETATM    6  C6  UNL     1     -32.889   7.549   3.830  1.00 20.00     0.005 C 
HETATM    7  C7  UNL     1     -32.423   7.161   2.418  1.00 20.00    -0.011 C 
HETATM    8  O11 UNL     1     -34.855   4.359   4.698  1.00 20.00    -0.298 OA
ENDROOT
BRANCH   7   9
HETATM    9  C10 UNL     1     -32.597   8.322   1.436  1.00 20.00    -0.019 C 
HETATM   10  C8  UNL     1     -31.282   9.075   1.266  1.00 20.00     0.010 C 
HETATM   11  C9  UNL     1     -33.106   7.810   0.093  1.00 20.00     0.010 C 
ENDBRANCH   7   9
TORSDOF 1
ENDMDL
MODEL 7
REMARK VINA RESULT:       1.9      2.111      4.483
REMARK  1 active torsions:
REMARK  status: ('A' for Active; 'I' for Inactive)
REMARK    1  A    between atoms: C7_7  and  C10_10 
ROOT
HETATM    1  C1  UNL     1     -33.973   6.190   3.247  1.00 20.00     0.127 C 
HETATM    2  C2  UNL     1     -34.257   7.670   3.392  1.00 20.00     0.078 C 
HETATM    3  C3  UNL     1     -33.238   5.700   2.010  1.00 20.00     0.079 C 
HETATM    4  C4  UNL     1     -33.009   8.499   3.669  1.00 20.00     0.008 C 
HETATM    5  C5  UNL     1     -32.830   6.799   1.034  1.00 20.00     0.012 C 
HETATM    6  C6  UNL     1     -31.704   7.991   3.056  1.00 20.00     0.005 C 
HETATM    7  C7  UNL     1     -31.710   7.728   1.541  1.00 20.00    -0.011 C 
HETATM    8  O11 UNL     1     -34.335   5.392   4.112  1.00 20.00    -0.298 OA
ENDROOT
BRANCH   7   9
HETATM    9  C10 UNL     1     -31.720   9.038   0.749  1.00 20.00    -0.019 C 
HETATM   10  C8  UNL     1     -30.964   8.869  -0.565  1.00 20.00     0.010 C 
HETATM   11  C9  UNL     1     -33.152   9.494   0.496  1.00 20.00     0.010 C 
ENDBRANCH   7   9
TORSDOF 1
ENDMDL
