MODEL 1
REMARK VINA RESULT:      -2.1      0.000      0.000
REMARK  1 active torsions:
REMARK  status: ('A' for Active; 'I' for Inactive)
REMARK    1  A    between atoms: C6_6  and  O8_8 
ROOT
HETATM    1  C1  UNL     1     -33.860   4.296   3.977  1.00 20.00     0.064 C 
HETATM    2  C2  UNL     1     -34.924   6.535   3.963  1.00 20.00     0.022 C 
HETATM    3  C3  UNL     1     -33.797   7.553   4.024  1.00 20.00     0.033 C 
HETATM    4  C4  UNL     1     -33.222   5.996   2.288  1.00 20.00     0.051 C 
HETATM    5  C5  UNL     1     -34.361   5.383   3.120  1.00 20.00     0.095 C 
HETATM    6  C6  UNL     1     -33.213   7.486   2.624  1.00 20.00     0.119 C 
HETATM    7  N7  UNL     1     -33.465   3.438   4.651  1.00 20.00    -0.197 NA
ENDROOT
BRANCH   6   8
HETATM    8  O8  UNL     1     -31.899   8.009   2.578  1.00 20.00    -0.396 OA
HETATM    9  H17 UNL     1     -31.815   8.481   1.734  1.00 20.00     0.210 HD
ENDBRANCH   6   8
TORSDOF 1
ENDMDL
MODEL 2
REMARK VINA RESULT:      -1.5      3.234      4.012
REMARK  1 active torsions:
REMARK  status: ('A' for Active; 'I' for Inactive)
REMARK    1  A    between atoms: C6_6  and  O8_8 
ROOT
HETATM    1  C1  UNL     1     -32.316   8.778   1.076  1.00 20.00     0.064 C 
HETATM    2  C2  UNL     1     -32.137   8.317   3.505  1.00 20.00     0.022 C 
HETATM    3  C3  UNL     1     -33.548   8.050   4.003  1.00 20.00     0.033 C 
HETATM    4  C4  UNL     1     -33.243   6.692   2.045  1.00 20.00     0.051 C 
HETATM    5  C5  UNL     1     -32.108   7.729   2.088  1.00 20.00     0.095 C 
HETATM    6  C6  UNL     1     -33.838   6.665   3.452  1.00 20.00     0.119 C 
HETATM    7  N7  UNL     1     -32.480   9.603   0.278  1.00 20.00    -0.197 NA
ENDROOT
BRANCH   6   8
HETATM    8  O8  UNL     1     -35.227   6.397   3.410  1.00 20.00    -0.396 OA
HETATM    9  H17 UNL     1     -35.344   5.480   3.706  1.00 20.00     0.210 HD
ENDBRANCH   6   8
TORSDOF 1
ENDMDL
MODEL 3
REMARK VINA RESULT:      -1.1      3.467      4.306
REMARK  1 active torsions:
REMARK  status: ('A' for Active; 'I' for Inactive)
REMARK    1  A    between atoms: C6_6  and  O8_8 
ROOT
HETATM    1  C1  UNL     1     -32.271   9.249   0.980  1.00 20.00     0.064 C 
HETATM    2  C2  UNL     1     -32.899   7.896   2.960  1.00 20.00     0.022 C 
HETATM    3  C3  UNL     1     -33.696   6.710   2.443  1.00 20.00     0.033 C 
HETATM    4  C4  UNL     1     -31.708   6.837   1.102  1.00 20.00     0.051 C 
HETATM    5  C5  UNL     1     -31.847   8.159   1.875  1.00 20.00     0.095 C 
HETATM    6  C6  UNL     1     -32.624   5.840   1.808  1.00 20.00     0.119 C 
HETATM    7  N7  UNL     1     -32.605  10.107   0.275  1.00 20.00    -0.197 NA
ENDROOT
BRANCH   6   8
HETATM    8  O8  UNL     1     -33.175   4.917   0.889  1.00 20.00    -0.396 OA
HETATM    9  H17 UNL     1     -33.006   5.271   0.001  1.00 20.00     0.210 HD
ENDBRANCH   6   8
TORSDOF 1
ENDMDL
MODEL 4
REMARK VINA RESULT:      -1.1      1.897      2.603
REMARK  1 active torsions:
REMARK  status: ('A' for Active; 'I' for Inactive)
REMARK    1  A    between atoms: C6_6  and  O8_8 
ROOT
HETATM    1  C1  UNL     1     -34.577   6.478   3.636  1.00 20.00     0.064 C 
HETATM    2  C2  UNL     1     -32.770   5.690   2.132  1.00 20.00     0.022 C 
HETATM    3  C3  UNL     1     -32.694   6.684   0.984  1.00 20.00     0.033 C 
HETATM    4  C4  UNL     1     -32.702   7.975   3.009  1.00 20.00     0.051 C 
HETATM    5  C5  UNL     1     -33.132   6.540   3.357  1.00 20.00     0.095 C 
HETATM    6  C6  UNL     1     -32.044   7.893   1.633  1.00 20.00     0.119 C 
HETATM    7  N7  UNL     1     -35.714   6.429   3.856  1.00 20.00    -0.197 NA
ENDROOT
BRANCH   6   8
HETATM    8  O8  UNL     1     -32.274   9.074   0.889  1.00 20.00    -0.396 OA
HETATM    9  H17 UNL     1     -32.288   9.807   1.526  1.00 20.00     0.210 HD
ENDBRANCH   6   8
TORSDOF 1
ENDMDL
MODEL 5
REMARK VINA RESULT:      -0.5      2.742      3.575
REMARK  1 active torsions:
REMARK  status: ('A' for Active; 'I' for Inactive)
REMARK    1  A    between atoms: C6_6  and  O8_8 
ROOT
HETATM    1  C1  UNL     1     -33.904   7.672   4.408  1.00 20.00     0.064 C 
HETATM    2  C2  UNL     1     -33.581   6.187   2.450  1.00 20.00     0.022 C 
HETATM    3  C3  UNL     1     -32.991   4.890   2.979  1.00 20.00     0.033 C 
HETATM    4  C4  UNL     1     -34.888   5.396   4.363  1.00 20.00     0.051 C 
HETATM    5  C5  UNL     1     -34.539   6.656   3.552  1.00 20.00     0.095 C 
HETATM    6  C6  UNL     1     -34.181   4.238   3.662  1.00 20.00     0.119 C 
HETATM    7  N7  UNL     1     -33.405   8.473   5.082  1.00 20.00    -0.197 NA
ENDROOT
BRANCH   6   8
HETATM    8  O8  UNL     1     -33.777   3.252   4.592  1.00 20.00    -0.396 OA
HETATM    9  H17 UNL     1     -34.193   2.420   4.317  1.00 20.00     0.210 HD
ENDBRANCH   6   8
TORSDOF 1
ENDMDL
MODEL 6
REMARK VINA RESULT:      -0.2      2.697      3.234
REMARK  1 active torsions:
REMARK  status: ('A' for Active; 'I' for Inactive)
REMARK    1  A    between atoms: C6_6  and  O8_8 
ROOT
HETATM    1  C1  UNL     1     -33.059   5.673   1.427  1.00 20.00     0.064 C 
HETATM    2  C2  UNL     1     -33.720   7.247   3.225  1.00 20.00     0.022 C 
HETATM    3  C3  UNL     1     -35.078   6.787   3.729  1.00 20.00     0.033 C 
HETATM    4  C4  UNL     1     -33.670   4.842   3.683  1.00 20.00     0.051 C 
HETATM    5  C5  UNL     1     -32.979   5.951   2.871  1.00 20.00     0.095 C 
HETATM    6  C6  UNL     1     -34.732   5.542   4.528  1.00 20.00     0.119 C 
HETATM    7  N7  UNL     1     -33.121   5.453   0.290  1.00 20.00    -0.197 NA
ENDROOT
BRANCH   6   8
HETATM    8  O8  UNL     1     -35.861   4.710   4.715  1.00 20.00    -0.396 OA
HETATM    9  H17 UNL     1     -35.547   3.912   5.172  1.00 20.00     0.210 HD
ENDBRANCH   6   8
TORSDOF 1
ENDMDL
MODEL 7
REMARK VINA RESULT:       0.1      2.354      3.145
REMARK  1 active torsions:
REMARK  status: ('A' for Active; 'I' for Inactive)
REMARK    1  A    between atoms: C6_6  and  O8_8 
ROOT
HETATM    1  C1  UNL     1     -33.520   7.801   4.087  1.00 20.00     0.064 C 
HETATM    2  C2  UNL     1     -32.629   8.348   1.839  1.00 20.00     0.022 C 
HETATM    3  C3  UNL     1     -31.521   7.346   1.554  1.00 20.00     0.033 C 
HETATM    4  C4  UNL     1     -33.417   6.077   2.308  1.00 20.00     0.051 C 
HETATM    5  C5  UNL     1     -33.670   7.557   2.642  1.00 20.00     0.095 C 
HETATM    6  C6  UNL     1     -32.293   6.068   1.273  1.00 20.00     0.119 C 
HETATM    7  N7  UNL     1     -33.404   7.994   5.224  1.00 20.00    -0.197 NA
ENDROOT
BRANCH   6   8
HETATM    8  O8  UNL     1     -31.479   4.921   1.418  1.00 20.00    -0.396 OA
HETATM    9  H17 UNL     1     -32.064   4.151   1.343  1.00 20.00     0.210 HD
ENDBRANCH   6   8
TORSDOF 1
ENDMDL
MODEL 8
REMARK VINA RESULT:       0.1      2.813      3.674
REMARK  1 active torsions:
REMARK  status: ('A' for Active; 'I' for Inactive)
REMARK    1  A    between atoms: C6_6  and  O8_8 
ROOT
HETATM    1  C1  UNL     1     -33.039   8.044   4.165  1.00 20.00     0.064 C 
HETATM    2  C2  UNL     1     -33.281   6.095   2.653  1.00 20.00     0.022 C 
HETATM    3  C3  UNL     1     -33.731   4.927   3.516  1.00 20.00     0.033 C 
HETATM    4  C4  UNL     1     -35.167   6.775   4.059  1.00 20.00     0.051 C 
HETATM    5  C5  UNL     1     -33.962   7.322   3.274  1.00 20.00     0.095 C 
HETATM    6  C6  UNL     1     -35.183   5.269   3.806  1.00 20.00     0.119 C 
HETATM    7  N7  UNL     1     -32.312   8.615   4.867  1.00 20.00    -0.197 NA
ENDROOT
BRANCH   6   8
HETATM    8  O8  UNL     1     -35.670   4.570   4.936  1.00 20.00    -0.396 OA
HETATM    9  H17 UNL     1     -35.964   3.700   4.621  1.00 20.00     0.210 HD
ENDBRANCH   6   8
TORSDOF 1
ENDMDL
MODEL 9
REMARK VINA RESULT:       0.2      2.059      2.476
REMARK  1 active torsions:
REMARK  status: ('A' for Active; 'I' for Inactive)
REMARK    1  A    between atoms: C6_6  and  O8_8 
ROOT
HETATM    1  C1  UNL     1     -32.386   5.789   1.542  1.00 20.00     0.064 C 
HETATM    2  C2  UNL     1     -34.510   6.407   2.661  1.00 20.00     0.022 C 
HETATM    3  C3  UNL     1     -34.169   6.694   4.115  1.00 20.00     0.033 C 
HETATM    4  C4  UNL     1     -32.592   7.925   2.785  1.00 20.00     0.051 C 
HETATM    5  C5  UNL     1     -33.291   6.902   1.872  1.00 20.00     0.095 C 
HETATM    6  C6  UNL     1     -33.466   8.038   4.033  1.00 20.00     0.119 C 
HETATM    7  N7  UNL     1     -31.673   4.912   1.281  1.00 20.00    -0.197 NA
ENDROOT
BRANCH   6   8
HETATM    8  O8  UNL     1     -32.680   8.290   5.181  1.00 20.00    -0.396 OA
HETATM    9  H17 UNL     1     -32.547   9.251   5.224  1.00 20.00     0.210 HD
ENDBRANCH   6   8
TORSDOF 1
ENDMDL
