MODEL 1
REMARK VINA RESULT:      -1.4      0.000      0.000
REMARK  1 active torsions:
REMARK  status: ('A' for Active; 'I' for Inactive)
REMARK    1  A    between atoms: C7_7  and  C10_10 
ROOT
HETATM    1  C1  UNL     1     -34.357   6.353   3.654  1.00 20.00     0.127 C 
HETATM    2  C2  UNL     1     -33.595   5.307   2.874  1.00 20.00     0.078 C 
HETATM    3  C3  UNL     1     -33.650   7.645   3.997  1.00 20.00     0.079 C 
HETATM    4  C4  UNL     1     -33.021   5.819   1.558  1.00 20.00     0.008 C 
HETATM    5  C5  UNL     1     -33.515   8.524   2.763  1.00 20.00     0.012 C 
HETATM    6  C6  UNL     1     -31.853   6.787   1.759  1.00 20.00     0.005 C 
HETATM    7  C7  UNL     1     -32.242   8.266   1.938  1.00 20.00    -0.011 C 
HETATM    8  O11 UNL     1     -35.509   6.141   4.038  1.00 20.00    -0.298 OA
ENDROOT
BRANCH   7   9
HETATM    9  C10 UNL     1     -32.370   8.962   0.577  1.00 20.00    -0.019 C 
HETATM   10  C8  UNL     1     -32.713  10.436   0.766  1.00 20.00     0.010 C 
HETATM   11  C9  UNL     1     -31.082   8.803  -0.223  1.00 20.00     0.010 C 
ENDBRANCH   7   9
TORSDOF 1
ENDMDL
MODEL 2
REMARK VINA RESULT:       0.4      1.343      2.606
REMARK  1 active torsions:
REMARK  status: ('A' for Active; 'I' for Inactive)
REMARK    1  A    between atoms: C7_7  and  C10_10 
ROOT
HETATM    1  C1  UNL     1     -34.116   4.583   3.714  1.00 20.00     0.127 C 
HETATM    2  C2  UNL     1     -34.922   5.745   4.248  1.00 20.00     0.078 C 
HETATM    3  C3  UNL     1     -33.698   4.612   2.260  1.00 20.00     0.079 C 
HETATM    4  C4  UNL     1     -34.256   7.101   4.042  1.00 20.00     0.008 C 
HETATM    5  C5  UNL     1     -32.574   5.614   2.048  1.00 20.00     0.012 C 
HETATM    6  C6  UNL     1     -34.248   7.540   2.576  1.00 20.00     0.005 C 
HETATM    7  C7  UNL     1     -33.052   7.045   1.743  1.00 20.00    -0.011 C 
HETATM    8  O11 UNL     1     -33.845   3.619   4.432  1.00 20.00    -0.298 OA
ENDROOT
BRANCH   7   9
HETATM    9  C10 UNL     1     -31.868   8.012   1.867  1.00 20.00    -0.019 C 
HETATM   10  C8  UNL     1     -32.007   9.151   0.862  1.00 20.00     0.010 C 
HETATM   11  C9  UNL     1     -31.771   8.553   3.289  1.00 20.00     0.010 C 
ENDBRANCH   7   9
TORSDOF 1
ENDMDL
MODEL 3
REMARK VINA RESULT:       1.3      2.060      4.626
REMARK  1 active torsions:
REMARK  status: ('A' for Active; 'I' for Inactive)
REMARK    1  A    between atoms: C7_7  and  C10_10 
ROOT
HETATM    1  C1  UNL     1     -32.328   8.716   1.078  1.00 20.00     0.127 C 
HETATM    2  C2  UNL     1     -32.966   9.516   2.190  1.00 20.00     0.078 C 
HETATM    3  C3  UNL     1     -31.642   7.416   1.435  1.00 20.00     0.079 C 
HETATM    4  C4  UNL     1     -33.984   8.728   3.007  1.00 20.00     0.008 C 
HETATM    5  C5  UNL     1     -32.669   6.340   1.750  1.00 20.00     0.012 C 
HETATM    6  C6  UNL     1     -33.336   7.662   3.893  1.00 20.00     0.005 C 
HETATM    7  C7  UNL     1     -33.107   6.295   3.224  1.00 20.00    -0.011 C 
HETATM    8  O11 UNL     1     -32.328   9.135  -0.081  1.00 20.00    -0.298 OA
ENDROOT
BRANCH   7   9
HETATM    9  C10 UNL     1     -34.354   5.411   3.357  1.00 20.00    -0.019 C 
HETATM   10  C8  UNL     1     -33.997   4.091   4.033  1.00 20.00     0.010 C 
HETATM   11  C9  UNL     1     -35.442   6.141   4.134  1.00 20.00     0.010 C 
ENDBRANCH   7   9
TORSDOF 1
ENDMDL
