MODEL 1
REMARK VINA RESULT:      -1.6      0.000      0.000
REMARK  0 active torsions:
REMARK  status: ('A' for Active; 'I' for Inactive)
ROOT
HETATM    1  C1  UNL     1     -33.212   8.235   4.148  1.00 20.00     0.013 C 
HETATM    2  C2  UNL     1     -34.397   7.433   4.756  1.00 20.00     0.080 C 
HETATM    3  C3  UNL     1     -31.833   7.569   1.953  1.00 20.00     0.274 C 
HETATM    4  C4  UNL     1     -33.272   5.667   1.585  1.00 20.00     0.280 C 
HETATM    5  C5  UNL     1     -33.106   7.669   2.748  1.00 20.00     0.025 C 
HETATM    6  C6  UNL     1     -33.409   6.206   2.981  1.00 20.00     0.092 C 
HETATM    7  C7  UNL     1     -34.695   6.301   3.755  1.00 20.00     0.249 C 
HETATM    8  N8  UNL     1     -32.068   6.385   1.083  1.00 20.00     0.084 N 
HETATM    9  F9  UNL     1     -35.020   5.150   4.364  1.00 20.00    -0.206 F 
HETATM   10  F10 UNL     1     -35.722   6.656   2.950  1.00 20.00    -0.206 F 
HETATM   11  H21 UNL     1     -32.241   6.689   0.125  1.00 20.00     0.315 HD
ENDROOT
TORSDOF 0
ENDMDL
MODEL 2
REMARK VINA RESULT:      -1.5      2.359      3.281
REMARK  0 active torsions:
REMARK  status: ('A' for Active; 'I' for Inactive)
ROOT
HETATM    1  C1  UNL     1     -32.328   8.210   2.177  1.00 20.00     0.013 C 
HETATM    2  C2  UNL     1     -31.860   7.175   1.114  1.00 20.00     0.080 C 
HETATM    3  C3  UNL     1     -34.142   7.774   4.095  1.00 20.00     0.274 C 
HETATM    4  C4  UNL     1     -34.351   5.467   3.419  1.00 20.00     0.280 C 
HETATM    5  C5  UNL     1     -32.998   7.341   3.220  1.00 20.00     0.025 C 
HETATM    6  C6  UNL     1     -33.676   6.297   2.363  1.00 20.00     0.092 C 
HETATM    7  C7  UNL     1     -32.528   5.844   1.504  1.00 20.00     0.249 C 
HETATM    8  N8  UNL     1     -34.870   6.502   4.354  1.00 20.00     0.084 N 
HETATM    9  F9  UNL     1     -32.928   5.139   0.434  1.00 20.00    -0.206 F 
HETATM   10  F10 UNL     1     -31.662   5.082   2.209  1.00 20.00    -0.206 F 
HETATM   11  H21 UNL     1     -34.700   6.196   5.311  1.00 20.00     0.315 HD
ENDROOT
TORSDOF 0
ENDMDL
MODEL 3
REMARK VINA RESULT:      -1.4      2.539      3.716
REMARK  0 active torsions:
REMARK  status: ('A' for Active; 'I' for Inactive)
ROOT
HETATM    1  C1  UNL     1     -32.565   5.684   1.586  1.00 20.00     0.013 C 
HETATM    2  C2  UNL     1     -31.598   6.878   1.350  1.00 20.00     0.080 C 
HETATM    3  C3  UNL     1     -34.537   5.599   3.394  1.00 20.00     0.274 C 
HETATM    4  C4  UNL     1     -34.080   7.876   4.048  1.00 20.00     0.280 C 
HETATM    5  C5  UNL     1     -33.692   6.315   2.376  1.00 20.00     0.025 C 
HETATM    6  C6  UNL     1     -32.944   7.285   3.261  1.00 20.00     0.092 C 
HETATM    7  C7  UNL     1     -32.117   8.020   2.243  1.00 20.00     0.249 C 
HETATM    8  N8  UNL     1     -34.922   6.683   4.338  1.00 20.00     0.084 N 
HETATM    9  F9  UNL     1     -31.121   8.730   2.798  1.00 20.00    -0.206 F 
HETATM   10  F10 UNL     1     -32.879   8.865   1.513  1.00 20.00    -0.206 F 
HETATM   11  H21 UNL     1     -35.901   6.930   4.200  1.00 20.00     0.315 HD
ENDROOT
TORSDOF 0
ENDMDL
MODEL 4
REMARK VINA RESULT:      -1.4      1.475      2.361
REMARK  0 active torsions:
REMARK  status: ('A' for Active; 'I' for Inactive)
ROOT
HETATM    1  C1  UNL     1     -34.322   5.310   3.336  1.00 20.00     0.013 C 
HETATM    2  C2  UNL     1     -34.926   6.432   4.226  1.00 20.00     0.080 C 
HETATM    3  C3  UNL     1     -32.396   5.629   1.505  1.00 20.00     0.274 C 
HETATM    4  C4  UNL     1     -32.181   7.960   2.089  1.00 20.00     0.280 C 
HETATM    5  C5  UNL     1     -33.040   5.935   2.830  1.00 20.00     0.025 C 
HETATM    6  C6  UNL     1     -33.461   7.371   2.613  1.00 20.00     0.092 C 
HETATM    7  C7  UNL     1     -34.083   7.689   3.945  1.00 20.00     0.249 C 
HETATM    8  N8  UNL     1     -31.696   6.898   1.167  1.00 20.00     0.084 N 
HETATM    9  F9  UNL     1     -34.824   8.809   3.917  1.00 20.00    -0.206 F 
HETATM   10  F10 UNL     1     -33.139   7.834   4.902  1.00 20.00    -0.206 F 
HETATM   11  H21 UNL     1     -30.691   6.783   1.296  1.00 20.00     0.315 HD
ENDROOT
TORSDOF 0
ENDMDL
MODEL 5
REMARK VINA RESULT:       0.4      1.795      2.672
REMARK  0 active torsions:
REMARK  status: ('A' for Active; 'I' for Inactive)
ROOT
HETATM    1  C1  UNL     1     -32.587   5.858   1.828  1.00 20.00     0.013 C 
HETATM    2  C2  UNL     1     -33.494   5.897   3.090  1.00 20.00     0.080 C 
HETATM    3  C3  UNL     1     -31.743   7.985   0.440  1.00 20.00     0.274 C 
HETATM    4  C4  UNL     1     -32.807   9.475   2.011  1.00 20.00     0.280 C 
HETATM    5  C5  UNL     1     -32.093   7.285   1.725  1.00 20.00     0.025 C 
HETATM    6  C6  UNL     1     -33.316   8.067   2.148  1.00 20.00     0.092 C 
HETATM    7  C7  UNL     1     -33.655   7.386   3.445  1.00 20.00     0.249 C 
HETATM    8  N8  UNL     1     -32.035   9.413   0.741  1.00 20.00     0.084 N 
HETATM    9  F9  UNL     1     -34.891   7.681   3.878  1.00 20.00    -0.206 F 
HETATM   10  F10 UNL     1     -32.777   7.726   4.416  1.00 20.00    -0.206 F 
HETATM   11  H21 UNL     1     -31.162   9.925   0.860  1.00 20.00     0.315 HD
ENDROOT
TORSDOF 0
ENDMDL
MODEL 6
REMARK VINA RESULT:       0.5      2.246      3.054
REMARK  0 active torsions:
REMARK  status: ('A' for Active; 'I' for Inactive)
ROOT
HETATM    1  C1  UNL     1     -34.007   5.480   3.551  1.00 20.00     0.013 C 
HETATM    2  C2  UNL     1     -33.539   4.534   2.410  1.00 20.00     0.080 C 
HETATM    3  C3  UNL     1     -33.351   8.062   3.813  1.00 20.00     0.274 C 
HETATM    4  C4  UNL     1     -32.131   7.998   1.733  1.00 20.00     0.280 C 
HETATM    5  C5  UNL     1     -33.711   6.855   2.991  1.00 20.00     0.025 C 
HETATM    6  C6  UNL     1     -32.412   6.617   2.255  1.00 20.00     0.092 C 
HETATM    7  C7  UNL     1     -32.777   5.425   1.413  1.00 20.00     0.249 C 
HETATM    8  N8  UNL     1     -32.495   8.857   2.892  1.00 20.00     0.084 N 
HETATM    9  F9  UNL     1     -31.703   4.811   0.892  1.00 20.00    -0.206 F 
HETATM   10  F10 UNL     1     -33.593   5.780   0.395  1.00 20.00    -0.206 F 
HETATM   11  H21 UNL     1     -33.013   9.667   2.552  1.00 20.00     0.315 HD
ENDROOT
TORSDOF 0
ENDMDL
MODEL 7
REMARK VINA RESULT:       0.7      2.018      2.803
REMARK  0 active torsions:
REMARK  status: ('A' for Active; 'I' for Inactive)
ROOT
HETATM    1  C1  UNL     1     -32.733   6.437   2.077  1.00 20.00     0.013 C 
HETATM    2  C2  UNL     1     -33.393   7.699   2.700  1.00 20.00     0.080 C 
HETATM    3  C3  UNL     1     -33.048   3.920   2.933  1.00 20.00     0.274 C 
HETATM    4  C4  UNL     1     -34.626   4.651   4.605  1.00 20.00     0.280 C 
HETATM    5  C5  UNL     1     -33.560   5.306   2.650  1.00 20.00     0.025 C 
HETATM    6  C6  UNL     1     -33.828   5.799   4.054  1.00 20.00     0.092 C 
HETATM    7  C7  UNL     1     -34.364   7.176   3.775  1.00 20.00     0.249 C 
HETATM    8  N8  UNL     1     -33.896   3.470   4.069  1.00 20.00     0.084 N 
HETATM    9  F9  UNL     1     -34.387   7.955   4.868  1.00 20.00    -0.206 F 
HETATM   10  F10 UNL     1     -35.619   7.118   3.274  1.00 20.00    -0.206 F 
HETATM   11  H21 UNL     1     -34.575   2.784   3.742  1.00 20.00     0.315 HD
ENDROOT
TORSDOF 0
ENDMDL
MODEL 8
REMARK VINA RESULT:       0.7      1.705      2.376
REMARK  0 active torsions:
REMARK  status: ('A' for Active; 'I' for Inactive)
ROOT
HETATM    1  C1  UNL     1     -32.019   7.803   1.778  1.00 20.00     0.013 C 
HETATM    2  C2  UNL     1     -32.450   8.721   2.957  1.00 20.00     0.080 C 
HETATM    3  C3  UNL     1     -32.674   5.225   1.479  1.00 20.00     0.274 C 
HETATM    4  C4  UNL     1     -34.044   5.308   3.463  1.00 20.00     0.280 C 
HETATM    5  C5  UNL     1     -32.982   6.640   1.887  1.00 20.00     0.025 C 
HETATM    6  C6  UNL     1     -33.107   6.481   3.385  1.00 20.00     0.092 C 
HETATM    7  C7  UNL     1     -33.439   7.889   3.794  1.00 20.00     0.249 C 
HETATM    8  N8  UNL     1     -33.528   4.416   2.389  1.00 20.00     0.084 N 
HETATM    9  F9  UNL     1     -33.293   8.094   5.113  1.00 20.00    -0.206 F 
HETATM   10  F10 UNL     1     -34.710   8.207   3.458  1.00 20.00    -0.206 F 
HETATM   11  H21 UNL     1     -34.318   4.033   1.872  1.00 20.00     0.315 HD
ENDROOT
TORSDOF 0
ENDMDL
MODEL 9
REMARK VINA RESULT:       0.8      2.241      2.811
REMARK  0 active torsions:
REMARK  status: ('A' for Active; 'I' for Inactive)
ROOT
HETATM    1  C1  UNL     1     -33.588   7.275   3.373  1.00 20.00     0.013 C 
HETATM    2  C2  UNL     1     -33.308   5.806   2.946  1.00 20.00     0.080 C 
HETATM    3  C3  UNL     1     -32.752   9.467   2.085  1.00 20.00     0.274 C 
HETATM    4  C4  UNL     1     -31.778   8.113   0.342  1.00 20.00     0.280 C 
HETATM    5  C5  UNL     1     -33.274   8.057   2.115  1.00 20.00     0.025 C 
HETATM    6  C6  UNL     1     -32.082   7.303   1.571  1.00 20.00     0.092 C 
HETATM    7  C7  UNL     1     -32.609   5.895   1.576  1.00 20.00     0.249 C 
HETATM    8  N8  UNL     1     -31.958   9.508   0.827  1.00 20.00     0.084 N 
HETATM    9  F9  UNL     1     -31.639   4.977   1.435  1.00 20.00    -0.206 F 
HETATM   10  F10 UNL     1     -33.511   5.709   0.586  1.00 20.00    -0.206 F 
HETATM   11  H21 UNL     1     -32.461  10.041   0.119  1.00 20.00     0.315 HD
ENDROOT
TORSDOF 0
ENDMDL
