MODEL 1
REMARK VINA RESULT:      -1.2      0.000      0.000
REMARK  3 active torsions:
REMARK  status: ('A' for Active; 'I' for Inactive)
REMARK    1  A    between atoms: C1_1  and  C3_3 
REMARK       I    between atoms: C3_3  and  N10_10 
REMARK    2  A    between atoms: C8_8  and  C9_9 
REMARK    3  A    between atoms: C8_8  and  N10_10 
ROOT
HETATM    1  C3  UNL     1     -34.824   5.977   3.808  1.00 20.00     0.240 C 
HETATM    2  N10 UNL     1     -33.613   6.531   3.414  1.00 20.00    -0.357 N 
HETATM    3  O11 UNL     1     -35.921   6.511   3.690  1.00 20.00    -0.269 OA
HETATM    4  H28 UNL     1     -32.749   6.017   3.582  1.00 20.00     0.162 HD
ENDROOT
BRANCH   2   5
HETATM    5  C8  UNL     1     -33.506   7.830   2.805  1.00 20.00     0.131 C 
BRANCH   5   6
HETATM    6  C9  UNL     1     -32.251   8.016   1.924  1.00 20.00    -0.035 C 
HETATM    7  C5  UNL     1     -32.513   9.051   0.815  1.00 20.00     0.016 C 
HETATM    8  C6  UNL     1     -31.047   8.466   2.768  1.00 20.00     0.016 C 
HETATM    9  C7  UNL     1     -31.915   6.665   1.268  1.00 20.00     0.016 C 
ENDBRANCH   5   6
ENDBRANCH   2   5
BRANCH   1  10
HETATM   10  C1  UNL     1     -34.650   4.629   4.414  1.00 20.00     0.070 C 
HETATM   11  C2  UNL     1     -33.562   3.898   4.138  1.00 20.00    -0.026 C 
HETATM   12  C4  UNL     1     -33.318   2.539   4.707  1.00 20.00     0.036 C 
ENDBRANCH   1  10
TORSDOF 3
ENDMDL
MODEL 2
REMARK VINA RESULT:      -1.2      0.020      1.306
REMARK  3 active torsions:
REMARK  status: ('A' for Active; 'I' for Inactive)
REMARK    1  A    between atoms: C1_1  and  C3_3 
REMARK       I    between atoms: C3_3  and  N10_10 
REMARK    2  A    between atoms: C8_8  and  C9_9 
REMARK    3  A    between atoms: C8_8  and  N10_10 
ROOT
HETATM    1  C3  UNL     1     -34.818   5.982   3.807  1.00 20.00     0.240 C 
HETATM    2  N10 UNL     1     -33.603   6.536   3.427  1.00 20.00    -0.357 N 
HETATM    3  O11 UNL     1     -35.914   6.517   3.678  1.00 20.00    -0.269 OA
HETATM    4  H28 UNL     1     -32.742   6.020   3.602  1.00 20.00     0.162 HD
ENDROOT
BRANCH   2   5
HETATM    5  C8  UNL     1     -33.488   7.836   2.823  1.00 20.00     0.131 C 
BRANCH   5   6
HETATM    6  C9  UNL     1     -32.257   8.004   1.906  1.00 20.00    -0.035 C 
HETATM    7  C5  UNL     1     -31.890   6.667   1.237  1.00 20.00     0.016 C 
HETATM    8  C6  UNL     1     -32.518   9.063   0.822  1.00 20.00     0.016 C 
HETATM    9  C7  UNL     1     -31.070   8.467   2.770  1.00 20.00     0.016 C 
ENDBRANCH   5   6
ENDBRANCH   2   5
BRANCH   1  10
HETATM   10  C1  UNL     1     -34.653   4.631   4.410  1.00 20.00     0.070 C 
HETATM   11  C2  UNL     1     -33.565   3.898   4.140  1.00 20.00    -0.026 C 
HETATM   12  C4  UNL     1     -33.329   2.537   4.707  1.00 20.00     0.036 C 
ENDBRANCH   1  10
TORSDOF 3
ENDMDL
MODEL 3
REMARK VINA RESULT:      -1.1      0.029      1.309
REMARK  3 active torsions:
REMARK  status: ('A' for Active; 'I' for Inactive)
REMARK    1  A    between atoms: C1_1  and  C3_3 
REMARK       I    between atoms: C3_3  and  N10_10 
REMARK    2  A    between atoms: C8_8  and  C9_9 
REMARK    3  A    between atoms: C8_8  and  N10_10 
ROOT
HETATM    1  C3  UNL     1     -34.820   5.976   3.806  1.00 20.00     0.240 C 
HETATM    2  N10 UNL     1     -33.605   6.526   3.420  1.00 20.00    -0.357 N 
HETATM    3  O11 UNL     1     -35.915   6.511   3.678  1.00 20.00    -0.269 OA
HETATM    4  H28 UNL     1     -32.744   6.011   3.595  1.00 20.00     0.162 HD
ENDROOT
BRANCH   2   5
HETATM    5  C8  UNL     1     -33.491   7.823   2.809  1.00 20.00     0.131 C 
BRANCH   5   6
HETATM    6  C9  UNL     1     -32.240   7.999   1.920  1.00 20.00    -0.035 C 
HETATM    7  C5  UNL     1     -31.042   8.481   2.756  1.00 20.00     0.016 C 
HETATM    8  C6  UNL     1     -31.875   6.681   1.216  1.00 20.00     0.016 C 
HETATM    9  C7  UNL     1     -32.553   9.059   0.848  1.00 20.00     0.016 C 
ENDBRANCH   5   6
ENDBRANCH   2   5
BRANCH   1  10
HETATM   10  C1  UNL     1     -34.653   4.628   4.416  1.00 20.00     0.070 C 
HETATM   11  C2  UNL     1     -33.571   3.889   4.139  1.00 20.00    -0.026 C 
HETATM   12  C4  UNL     1     -33.335   2.530   4.712  1.00 20.00     0.036 C 
ENDBRANCH   1  10
TORSDOF 3
ENDMDL
MODEL 4
REMARK VINA RESULT:      -0.6      2.101      5.278
REMARK  3 active torsions:
REMARK  status: ('A' for Active; 'I' for Inactive)
REMARK    1  A    between atoms: C1_1  and  C3_3 
REMARK       I    between atoms: C3_3  and  N10_10 
REMARK    2  A    between atoms: C8_8  and  C9_9 
REMARK    3  A    between atoms: C8_8  and  N10_10 
ROOT
HETATM    1  C3  UNL     1     -32.119   7.895   1.895  1.00 20.00     0.240 C 
HETATM    2  N10 UNL     1     -33.058   6.878   1.784  1.00 20.00    -0.357 N 
HETATM    3  O11 UNL     1     -31.452   8.140   2.895  1.00 20.00    -0.269 OA
HETATM    4  H28 UNL     1     -33.581   6.773   0.915  1.00 20.00     0.162 HD
ENDROOT
BRANCH   2   5
HETATM    5  C8  UNL     1     -33.365   5.973   2.858  1.00 20.00     0.131 C 
BRANCH   5   6
HETATM    6  C9  UNL     1     -34.554   6.412   3.740  1.00 20.00    -0.035 C 
HETATM    7  C5  UNL     1     -34.122   7.507   4.731  1.00 20.00     0.016 C 
HETATM    8  C6  UNL     1     -35.716   6.933   2.877  1.00 20.00     0.016 C 
HETATM    9  C7  UNL     1     -35.044   5.190   4.537  1.00 20.00     0.016 C 
ENDBRANCH   5   6
ENDBRANCH   2   5
BRANCH   1  10
HETATM   10  C1  UNL     1     -32.000   8.686   0.640  1.00 20.00     0.070 C 
HETATM   11  C2  UNL     1     -32.655   9.847   0.508  1.00 20.00    -0.026 C 
HETATM   12  C4  UNL     1     -32.585  10.696  -0.719  1.00 20.00     0.036 C 
ENDBRANCH   1  10
TORSDOF 3
ENDMDL
MODEL 5
REMARK VINA RESULT:      -0.6      2.116      5.273
REMARK  3 active torsions:
REMARK  status: ('A' for Active; 'I' for Inactive)
REMARK    1  A    between atoms: C1_1  and  C3_3 
REMARK       I    between atoms: C3_3  and  N10_10 
REMARK    2  A    between atoms: C8_8  and  C9_9 
REMARK    3  A    between atoms: C8_8  and  N10_10 
ROOT
HETATM    1  C3  UNL     1     -32.108   7.901   1.896  1.00 20.00     0.240 C 
HETATM    2  N10 UNL     1     -33.047   6.883   1.799  1.00 20.00    -0.357 N 
HETATM    3  O11 UNL     1     -31.433   8.153   2.888  1.00 20.00    -0.269 OA
HETATM    4  H28 UNL     1     -33.577   6.773   0.936  1.00 20.00     0.162 HD
ENDROOT
BRANCH   2   5
HETATM    5  C8  UNL     1     -33.343   5.984   2.881  1.00 20.00     0.131 C 
BRANCH   5   6
HETATM    6  C9  UNL     1     -34.561   6.397   3.736  1.00 20.00    -0.035 C 
HETATM    7  C5  UNL     1     -35.688   6.950   2.846  1.00 20.00     0.016 C 
HETATM    8  C6  UNL     1     -35.091   5.205   4.552  1.00 20.00     0.016 C 
HETATM    9  C7  UNL     1     -34.115   7.501   4.712  1.00 20.00     0.016 C 
ENDBRANCH   5   6
ENDBRANCH   2   5
BRANCH   1  10
HETATM   10  C1  UNL     1     -32.002   8.685   0.635  1.00 20.00     0.070 C 
HETATM   11  C2  UNL     1     -32.656   9.847   0.504  1.00 20.00    -0.026 C 
HETATM   12  C4  UNL     1     -32.598  10.688  -0.729  1.00 20.00     0.036 C 
ENDBRANCH   1  10
TORSDOF 3
ENDMDL
MODEL 6
REMARK VINA RESULT:      -0.5      2.116      5.264
REMARK  3 active torsions:
REMARK  status: ('A' for Active; 'I' for Inactive)
REMARK    1  A    between atoms: C1_1  and  C3_3 
REMARK       I    between atoms: C3_3  and  N10_10 
REMARK    2  A    between atoms: C8_8  and  C9_9 
REMARK    3  A    between atoms: C8_8  and  N10_10 
ROOT
HETATM    1  C3  UNL     1     -32.094   7.892   1.899  1.00 20.00     0.240 C 
HETATM    2  N10 UNL     1     -33.039   6.882   1.783  1.00 20.00    -0.357 N 
HETATM    3  O11 UNL     1     -31.420   8.123   2.897  1.00 20.00    -0.269 OA
HETATM    4  H28 UNL     1     -33.568   6.790   0.916  1.00 20.00     0.162 HD
ENDROOT
BRANCH   2   5
HETATM    5  C8  UNL     1     -33.343   5.966   2.849  1.00 20.00     0.131 C 
BRANCH   5   6
HETATM    6  C9  UNL     1     -34.522   6.404   3.746  1.00 20.00    -0.035 C 
HETATM    7  C5  UNL     1     -35.076   5.208   4.540  1.00 20.00     0.016 C 
HETATM    8  C6  UNL     1     -34.090   7.510   4.723  1.00 20.00     0.016 C 
HETATM    9  C7  UNL     1     -35.639   6.956   2.841  1.00 20.00     0.016 C 
ENDBRANCH   5   6
ENDBRANCH   2   5
BRANCH   1  10
HETATM   10  C1  UNL     1     -31.979   8.697   0.652  1.00 20.00     0.070 C 
HETATM   11  C2  UNL     1     -32.682   9.829   0.511  1.00 20.00    -0.026 C 
HETATM   12  C4  UNL     1     -32.619  10.689  -0.709  1.00 20.00     0.036 C 
ENDBRANCH   1  10
TORSDOF 3
ENDMDL
MODEL 7
REMARK VINA RESULT:       0.8      2.006      5.304
REMARK  3 active torsions:
REMARK  status: ('A' for Active; 'I' for Inactive)
REMARK    1  A    between atoms: C1_1  and  C3_3 
REMARK       I    between atoms: C3_3  and  N10_10 
REMARK    2  A    between atoms: C8_8  and  C9_9 
REMARK    3  A    between atoms: C8_8  and  N10_10 
ROOT
HETATM    1  C3  UNL     1     -32.133   8.151   2.021  1.00 20.00     0.240 C 
HETATM    2  N10 UNL     1     -33.067   7.990   3.036  1.00 20.00    -0.357 N 
HETATM    3  O11 UNL     1     -31.250   7.351   1.734  1.00 20.00    -0.269 OA
HETATM    4  H28 UNL     1     -33.746   8.728   3.212  1.00 20.00     0.162 HD
ENDROOT
BRANCH   2   5
HETATM    5  C8  UNL     1     -33.105   6.833   3.889  1.00 20.00     0.131 C 
BRANCH   5   6
HETATM    6  C9  UNL     1     -34.133   5.762   3.463  1.00 20.00    -0.035 C 
HETATM    7  C5  UNL     1     -33.931   4.463   4.263  1.00 20.00     0.016 C 
HETATM    8  C6  UNL     1     -35.571   6.268   3.664  1.00 20.00     0.016 C 
HETATM    9  C7  UNL     1     -33.923   5.459   1.968  1.00 20.00     0.016 C 
ENDBRANCH   5   6
ENDBRANCH   2   5
BRANCH   1  10
HETATM   10  C1  UNL     1     -32.314   9.438   1.295  1.00 20.00     0.070 C 
HETATM   11  C2  UNL     1     -32.523   9.444  -0.029  1.00 20.00    -0.026 C 
HETATM   12  C4  UNL     1     -32.714  10.693  -0.825  1.00 20.00     0.036 C 
ENDBRANCH   1  10
TORSDOF 3
ENDMDL
MODEL 8
REMARK VINA RESULT:       1.0      1.129      1.789
REMARK  3 active torsions:
REMARK  status: ('A' for Active; 'I' for Inactive)
REMARK    1  A    between atoms: C1_1  and  C3_3 
REMARK       I    between atoms: C3_3  and  N10_10 
REMARK    2  A    between atoms: C8_8  and  C9_9 
REMARK    3  A    between atoms: C8_8  and  N10_10 
ROOT
HETATM    1  C3  UNL     1     -33.755   5.886   3.038  1.00 20.00     0.240 C 
HETATM    2  N10 UNL     1     -33.076   6.442   1.962  1.00 20.00    -0.357 N 
HETATM    3  O11 UNL     1     -34.653   6.431   3.670  1.00 20.00    -0.269 OA
HETATM    4  H28 UNL     1     -32.323   5.916   1.520  1.00 20.00     0.162 HD
ENDROOT
BRANCH   2   5
HETATM    5  C8  UNL     1     -33.357   7.757   1.452  1.00 20.00     0.131 C 
BRANCH   5   6
HETATM    6  C9  UNL     1     -32.112   8.658   1.298  1.00 20.00    -0.035 C 
HETATM    7  C5  UNL     1     -31.344   8.759   2.627  1.00 20.00     0.016 C 
HETATM    8  C6  UNL     1     -31.174   8.119   0.205  1.00 20.00     0.016 C 
HETATM    9  C7  UNL     1     -32.582  10.067   0.891  1.00 20.00     0.016 C 
ENDBRANCH   5   6
ENDBRANCH   2   5
BRANCH   1  10
HETATM   10  C1  UNL     1     -33.264   4.518   3.362  1.00 20.00     0.070 C 
HETATM   11  C2  UNL     1     -33.768   3.849   4.408  1.00 20.00    -0.026 C 
HETATM   12  C4  UNL     1     -33.326   2.475   4.795  1.00 20.00     0.036 C 
ENDBRANCH   1  10
TORSDOF 3
ENDMDL
MODEL 9
REMARK VINA RESULT:       1.0      1.065      4.900
REMARK  3 active torsions:
REMARK  status: ('A' for Active; 'I' for Inactive)
REMARK    1  A    between atoms: C1_1  and  C3_3 
REMARK       I    between atoms: C3_3  and  N10_10 
REMARK    2  A    between atoms: C8_8  and  C9_9 
REMARK    3  A    between atoms: C8_8  and  N10_10 
ROOT
HETATM    1  C3  UNL     1     -34.464   6.336   3.637  1.00 20.00     0.240 C 
HETATM    2  N10 UNL     1     -33.673   5.200   3.744  1.00 20.00    -0.357 N 
HETATM    3  O11 UNL     1     -35.627   6.430   4.016  1.00 20.00    -0.269 OA
HETATM    4  H28 UNL     1     -32.724   5.216   3.373  1.00 20.00     0.162 HD
ENDROOT
BRANCH   2   5
HETATM    5  C8  UNL     1     -34.140   3.971   4.327  1.00 20.00     0.131 C 
BRANCH   5   6
HETATM    6  C9  UNL     1     -33.014   3.009   4.767  1.00 20.00    -0.035 C 
HETATM    7  C5  UNL     1     -32.659   3.227   6.249  1.00 20.00     0.016 C 
HETATM    8  C6  UNL     1     -33.426   1.543   4.550  1.00 20.00     0.016 C 
HETATM    9  C7  UNL     1     -31.767   3.301   3.913  1.00 20.00     0.016 C 
ENDBRANCH   5   6
ENDBRANCH   2   5
BRANCH   1  10
HETATM   10  C1  UNL     1     -33.739   7.464   2.992  1.00 20.00     0.070 C 
HETATM   11  C2  UNL     1     -32.678   7.226   2.209  1.00 20.00    -0.026 C 
HETATM   12  C4  UNL     1     -31.901   8.305   1.528  1.00 20.00     0.036 C 
ENDBRANCH   1  10
TORSDOF 3
ENDMDL
