MODEL 1
REMARK VINA RESULT:      -1.4      0.000      0.000
REMARK  2 active torsions:
REMARK  status: ('A' for Active; 'I' for Inactive)
REMARK    1  A    between atoms: C2_2  and  C7_7 
REMARK    2  A    between atoms: C7_7  and  C8_8 
ROOT
HETATM    1  C7  UNL     1     -33.557   6.849   2.017  1.00 20.00     0.035 C 
ENDROOT
BRANCH   1   2
HETATM    2  C2  UNL     1     -32.115   7.281   2.011  1.00 20.00    -0.030 C 
HETATM    3  C1  UNL     1     -31.671   8.387   1.395  1.00 20.00    -0.035 C 
HETATM    4  C3  UNL     1     -32.551   9.327   0.639  1.00 20.00     0.035 C 
ENDBRANCH   1   2
BRANCH   1   5
HETATM    5  C8  UNL     1     -34.168   6.588   3.422  1.00 20.00    -0.048 C 
HETATM    6  C4  UNL     1     -35.703   6.679   3.390  1.00 20.00     0.014 C 
HETATM    7  C5  UNL     1     -33.622   7.589   4.454  1.00 20.00     0.014 C 
HETATM    8  C6  UNL     1     -33.773   5.165   3.863  1.00 20.00     0.014 C 
ENDBRANCH   1   5
TORSDOF 2
ENDMDL
MODEL 2
REMARK VINA RESULT:      -1.4      0.133      1.538
REMARK  2 active torsions:
REMARK  status: ('A' for Active; 'I' for Inactive)
REMARK    1  A    between atoms: C2_2  and  C7_7 
REMARK    2  A    between atoms: C7_7  and  C8_8 
ROOT
HETATM    1  C7  UNL     1     -33.635   6.780   2.048  1.00 20.00     0.035 C 
ENDROOT
BRANCH   1   2
HETATM    2  C2  UNL     1     -32.170   7.123   2.021  1.00 20.00    -0.030 C 
HETATM    3  C1  UNL     1     -31.673   8.226   1.440  1.00 20.00    -0.035 C 
HETATM    4  C3  UNL     1     -32.512   9.249   0.747  1.00 20.00     0.035 C 
ENDBRANCH   1   2
BRANCH   1   5
HETATM    5  C8  UNL     1     -34.238   6.542   3.460  1.00 20.00    -0.048 C 
HETATM    6  C4  UNL     1     -33.720   7.579   4.471  1.00 20.00     0.014 C 
HETATM    7  C5  UNL     1     -33.907   5.129   3.968  1.00 20.00     0.014 C 
HETATM    8  C6  UNL     1     -35.770   6.681   3.360  1.00 20.00     0.014 C 
ENDBRANCH   1   5
TORSDOF 2
ENDMDL
MODEL 3
REMARK VINA RESULT:      -1.4      0.030      1.528
REMARK  2 active torsions:
REMARK  status: ('A' for Active; 'I' for Inactive)
REMARK    1  A    between atoms: C2_2  and  C7_7 
REMARK    2  A    between atoms: C7_7  and  C8_8 
ROOT
HETATM    1  C7  UNL     1     -33.565   6.858   2.018  1.00 20.00     0.035 C 
ENDROOT
BRANCH   1   2
HETATM    2  C2  UNL     1     -32.124   7.293   2.026  1.00 20.00    -0.030 C 
HETATM    3  C1  UNL     1     -31.676   8.395   1.405  1.00 20.00    -0.035 C 
HETATM    4  C3  UNL     1     -32.549   9.325   0.630  1.00 20.00     0.035 C 
ENDBRANCH   1   2
BRANCH   1   5
HETATM    5  C8  UNL     1     -34.174   6.544   3.414  1.00 20.00    -0.048 C 
HETATM    6  C4  UNL     1     -33.798   5.129   3.882  1.00 20.00     0.014 C 
HETATM    7  C5  UNL     1     -35.706   6.680   3.388  1.00 20.00     0.014 C 
HETATM    8  C6  UNL     1     -33.609   7.560   4.426  1.00 20.00     0.014 C 
ENDBRANCH   1   5
TORSDOF 2
ENDMDL
MODEL 4
REMARK VINA RESULT:      -1.1      1.867      4.303
REMARK  2 active torsions:
REMARK  status: ('A' for Active; 'I' for Inactive)
REMARK    1  A    between atoms: C2_2  and  C7_7 
REMARK    2  A    between atoms: C7_7  and  C8_8 
ROOT
HETATM    1  C7  UNL     1     -34.465   5.131   4.512  1.00 20.00     0.035 C 
ENDROOT
BRANCH   1   2
HETATM    2  C2  UNL     1     -33.909   3.894   3.860  1.00 20.00    -0.030 C 
HETATM    3  C1  UNL     1     -33.144   2.995   4.497  1.00 20.00    -0.035 C 
HETATM    4  C3  UNL     1     -32.748   3.110   5.932  1.00 20.00     0.035 C 
ENDBRANCH   1   2
BRANCH   1   5
HETATM    5  C8  UNL     1     -34.441   6.415   3.636  1.00 20.00    -0.048 C 
HETATM    6  C4  UNL     1     -35.854   6.796   3.164  1.00 20.00     0.014 C 
HETATM    7  C5  UNL     1     -33.530   6.227   2.411  1.00 20.00     0.014 C 
HETATM    8  C6  UNL     1     -33.883   7.571   4.489  1.00 20.00     0.014 C 
ENDBRANCH   1   5
TORSDOF 2
ENDMDL
MODEL 5
REMARK VINA RESULT:      -1.0      1.116      3.960
REMARK  2 active torsions:
REMARK  status: ('A' for Active; 'I' for Inactive)
REMARK    1  A    between atoms: C2_2  and  C7_7 
REMARK    2  A    between atoms: C7_7  and  C8_8 
ROOT
HETATM    1  C7  UNL     1     -33.182   6.969   3.381  1.00 20.00     0.035 C 
ENDROOT
BRANCH   1   2
HETATM    2  C2  UNL     1     -34.639   6.707   3.654  1.00 20.00    -0.030 C 
HETATM    3  C1  UNL     1     -35.115   5.530   4.087  1.00 20.00    -0.035 C 
HETATM    4  C3  UNL     1     -34.260   4.335   4.354  1.00 20.00     0.035 C 
ENDBRANCH   1   2
BRANCH   1   5
HETATM    5  C8  UNL     1     -32.730   6.755   1.909  1.00 20.00    -0.048 C 
HETATM    6  C4  UNL     1     -33.938   6.565   0.976  1.00 20.00     0.014 C 
HETATM    7  C5  UNL     1     -31.802   5.533   1.792  1.00 20.00     0.014 C 
HETATM    8  C6  UNL     1     -31.954   8.006   1.455  1.00 20.00     0.014 C 
ENDBRANCH   1   5
TORSDOF 2
ENDMDL
MODEL 6
REMARK VINA RESULT:      -0.9      1.104      3.971
REMARK  2 active torsions:
REMARK  status: ('A' for Active; 'I' for Inactive)
REMARK    1  A    between atoms: C2_2  and  C7_7 
REMARK    2  A    between atoms: C7_7  and  C8_8 
ROOT
HETATM    1  C7  UNL     1     -33.177   6.964   3.380  1.00 20.00     0.035 C 
ENDROOT
BRANCH   1   2
HETATM    2  C2  UNL     1     -34.635   6.702   3.643  1.00 20.00    -0.030 C 
HETATM    3  C1  UNL     1     -35.114   5.529   4.086  1.00 20.00    -0.035 C 
HETATM    4  C3  UNL     1     -34.260   4.339   4.373  1.00 20.00     0.035 C 
ENDBRANCH   1   2
BRANCH   1   5
HETATM    5  C8  UNL     1     -32.728   6.805   1.901  1.00 20.00    -0.048 C 
HETATM    6  C4  UNL     1     -31.927   8.029   1.425  1.00 20.00     0.014 C 
HETATM    7  C5  UNL     1     -33.941   6.602   0.977  1.00 20.00     0.014 C 
HETATM    8  C6  UNL     1     -31.823   5.561   1.801  1.00 20.00     0.014 C 
ENDBRANCH   1   5
TORSDOF 2
ENDMDL
MODEL 7
REMARK VINA RESULT:      -0.9      1.098      3.962
REMARK  2 active torsions:
REMARK  status: ('A' for Active; 'I' for Inactive)
REMARK    1  A    between atoms: C2_2  and  C7_7 
REMARK    2  A    between atoms: C7_7  and  C8_8 
ROOT
HETATM    1  C7  UNL     1     -33.162   6.992   3.393  1.00 20.00     0.035 C 
ENDROOT
BRANCH   1   2
HETATM    2  C2  UNL     1     -34.628   6.754   3.637  1.00 20.00    -0.030 C 
HETATM    3  C1  UNL     1     -35.131   5.588   4.071  1.00 20.00    -0.035 C 
HETATM    4  C3  UNL     1     -34.301   4.382   4.365  1.00 20.00     0.035 C 
ENDBRANCH   1   2
BRANCH   1   5
HETATM    5  C8  UNL     1     -32.692   6.798   1.924  1.00 20.00    -0.048 C 
HETATM    6  C4  UNL     1     -31.800   5.553   1.783  1.00 20.00     0.014 C 
HETATM    7  C5  UNL     1     -31.921   8.033   1.427  1.00 20.00     0.014 C 
HETATM    8  C6  UNL     1     -33.939   6.608   1.039  1.00 20.00     0.014 C 
ENDBRANCH   1   5
TORSDOF 2
ENDMDL
MODEL 8
REMARK VINA RESULT:      -0.9      1.342      3.573
REMARK  2 active torsions:
REMARK  status: ('A' for Active; 'I' for Inactive)
REMARK    1  A    between atoms: C2_2  and  C7_7 
REMARK    2  A    between atoms: C7_7  and  C8_8 
ROOT
HETATM    1  C7  UNL     1     -33.178   5.611   2.990  1.00 20.00     0.035 C 
ENDROOT
BRANCH   1   2
HETATM    2  C2  UNL     1     -34.514   6.190   3.372  1.00 20.00    -0.030 C 
HETATM    3  C1  UNL     1     -34.661   7.270   4.154  1.00 20.00    -0.035 C 
HETATM    4  C3  UNL     1     -33.520   8.031   4.743  1.00 20.00     0.035 C 
ENDBRANCH   1   2
BRANCH   1   5
HETATM    5  C8  UNL     1     -32.663   5.998   1.576  1.00 20.00    -0.048 C 
HETATM    6  C4  UNL     1     -32.037   7.402   1.574  1.00 20.00     0.014 C 
HETATM    7  C5  UNL     1     -33.804   5.950   0.544  1.00 20.00     0.014 C 
HETATM    8  C6  UNL     1     -31.583   4.980   1.159  1.00 20.00     0.014 C 
ENDBRANCH   1   5
TORSDOF 2
ENDMDL
MODEL 9
REMARK VINA RESULT:      -0.8      1.312      3.551
REMARK  2 active torsions:
REMARK  status: ('A' for Active; 'I' for Inactive)
REMARK    1  A    between atoms: C2_2  and  C7_7 
REMARK    2  A    between atoms: C7_7  and  C8_8 
ROOT
HETATM    1  C7  UNL     1     -33.198   5.636   3.025  1.00 20.00     0.035 C 
ENDROOT
BRANCH   1   2
HETATM    2  C2  UNL     1     -34.508   6.276   3.402  1.00 20.00    -0.030 C 
HETATM    3  C1  UNL     1     -34.609   7.354   4.194  1.00 20.00    -0.035 C 
HETATM    4  C3  UNL     1     -33.438   8.054   4.799  1.00 20.00     0.035 C 
ENDBRANCH   1   2
BRANCH   1   5
HETATM    5  C8  UNL     1     -32.655   6.010   1.617  1.00 20.00    -0.048 C 
HETATM    6  C4  UNL     1     -31.617   4.986   1.128  1.00 20.00     0.014 C 
HETATM    7  C5  UNL     1     -32.019   7.411   1.628  1.00 20.00     0.014 C 
HETATM    8  C6  UNL     1     -33.838   6.016   0.630  1.00 20.00     0.014 C 
ENDBRANCH   1   5
TORSDOF 2
ENDMDL
