MODEL 1
REMARK VINA RESULT:      -1.3      0.000      0.000
REMARK  2 active torsions:
REMARK  status: ('A' for Active; 'I' for Inactive)
REMARK    1  A    between atoms: C2_2  and  C9_9 
REMARK    2  A    between atoms: C6_6  and  C9_9 
ROOT
HETATM    1  C3  UNL     1     -33.871   5.424   3.256  1.00 20.00     0.002 C 
HETATM    2  C4  UNL     1     -32.836   5.984   2.276  1.00 20.00     0.006 C 
HETATM    3  C5  UNL     1     -34.737   6.609   3.686  1.00 20.00     0.020 C 
HETATM    4  C6  UNL     1     -33.193   7.463   2.102  1.00 20.00     0.008 C 
HETATM    5  C7  UNL     1     -33.877   7.842   3.421  1.00 20.00     0.086 C 
HETATM    6 CL10 UNL     1     -32.731   8.083   4.774  1.00 20.00    -0.125 Cl
ENDROOT
BRANCH   4   7
HETATM    7  C9  UNL     1     -32.033   8.320   1.698  1.00 20.00     0.039 C 
BRANCH   7   8
HETATM    8  C2  UNL     1     -32.399   9.342   0.648  1.00 20.00    -0.093 C 
HETATM    9  C1  UNL     1     -32.376   9.042  -0.660  1.00 20.00     0.014 C 
HETATM   10  C8  UNL     1     -32.755  10.719   1.129  1.00 20.00     0.042 C 
ENDBRANCH   7   8
ENDBRANCH   4   7
TORSDOF 2
ENDMDL
MODEL 2
REMARK VINA RESULT:      -0.4      1.048      1.586
REMARK  2 active torsions:
REMARK  status: ('A' for Active; 'I' for Inactive)
REMARK    1  A    between atoms: C2_2  and  C9_9 
REMARK    2  A    between atoms: C6_6  and  C9_9 
ROOT
HETATM    1  C3  UNL     1     -34.897   5.088   4.224  1.00 20.00     0.002 C 
HETATM    2  C4  UNL     1     -33.682   4.948   3.301  1.00 20.00     0.006 C 
HETATM    3  C5  UNL     1     -35.415   6.515   4.034  1.00 20.00     0.020 C 
HETATM    4  C6  UNL     1     -33.590   6.273   2.539  1.00 20.00     0.008 C 
HETATM    5  C7  UNL     1     -34.223   7.297   3.488  1.00 20.00     0.086 C 
HETATM    6 CL10 UNL     1     -33.148   7.779   4.836  1.00 20.00    -0.125 Cl
ENDROOT
BRANCH   4   7
HETATM    7  C9  UNL     1     -32.211   6.596   2.055  1.00 20.00     0.039 C 
BRANCH   7   8
HETATM    8  C2  UNL     1     -32.009   8.072   1.807  1.00 20.00    -0.093 C 
HETATM    9  C1  UNL     1     -32.509   8.674   0.718  1.00 20.00     0.014 C 
HETATM   10  C8  UNL     1     -31.192   8.829   2.815  1.00 20.00     0.042 C 
ENDBRANCH   7   8
ENDBRANCH   4   7
TORSDOF 2
ENDMDL
MODEL 3
REMARK VINA RESULT:       0.1      2.310      5.187
REMARK  2 active torsions:
REMARK  status: ('A' for Active; 'I' for Inactive)
REMARK    1  A    between atoms: C2_2  and  C9_9 
REMARK    2  A    between atoms: C6_6  and  C9_9 
ROOT
HETATM    1  C3  UNL     1     -32.925   6.910   1.859  1.00 20.00     0.002 C 
HETATM    2  C4  UNL     1     -33.070   5.414   2.152  1.00 20.00     0.006 C 
HETATM    3  C5  UNL     1     -33.268   7.635   3.162  1.00 20.00     0.020 C 
HETATM    4  C6  UNL     1     -33.407   5.317   3.642  1.00 20.00     0.008 C 
HETATM    5  C7  UNL     1     -34.114   6.641   3.955  1.00 20.00     0.086 C 
HETATM    6 CL10 UNL     1     -35.808   6.697   3.381  1.00 20.00    -0.125 Cl
ENDROOT
BRANCH   4   7
HETATM    7  C9  UNL     1     -34.156   4.074   4.012  1.00 20.00     0.039 C 
BRANCH   7   8
HETATM    8  C2  UNL     1     -33.300   3.073   4.751  1.00 20.00    -0.093 C 
HETATM    9  C1  UNL     1     -33.290   1.775   4.412  1.00 20.00     0.014 C 
HETATM   10  C8  UNL     1     -32.489   3.588   5.905  1.00 20.00     0.042 C 
ENDBRANCH   7   8
ENDBRANCH   4   7
TORSDOF 2
ENDMDL
MODEL 4
REMARK VINA RESULT:       0.2      1.723      4.502
REMARK  2 active torsions:
REMARK  status: ('A' for Active; 'I' for Inactive)
REMARK    1  A    between atoms: C2_2  and  C9_9 
REMARK    2  A    between atoms: C6_6  and  C9_9 
ROOT
HETATM    1  C3  UNL     1     -32.013   8.048   1.583  1.00 20.00     0.002 C 
HETATM    2  C4  UNL     1     -32.536   6.637   1.297  1.00 20.00     0.006 C 
HETATM    3  C5  UNL     1     -32.107   8.239   3.098  1.00 20.00     0.020 C 
HETATM    4  C6  UNL     1     -32.833   6.023   2.668  1.00 20.00     0.008 C 
HETATM    5  C7  UNL     1     -33.156   7.229   3.558  1.00 20.00     0.086 C 
HETATM    6 CL10 UNL     1     -34.795   7.895   3.289  1.00 20.00    -0.125 Cl
ENDROOT
BRANCH   4   7
HETATM    7  C9  UNL     1     -33.868   4.942   2.634  1.00 20.00     0.039 C 
BRANCH   7   8
HETATM    8  C2  UNL     1     -34.145   4.353   3.996  1.00 20.00    -0.093 C 
HETATM    9  C1  UNL     1     -33.404   3.349   4.489  1.00 20.00     0.014 C 
HETATM   10  C8  UNL     1     -35.309   4.916   4.760  1.00 20.00     0.042 C 
ENDBRANCH   7   8
ENDBRANCH   4   7
TORSDOF 2
ENDMDL
MODEL 5
REMARK VINA RESULT:       0.3      1.826      4.406
REMARK  2 active torsions:
REMARK  status: ('A' for Active; 'I' for Inactive)
REMARK    1  A    between atoms: C2_2  and  C9_9 
REMARK    2  A    between atoms: C6_6  and  C9_9 
ROOT
HETATM    1  C3  UNL     1     -31.514   8.667   1.295  1.00 20.00     0.002 C 
HETATM    2  C4  UNL     1     -31.887   8.472   2.768  1.00 20.00     0.006 C 
HETATM    3  C5  UNL     1     -32.513   7.836   0.488  1.00 20.00     0.020 C 
HETATM    4  C6  UNL     1     -33.147   7.603   2.761  1.00 20.00     0.008 C 
HETATM    5  C7  UNL     1     -33.034   6.787   1.468  1.00 20.00     0.086 C 
HETATM    6 CL10 UNL     1     -31.870   5.432   1.579  1.00 20.00    -0.125 Cl
ENDROOT
BRANCH   4   7
HETATM    7  C9  UNL     1     -33.340   6.811   4.018  1.00 20.00     0.039 C 
BRANCH   7   8
HETATM    8  C2  UNL     1     -34.529   5.882   3.947  1.00 20.00    -0.093 C 
HETATM    9  C1  UNL     1     -35.775   6.350   3.778  1.00 20.00     0.014 C 
HETATM   10  C8  UNL     1     -34.259   4.413   4.108  1.00 20.00     0.042 C 
ENDBRANCH   7   8
ENDBRANCH   4   7
TORSDOF 2
ENDMDL
MODEL 6
REMARK VINA RESULT:       0.3      2.050      4.034
REMARK  2 active torsions:
REMARK  status: ('A' for Active; 'I' for Inactive)
REMARK    1  A    between atoms: C2_2  and  C9_9 
REMARK    2  A    between atoms: C6_6  and  C9_9 
ROOT
HETATM    1  C3  UNL     1     -32.074   5.964   0.983  1.00 20.00     0.002 C 
HETATM    2  C4  UNL     1     -33.240   5.905   1.975  1.00 20.00     0.006 C 
HETATM    3  C5  UNL     1     -31.168   7.101   1.457  1.00 20.00     0.020 C 
HETATM    4  C6  UNL     1     -32.924   6.955   3.044  1.00 20.00     0.008 C 
HETATM    5  C7  UNL     1     -32.068   7.993   2.309  1.00 20.00     0.086 C 
HETATM    6 CL10 UNL     1     -33.018   9.081   1.251  1.00 20.00    -0.125 Cl
ENDROOT
BRANCH   4   7
HETATM    7  C9  UNL     1     -34.136   7.486   3.745  1.00 20.00     0.039 C 
BRANCH   7   8
HETATM    8  C2  UNL     1     -35.265   6.486   3.799  1.00 20.00    -0.093 C 
HETATM    9  C1  UNL     1     -35.167   5.356   4.517  1.00 20.00     0.014 C 
HETATM   10  C8  UNL     1     -36.490   6.793   2.985  1.00 20.00     0.042 C 
ENDBRANCH   7   8
ENDBRANCH   4   7
TORSDOF 2
ENDMDL
MODEL 7
REMARK VINA RESULT:       0.5      1.696      2.458
REMARK  2 active torsions:
REMARK  status: ('A' for Active; 'I' for Inactive)
REMARK    1  A    between atoms: C2_2  and  C9_9 
REMARK    2  A    between atoms: C6_6  and  C9_9 
ROOT
HETATM    1  C3  UNL     1     -34.922   5.190   4.080  1.00 20.00     0.002 C 
HETATM    2  C4  UNL     1     -34.921   6.708   3.879  1.00 20.00     0.006 C 
HETATM    3  C5  UNL     1     -33.584   4.686   3.535  1.00 20.00     0.020 C 
HETATM    4  C6  UNL     1     -33.542   7.046   3.305  1.00 20.00     0.008 C 
HETATM    5  C7  UNL     1     -33.120   5.770   2.565  1.00 20.00     0.086 C 
HETATM    6 CL10 UNL     1     -33.936   5.559   0.986  1.00 20.00    -0.125 Cl
ENDROOT
BRANCH   4   7
HETATM    7  C9  UNL     1     -33.517   8.307   2.497  1.00 20.00     0.039 C 
BRANCH   7   8
HETATM    8  C2  UNL     1     -32.285   8.423   1.632  1.00 20.00    -0.093 C 
HETATM    9  C1  UNL     1     -31.188   7.688   1.872  1.00 20.00     0.014 C 
HETATM   10  C8  UNL     1     -32.328   9.423   0.512  1.00 20.00     0.042 C 
ENDBRANCH   7   8
ENDBRANCH   4   7
TORSDOF 2
ENDMDL
MODEL 8
REMARK VINA RESULT:       0.7      2.460      3.181
REMARK  2 active torsions:
REMARK  status: ('A' for Active; 'I' for Inactive)
REMARK    1  A    between atoms: C2_2  and  C9_9 
REMARK    2  A    between atoms: C6_6  and  C9_9 
ROOT
HETATM    1  C3  UNL     1     -34.913   4.877   4.663  1.00 20.00     0.002 C 
HETATM    2  C4  UNL     1     -33.843   4.616   3.598  1.00 20.00     0.006 C 
HETATM    3  C5  UNL     1     -35.557   6.216   4.301  1.00 20.00     0.020 C 
HETATM    4  C6  UNL     1     -33.964   5.773   2.602  1.00 20.00     0.008 C 
HETATM    5  C7  UNL     1     -34.521   6.931   3.437  1.00 20.00     0.086 C 
HETATM    6 CL10 UNL     1     -33.295   7.711   4.483  1.00 20.00    -0.125 Cl
ENDROOT
BRANCH   4   7
HETATM    7  C9  UNL     1     -32.699   6.058   1.852  1.00 20.00     0.039 C 
BRANCH   7   8
HETATM    8  C2  UNL     1     -32.417   5.040   0.773  1.00 20.00    -0.093 C 
HETATM    9  C1  UNL     1     -31.188   4.532   0.593  1.00 20.00     0.014 C 
HETATM   10  C8  UNL     1     -33.564   4.649  -0.114  1.00 20.00     0.042 C 
ENDBRANCH   7   8
ENDBRANCH   4   7
TORSDOF 2
ENDMDL
MODEL 9
REMARK VINA RESULT:       0.7      2.022      4.499
REMARK  2 active torsions:
REMARK  status: ('A' for Active; 'I' for Inactive)
REMARK    1  A    between atoms: C2_2  and  C9_9 
REMARK    2  A    between atoms: C6_6  and  C9_9 
ROOT
HETATM    1  C3  UNL     1     -32.651  11.101   0.407  1.00 20.00     0.002 C 
HETATM    2  C4  UNL     1     -32.491  10.210   1.642  1.00 20.00     0.006 C 
HETATM    3  C5  UNL     1     -32.863  10.156  -0.777  1.00 20.00     0.020 C 
HETATM    4  C6  UNL     1     -32.706   8.777   1.145  1.00 20.00     0.008 C 
HETATM    5  C7  UNL     1     -32.276   8.821  -0.326  1.00 20.00     0.086 C 
HETATM    6 CL10 UNL     1     -30.500   8.835  -0.550  1.00 20.00    -0.125 Cl
ENDROOT
BRANCH   4   7
HETATM    7  C9  UNL     1     -32.035   7.739   1.990  1.00 20.00     0.039 C 
BRANCH   7   8
HETATM    8  C2  UNL     1     -32.878   6.499   2.173  1.00 20.00    -0.093 C 
HETATM    9  C1  UNL     1     -32.725   5.425   1.384  1.00 20.00     0.014 C 
HETATM   10  C8  UNL     1     -33.920   6.535   3.254  1.00 20.00     0.042 C 
ENDBRANCH   7   8
ENDBRANCH   4   7
TORSDOF 2
ENDMDL
