MODEL 1
REMARK VINA RESULT:      -1.5      0.000      0.000
REMARK  3 active torsions:
REMARK  status: ('A' for Active; 'I' for Inactive)
REMARK    1  A    between atoms: C2_2  and  C6_6 
REMARK    2  A    between atoms: C6_6  and  C7_7 
REMARK    3  A    between atoms: C7_7  and  C8_8 
ROOT
HETATM    1  C4  UNL     1     -32.721   5.820   1.397  1.00 20.00     0.011 C 
HETATM    2  C7  UNL     1     -33.067   7.170   2.044  1.00 20.00    -0.001 C 
ENDROOT
BRANCH   2   3
HETATM    3  C6  UNL     1     -31.985   8.239   1.756  1.00 20.00     0.038 C 
BRANCH   3   4
HETATM    4  C2  UNL     1     -32.370   9.259   0.704  1.00 20.00    -0.093 C 
HETATM    5  C1  UNL     1     -32.331   8.965  -0.606  1.00 20.00     0.014 C 
HETATM    6  C3  UNL     1     -32.839  10.600   1.190  1.00 20.00     0.042 C 
ENDBRANCH   3   4
ENDBRANCH   2   3
BRANCH   2   7
HETATM    7  C8  UNL     1     -33.399   7.010   3.548  1.00 20.00     0.057 C 
HETATM    8  C5  UNL     1     -33.325   8.312   4.337  1.00 20.00     0.022 C 
HETATM    9 BR9  UNL     1     -35.167   6.216   3.845  1.00 20.00    -0.091 Br
ENDBRANCH   2   7
TORSDOF 3
ENDMDL
MODEL 2
REMARK VINA RESULT:      -1.5      0.472      1.189
REMARK  3 active torsions:
REMARK  status: ('A' for Active; 'I' for Inactive)
REMARK    1  A    between atoms: C2_2  and  C6_6 
REMARK    2  A    between atoms: C6_6  and  C7_7 
REMARK    3  A    between atoms: C7_7  and  C8_8 
ROOT
HETATM    1  C4  UNL     1     -32.757   5.871   1.503  1.00 20.00     0.011 C 
HETATM    2  C7  UNL     1     -33.087   7.200   2.201  1.00 20.00    -0.001 C 
ENDROOT
BRANCH   2   3
HETATM    3  C6  UNL     1     -31.945   8.233   2.038  1.00 20.00     0.038 C 
BRANCH   3   4
HETATM    4  C2  UNL     1     -32.057   9.108   0.807  1.00 20.00    -0.093 C 
HETATM    5  C1  UNL     1     -32.832  10.205   0.793  1.00 20.00     0.014 C 
HETATM    6  C3  UNL     1     -31.231   8.721  -0.386  1.00 20.00     0.042 C 
ENDBRANCH   3   4
ENDBRANCH   2   3
BRANCH   2   7
HETATM    7  C8  UNL     1     -33.519   6.977   3.671  1.00 20.00     0.057 C 
HETATM    8  C5  UNL     1     -33.489   8.242   4.521  1.00 20.00     0.022 C 
HETATM    9 BR9  UNL     1     -35.308   6.188   3.815  1.00 20.00    -0.091 Br
ENDBRANCH   2   7
TORSDOF 3
ENDMDL
MODEL 3
REMARK VINA RESULT:      -1.2      1.232      1.453
REMARK  3 active torsions:
REMARK  status: ('A' for Active; 'I' for Inactive)
REMARK    1  A    between atoms: C2_2  and  C6_6 
REMARK    2  A    between atoms: C6_6  and  C7_7 
REMARK    3  A    between atoms: C7_7  and  C8_8 
ROOT
HETATM    1  C4  UNL     1     -32.485   5.588   1.530  1.00 20.00     0.011 C 
HETATM    2  C7  UNL     1     -33.140   6.934   1.878  1.00 20.00    -0.001 C 
ENDROOT
BRANCH   2   3
HETATM    3  C6  UNL     1     -32.090   8.063   2.023  1.00 20.00     0.038 C 
BRANCH   3   4
HETATM    4  C2  UNL     1     -31.985   8.984   0.826  1.00 20.00    -0.093 C 
HETATM    5  C1  UNL     1     -31.198   8.689  -0.221  1.00 20.00     0.014 C 
HETATM    6  C3  UNL     1     -32.832  10.225   0.840  1.00 20.00     0.042 C 
ENDBRANCH   3   4
ENDBRANCH   2   3
BRANCH   2   7
HETATM    7  C8  UNL     1     -34.088   6.805   3.095  1.00 20.00     0.057 C 
HETATM    8  C5  UNL     1     -34.185   5.391   3.654  1.00 20.00     0.022 C 
HETATM    9 BR9  UNL     1     -33.590   8.008   4.562  1.00 20.00    -0.091 Br
ENDBRANCH   2   7
TORSDOF 3
ENDMDL
MODEL 4
REMARK VINA RESULT:      -1.1      2.362      4.584
REMARK  3 active torsions:
REMARK  status: ('A' for Active; 'I' for Inactive)
REMARK    1  A    between atoms: C2_2  and  C6_6 
REMARK    2  A    between atoms: C6_6  and  C7_7 
REMARK    3  A    between atoms: C7_7  and  C8_8 
ROOT
HETATM    1  C4  UNL     1     -33.032   8.032   4.273  1.00 20.00     0.011 C 
HETATM    2  C7  UNL     1     -33.210   7.659   2.793  1.00 20.00    -0.001 C 
ENDROOT
BRANCH   2   3
HETATM    3  C6  UNL     1     -33.504   6.150   2.612  1.00 20.00     0.038 C 
BRANCH   3   4
HETATM    4  C2  UNL     1     -34.417   5.554   3.662  1.00 20.00    -0.093 C 
HETATM    5  C1  UNL     1     -35.529   6.188   4.068  1.00 20.00     0.014 C 
HETATM    6  C3  UNL     1     -34.048   4.202   4.203  1.00 20.00     0.042 C 
ENDBRANCH   3   4
ENDBRANCH   2   3
BRANCH   2   7
HETATM    7  C8  UNL     1     -32.028   8.171   1.934  1.00 20.00     0.057 C 
HETATM    8  C5  UNL     1     -31.327   7.077   1.136  1.00 20.00     0.022 C 
HETATM    9 BR9  UNL     1     -32.565   9.586   0.687  1.00 20.00    -0.091 Br
ENDBRANCH   2   7
TORSDOF 3
ENDMDL
MODEL 5
REMARK VINA RESULT:      -0.6      1.635      3.001
REMARK  3 active torsions:
REMARK  status: ('A' for Active; 'I' for Inactive)
REMARK    1  A    between atoms: C2_2  and  C6_6 
REMARK    2  A    between atoms: C6_6  and  C7_7 
REMARK    3  A    between atoms: C7_7  and  C8_8 
ROOT
HETATM    1  C4  UNL     1     -33.511   8.286   5.049  1.00 20.00     0.011 C 
HETATM    2  C7  UNL     1     -33.582   7.161   4.004  1.00 20.00    -0.001 C 
ENDROOT
BRANCH   2   3
HETATM    3  C6  UNL     1     -33.547   7.717   2.559  1.00 20.00     0.038 C 
BRANCH   3   4
HETATM    4  C2  UNL     1     -32.388   7.221   1.720  1.00 20.00    -0.093 C 
HETATM    5  C1  UNL     1     -31.374   8.030   1.375  1.00 20.00     0.014 C 
HETATM    6  C3  UNL     1     -32.400   5.772   1.324  1.00 20.00     0.042 C 
ENDBRANCH   3   4
ENDBRANCH   2   3
BRANCH   2   7
HETATM    7  C8  UNL     1     -34.771   6.208   4.275  1.00 20.00     0.057 C 
HETATM    8  C5  UNL     1     -35.954   6.414   3.336  1.00 20.00     0.022 C 
HETATM    9 BR9  UNL     1     -34.251   4.319   4.196  1.00 20.00    -0.091 Br
ENDBRANCH   2   7
TORSDOF 3
ENDMDL
MODEL 6
REMARK VINA RESULT:      -0.6      1.414      1.988
REMARK  3 active torsions:
REMARK  status: ('A' for Active; 'I' for Inactive)
REMARK    1  A    between atoms: C2_2  and  C6_6 
REMARK    2  A    between atoms: C6_6  and  C7_7 
REMARK    3  A    between atoms: C7_7  and  C8_8 
ROOT
HETATM    1  C4  UNL     1     -33.150   4.723   1.080  1.00 20.00     0.011 C 
HETATM    2  C7  UNL     1     -33.168   6.090   1.783  1.00 20.00    -0.001 C 
ENDROOT
BRANCH   2   3
HETATM    3  C6  UNL     1     -31.858   6.878   1.539  1.00 20.00     0.038 C 
BRANCH   3   4
HETATM    4  C2  UNL     1     -31.947   8.360   1.837  1.00 20.00    -0.093 C 
HETATM    5  C1  UNL     1     -31.670   8.849   3.057  1.00 20.00     0.014 C 
HETATM    6  C3  UNL     1     -32.319   9.266   0.699  1.00 20.00     0.042 C 
ENDBRANCH   3   4
ENDBRANCH   2   3
BRANCH   2   7
HETATM    7  C8  UNL     1     -33.541   5.953   3.279  1.00 20.00     0.057 C 
HETATM    8  C5  UNL     1     -34.774   6.753   3.683  1.00 20.00     0.022 C 
HETATM    9 BR9  UNL     1     -33.823   4.088   3.814  1.00 20.00    -0.091 Br
ENDBRANCH   2   7
TORSDOF 3
ENDMDL
MODEL 7
REMARK VINA RESULT:      -0.5      2.619      4.999
REMARK  3 active torsions:
REMARK  status: ('A' for Active; 'I' for Inactive)
REMARK    1  A    between atoms: C2_2  and  C6_6 
REMARK    2  A    between atoms: C6_6  and  C7_7 
REMARK    3  A    between atoms: C7_7  and  C8_8 
ROOT
HETATM    1  C4  UNL     1     -33.833   7.599   3.950  1.00 20.00     0.011 C 
HETATM    2  C7  UNL     1     -33.711   6.441   2.947  1.00 20.00    -0.001 C 
ENDROOT
BRANCH   2   3
HETATM    3  C6  UNL     1     -33.066   5.189   3.590  1.00 20.00     0.038 C 
BRANCH   3   4
HETATM    4  C2  UNL     1     -34.035   4.289   4.327  1.00 20.00    -0.093 C 
HETATM    5  C1  UNL     1     -35.284   4.688   4.616  1.00 20.00     0.014 C 
HETATM    6  C3  UNL     1     -33.553   2.911   4.684  1.00 20.00     0.042 C 
ENDBRANCH   3   4
ENDBRANCH   2   3
BRANCH   2   7
HETATM    7  C8  UNL     1     -33.018   6.895   1.639  1.00 20.00     0.057 C 
HETATM    8  C5  UNL     1     -32.077   8.080   1.819  1.00 20.00     0.022 C 
HETATM    9 BR9  UNL     1     -32.016   5.445   0.780  1.00 20.00    -0.091 Br
ENDBRANCH   2   7
TORSDOF 3
ENDMDL
MODEL 8
REMARK VINA RESULT:      -0.5      2.146      4.123
REMARK  3 active torsions:
REMARK  status: ('A' for Active; 'I' for Inactive)
REMARK    1  A    between atoms: C2_2  and  C6_6 
REMARK    2  A    between atoms: C6_6  and  C7_7 
REMARK    3  A    between atoms: C7_7  and  C8_8 
ROOT
HETATM    1  C4  UNL     1     -32.051   6.267   1.423  1.00 20.00     0.011 C 
HETATM    2  C7  UNL     1     -32.234   7.649   2.069  1.00 20.00    -0.001 C 
ENDROOT
BRANCH   2   3
HETATM    3  C6  UNL     1     -33.707   7.903   2.473  1.00 20.00     0.038 C 
BRANCH   3   4
HETATM    4  C2  UNL     1     -34.073   7.421   3.861  1.00 20.00    -0.093 C 
HETATM    5  C1  UNL     1     -33.537   7.976   4.961  1.00 20.00     0.014 C 
HETATM    6  C3  UNL     1     -35.094   6.324   3.959  1.00 20.00     0.042 C 
ENDBRANCH   3   4
ENDBRANCH   2   3
BRANCH   2   7
HETATM    7  C8  UNL     1     -31.628   8.771   1.191  1.00 20.00     0.057 C 
HETATM    8  C5  UNL     1     -31.137   8.291  -0.170  1.00 20.00     0.022 C 
HETATM    9 BR9  UNL     1     -32.879  10.253   0.900  1.00 20.00    -0.091 Br
ENDBRANCH   2   7
TORSDOF 3
ENDMDL
MODEL 9
REMARK VINA RESULT:      -0.4      2.580      4.721
REMARK  3 active torsions:
REMARK  status: ('A' for Active; 'I' for Inactive)
REMARK    1  A    between atoms: C2_2  and  C6_6 
REMARK    2  A    between atoms: C6_6  and  C7_7 
REMARK    3  A    between atoms: C7_7  and  C8_8 
ROOT
HETATM    1  C4  UNL     1     -31.904   5.413   1.171  1.00 20.00     0.011 C 
HETATM    2  C7  UNL     1     -32.758   5.729   2.409  1.00 20.00    -0.001 C 
ENDROOT
BRANCH   2   3
HETATM    3  C6  UNL     1     -33.908   4.709   2.589  1.00 20.00     0.038 C 
BRANCH   3   4
HETATM    4  C2  UNL     1     -34.188   4.321   4.025  1.00 20.00    -0.093 C 
HETATM    5  C1  UNL     1     -35.190   4.881   4.722  1.00 20.00     0.014 C 
HETATM    6  C3  UNL     1     -33.324   3.249   4.626  1.00 20.00     0.042 C 
ENDBRANCH   3   4
ENDBRANCH   2   3
BRANCH   2   7
HETATM    7  C8  UNL     1     -33.228   7.204   2.413  1.00 20.00     0.057 C 
HETATM    8  C5  UNL     1     -33.534   7.751   3.802  1.00 20.00     0.022 C 
HETATM    9 BR9  UNL     1     -31.936   8.405   1.556  1.00 20.00    -0.091 Br
ENDBRANCH   2   7
TORSDOF 3
ENDMDL
