MODEL 1
REMARK VINA RESULT:      -3.0      0.000      0.000
REMARK  2 active torsions:
REMARK  status: ('A' for Active; 'I' for Inactive)
REMARK    1  A    between atoms: C5_5  and  C6_6 
REMARK    2  A    between atoms: C6_6  and  C7_7 
ROOT
HETATM    1  C1  UNL     1     -33.284   3.011   4.745  1.00 20.00     0.012 C 
HETATM    2  C2  UNL     1     -33.818   3.937   4.202  1.00 20.00    -0.117 C 
HETATM    3  C5  UNL     1     -34.479   5.071   3.533  1.00 20.00     0.098 C 
ENDROOT
BRANCH   3   4
HETATM    4  C6  UNL     1     -33.557   6.306   3.430  1.00 20.00     0.011 C 
HETATM    5  C3  UNL     1     -34.200   7.527   4.105  1.00 20.00     0.012 C 
BRANCH   4   6
HETATM    6  C7  UNL     1     -33.141   6.567   1.958  1.00 20.00     0.082 C 
HETATM    7  C4  UNL     1     -32.454   5.371   1.304  1.00 20.00     0.027 C 
HETATM    8 CL8  UNL     1     -32.083   8.005   1.789  1.00 20.00    -0.125 Cl
ENDBRANCH   4   6
ENDBRANCH   3   4
TORSDOF 2
ENDMDL
MODEL 2
REMARK VINA RESULT:      -2.5      2.722      4.631
REMARK  2 active torsions:
REMARK  status: ('A' for Active; 'I' for Inactive)
REMARK    1  A    between atoms: C5_5  and  C6_6 
REMARK    2  A    between atoms: C6_6  and  C7_7 
ROOT
HETATM    1  C1  UNL     1     -32.596   9.582   0.229  1.00 20.00     0.012 C 
HETATM    2  C2  UNL     1     -32.178   8.876   1.105  1.00 20.00    -0.117 C 
HETATM    3  C5  UNL     1     -31.658   8.012   2.178  1.00 20.00     0.098 C 
ENDROOT
BRANCH   3   4
HETATM    4  C6  UNL     1     -32.669   6.919   2.588  1.00 20.00     0.011 C 
HETATM    5  C3  UNL     1     -33.131   6.114   1.364  1.00 20.00     0.012 C 
BRANCH   4   6
HETATM    6  C7  UNL     1     -33.842   7.524   3.403  1.00 20.00     0.082 C 
HETATM    7  C4  UNL     1     -33.394   8.189   4.703  1.00 20.00     0.027 C 
HETATM    8 CL8  UNL     1     -35.112   6.316   3.779  1.00 20.00    -0.125 Cl
ENDBRANCH   4   6
ENDBRANCH   3   4
TORSDOF 2
ENDMDL
MODEL 3
REMARK VINA RESULT:      -2.4      2.100      4.176
REMARK  2 active torsions:
REMARK  status: ('A' for Active; 'I' for Inactive)
REMARK    1  A    between atoms: C5_5  and  C6_6 
REMARK    2  A    between atoms: C6_6  and  C7_7 
ROOT
HETATM    1  C1  UNL     1     -32.376   9.796   0.104  1.00 20.00     0.012 C 
HETATM    2  C2  UNL     1     -32.250   9.002   0.995  1.00 20.00    -0.117 C 
HETATM    3  C5  UNL     1     -32.089   8.027   2.087  1.00 20.00     0.098 C 
ENDROOT
BRANCH   3   4
HETATM    4  C6  UNL     1     -33.432   7.380   2.494  1.00 20.00     0.011 C 
HETATM    5  C3  UNL     1     -33.758   7.679   3.966  1.00 20.00     0.012 C 
BRANCH   4   6
HETATM    6  C7  UNL     1     -33.443   5.865   2.158  1.00 20.00     0.082 C 
HETATM    7  C4  UNL     1     -33.659   4.978   3.381  1.00 20.00     0.027 C 
HETATM    8 CL8  UNL     1     -31.952   5.338   1.316  1.00 20.00    -0.125 Cl
ENDBRANCH   4   6
ENDBRANCH   3   4
TORSDOF 2
ENDMDL
MODEL 4
REMARK VINA RESULT:      -2.4      1.844      2.810
REMARK  2 active torsions:
REMARK  status: ('A' for Active; 'I' for Inactive)
REMARK    1  A    between atoms: C5_5  and  C6_6 
REMARK    2  A    between atoms: C6_6  and  C7_7 
ROOT
HETATM    1  C1  UNL     1     -35.444   5.763   4.191  1.00 20.00     0.012 C 
HETATM    2  C2  UNL     1     -34.571   6.503   3.832  1.00 20.00    -0.117 C 
HETATM    3  C5  UNL     1     -33.500   7.416   3.396  1.00 20.00     0.098 C 
ENDROOT
BRANCH   3   4
HETATM    4  C6  UNL     1     -33.077   7.163   1.932  1.00 20.00     0.011 C 
HETATM    5  C3  UNL     1     -32.804   5.671   1.691  1.00 20.00     0.012 C 
BRANCH   4   6
HETATM    6  C7  UNL     1     -31.890   8.077   1.530  1.00 20.00     0.082 C 
HETATM    7  C4  UNL     1     -31.138   8.650   2.729  1.00 20.00     0.027 C 
HETATM    8 CL8  UNL     1     -32.392   9.426   0.463  1.00 20.00    -0.125 Cl
ENDBRANCH   4   6
ENDBRANCH   3   4
TORSDOF 2
ENDMDL
MODEL 5
REMARK VINA RESULT:      -2.3      2.405      4.288
REMARK  2 active torsions:
REMARK  status: ('A' for Active; 'I' for Inactive)
REMARK    1  A    between atoms: C5_5  and  C6_6 
REMARK    2  A    between atoms: C6_6  and  C7_7 
ROOT
HETATM    1  C1  UNL     1     -32.511   9.851   0.038  1.00 20.00     0.012 C 
HETATM    2  C2  UNL     1     -32.278   9.099   0.944  1.00 20.00    -0.117 C 
HETATM    3  C5  UNL     1     -31.986   8.179   2.055  1.00 20.00     0.098 C 
ENDROOT
BRANCH   3   4
HETATM    4  C6  UNL     1     -33.206   7.305   2.426  1.00 20.00     0.011 C 
HETATM    5  C3  UNL     1     -33.754   7.689   3.808  1.00 20.00     0.012 C 
BRANCH   4   6
HETATM    6  C7  UNL     1     -32.868   5.796   2.297  1.00 20.00     0.082 C 
HETATM    7  C4  UNL     1     -33.020   5.264   0.874  1.00 20.00     0.027 C 
HETATM    8 CL8  UNL     1     -33.844   4.778   3.403  1.00 20.00    -0.125 Cl
ENDBRANCH   4   6
ENDBRANCH   3   4
TORSDOF 2
ENDMDL
MODEL 6
REMARK VINA RESULT:      -2.2      2.483      4.321
REMARK  2 active torsions:
REMARK  status: ('A' for Active; 'I' for Inactive)
REMARK    1  A    between atoms: C5_5  and  C6_6 
REMARK    2  A    between atoms: C6_6  and  C7_7 
ROOT
HETATM    1  C1  UNL     1     -32.473   9.883   0.250  1.00 20.00     0.012 C 
HETATM    2  C2  UNL     1     -32.257   9.008   1.042  1.00 20.00    -0.117 C 
HETATM    3  C5  UNL     1     -31.988   7.931   2.009  1.00 20.00     0.098 C 
ENDROOT
BRANCH   3   4
HETATM    4  C6  UNL     1     -33.103   7.808   3.072  1.00 20.00     0.011 C 
HETATM    5  C3  UNL     1     -32.652   8.413   4.410  1.00 20.00     0.012 C 
BRANCH   4   6
HETATM    6  C7  UNL     1     -33.594   6.341   3.196  1.00 20.00     0.082 C 
HETATM    7  C4  UNL     1     -33.473   5.553   1.894  1.00 20.00     0.027 C 
HETATM    8 CL8  UNL     1     -35.282   6.230   3.785  1.00 20.00    -0.125 Cl
ENDBRANCH   4   6
ENDBRANCH   3   4
TORSDOF 2
ENDMDL
MODEL 7
REMARK VINA RESULT:      -2.2      2.300      4.349
REMARK  2 active torsions:
REMARK  status: ('A' for Active; 'I' for Inactive)
REMARK    1  A    between atoms: C5_5  and  C6_6 
REMARK    2  A    between atoms: C6_6  and  C7_7 
ROOT
HETATM    1  C1  UNL     1     -31.915   8.905   0.611  1.00 20.00     0.012 C 
HETATM    2  C2  UNL     1     -32.334   8.348   1.587  1.00 20.00    -0.117 C 
HETATM    3  C5  UNL     1     -32.848   7.668   2.788  1.00 20.00     0.098 C 
ENDROOT
BRANCH   3   4
HETATM    4  C6  UNL     1     -32.917   6.135   2.608  1.00 20.00     0.011 C 
HETATM    5  C3  UNL     1     -32.674   5.746   1.142  1.00 20.00     0.012 C 
BRANCH   4   6
HETATM    6  C7  UNL     1     -34.242   5.567   3.182  1.00 20.00     0.082 C 
HETATM    7  C4  UNL     1     -35.007   6.571   4.041  1.00 20.00     0.027 C 
HETATM    8 CL8  UNL     1     -33.990   4.068   4.131  1.00 20.00    -0.125 Cl
ENDBRANCH   4   6
ENDBRANCH   3   4
TORSDOF 2
ENDMDL
MODEL 8
REMARK VINA RESULT:      -1.9      2.057      3.996
REMARK  2 active torsions:
REMARK  status: ('A' for Active; 'I' for Inactive)
REMARK    1  A    between atoms: C5_5  and  C6_6 
REMARK    2  A    between atoms: C6_6  and  C7_7 
ROOT
HETATM    1  C1  UNL     1     -31.869   8.300   1.285  1.00 20.00     0.012 C 
HETATM    2  C2  UNL     1     -32.279   7.192   1.497  1.00 20.00    -0.117 C 
HETATM    3  C5  UNL     1     -32.781   5.832   1.750  1.00 20.00     0.098 C 
ENDROOT
BRANCH   3   4
HETATM    4  C6  UNL     1     -33.261   5.649   3.208  1.00 20.00     0.011 C 
HETATM    5  C3  UNL     1     -33.684   4.195   3.466  1.00 20.00     0.012 C 
BRANCH   4   6
HETATM    6  C7  UNL     1     -34.363   6.681   3.564  1.00 20.00     0.082 C 
HETATM    7  C4  UNL     1     -33.862   7.817   4.452  1.00 20.00     0.027 C 
HETATM    8 CL8  UNL     1     -35.787   5.922   4.343  1.00 20.00    -0.125 Cl
ENDBRANCH   4   6
ENDBRANCH   3   4
TORSDOF 2
ENDMDL
MODEL 9
REMARK VINA RESULT:      -1.8      1.490      2.036
REMARK  2 active torsions:
REMARK  status: ('A' for Active; 'I' for Inactive)
REMARK    1  A    between atoms: C5_5  and  C6_6 
REMARK    2  A    between atoms: C6_6  and  C7_7 
ROOT
HETATM    1  C1  UNL     1     -33.521   3.225   4.380  1.00 20.00     0.012 C 
HETATM    2  C2  UNL     1     -33.993   4.306   4.160  1.00 20.00    -0.117 C 
HETATM    3  C5  UNL     1     -34.578   5.631   3.895  1.00 20.00     0.098 C 
ENDROOT
BRANCH   3   4
HETATM    4  C6  UNL     1     -33.963   6.301   2.646  1.00 20.00     0.011 C 
HETATM    5  C3  UNL     1     -32.906   5.391   2.002  1.00 20.00     0.012 C 
BRANCH   4   6
HETATM    6  C7  UNL     1     -33.430   7.719   2.981  1.00 20.00     0.082 C 
HETATM    7  C4  UNL     1     -32.091   8.032   2.318  1.00 20.00     0.027 C 
HETATM    8 CL8  UNL     1     -33.281   7.996   4.745  1.00 20.00    -0.125 Cl
ENDBRANCH   4   6
ENDBRANCH   3   4
TORSDOF 2
ENDMDL
