MODEL 1
REMARK VINA RESULT:      -3.3      0.000      0.000
REMARK  2 active torsions:
REMARK  status: ('A' for Active; 'I' for Inactive)
REMARK    1  A    between atoms: C5_5  and  C6_6 
REMARK    2  A    between atoms: C6_6  and  C7_7 
ROOT
HETATM    1  C1  UNL     1     -32.437   9.830   0.109  1.00 20.00     0.012 C 
HETATM    2  C2  UNL     1     -32.253   9.006   0.963  1.00 20.00    -0.117 C 
HETATM    3  C5  UNL     1     -32.020   7.998   2.010  1.00 20.00     0.098 C 
ENDROOT
BRANCH   3   4
HETATM    4  C6  UNL     1     -33.195   7.000   2.131  1.00 20.00     0.011 C 
HETATM    5  C3  UNL     1     -32.845   5.659   1.469  1.00 20.00     0.012 C 
BRANCH   4   6
HETATM    6  C7  UNL     1     -33.642   6.864   3.610  1.00 20.00     0.082 C 
HETATM    7  C4  UNL     1     -33.472   8.150   4.415  1.00 20.00     0.027 C 
HETATM    8 CL8  UNL     1     -35.339   6.307   3.756  1.00 20.00    -0.125 Cl
ENDBRANCH   4   6
ENDBRANCH   3   4
TORSDOF 2
ENDMDL
MODEL 2
REMARK VINA RESULT:      -2.3      2.471      4.509
REMARK  2 active torsions:
REMARK  status: ('A' for Active; 'I' for Inactive)
REMARK    1  A    between atoms: C5_5  and  C6_6 
REMARK    2  A    between atoms: C6_6  and  C7_7 
ROOT
HETATM    1  C1  UNL     1     -33.650   3.606   4.408  1.00 20.00     0.012 C 
HETATM    2  C2  UNL     1     -34.301   4.584   4.159  1.00 20.00    -0.117 C 
HETATM    3  C5  UNL     1     -35.105   5.778   3.854  1.00 20.00     0.098 C 
ENDROOT
BRANCH   3   4
HETATM    4  C6  UNL     1     -34.230   6.975   3.417  1.00 20.00     0.011 C 
HETATM    5  C3  UNL     1     -33.820   7.825   4.630  1.00 20.00     0.012 C 
BRANCH   4   6
HETATM    6  C7  UNL     1     -33.027   6.488   2.567  1.00 20.00     0.082 C 
HETATM    7  C4  UNL     1     -33.443   5.710   1.321  1.00 20.00     0.027 C 
HETATM    8 CL8  UNL     1     -31.953   7.837   2.078  1.00 20.00    -0.125 Cl
ENDBRANCH   4   6
ENDBRANCH   3   4
TORSDOF 2
ENDMDL
MODEL 3
REMARK VINA RESULT:      -2.2      2.534      4.296
REMARK  2 active torsions:
REMARK  status: ('A' for Active; 'I' for Inactive)
REMARK    1  A    between atoms: C5_5  and  C6_6 
REMARK    2  A    between atoms: C6_6  and  C7_7 
ROOT
HETATM    1  C1  UNL     1     -33.218   2.819   4.771  1.00 20.00     0.012 C 
HETATM    2  C2  UNL     1     -33.673   3.775   4.204  1.00 20.00    -0.117 C 
HETATM    3  C5  UNL     1     -34.237   4.944   3.509  1.00 20.00     0.098 C 
ENDROOT
BRANCH   3   4
HETATM    4  C6  UNL     1     -33.152   5.773   2.786  1.00 20.00     0.011 C 
HETATM    5  C3  UNL     1     -32.912   5.241   1.365  1.00 20.00     0.012 C 
BRANCH   4   6
HETATM    6  C7  UNL     1     -33.501   7.284   2.832  1.00 20.00     0.082 C 
HETATM    7  C4  UNL     1     -33.921   7.767   4.218  1.00 20.00     0.027 C 
HETATM    8 CL8  UNL     1     -32.153   8.309   2.244  1.00 20.00    -0.125 Cl
ENDBRANCH   4   6
ENDBRANCH   3   4
TORSDOF 2
ENDMDL
MODEL 4
REMARK VINA RESULT:      -2.1      1.645      2.583
REMARK  2 active torsions:
REMARK  status: ('A' for Active; 'I' for Inactive)
REMARK    1  A    between atoms: C5_5  and  C6_6 
REMARK    2  A    between atoms: C6_6  and  C7_7 
ROOT
HETATM    1  C1  UNL     1     -31.667   8.352   1.398  1.00 20.00     0.012 C 
HETATM    2  C2  UNL     1     -32.273   7.344   1.644  1.00 20.00    -0.117 C 
HETATM    3  C5  UNL     1     -33.015   6.108   1.939  1.00 20.00     0.098 C 
ENDROOT
BRANCH   3   4
HETATM    4  C6  UNL     1     -33.453   6.028   3.419  1.00 20.00     0.011 C 
HETATM    5  C3  UNL     1     -34.154   7.324   3.853  1.00 20.00     0.012 C 
BRANCH   4   6
HETATM    6  C7  UNL     1     -34.298   4.751   3.668  1.00 20.00     0.082 C 
HETATM    7  C4  UNL     1     -33.490   3.594   4.249  1.00 20.00     0.027 C 
HETATM    8 CL8  UNL     1     -35.705   5.069   4.732  1.00 20.00    -0.125 Cl
ENDBRANCH   4   6
ENDBRANCH   3   4
TORSDOF 2
ENDMDL
MODEL 5
REMARK VINA RESULT:      -2.0      2.529      4.395
REMARK  2 active torsions:
REMARK  status: ('A' for Active; 'I' for Inactive)
REMARK    1  A    between atoms: C5_5  and  C6_6 
REMARK    2  A    between atoms: C6_6  and  C7_7 
ROOT
HETATM    1  C1  UNL     1     -32.882   2.810   5.140  1.00 20.00     0.012 C 
HETATM    2  C2  UNL     1     -33.416   3.516   4.328  1.00 20.00    -0.117 C 
HETATM    3  C5  UNL     1     -34.075   4.375   3.332  1.00 20.00     0.098 C 
ENDROOT
BRANCH   3   4
HETATM    4  C6  UNL     1     -33.324   5.710   3.123  1.00 20.00     0.011 C 
HETATM    5  C3  UNL     1     -32.781   5.813   1.690  1.00 20.00     0.012 C 
BRANCH   4   6
HETATM    6  C7  UNL     1     -34.218   6.908   3.535  1.00 20.00     0.082 C 
HETATM    7  C4  UNL     1     -35.595   6.488   4.044  1.00 20.00     0.027 C 
HETATM    8 CL8  UNL     1     -33.435   7.944   4.770  1.00 20.00    -0.125 Cl
ENDBRANCH   4   6
ENDBRANCH   3   4
TORSDOF 2
ENDMDL
MODEL 6
REMARK VINA RESULT:      -1.8      1.186      2.302
REMARK  2 active torsions:
REMARK  status: ('A' for Active; 'I' for Inactive)
REMARK    1  A    between atoms: C5_5  and  C6_6 
REMARK    2  A    between atoms: C6_6  and  C7_7 
ROOT
HETATM    1  C1  UNL     1     -32.875  10.608   0.328  1.00 20.00     0.012 C 
HETATM    2  C2  UNL     1     -32.274   9.576   0.457  1.00 20.00    -0.117 C 
HETATM    3  C5  UNL     1     -31.536   8.312   0.609  1.00 20.00     0.098 C 
ENDROOT
BRANCH   3   4
HETATM    4  C6  UNL     1     -31.853   7.607   1.948  1.00 20.00     0.011 C 
HETATM    5  C3  UNL     1     -32.016   8.633   3.080  1.00 20.00     0.012 C 
BRANCH   4   6
HETATM    6  C7  UNL     1     -33.071   6.660   1.789  1.00 20.00     0.082 C 
HETATM    7  C4  UNL     1     -32.692   5.265   1.298  1.00 20.00     0.027 C 
HETATM    8 CL8  UNL     1     -34.011   6.505   3.307  1.00 20.00    -0.125 Cl
ENDBRANCH   4   6
ENDBRANCH   3   4
TORSDOF 2
ENDMDL
MODEL 7
REMARK VINA RESULT:      -1.7      2.547      4.213
REMARK  2 active torsions:
REMARK  status: ('A' for Active; 'I' for Inactive)
REMARK    1  A    between atoms: C5_5  and  C6_6 
REMARK    2  A    between atoms: C6_6  and  C7_7 
ROOT
HETATM    1  C1  UNL     1     -33.551   3.217   4.611  1.00 20.00     0.012 C 
HETATM    2  C2  UNL     1     -33.514   4.128   3.829  1.00 20.00    -0.117 C 
HETATM    3  C5  UNL     1     -33.463   5.242   2.868  1.00 20.00     0.098 C 
ENDROOT
BRANCH   3   4
HETATM    4  C6  UNL     1     -34.484   6.352   3.206  1.00 20.00     0.011 C 
HETATM    5  C3  UNL     1     -35.375   5.935   4.386  1.00 20.00     0.012 C 
BRANCH   4   6
HETATM    6  C7  UNL     1     -33.763   7.708   3.422  1.00 20.00     0.082 C 
HETATM    7  C4  UNL     1     -33.360   7.954   4.874  1.00 20.00     0.027 C 
HETATM    8 CL8  UNL     1     -32.313   7.877   2.381  1.00 20.00    -0.125 Cl
ENDBRANCH   4   6
ENDBRANCH   3   4
TORSDOF 2
ENDMDL
MODEL 8
REMARK VINA RESULT:      -1.6      1.592      3.009
REMARK  2 active torsions:
REMARK  status: ('A' for Active; 'I' for Inactive)
REMARK    1  A    between atoms: C5_5  and  C6_6 
REMARK    2  A    between atoms: C6_6  and  C7_7 
ROOT
HETATM    1  C1  UNL     1     -31.421   4.580   0.452  1.00 20.00     0.012 C 
HETATM    2  C2  UNL     1     -32.292   5.154   1.048  1.00 20.00    -0.117 C 
HETATM    3  C5  UNL     1     -33.364   5.854   1.775  1.00 20.00     0.098 C 
ENDROOT
BRANCH   3   4
HETATM    4  C6  UNL     1     -32.816   6.979   2.682  1.00 20.00     0.011 C 
HETATM    5  C3  UNL     1     -32.120   8.065   1.847  1.00 20.00     0.012 C 
BRANCH   4   6
HETATM    6  C7  UNL     1     -33.936   7.529   3.604  1.00 20.00     0.082 C 
HETATM    7  C4  UNL     1     -35.014   6.497   3.927  1.00 20.00     0.027 C 
HETATM    8 CL8  UNL     1     -33.287   8.191   5.138  1.00 20.00    -0.125 Cl
ENDBRANCH   4   6
ENDBRANCH   3   4
TORSDOF 2
ENDMDL
MODEL 9
REMARK VINA RESULT:      -1.6      2.057      3.925
REMARK  2 active torsions:
REMARK  status: ('A' for Active; 'I' for Inactive)
REMARK    1  A    between atoms: C5_5  and  C6_6 
REMARK    2  A    between atoms: C6_6  and  C7_7 
ROOT
HETATM    1  C1  UNL     1     -35.458   6.006   4.167  1.00 20.00     0.012 C 
HETATM    2  C2  UNL     1     -34.520   6.678   3.833  1.00 20.00    -0.117 C 
HETATM    3  C5  UNL     1     -33.371   7.506   3.431  1.00 20.00     0.098 C 
ENDROOT
BRANCH   3   4
HETATM    4  C6  UNL     1     -32.968   7.269   1.957  1.00 20.00     0.011 C 
HETATM    5  C3  UNL     1     -31.667   8.012   1.619  1.00 20.00     0.012 C 
BRANCH   4   6
HETATM    6  C7  UNL     1     -32.913   5.749   1.647  1.00 20.00     0.082 C 
HETATM    7  C4  UNL     1     -33.728   5.353   0.419  1.00 20.00     0.027 C 
HETATM    8 CL8  UNL     1     -31.232   5.161   1.443  1.00 20.00    -0.125 Cl
ENDBRANCH   4   6
ENDBRANCH   3   4
TORSDOF 2
ENDMDL
