MODEL 1
REMARK VINA RESULT:       0.8      0.000      0.000
REMARK  0 active torsions:
REMARK  status: ('A' for Active; 'I' for Inactive)
ROOT
HETATM    1  C1  UNL     1     -31.868   8.620   1.219  1.00 20.00     0.002 A 
HETATM    2  C2  UNL     1     -32.705   8.882   2.306  1.00 20.00     0.009 A 
HETATM    3  C3  UNL     1     -31.676   7.307   0.762  1.00 20.00     0.019 A 
HETATM    4  C4  UNL     1     -33.344   7.813   2.915  1.00 20.00    -0.032 A 
HETATM    5  C5  UNL     1     -33.157   6.504   2.454  1.00 20.00    -0.033 A 
HETATM    6  C6  UNL     1     -32.319   6.235   1.384  1.00 20.00     0.017 A 
HETATM    7  C7  UNL     1     -33.922   5.527   3.292  1.00 20.00     0.042 C 
HETATM    8  C8  UNL     1     -34.936   6.460   3.975  1.00 20.00     0.030 C 
HETATM    9  C9  UNL     1     -34.259   7.836   4.101  1.00 20.00     0.116 C 
HETATM   10 CL10 UNL     1     -33.316   7.960   5.601  1.00 20.00    -0.120 Cl
HETATM   11 BR11 UNL     1     -32.017   4.479   0.758  1.00 20.00    -0.051 Br
ENDROOT
TORSDOF 0
ENDMDL
MODEL 2
REMARK VINA RESULT:       0.8      2.442      3.595
REMARK  0 active torsions:
REMARK  status: ('A' for Active; 'I' for Inactive)
ROOT
HETATM    1  C1  UNL     1     -32.895   8.676   4.898  1.00 20.00     0.002 A 
HETATM    2  C2  UNL     1     -32.074   8.757   3.772  1.00 20.00     0.009 A 
HETATM    3  C3  UNL     1     -33.911   7.709   4.977  1.00 20.00     0.019 A 
HETATM    4  C4  UNL     1     -32.284   7.856   2.740  1.00 20.00    -0.032 A 
HETATM    5  C5  UNL     1     -33.293   6.887   2.823  1.00 20.00    -0.033 A 
HETATM    6  C6  UNL     1     -34.120   6.809   3.931  1.00 20.00     0.017 A 
HETATM    7  C7  UNL     1     -33.343   6.060   1.576  1.00 20.00     0.042 C 
HETATM    8  C8  UNL     1     -31.955   6.345   0.980  1.00 20.00     0.030 C 
HETATM    9  C9  UNL     1     -31.558   7.761   1.433  1.00 20.00     0.116 C 
HETATM   10 CL10 UNL     1     -32.162   8.994   0.306  1.00 20.00    -0.120 Cl
HETATM   11 BR11 UNL     1     -35.512   5.539   4.061  1.00 20.00    -0.051 Br
ENDROOT
TORSDOF 0
ENDMDL
MODEL 3
REMARK VINA RESULT:       1.2      2.044      2.784
REMARK  0 active torsions:
REMARK  status: ('A' for Active; 'I' for Inactive)
ROOT
HETATM    1  C1  UNL     1     -32.206   5.301   1.177  1.00 20.00     0.002 A 
HETATM    2  C2  UNL     1     -33.002   5.119   2.310  1.00 20.00     0.009 A 
HETATM    3  C3  UNL     1     -31.868   6.591   0.738  1.00 20.00     0.019 A 
HETATM    4  C4  UNL     1     -33.443   6.243   2.990  1.00 20.00    -0.032 A 
HETATM    5  C5  UNL     1     -33.099   7.530   2.555  1.00 20.00    -0.033 A 
HETATM    6  C6  UNL     1     -32.320   7.719   1.426  1.00 20.00     0.017 A 
HETATM    7  C7  UNL     1     -33.721   8.573   3.430  1.00 20.00     0.042 C 
HETATM    8  C8  UNL     1     -34.057   7.744   4.681  1.00 20.00     0.030 C 
HETATM    9  C9  UNL     1     -34.320   6.305   4.203  1.00 20.00     0.116 C 
HETATM   10 CL10 UNL     1     -36.020   6.076   3.742  1.00 20.00    -0.120 Cl
HETATM   11 BR11 UNL     1     -31.867   9.439   0.791  1.00 20.00    -0.051 Br
ENDROOT
TORSDOF 0
ENDMDL
MODEL 4
REMARK VINA RESULT:       2.2      2.571      3.982
REMARK  0 active torsions:
REMARK  status: ('A' for Active; 'I' for Inactive)
ROOT
HETATM    1  C1  UNL     1     -35.444   6.125   4.326  1.00 20.00     0.002 A 
HETATM    2  C2  UNL     1     -34.846   6.834   3.282  1.00 20.00     0.009 A 
HETATM    3  C3  UNL     1     -34.958   4.865   4.707  1.00 20.00     0.019 A 
HETATM    4  C4  UNL     1     -33.759   6.264   2.638  1.00 20.00    -0.032 A 
HETATM    5  C5  UNL     1     -33.271   5.008   3.024  1.00 20.00    -0.033 A 
HETATM    6  C6  UNL     1     -33.866   4.294   4.050  1.00 20.00     0.017 A 
HETATM    7  C7  UNL     1     -32.120   4.595   2.161  1.00 20.00     0.042 C 
HETATM    8  C8  UNL     1     -31.704   5.947   1.561  1.00 20.00     0.030 C 
HETATM    9  C9  UNL     1     -32.975   6.811   1.486  1.00 20.00     0.116 C 
HETATM   10 CL10 UNL     1     -33.852   6.542  -0.036  1.00 20.00    -0.120 Cl
HETATM   11 BR11 UNL     1     -33.256   2.585   4.573  1.00 20.00    -0.051 Br
ENDROOT
TORSDOF 0
ENDMDL
MODEL 5
REMARK VINA RESULT:       2.3      2.124      3.311
REMARK  0 active torsions:
REMARK  status: ('A' for Active; 'I' for Inactive)
ROOT
HETATM    1  C1  UNL     1     -34.456   7.901   4.318  1.00 20.00     0.002 A 
HETATM    2  C2  UNL     1     -34.666   6.521   4.312  1.00 20.00     0.009 A 
HETATM    3  C3  UNL     1     -33.559   8.494   3.415  1.00 20.00     0.019 A 
HETATM    4  C4  UNL     1     -33.971   5.755   3.389  1.00 20.00    -0.032 A 
HETATM    5  C5  UNL     1     -33.081   6.348   2.484  1.00 20.00    -0.033 A 
HETATM    6  C6  UNL     1     -32.859   7.715   2.492  1.00 20.00     0.017 A 
HETATM    7  C7  UNL     1     -32.432   5.314   1.618  1.00 20.00     0.042 C 
HETATM    8  C8  UNL     1     -33.396   4.131   1.801  1.00 20.00     0.030 C 
HETATM    9  C9  UNL     1     -34.006   4.268   3.208  1.00 20.00     0.116 C 
HETATM   10 CL10 UNL     1     -32.994   3.476   4.434  1.00 20.00    -0.120 Cl
HETATM   11 BR11 UNL     1     -31.641   8.543   1.310  1.00 20.00    -0.051 Br
ENDROOT
TORSDOF 0
ENDMDL
MODEL 6
REMARK VINA RESULT:       3.0      1.726      3.297
REMARK  0 active torsions:
REMARK  status: ('A' for Active; 'I' for Inactive)
ROOT
HETATM    1  C1  UNL     1     -34.189   6.693   3.664  1.00 20.00     0.002 A 
HETATM    2  C2  UNL     1     -33.700   7.982   3.445  1.00 20.00     0.009 A 
HETATM    3  C3  UNL     1     -33.790   5.626   2.844  1.00 20.00     0.019 A 
HETATM    4  C4  UNL     1     -32.807   8.178   2.403  1.00 20.00    -0.032 A 
HETATM    5  C5  UNL     1     -32.405   7.110   1.589  1.00 20.00    -0.033 A 
HETATM    6  C6  UNL     1     -32.895   5.831   1.793  1.00 20.00     0.017 A 
HETATM    7  C7  UNL     1     -31.469   7.578   0.519  1.00 20.00     0.042 C 
HETATM    8  C8  UNL     1     -31.010   8.926   1.100  1.00 20.00     0.030 C 
HETATM    9  C9  UNL     1     -32.171   9.459   1.958  1.00 20.00     0.116 C 
HETATM   10 CL10 UNL     1     -33.316  10.405   0.983  1.00 20.00    -0.120 Cl
HETATM   11 BR11 UNL     1     -32.401   4.377   0.694  1.00 20.00    -0.051 Br
ENDROOT
TORSDOF 0
ENDMDL
MODEL 7
REMARK VINA RESULT:       3.1      1.877      2.451
REMARK  0 active torsions:
REMARK  status: ('A' for Active; 'I' for Inactive)
ROOT
HETATM    1  C1  UNL     1     -31.931   5.456   1.613  1.00 20.00     0.002 A 
HETATM    2  C2  UNL     1     -32.771   6.533   1.903  1.00 20.00     0.009 A 
HETATM    3  C3  UNL     1     -32.057   4.242   2.306  1.00 20.00     0.019 A 
HETATM    4  C4  UNL     1     -33.734   6.369   2.887  1.00 20.00    -0.032 A 
HETATM    5  C5  UNL     1     -33.862   5.155   3.574  1.00 20.00    -0.033 A 
HETATM    6  C6  UNL     1     -33.025   4.086   3.301  1.00 20.00     0.017 A 
HETATM    7  C7  UNL     1     -34.943   5.236   4.606  1.00 20.00     0.042 C 
HETATM    8  C8  UNL     1     -35.730   6.460   4.109  1.00 20.00     0.030 C 
HETATM    9  C9  UNL     1     -34.723   7.375   3.390  1.00 20.00     0.116 C 
HETATM   10 CL10 UNL     1     -33.938   8.492   4.526  1.00 20.00    -0.120 Cl
HETATM   11 BR11 UNL     1     -33.147   2.447   4.230  1.00 20.00    -0.051 Br
ENDROOT
TORSDOF 0
ENDMDL
MODEL 8
REMARK VINA RESULT:       3.2      2.721      4.275
REMARK  0 active torsions:
REMARK  status: ('A' for Active; 'I' for Inactive)
ROOT
HETATM    1  C1  UNL     1     -35.158   5.921   3.857  1.00 20.00     0.002 A 
HETATM    2  C2  UNL     1     -34.550   5.684   2.623  1.00 20.00     0.009 A 
HETATM    3  C3  UNL     1     -34.649   6.894   4.732  1.00 20.00     0.019 A 
HETATM    4  C4  UNL     1     -33.437   6.437   2.283  1.00 20.00    -0.032 A 
HETATM    5  C5  UNL     1     -32.934   7.412   3.154  1.00 20.00    -0.033 A 
HETATM    6  C6  UNL     1     -33.524   7.645   4.385  1.00 20.00     0.017 A 
HETATM    7  C7  UNL     1     -31.714   8.063   2.581  1.00 20.00     0.042 C 
HETATM    8  C8  UNL     1     -31.856   7.693   1.095  1.00 20.00     0.030 C 
HETATM    9  C9  UNL     1     -32.604   6.349   1.041  1.00 20.00     0.116 C 
HETATM   10 CL10 UNL     1     -31.481   4.977   1.151  1.00 20.00    -0.120 Cl
HETATM   11 BR11 UNL     1     -32.853   8.927   5.598  1.00 20.00    -0.051 Br
ENDROOT
TORSDOF 0
ENDMDL
MODEL 9
REMARK VINA RESULT:       3.6      2.771      3.456
REMARK  0 active torsions:
REMARK  status: ('A' for Active; 'I' for Inactive)
ROOT
HETATM    1  C1  UNL     1     -31.607   8.481   1.615  1.00 20.00     0.002 A 
HETATM    2  C2  UNL     1     -31.755   7.238   0.998  1.00 20.00     0.009 A 
HETATM    3  C3  UNL     1     -32.253   8.760   2.831  1.00 20.00     0.019 A 
HETATM    4  C4  UNL     1     -32.550   6.286   1.618  1.00 20.00    -0.032 A 
HETATM    5  C5  UNL     1     -33.188   6.563   2.834  1.00 20.00    -0.033 A 
HETATM    6  C6  UNL     1     -33.056   7.798   3.447  1.00 20.00     0.017 A 
HETATM    7  C7  UNL     1     -34.011   5.396   3.283  1.00 20.00     0.042 C 
HETATM    8  C8  UNL     1     -33.396   4.264   2.444  1.00 20.00     0.030 C 
HETATM    9  C9  UNL     1     -32.880   4.905   1.144  1.00 20.00     0.116 C 
HETATM   10 CL10 UNL     1     -34.151   4.969  -0.096  1.00 20.00    -0.120 Cl
HETATM   11 BR11 UNL     1     -33.930   8.217   5.068  1.00 20.00    -0.051 Br
ENDROOT
TORSDOF 0
ENDMDL
