MODEL 1
REMARK VINA RESULT:      -0.1      0.000      0.000
REMARK  0 active torsions:
REMARK  status: ('A' for Active; 'I' for Inactive)
ROOT
HETATM    1  C1  UNL     1     -32.439   9.057   0.868  1.00 20.00     0.101 C 
HETATM    2  C2  UNL     1     -32.984   5.593   2.413  1.00 20.00     0.005 C 
HETATM    3  C3  UNL     1     -34.138   6.031   3.305  1.00 20.00     0.030 C 
HETATM    4  C4  UNL     1     -32.684   6.662   1.363  1.00 20.00     0.057 C 
HETATM    5  C5  UNL     1     -33.897   7.421   3.886  1.00 20.00     0.272 C 
HETATM    6  C6  UNL     1     -32.493   8.070   1.973  1.00 20.00     0.240 C 
HETATM    7  C7  UNL     1     -31.164   8.172   2.746  1.00 20.00     0.066 C 
HETATM    8  N8  UNL     1     -32.398   9.829   0.004  1.00 20.00    -0.195 NA
HETATM    9  N9  UNL     1     -33.633   8.416   2.842  1.00 20.00     0.106 N 
HETATM   10  H21 UNL     1     -34.474   8.561   2.281  1.00 20.00     0.318 HD
ENDROOT
TORSDOF 0
ENDMDL
MODEL 2
REMARK VINA RESULT:       0.7      2.017      3.939
REMARK  0 active torsions:
REMARK  status: ('A' for Active; 'I' for Inactive)
ROOT
HETATM    1  C1  UNL     1     -34.053   4.794   4.007  1.00 20.00     0.101 C 
HETATM    2  C2  UNL     1     -32.826   7.124   1.224  1.00 20.00     0.005 C 
HETATM    3  C3  UNL     1     -32.034   8.031   2.157  1.00 20.00     0.030 C 
HETATM    4  C4  UNL     1     -33.223   5.834   1.942  1.00 20.00     0.057 C 
HETATM    5  C5  UNL     1     -32.770   8.254   3.475  1.00 20.00     0.272 C 
HETATM    6  C6  UNL     1     -33.922   6.088   3.297  1.00 20.00     0.240 C 
HETATM    7  C7  UNL     1     -35.343   6.651   3.099  1.00 20.00     0.066 C 
HETATM    8  N8  UNL     1     -34.156   3.781   4.564  1.00 20.00    -0.195 NA
HETATM    9  N9  UNL     1     -33.112   6.992   4.136  1.00 20.00     0.106 N 
HETATM   10  H21 UNL     1     -32.261   6.520   4.444  1.00 20.00     0.318 HD
ENDROOT
TORSDOF 0
ENDMDL
MODEL 3
REMARK VINA RESULT:       0.8      1.843      2.834
REMARK  0 active torsions:
REMARK  status: ('A' for Active; 'I' for Inactive)
ROOT
HETATM    1  C1  UNL     1     -32.257   7.271   2.074  1.00 20.00     0.101 C 
HETATM    2  C2  UNL     1     -35.450   6.185   3.891  1.00 20.00     0.005 C 
HETATM    3  C3  UNL     1     -34.819   4.959   4.538  1.00 20.00     0.030 C 
HETATM    4  C4  UNL     1     -34.372   7.101   3.313  1.00 20.00     0.057 C 
HETATM    5  C5  UNL     1     -33.855   4.260   3.583  1.00 20.00     0.272 C 
HETATM    6  C6  UNL     1     -33.380   6.357   2.390  1.00 20.00     0.240 C 
HETATM    7  C7  UNL     1     -34.042   5.963   1.055  1.00 20.00     0.066 C 
HETATM    8  N8  UNL     1     -31.377   7.986   1.827  1.00 20.00    -0.195 NA
HETATM    9  N9  UNL     1     -32.828   5.171   3.071  1.00 20.00     0.106 N 
HETATM   10  H21 UNL     1     -32.208   5.456   3.830  1.00 20.00     0.318 HD
ENDROOT
TORSDOF 0
ENDMDL
MODEL 4
REMARK VINA RESULT:       1.6      2.277      3.228
REMARK  0 active torsions:
REMARK  status: ('A' for Active; 'I' for Inactive)
ROOT
HETATM    1  C1  UNL     1     -31.915   4.986   0.986  1.00 20.00     0.101 C 
HETATM    2  C2  UNL     1     -32.943   8.279   2.653  1.00 20.00     0.005 C 
HETATM    3  C3  UNL     1     -33.551   7.616   3.883  1.00 20.00     0.030 C 
HETATM    4  C4  UNL     1     -32.107   7.274   1.862  1.00 20.00     0.057 C 
HETATM    5  C5  UNL     1     -34.300   6.339   3.513  1.00 20.00     0.272 C 
HETATM    6  C6  UNL     1     -32.873   5.970   1.544  1.00 20.00     0.240 C 
HETATM    7  C7  UNL     1     -33.964   6.204   0.481  1.00 20.00     0.066 C 
HETATM    8  N8  UNL     1     -31.165   4.216   0.550  1.00 20.00    -0.195 NA
HETATM    9  N9  UNL     1     -33.454   5.398   2.773  1.00 20.00     0.106 N 
HETATM   10  H21 UNL     1     -32.715   5.044   3.382  1.00 20.00     0.318 HD
ENDROOT
TORSDOF 0
ENDMDL
MODEL 5
REMARK VINA RESULT:       2.3      1.866      3.655
REMARK  0 active torsions:
REMARK  status: ('A' for Active; 'I' for Inactive)
ROOT
HETATM    1  C1  UNL     1     -34.587   6.803   3.668  1.00 20.00     0.101 C 
HETATM    2  C2  UNL     1     -32.871   9.575   1.655  1.00 20.00     0.005 C 
HETATM    3  C3  UNL     1     -32.026   8.622   0.819  1.00 20.00     0.030 C 
HETATM    4  C4  UNL     1     -33.971   8.810   2.391  1.00 20.00     0.057 C 
HETATM    5  C5  UNL     1     -31.516   7.451   1.654  1.00 20.00     0.272 C 
HETATM    6  C6  UNL     1     -33.432   7.600   3.189  1.00 20.00     0.240 C 
HETATM    7  C7  UNL     1     -32.639   8.053   4.430  1.00 20.00     0.066 C 
HETATM    8  N8  UNL     1     -35.490   6.179   4.042  1.00 20.00    -0.195 NA
HETATM    9  N9  UNL     1     -32.606   6.737   2.325  1.00 20.00     0.106 N 
HETATM   10  H21 UNL     1     -33.190   6.266   1.632  1.00 20.00     0.318 HD
ENDROOT
TORSDOF 0
ENDMDL
MODEL 6
REMARK VINA RESULT:       2.3      1.631      3.748
REMARK  0 active torsions:
REMARK  status: ('A' for Active; 'I' for Inactive)
ROOT
HETATM    1  C1  UNL     1     -33.518   7.328   3.128  1.00 20.00     0.101 C 
HETATM    2  C2  UNL     1     -32.717  10.367   0.937  1.00 20.00     0.005 C 
HETATM    3  C3  UNL     1     -32.130   9.549  -0.207  1.00 20.00     0.030 C 
HETATM    4  C4  UNL     1     -33.471   9.462   1.910  1.00 20.00     0.057 C 
HETATM    5  C5  UNL     1     -31.306   8.375   0.314  1.00 20.00     0.272 C 
HETATM    6  C6  UNL     1     -32.631   8.254   2.383  1.00 20.00     0.240 C 
HETATM    7  C7  UNL     1     -31.510   8.691   3.345  1.00 20.00     0.066 C 
HETATM    8  N8  UNL     1     -34.211   6.604   3.711  1.00 20.00    -0.195 NA
HETATM    9  N9  UNL     1     -32.075   7.525   1.227  1.00 20.00     0.106 N 
HETATM   10  H21 UNL     1     -32.821   7.052   0.715  1.00 20.00     0.318 HD
ENDROOT
TORSDOF 0
ENDMDL
MODEL 7
REMARK VINA RESULT:       2.7      2.155      3.167
REMARK  0 active torsions:
REMARK  status: ('A' for Active; 'I' for Inactive)
ROOT
HETATM    1  C1  UNL     1     -33.467   5.081   0.432  1.00 20.00     0.101 C 
HETATM    2  C2  UNL     1     -33.599   6.898   3.803  1.00 20.00     0.005 C 
HETATM    3  C3  UNL     1     -33.147   8.240   3.242  1.00 20.00     0.030 C 
HETATM    4  C4  UNL     1     -33.992   5.950   2.670  1.00 20.00     0.057 C 
HETATM    5  C5  UNL     1     -32.069   8.065   2.178  1.00 20.00     0.272 C 
HETATM    6  C6  UNL     1     -32.902   5.828   1.581  1.00 20.00     0.240 C 
HETATM    7  C7  UNL     1     -31.683   5.036   2.091  1.00 20.00     0.066 C 
HETATM    8  N8  UNL     1     -33.909   4.496  -0.466  1.00 20.00    -0.195 NA
HETATM    9  N9  UNL     1     -32.496   7.164   1.103  1.00 20.00     0.106 N 
HETATM   10  H21 UNL     1     -33.254   7.594   0.571  1.00 20.00     0.318 HD
ENDROOT
TORSDOF 0
ENDMDL
MODEL 8
REMARK VINA RESULT:       2.8      1.791      3.790
REMARK  0 active torsions:
REMARK  status: ('A' for Active; 'I' for Inactive)
ROOT
HETATM    1  C1  UNL     1     -35.049   6.173   3.642  1.00 20.00     0.101 C 
HETATM    2  C2  UNL     1     -31.774   8.061   3.019  1.00 20.00     0.005 C 
HETATM    3  C3  UNL     1     -31.847   7.946   1.502  1.00 20.00     0.030 C 
HETATM    4  C4  UNL     1     -33.116   7.690   3.649  1.00 20.00     0.057 C 
HETATM    5  C5  UNL     1     -32.380   6.583   1.071  1.00 20.00     0.272 C 
HETATM    6  C6  UNL     1     -33.657   6.328   3.158  1.00 20.00     0.240 C 
HETATM    7  C7  UNL     1     -32.837   5.157   3.733  1.00 20.00     0.066 C 
HETATM    8  N8  UNL     1     -36.139   6.052   4.021  1.00 20.00    -0.195 NA
HETATM    9  N9  UNL     1     -33.677   6.280   1.684  1.00 20.00     0.106 N 
HETATM   10  H21 UNL     1     -34.389   6.913   1.319  1.00 20.00     0.318 HD
ENDROOT
TORSDOF 0
ENDMDL
MODEL 9
REMARK VINA RESULT:       2.9      1.557      3.273
REMARK  0 active torsions:
REMARK  status: ('A' for Active; 'I' for Inactive)
ROOT
HETATM    1  C1  UNL     1     -33.216   8.004   4.827  1.00 20.00     0.101 C 
HETATM    2  C2  UNL     1     -33.329   5.518   1.914  1.00 20.00     0.005 C 
HETATM    3  C3  UNL     1     -32.074   6.056   1.238  1.00 20.00     0.030 C 
HETATM    4  C4  UNL     1     -33.446   6.064   3.337  1.00 20.00     0.057 C 
HETATM    5  C5  UNL     1     -32.003   7.577   1.327  1.00 20.00     0.272 C 
HETATM    6  C6  UNL     1     -33.321   7.603   3.403  1.00 20.00     0.240 C 
HETATM    7  C7  UNL     1     -34.568   8.294   2.821  1.00 20.00     0.066 C 
HETATM    8  N8  UNL     1     -33.134   8.318   5.940  1.00 20.00    -0.195 NA
HETATM    9  N9  UNL     1     -32.099   8.054   2.710  1.00 20.00     0.106 N 
HETATM   10  H21 UNL     1     -31.270   7.770   3.233  1.00 20.00     0.318 HD
ENDROOT
TORSDOF 0
ENDMDL
