MODEL 1
REMARK VINA RESULT:       0.3      0.000      0.000
REMARK  4 active torsions:
REMARK  status: ('A' for Active; 'I' for Inactive)
REMARK    1  A    between atoms: C4_4  and  C8_8 
REMARK    2  A    between atoms: C8_8  and  C11_11 
REMARK    3  A    between atoms: C9_9  and  C10_10 
REMARK    4  A    between atoms: C10_10  and  C11_11 
ROOT
HETATM    1  C1  UNL     1     -35.127   6.702   4.606  1.00 20.00     0.002 C 
HETATM    2  C2  UNL     1     -33.682   6.920   4.148  1.00 20.00     0.006 C 
HETATM    3  C3  UNL     1     -35.575   5.367   4.015  1.00 20.00     0.020 C 
HETATM    4  C4  UNL     1     -33.351   5.764   3.195  1.00 20.00     0.004 C 
HETATM    5  C5  UNL     1     -34.287   4.638   3.647  1.00 20.00     0.086 C 
HETATM    6 CL12 UNL     1     -33.622   3.805   5.086  1.00 20.00    -0.125 Cl
ENDROOT
BRANCH   4   7
HETATM    7  C8  UNL     1     -33.597   6.159   1.738  1.00 20.00     0.010 C 
BRANCH   7   8
HETATM    8  C11 UNL     1     -32.304   6.359   0.925  1.00 20.00    -0.018 C 
HETATM    9  C7  UNL     1     -31.450   5.089   0.992  1.00 20.00     0.010 C 
BRANCH   8  10
HETATM   10  C10 UNL     1     -31.486   7.607   1.318  1.00 20.00     0.004 C 
BRANCH  10  11
HETATM   11  C9  UNL     1     -32.284   8.909   1.408  1.00 20.00    -0.004 C 
HETATM   12  C6  UNL     1     -32.357   9.606   0.057  1.00 20.00     0.005 C 
ENDBRANCH  10  11
ENDBRANCH   8  10
ENDBRANCH   7   8
ENDBRANCH   4   7
TORSDOF 4
ENDMDL
MODEL 2
REMARK VINA RESULT:       0.4      1.122      1.402
REMARK  4 active torsions:
REMARK  status: ('A' for Active; 'I' for Inactive)
REMARK    1  A    between atoms: C4_4  and  C8_8 
REMARK    2  A    between atoms: C8_8  and  C11_11 
REMARK    3  A    between atoms: C9_9  and  C10_10 
REMARK    4  A    between atoms: C10_10  and  C11_11 
ROOT
HETATM    1  C1  UNL     1     -34.622   7.341   4.472  1.00 20.00     0.002 C 
HETATM    2  C2  UNL     1     -33.178   7.295   3.964  1.00 20.00     0.006 C 
HETATM    3  C3  UNL     1     -35.383   6.249   3.722  1.00 20.00     0.020 C 
HETATM    4  C4  UNL     1     -33.149   6.254   2.836  1.00 20.00     0.004 C 
HETATM    5  C5  UNL     1     -34.309   5.313   3.177  1.00 20.00     0.086 C 
HETATM    6 CL12 UNL     1     -33.819   4.140   4.438  1.00 20.00    -0.125 Cl
ENDROOT
BRANCH   4   7
HETATM    7  C8  UNL     1     -33.332   6.915   1.469  1.00 20.00     0.010 C 
BRANCH   7   8
HETATM    8  C11 UNL     1     -32.289   8.006   1.164  1.00 20.00    -0.018 C 
HETATM    9  C7  UNL     1     -30.932   7.602   1.750  1.00 20.00     0.010 C 
BRANCH   8  10
HETATM   10  C10 UNL     1     -32.695   9.425   1.615  1.00 20.00     0.004 C 
BRANCH  10  11
HETATM   11  C9  UNL     1     -32.637  10.497   0.525  1.00 20.00    -0.004 C 
HETATM   12  C6  UNL     1     -32.641   9.874  -0.864  1.00 20.00     0.005 C 
ENDBRANCH  10  11
ENDBRANCH   8  10
ENDBRANCH   7   8
ENDBRANCH   4   7
TORSDOF 4
ENDMDL
MODEL 3
REMARK VINA RESULT:       0.6      2.587      5.135
REMARK  4 active torsions:
REMARK  status: ('A' for Active; 'I' for Inactive)
REMARK    1  A    between atoms: C4_4  and  C8_8 
REMARK    2  A    between atoms: C8_8  and  C11_11 
REMARK    3  A    between atoms: C9_9  and  C10_10 
REMARK    4  A    between atoms: C10_10  and  C11_11 
ROOT
HETATM    1  C1  UNL     1     -31.129   8.527   3.217  1.00 20.00     0.002 C 
HETATM    2  C2  UNL     1     -32.611   8.356   3.566  1.00 20.00     0.006 C 
HETATM    3  C3  UNL     1     -30.948   7.979   1.803  1.00 20.00     0.020 C 
HETATM    4  C4  UNL     1     -33.247   7.600   2.392  1.00 20.00     0.004 C 
HETATM    5  C5  UNL     1     -32.349   7.950   1.201  1.00 20.00     0.086 C 
HETATM    6 CL12 UNL     1     -32.769   9.564   0.548  1.00 20.00    -0.125 Cl
ENDROOT
BRANCH   4   7
HETATM    7  C8  UNL     1     -33.281   6.094   2.658  1.00 20.00     0.010 C 
BRANCH   7   8
HETATM    8  C11 UNL     1     -34.582   5.613   3.328  1.00 20.00    -0.018 C 
HETATM    9  C7  UNL     1     -35.376   6.819   3.840  1.00 20.00     0.010 C 
BRANCH   8  10
HETATM   10  C10 UNL     1     -34.379   4.562   4.439  1.00 20.00     0.004 C 
BRANCH  10  11
HETATM   11  C9  UNL     1     -33.504   3.367   4.055  1.00 20.00    -0.004 C 
HETATM   12  C6  UNL     1     -32.787   2.795   5.270  1.00 20.00     0.005 C 
ENDBRANCH  10  11
ENDBRANCH   8  10
ENDBRANCH   7   8
ENDBRANCH   4   7
TORSDOF 4
ENDMDL
MODEL 4
REMARK VINA RESULT:       0.6      2.630      5.232
REMARK  4 active torsions:
REMARK  status: ('A' for Active; 'I' for Inactive)
REMARK    1  A    between atoms: C4_4  and  C8_8 
REMARK    2  A    between atoms: C8_8  and  C11_11 
REMARK    3  A    between atoms: C9_9  and  C10_10 
REMARK    4  A    between atoms: C10_10  and  C11_11 
ROOT
HETATM    1  C1  UNL     1     -30.634   8.129   1.988  1.00 20.00     0.002 C 
HETATM    2  C2  UNL     1     -31.710   8.385   3.047  1.00 20.00     0.006 C 
HETATM    3  C3  UNL     1     -31.367   7.895   0.669  1.00 20.00     0.020 C 
HETATM    4  C4  UNL     1     -33.061   8.178   2.350  1.00 20.00     0.004 C 
HETATM    5  C5  UNL     1     -32.762   8.475   0.877  1.00 20.00     0.086 C 
HETATM    6 CL12 UNL     1     -32.742  10.242   0.582  1.00 20.00    -0.125 Cl
ENDROOT
BRANCH   4   7
HETATM    7  C8  UNL     1     -33.575   6.752   2.551  1.00 20.00     0.010 C 
BRANCH   7   8
HETATM    8  C11 UNL     1     -34.628   6.625   3.668  1.00 20.00    -0.018 C 
HETATM    9  C7  UNL     1     -34.299   7.601   4.802  1.00 20.00     0.010 C 
BRANCH   8  10
HETATM   10  C10 UNL     1     -34.826   5.191   4.202  1.00 20.00     0.004 C 
BRANCH  10  11
HETATM   11  C9  UNL     1     -33.815   4.160   3.695  1.00 20.00    -0.004 C 
HETATM   12  C6  UNL     1     -33.405   3.199   4.801  1.00 20.00     0.005 C 
ENDBRANCH  10  11
ENDBRANCH   8  10
ENDBRANCH   7   8
ENDBRANCH   4   7
TORSDOF 4
ENDMDL
MODEL 5
REMARK VINA RESULT:       0.7      2.781      5.400
REMARK  4 active torsions:
REMARK  status: ('A' for Active; 'I' for Inactive)
REMARK    1  A    between atoms: C4_4  and  C8_8 
REMARK    2  A    between atoms: C8_8  and  C11_11 
REMARK    3  A    between atoms: C9_9  and  C10_10 
REMARK    4  A    between atoms: C10_10  and  C11_11 
ROOT
HETATM    1  C1  UNL     1     -31.187   8.490  -0.051  1.00 20.00     0.002 C 
HETATM    2  C2  UNL     1     -31.047   8.283   1.459  1.00 20.00     0.006 C 
HETATM    3  C3  UNL     1     -32.590   9.047  -0.287  1.00 20.00     0.020 C 
HETATM    4  C4  UNL     1     -32.416   8.610   2.070  1.00 20.00     0.004 C 
HETATM    5  C5  UNL     1     -33.041   9.585   1.067  1.00 20.00     0.086 C 
HETATM    6 CL12 UNL     1     -32.399  11.239   1.314  1.00 20.00    -0.125 Cl
ENDROOT
BRANCH   4   7
HETATM    7  C8  UNL     1     -33.262   7.347   2.239  1.00 20.00     0.010 C 
BRANCH   7   8
HETATM    8  C11 UNL     1     -34.153   7.363   3.495  1.00 20.00    -0.018 C 
HETATM    9  C7  UNL     1     -33.430   8.090   4.633  1.00 20.00     0.010 C 
BRANCH   8  10
HETATM   10  C10 UNL     1     -34.652   5.973   3.944  1.00 20.00     0.004 C 
BRANCH  10  11
HETATM   11  C9  UNL     1     -33.837   4.787   3.422  1.00 20.00    -0.004 C 
HETATM   12  C6  UNL     1     -33.774   3.666   4.450  1.00 20.00     0.005 C 
ENDBRANCH  10  11
ENDBRANCH   8  10
ENDBRANCH   7   8
ENDBRANCH   4   7
TORSDOF 4
ENDMDL
MODEL 6
REMARK VINA RESULT:       0.8      2.040      4.978
REMARK  4 active torsions:
REMARK  status: ('A' for Active; 'I' for Inactive)
REMARK    1  A    between atoms: C4_4  and  C8_8 
REMARK    2  A    between atoms: C8_8  and  C11_11 
REMARK    3  A    between atoms: C9_9  and  C10_10 
REMARK    4  A    between atoms: C10_10  and  C11_11 
ROOT
HETATM    1  C1  UNL     1     -31.795   7.538   0.403  1.00 20.00     0.002 C 
HETATM    2  C2  UNL     1     -31.846   6.366   1.387  1.00 20.00     0.006 C 
HETATM    3  C3  UNL     1     -32.488   8.714   1.089  1.00 20.00     0.020 C 
HETATM    4  C4  UNL     1     -32.676   6.843   2.587  1.00 20.00     0.004 C 
HETATM    5  C5  UNL     1     -32.496   8.365   2.574  1.00 20.00     0.086 C 
HETATM    6 CL12 UNL     1     -30.932   8.820   3.319  1.00 20.00    -0.125 Cl
ENDROOT
BRANCH   4   7
HETATM    7  C8  UNL     1     -34.144   6.442   2.438  1.00 20.00     0.010 C 
BRANCH   7   8
HETATM    8  C11 UNL     1     -34.902   6.361   3.776  1.00 20.00    -0.018 C 
HETATM    9  C7  UNL     1     -34.368   7.427   4.739  1.00 20.00     0.010 C 
BRANCH   8  10
HETATM   10  C10 UNL     1     -34.898   4.963   4.431  1.00 20.00     0.004 C 
BRANCH  10  11
HETATM   11  C9  UNL     1     -33.912   3.961   3.826  1.00 20.00    -0.004 C 
HETATM   12  C6  UNL     1     -33.259   3.109   4.905  1.00 20.00     0.005 C 
ENDBRANCH  10  11
ENDBRANCH   8  10
ENDBRANCH   7   8
ENDBRANCH   4   7
TORSDOF 4
ENDMDL
MODEL 7
REMARK VINA RESULT:       1.0      2.709      5.076
REMARK  4 active torsions:
REMARK  status: ('A' for Active; 'I' for Inactive)
REMARK    1  A    between atoms: C4_4  and  C8_8 
REMARK    2  A    between atoms: C8_8  and  C11_11 
REMARK    3  A    between atoms: C9_9  and  C10_10 
REMARK    4  A    between atoms: C10_10  and  C11_11 
ROOT
HETATM    1  C1  UNL     1     -31.321   9.269  -0.796  1.00 20.00     0.002 C 
HETATM    2  C2  UNL     1     -31.054   8.636   0.573  1.00 20.00     0.006 C 
HETATM    3  C3  UNL     1     -32.715   9.887  -0.726  1.00 20.00     0.020 C 
HETATM    4  C4  UNL     1     -32.349   8.792   1.382  1.00 20.00     0.004 C 
HETATM    5  C5  UNL     1     -33.021  10.021   0.762  1.00 20.00     0.086 C 
HETATM    6 CL12 UNL     1     -32.295  11.527   1.404  1.00 20.00    -0.125 Cl
ENDROOT
BRANCH   4   7
HETATM    7  C8  UNL     1     -33.226   7.544   1.268  1.00 20.00     0.010 C 
BRANCH   7   8
HETATM    8  C11 UNL     1     -32.701   6.344   2.077  1.00 20.00    -0.018 C 
HETATM    9  C7  UNL     1     -32.272   5.224   1.122  1.00 20.00     0.010 C 
BRANCH   8  10
HETATM   10  C10 UNL     1     -33.677   5.820   3.152  1.00 20.00     0.004 C 
BRANCH  10  11
HETATM   11  C9  UNL     1     -34.635   6.865   3.729  1.00 20.00    -0.004 C 
HETATM   12  C6  UNL     1     -33.913   7.809   4.679  1.00 20.00     0.005 C 
ENDBRANCH  10  11
ENDBRANCH   8  10
ENDBRANCH   7   8
ENDBRANCH   4   7
TORSDOF 4
ENDMDL
MODEL 8
REMARK VINA RESULT:       1.6      1.496      1.763
REMARK  4 active torsions:
REMARK  status: ('A' for Active; 'I' for Inactive)
REMARK    1  A    between atoms: C4_4  and  C8_8 
REMARK    2  A    between atoms: C8_8  and  C11_11 
REMARK    3  A    between atoms: C9_9  and  C10_10 
REMARK    4  A    between atoms: C10_10  and  C11_11 
ROOT
HETATM    1  C1  UNL     1     -35.619   5.770   4.208  1.00 20.00     0.002 C 
HETATM    2  C2  UNL     1     -35.664   6.873   3.147  1.00 20.00     0.006 C 
HETATM    3  C3  UNL     1     -34.143   5.506   4.500  1.00 20.00     0.020 C 
HETATM    4  C4  UNL     1     -34.208   7.151   2.749  1.00 20.00     0.004 C 
HETATM    5  C5  UNL     1     -33.405   6.738   3.987  1.00 20.00     0.086 C 
HETATM    6 CL12 UNL     1     -33.443   8.034   5.223  1.00 20.00    -0.125 Cl
ENDROOT
BRANCH   4   7
HETATM    7  C8  UNL     1     -33.809   6.342   1.514  1.00 20.00     0.010 C 
BRANCH   7   8
HETATM    8  C11 UNL     1     -32.363   6.596   1.049  1.00 20.00    -0.018 C 
HETATM    9  C7  UNL     1     -31.473   5.419   1.459  1.00 20.00     0.010 C 
BRANCH   8  10
HETATM   10  C10 UNL     1     -31.767   7.940   1.516  1.00 20.00     0.004 C 
BRANCH  10  11
HETATM   11  C9  UNL     1     -31.522   8.967   0.408  1.00 20.00    -0.004 C 
HETATM   12  C6  UNL     1     -32.620  10.020   0.379  1.00 20.00     0.005 C 
ENDBRANCH  10  11
ENDBRANCH   8  10
ENDBRANCH   7   8
ENDBRANCH   4   7
TORSDOF 4
ENDMDL
MODEL 9
REMARK VINA RESULT:       1.7      1.844      2.541
REMARK  4 active torsions:
REMARK  status: ('A' for Active; 'I' for Inactive)
REMARK    1  A    between atoms: C4_4  and  C8_8 
REMARK    2  A    between atoms: C8_8  and  C11_11 
REMARK    3  A    between atoms: C9_9  and  C10_10 
REMARK    4  A    between atoms: C10_10  and  C11_11 
ROOT
HETATM    1  C1  UNL     1     -34.293   4.506   3.708  1.00 20.00     0.002 C 
HETATM    2  C2  UNL     1     -33.787   5.381   2.558  1.00 20.00     0.006 C 
HETATM    3  C3  UNL     1     -35.036   5.434   4.667  1.00 20.00     0.020 C 
HETATM    4  C4  UNL     1     -34.141   6.828   2.926  1.00 20.00     0.004 C 
HETATM    5  C5  UNL     1     -35.353   6.684   3.852  1.00 20.00     0.086 C 
HETATM    6 CL12 UNL     1     -36.848   6.432   2.899  1.00 20.00    -0.125 Cl
ENDROOT
BRANCH   4   7
HETATM    7  C8  UNL     1     -32.970   7.523   3.623  1.00 20.00     0.010 C 
BRANCH   7   8
HETATM    8  C11 UNL     1     -31.851   7.963   2.662  1.00 20.00    -0.018 C 
HETATM    9  C7  UNL     1     -31.069   9.129   3.277  1.00 20.00     0.010 C 
BRANCH   8  10
HETATM   10  C10 UNL     1     -32.329   8.300   1.233  1.00 20.00     0.004 C 
BRANCH  10  11
HETATM   11  C9  UNL     1     -32.364   9.792   0.891  1.00 20.00    -0.004 C 
HETATM   12  C6  UNL     1     -32.715  10.014  -0.573  1.00 20.00     0.005 C 
ENDBRANCH  10  11
ENDBRANCH   8  10
ENDBRANCH   7   8
ENDBRANCH   4   7
TORSDOF 4
ENDMDL
