MODEL 1
REMARK VINA RESULT:      -2.7      0.000      0.000
REMARK  4 active torsions:
REMARK  status: ('A' for Active; 'I' for Inactive)
REMARK    1  A    between atoms: C3_3  and  C7_7 
REMARK    2  A    between atoms: C3_3  and  C9_9 
REMARK    3  A    between atoms: C6_6  and  C8_8 
REMARK    4  A    between atoms: C7_7  and  C8_8 
ROOT
HETATM    1  C1  UNL     1     -32.631   9.908  -0.394  1.00 20.00     0.012 C 
HETATM    2  C2  UNL     1     -32.298   9.325   0.600  1.00 20.00    -0.117 C 
HETATM    3  C6  UNL     1     -31.888   8.614   1.819  1.00 20.00     0.093 C 
ENDROOT
BRANCH   3   4
HETATM    4  C8  UNL     1     -31.723   7.117   1.556  1.00 20.00     0.019 C 
BRANCH   4   5
HETATM    5  C7  UNL     1     -33.076   6.420   1.439  1.00 20.00     0.079 C 
BRANCH   5   6
HETATM    6  C3  UNL     1     -33.562   5.861   2.769  1.00 20.00     0.130 C 
HETATM    7  O10 UNL     1     -33.167   4.780   3.207  1.00 20.00    -0.298 OA
BRANCH   6   8
HETATM    8  C9  UNL     1     -34.592   6.703   3.519  1.00 20.00     0.047 C 
HETATM    9  C4  UNL     1     -33.907   7.726   4.421  1.00 20.00     0.017 C 
HETATM   10  C5  UNL     1     -35.511   5.794   4.325  1.00 20.00     0.017 C 
ENDBRANCH   6   8
ENDBRANCH   5   6
ENDBRANCH   4   5
ENDBRANCH   3   4
TORSDOF 4
ENDMDL
MODEL 2
REMARK VINA RESULT:      -2.5      2.092      5.002
REMARK  4 active torsions:
REMARK  status: ('A' for Active; 'I' for Inactive)
REMARK    1  A    between atoms: C3_3  and  C7_7 
REMARK    2  A    between atoms: C3_3  and  C9_9 
REMARK    3  A    between atoms: C6_6  and  C8_8 
REMARK    4  A    between atoms: C7_7  and  C8_8 
ROOT
HETATM    1  C1  UNL     1     -32.813   2.775   5.339  1.00 20.00     0.012 C 
HETATM    2  C2  UNL     1     -33.486   3.440   4.601  1.00 20.00    -0.117 C 
HETATM    3  C6  UNL     1     -34.308   4.253   3.694  1.00 20.00     0.093 C 
ENDROOT
BRANCH   3   4
HETATM    4  C8  UNL     1     -35.004   5.386   4.446  1.00 20.00     0.019 C 
BRANCH   4   5
HETATM    5  C7  UNL     1     -35.021   6.672   3.623  1.00 20.00     0.079 C 
BRANCH   5   6
HETATM    6  C3  UNL     1     -33.632   7.267   3.439  1.00 20.00     0.130 C 
HETATM    7  O10 UNL     1     -32.999   7.753   4.377  1.00 20.00    -0.298 OA
BRANCH   6   8
HETATM    8  C9  UNL     1     -33.076   7.255   2.017  1.00 20.00     0.047 C 
HETATM    9  C4  UNL     1     -32.671   5.843   1.602  1.00 20.00     0.017 C 
HETATM   10  C5  UNL     1     -31.895   8.212   1.918  1.00 20.00     0.017 C 
ENDBRANCH   6   8
ENDBRANCH   5   6
ENDBRANCH   4   5
ENDBRANCH   3   4
TORSDOF 4
ENDMDL
MODEL 3
REMARK VINA RESULT:      -2.4      1.205      1.560
REMARK  4 active torsions:
REMARK  status: ('A' for Active; 'I' for Inactive)
REMARK    1  A    between atoms: C3_3  and  C7_7 
REMARK    2  A    between atoms: C3_3  and  C9_9 
REMARK    3  A    between atoms: C6_6  and  C8_8 
REMARK    4  A    between atoms: C7_7  and  C8_8 
ROOT
HETATM    1  C1  UNL     1     -32.895  10.690   0.003  1.00 20.00     0.012 C 
HETATM    2  C2  UNL     1     -32.333   9.660   0.251  1.00 20.00    -0.117 C 
HETATM    3  C6  UNL     1     -31.645   8.396   0.551  1.00 20.00     0.093 C 
ENDROOT
BRANCH   3   4
HETATM    4  C8  UNL     1     -31.684   8.089   2.048  1.00 20.00     0.019 C 
BRANCH   4   5
HETATM    5  C7  UNL     1     -33.096   7.733   2.506  1.00 20.00     0.079 C 
BRANCH   5   6
HETATM    6  C3  UNL     1     -33.319   6.229   2.599  1.00 20.00     0.130 C 
HETATM    7  O10 UNL     1     -32.978   5.461   1.699  1.00 20.00    -0.298 OA
BRANCH   6   8
HETATM    8  C9  UNL     1     -34.017   5.728   3.861  1.00 20.00     0.047 C 
HETATM    9  C4  UNL     1     -34.029   4.202   3.907  1.00 20.00     0.017 C 
HETATM   10  C5  UNL     1     -35.433   6.287   3.923  1.00 20.00     0.017 C 
ENDBRANCH   6   8
ENDBRANCH   5   6
ENDBRANCH   4   5
ENDBRANCH   3   4
TORSDOF 4
ENDMDL
MODEL 4
REMARK VINA RESULT:      -2.4      1.231      1.382
REMARK  4 active torsions:
REMARK  status: ('A' for Active; 'I' for Inactive)
REMARK    1  A    between atoms: C3_3  and  C7_7 
REMARK    2  A    between atoms: C3_3  and  C9_9 
REMARK    3  A    between atoms: C6_6  and  C8_8 
REMARK    4  A    between atoms: C7_7  and  C8_8 
ROOT
HETATM    1  C1  UNL     1     -32.798  10.830   0.320  1.00 20.00     0.012 C 
HETATM    2  C2  UNL     1     -32.310   9.737   0.407  1.00 20.00    -0.117 C 
HETATM    3  C6  UNL     1     -31.713   8.398   0.511  1.00 20.00     0.093 C 
ENDROOT
BRANCH   3   4
HETATM    4  C8  UNL     1     -31.578   7.965   1.970  1.00 20.00     0.019 C 
BRANCH   4   5
HETATM    5  C7  UNL     1     -32.932   7.587   2.565  1.00 20.00     0.079 C 
BRANCH   5   6
HETATM    6  C3  UNL     1     -33.264   6.114   2.372  1.00 20.00     0.130 C 
HETATM    7  O10 UNL     1     -32.664   5.409   1.560  1.00 20.00    -0.298 OA
BRANCH   6   8
HETATM    8  C9  UNL     1     -34.408   5.563   3.221  1.00 20.00     0.047 C 
HETATM    9  C4  UNL     1     -34.971   6.642   4.142  1.00 20.00     0.017 C 
HETATM   10  C5  UNL     1     -33.924   4.361   4.020  1.00 20.00     0.017 C 
ENDBRANCH   6   8
ENDBRANCH   5   6
ENDBRANCH   4   5
ENDBRANCH   3   4
TORSDOF 4
ENDMDL
MODEL 5
REMARK VINA RESULT:      -2.4      1.449      4.636
REMARK  4 active torsions:
REMARK  status: ('A' for Active; 'I' for Inactive)
REMARK    1  A    between atoms: C3_3  and  C7_7 
REMARK    2  A    between atoms: C3_3  and  C9_9 
REMARK    3  A    between atoms: C6_6  and  C8_8 
REMARK    4  A    between atoms: C7_7  and  C8_8 
ROOT
HETATM    1  C1  UNL     1     -33.554   3.428   4.260  1.00 20.00     0.012 C 
HETATM    2  C2  UNL     1     -34.346   4.323   4.365  1.00 20.00    -0.117 C 
HETATM    3  C6  UNL     1     -35.319   5.417   4.494  1.00 20.00     0.093 C 
ENDROOT
BRANCH   3   4
HETATM    4  C8  UNL     1     -35.076   6.499   3.442  1.00 20.00     0.019 C 
BRANCH   4   5
HETATM    5  C7  UNL     1     -33.662   7.065   3.543  1.00 20.00     0.079 C 
BRANCH   5   6
HETATM    6  C3  UNL     1     -32.867   6.884   2.256  1.00 20.00     0.130 C 
HETATM    7  O10 UNL     1     -33.025   5.908   1.523  1.00 20.00    -0.298 OA
BRANCH   6   8
HETATM    8  C9  UNL     1     -31.839   7.967   1.941  1.00 20.00     0.047 C 
HETATM    9  C4  UNL     1     -31.477   8.757   3.196  1.00 20.00     0.017 C 
HETATM   10  C5  UNL     1     -32.377   8.888   0.853  1.00 20.00     0.017 C 
ENDBRANCH   6   8
ENDBRANCH   5   6
ENDBRANCH   4   5
ENDBRANCH   3   4
TORSDOF 4
ENDMDL
MODEL 6
REMARK VINA RESULT:      -2.4      1.866      4.838
REMARK  4 active torsions:
REMARK  status: ('A' for Active; 'I' for Inactive)
REMARK    1  A    between atoms: C3_3  and  C7_7 
REMARK    2  A    between atoms: C3_3  and  C9_9 
REMARK    3  A    between atoms: C6_6  and  C8_8 
REMARK    4  A    between atoms: C7_7  and  C8_8 
ROOT
HETATM    1  C1  UNL     1     -33.487   3.373   4.433  1.00 20.00     0.012 C 
HETATM    2  C2  UNL     1     -34.277   4.276   4.440  1.00 20.00    -0.117 C 
HETATM    3  C6  UNL     1     -35.247   5.380   4.451  1.00 20.00     0.093 C 
ENDROOT
BRANCH   3   4
HETATM    4  C8  UNL     1     -34.864   6.461   3.441  1.00 20.00     0.019 C 
BRANCH   4   5
HETATM    5  C7  UNL     1     -34.013   7.552   4.089  1.00 20.00     0.079 C 
BRANCH   5   6
HETATM    6  C3  UNL     1     -32.763   7.874   3.283  1.00 20.00     0.130 C 
HETATM    7  O10 UNL     1     -31.803   8.467   3.776  1.00 20.00    -0.298 OA
BRANCH   6   8
HETATM    8  C9  UNL     1     -32.777   7.448   1.817  1.00 20.00     0.047 C 
HETATM    9  C4  UNL     1     -32.147   6.069   1.644  1.00 20.00     0.017 C 
HETATM   10  C5  UNL     1     -32.054   8.488   0.971  1.00 20.00     0.017 C 
ENDBRANCH   6   8
ENDBRANCH   5   6
ENDBRANCH   4   5
ENDBRANCH   3   4
TORSDOF 4
ENDMDL
MODEL 7
REMARK VINA RESULT:      -2.2      1.379      1.701
REMARK  4 active torsions:
REMARK  status: ('A' for Active; 'I' for Inactive)
REMARK    1  A    between atoms: C3_3  and  C7_7 
REMARK    2  A    between atoms: C3_3  and  C9_9 
REMARK    3  A    between atoms: C6_6  and  C8_8 
REMARK    4  A    between atoms: C7_7  and  C8_8 
ROOT
HETATM    1  C1  UNL     1     -32.903  10.711   0.010  1.00 20.00     0.012 C 
HETATM    2  C2  UNL     1     -32.367   9.655   0.197  1.00 20.00    -0.117 C 
HETATM    3  C6  UNL     1     -31.709   8.360   0.424  1.00 20.00     0.093 C 
ENDROOT
BRANCH   3   4
HETATM    4  C8  UNL     1     -31.820   7.933   1.887  1.00 20.00     0.019 C 
BRANCH   4   5
HETATM    5  C7  UNL     1     -32.656   6.664   2.033  1.00 20.00     0.079 C 
BRANCH   5   6
HETATM    6  C3  UNL     1     -33.638   6.742   3.194  1.00 20.00     0.130 C 
HETATM    7  O10 UNL     1     -33.713   7.732   3.921  1.00 20.00    -0.298 OA
BRANCH   6   8
HETATM    8  C9  UNL     1     -34.507   5.508   3.426  1.00 20.00     0.047 C 
HETATM    9  C4  UNL     1     -35.597   5.795   4.455  1.00 20.00     0.017 C 
HETATM   10  C5  UNL     1     -33.636   4.339   3.867  1.00 20.00     0.017 C 
ENDBRANCH   6   8
ENDBRANCH   5   6
ENDBRANCH   4   5
ENDBRANCH   3   4
TORSDOF 4
ENDMDL
MODEL 8
REMARK VINA RESULT:      -2.0      0.504      1.191
REMARK  4 active torsions:
REMARK  status: ('A' for Active; 'I' for Inactive)
REMARK    1  A    between atoms: C3_3  and  C7_7 
REMARK    2  A    between atoms: C3_3  and  C9_9 
REMARK    3  A    between atoms: C6_6  and  C8_8 
REMARK    4  A    between atoms: C7_7  and  C8_8 
ROOT
HETATM    1  C1  UNL     1     -32.587   9.879  -0.053  1.00 20.00     0.012 C 
HETATM    2  C2  UNL     1     -32.151   9.150   0.795  1.00 20.00    -0.117 C 
HETATM    3  C6  UNL     1     -31.616   8.261   1.835  1.00 20.00     0.093 C 
ENDROOT
BRANCH   3   4
HETATM    4  C8  UNL     1     -31.897   6.795   1.506  1.00 20.00     0.019 C 
BRANCH   4   5
HETATM    5  C7  UNL     1     -33.375   6.458   1.686  1.00 20.00     0.079 C 
BRANCH   5   6
HETATM    6  C3  UNL     1     -33.650   5.711   2.984  1.00 20.00     0.130 C 
HETATM    7  O10 UNL     1     -33.208   4.581   3.194  1.00 20.00    -0.298 OA
BRANCH   6   8
HETATM    8  C9  UNL     1     -34.533   6.430   4.002  1.00 20.00     0.047 C 
HETATM    9  C4  UNL     1     -35.976   6.509   3.512  1.00 20.00     0.017 C 
HETATM   10  C5  UNL     1     -33.974   7.819   4.278  1.00 20.00     0.017 C 
ENDBRANCH   6   8
ENDBRANCH   5   6
ENDBRANCH   4   5
ENDBRANCH   3   4
TORSDOF 4
ENDMDL
MODEL 9
REMARK VINA RESULT:      -1.9      1.777      4.848
REMARK  4 active torsions:
REMARK  status: ('A' for Active; 'I' for Inactive)
REMARK    1  A    between atoms: C3_3  and  C7_7 
REMARK    2  A    between atoms: C3_3  and  C9_9 
REMARK    3  A    between atoms: C6_6  and  C8_8 
REMARK    4  A    between atoms: C7_7  and  C8_8 
ROOT
HETATM    1  C1  UNL     1     -33.874   3.887   4.094  1.00 20.00     0.012 C 
HETATM    2  C2  UNL     1     -34.406   4.960   4.034  1.00 20.00    -0.117 C 
HETATM    3  C6  UNL     1     -35.062   6.274   3.960  1.00 20.00     0.093 C 
ENDROOT
BRANCH   3   4
HETATM    4  C8  UNL     1     -34.051   7.378   3.652  1.00 20.00     0.019 C 
BRANCH   4   5
HETATM    5  C7  UNL     1     -33.264   7.071   2.380  1.00 20.00     0.079 C 
BRANCH   5   6
HETATM    6  C3  UNL     1     -32.238   8.147   2.054  1.00 20.00     0.130 C 
HETATM    7  O10 UNL     1     -31.342   8.456   2.840  1.00 20.00    -0.298 OA
BRANCH   6   8
HETATM    8  C9  UNL     1     -32.399   8.847   0.706  1.00 20.00     0.047 C 
HETATM    9  C4  UNL     1     -31.117   8.747  -0.116  1.00 20.00     0.017 C 
HETATM   10  C5  UNL     1     -32.796  10.301   0.924  1.00 20.00     0.017 C 
ENDBRANCH   6   8
ENDBRANCH   5   6
ENDBRANCH   4   5
ENDBRANCH   3   4
TORSDOF 4
ENDMDL
