MODEL 1
REMARK VINA RESULT:      -2.2      0.000      0.000
REMARK  2 active torsions:
REMARK  status: ('A' for Active; 'I' for Inactive)
REMARK    1  A    between atoms: C7_7  and  C9_9 
REMARK    2  A    between atoms: C8_8  and  C9_9 
ROOT
HETATM    1  C1  UNL     1     -33.162   2.940   4.498  1.00 20.00     0.012 C 
HETATM    2  C2  UNL     1     -34.005   3.794   4.549  1.00 20.00    -0.117 C 
HETATM    3  C8  UNL     1     -35.037   4.836   4.617  1.00 20.00     0.093 C 
ENDROOT
BRANCH   3   4
HETATM    4  C9  UNL     1     -34.915   5.789   3.436  1.00 20.00     0.024 C 
BRANCH   4   5
HETATM    5  C7  UNL     1     -33.467   6.149   3.171  1.00 20.00     0.056 C 
HETATM    6  C3  UNL     1     -33.141   7.586   3.524  1.00 20.00     0.131 C 
HETATM    7  C4  UNL     1     -32.314   8.257   2.457  1.00 20.00     0.079 C 
HETATM    8  O10 UNL     1     -33.502   8.145   4.553  1.00 20.00    -0.298 OA
HETATM    9  C5  UNL     1     -31.932   7.080   1.567  1.00 20.00     0.008 C 
HETATM   10  C6  UNL     1     -33.107   6.119   1.684  1.00 20.00     0.013 C 
ENDBRANCH   4   5
ENDBRANCH   3   4
TORSDOF 2
ENDMDL
MODEL 2
REMARK VINA RESULT:      -1.8      1.647      4.625
REMARK  2 active torsions:
REMARK  status: ('A' for Active; 'I' for Inactive)
REMARK    1  A    between atoms: C7_7  and  C9_9 
REMARK    2  A    between atoms: C8_8  and  C9_9 
ROOT
HETATM    1  C1  UNL     1     -32.808  10.636   0.010  1.00 20.00     0.012 C 
HETATM    2  C2  UNL     1     -32.301   9.618   0.395  1.00 20.00    -0.117 C 
HETATM    3  C8  UNL     1     -31.677   8.372   0.860  1.00 20.00     0.093 C 
ENDROOT
BRANCH   3   4
HETATM    4  C9  UNL     1     -32.133   8.040   2.273  1.00 20.00     0.024 C 
BRANCH   4   5
HETATM    5  C7  UNL     1     -33.265   7.033   2.261  1.00 20.00     0.056 C 
HETATM    6  C3  UNL     1     -33.978   6.928   3.594  1.00 20.00     0.131 C 
HETATM    7  C4  UNL     1     -34.229   5.495   3.990  1.00 20.00     0.079 C 
HETATM    8  O10 UNL     1     -34.315   7.888   4.276  1.00 20.00    -0.298 OA
HETATM    9  C5  UNL     1     -33.872   4.747   2.711  1.00 20.00     0.008 C 
HETATM   10  C6  UNL     1     -32.782   5.594   2.068  1.00 20.00     0.013 C 
ENDBRANCH   4   5
ENDBRANCH   3   4
TORSDOF 2
ENDMDL
MODEL 3
REMARK VINA RESULT:      -1.8      2.013      4.862
REMARK  2 active torsions:
REMARK  status: ('A' for Active; 'I' for Inactive)
REMARK    1  A    between atoms: C7_7  and  C9_9 
REMARK    2  A    between atoms: C8_8  and  C9_9 
ROOT
HETATM    1  C1  UNL     1     -32.751  10.210  -0.394  1.00 20.00     0.012 C 
HETATM    2  C2  UNL     1     -32.221   9.495   0.411  1.00 20.00    -0.117 C 
HETATM    3  C8  UNL     1     -31.569   8.625   1.399  1.00 20.00     0.093 C 
ENDROOT
BRANCH   3   4
HETATM    4  C9  UNL     1     -32.307   7.298   1.513  1.00 20.00     0.024 C 
BRANCH   4   5
HETATM    5  C7  UNL     1     -32.791   7.060   2.929  1.00 20.00     0.056 C 
HETATM    6  C3  UNL     1     -33.705   5.857   3.047  1.00 20.00     0.131 C 
HETATM    7  C4  UNL     1     -34.914   6.148   3.899  1.00 20.00     0.079 C 
HETATM    8  O10 UNL     1     -33.495   4.773   2.517  1.00 20.00    -0.298 OA
HETATM    9  C5  UNL     1     -34.555   7.498   4.507  1.00 20.00     0.008 C 
HETATM   10  C6  UNL     1     -33.700   8.177   3.446  1.00 20.00     0.013 C 
ENDBRANCH   4   5
ENDBRANCH   3   4
TORSDOF 2
ENDMDL
MODEL 4
REMARK VINA RESULT:      -1.4      0.954      1.299
REMARK  2 active torsions:
REMARK  status: ('A' for Active; 'I' for Inactive)
REMARK    1  A    between atoms: C7_7  and  C9_9 
REMARK    2  A    between atoms: C8_8  and  C9_9 
ROOT
HETATM    1  C1  UNL     1     -34.054   3.830   4.533  1.00 20.00     0.012 C 
HETATM    2  C2  UNL     1     -34.615   4.865   4.295  1.00 20.00    -0.117 C 
HETATM    3  C8  UNL     1     -35.306   6.128   4.007  1.00 20.00     0.093 C 
ENDROOT
BRANCH   3   4
HETATM    4  C9  UNL     1     -34.308   7.272   3.898  1.00 20.00     0.024 C 
BRANCH   4   5
HETATM    5  C7  UNL     1     -33.053   6.836   3.169  1.00 20.00     0.056 C 
HETATM    6  C3  UNL     1     -32.118   7.987   2.861  1.00 20.00     0.131 C 
HETATM    7  C4  UNL     1     -31.586   7.923   1.452  1.00 20.00     0.079 C 
HETATM    8  O10 UNL     1     -31.823   8.872   3.657  1.00 20.00    -0.298 OA
HETATM    9  C5  UNL     1     -32.034   6.536   1.009  1.00 20.00     0.008 C 
HETATM   10  C6  UNL     1     -33.334   6.297   1.765  1.00 20.00     0.013 C 
ENDBRANCH   4   5
ENDBRANCH   3   4
TORSDOF 2
ENDMDL
MODEL 5
REMARK VINA RESULT:      -1.3      1.542      1.985
REMARK  2 active torsions:
REMARK  status: ('A' for Active; 'I' for Inactive)
REMARK    1  A    between atoms: C7_7  and  C9_9 
REMARK    2  A    between atoms: C8_8  and  C9_9 
ROOT
HETATM    1  C1  UNL     1     -33.249   2.893   4.754  1.00 20.00     0.012 C 
HETATM    2  C2  UNL     1     -33.862   3.826   4.313  1.00 20.00    -0.117 C 
HETATM    3  C8  UNL     1     -34.618   4.964   3.774  1.00 20.00     0.093 C 
ENDROOT
BRANCH   3   4
HETATM    4  C9  UNL     1     -33.872   6.267   4.020  1.00 20.00     0.024 C 
BRANCH   4   5
HETATM    5  C7  UNL     1     -33.628   7.012   2.723  1.00 20.00     0.056 C 
HETATM    6  C3  UNL     1     -32.658   6.299   1.804  1.00 20.00     0.131 C 
HETATM    7  C4  UNL     1     -31.644   7.243   1.208  1.00 20.00     0.079 C 
HETATM    8  O10 UNL     1     -32.684   5.096   1.568  1.00 20.00    -0.298 OA
HETATM    9  C5  UNL     1     -32.211   8.602   1.601  1.00 20.00     0.008 C 
HETATM   10  C6  UNL     1     -32.917   8.351   2.927  1.00 20.00     0.013 C 
ENDBRANCH   4   5
ENDBRANCH   3   4
TORSDOF 2
ENDMDL
MODEL 6
REMARK VINA RESULT:      -0.9      1.509      2.013
REMARK  2 active torsions:
REMARK  status: ('A' for Active; 'I' for Inactive)
REMARK    1  A    between atoms: C7_7  and  C9_9 
REMARK    2  A    between atoms: C8_8  and  C9_9 
ROOT
HETATM    1  C1  UNL     1     -32.734   2.682   5.170  1.00 20.00     0.012 C 
HETATM    2  C2  UNL     1     -33.491   3.448   4.640  1.00 20.00    -0.117 C 
HETATM    3  C8  UNL     1     -34.420   4.386   3.996  1.00 20.00     0.093 C 
ENDROOT
BRANCH   3   4
HETATM    4  C9  UNL     1     -33.787   4.999   2.755  1.00 20.00     0.024 C 
BRANCH   4   5
HETATM    5  C7  UNL     1     -33.932   6.507   2.754  1.00 20.00     0.056 C 
HETATM    6  C3  UNL     1     -32.632   7.226   2.458  1.00 20.00     0.131 C 
HETATM    7  C4  UNL     1     -32.404   8.390   3.389  1.00 20.00     0.079 C 
HETATM    8  O10 UNL     1     -31.850   6.906   1.569  1.00 20.00    -0.298 OA
HETATM    9  C5  UNL     1     -33.753   8.503   4.088  1.00 20.00     0.008 C 
HETATM   10  C6  UNL     1     -34.279   7.075   4.132  1.00 20.00     0.013 C 
ENDBRANCH   4   5
ENDBRANCH   3   4
TORSDOF 2
ENDMDL
MODEL 7
REMARK VINA RESULT:      -0.7      0.790      1.008
REMARK  2 active torsions:
REMARK  status: ('A' for Active; 'I' for Inactive)
REMARK    1  A    between atoms: C7_7  and  C9_9 
REMARK    2  A    between atoms: C8_8  and  C9_9 
ROOT
HETATM    1  C1  UNL     1     -32.604   3.130   5.988  1.00 20.00     0.012 C 
HETATM    2  C2  UNL     1     -33.164   3.308   4.942  1.00 20.00    -0.117 C 
HETATM    3  C8  UNL     1     -33.851   3.520   3.661  1.00 20.00     0.093 C 
ENDROOT
BRANCH   3   4
HETATM    4  C9  UNL     1     -34.302   4.967   3.528  1.00 20.00     0.024 C 
BRANCH   4   5
HETATM    5  C7  UNL     1     -33.127   5.883   3.249  1.00 20.00     0.056 C 
HETATM    6  C3  UNL     1     -33.434   7.341   3.527  1.00 20.00     0.131 C 
HETATM    7  C4  UNL     1     -32.933   8.244   2.429  1.00 20.00     0.079 C 
HETATM    8  O10 UNL     1     -34.022   7.747   4.523  1.00 20.00    -0.298 OA
HETATM    9  C5  UNL     1     -32.074   7.292   1.605  1.00 20.00     0.008 C 
HETATM   10  C6  UNL     1     -32.748   5.935   1.768  1.00 20.00     0.013 C 
ENDBRANCH   4   5
ENDBRANCH   3   4
TORSDOF 2
ENDMDL
MODEL 8
REMARK VINA RESULT:      -0.5      2.103      3.157
REMARK  2 active torsions:
REMARK  status: ('A' for Active; 'I' for Inactive)
REMARK    1  A    between atoms: C7_7  and  C9_9 
REMARK    2  A    between atoms: C8_8  and  C9_9 
ROOT
HETATM    1  C1  UNL     1     -35.323   5.692   4.029  1.00 20.00     0.012 C 
HETATM    2  C2  UNL     1     -34.741   6.733   4.168  1.00 20.00    -0.117 C 
HETATM    3  C8  UNL     1     -34.034   8.009   4.342  1.00 20.00     0.093 C 
ENDROOT
BRANCH   3   4
HETATM    4  C9  UNL     1     -32.713   7.996   3.587  1.00 20.00     0.024 C 
BRANCH   4   5
HETATM    5  C7  UNL     1     -32.926   8.248   2.107  1.00 20.00     0.056 C 
HETATM    6  C3  UNL     1     -31.934   7.509   1.233  1.00 20.00     0.131 C 
HETATM    7  C4  UNL     1     -31.382   8.387   0.138  1.00 20.00     0.079 C 
HETATM    8  O10 UNL     1     -31.611   6.337   1.389  1.00 20.00    -0.298 OA
HETATM    9  C5  UNL     1     -32.285   9.611   0.229  1.00 20.00     0.008 C 
HETATM   10  C6  UNL     1     -32.657   9.699   1.703  1.00 20.00     0.013 C 
ENDBRANCH   4   5
ENDBRANCH   3   4
TORSDOF 2
ENDMDL
MODEL 9
REMARK VINA RESULT:       0.1      2.150      3.574
REMARK  2 active torsions:
REMARK  status: ('A' for Active; 'I' for Inactive)
REMARK    1  A    between atoms: C7_7  and  C9_9 
REMARK    2  A    between atoms: C8_8  and  C9_9 
ROOT
HETATM    1  C1  UNL     1     -30.441   3.307  -0.501  1.00 20.00     0.012 C 
HETATM    2  C2  UNL     1     -31.379   3.949  -0.113  1.00 20.00    -0.117 C 
HETATM    3  C8  UNL     1     -32.529   4.731   0.358  1.00 20.00     0.093 C 
ENDROOT
BRANCH   3   4
HETATM    4  C9  UNL     1     -32.181   5.479   1.637  1.00 20.00     0.024 C 
BRANCH   4   5
HETATM    5  C7  UNL     1     -33.361   6.286   2.138  1.00 20.00     0.056 C 
HETATM    6  C3  UNL     1     -32.950   7.579   2.813  1.00 20.00     0.131 C 
HETATM    7  C4  UNL     1     -33.705   7.812   4.098  1.00 20.00     0.079 C 
HETATM    8  O10 UNL     1     -32.103   8.350   2.376  1.00 20.00    -0.298 OA
HETATM    9  C5  UNL     1     -34.780   6.733   4.031  1.00 20.00     0.008 C 
HETATM   10  C6  UNL     1     -34.125   5.591   3.266  1.00 20.00     0.013 C 
ENDBRANCH   4   5
ENDBRANCH   3   4
TORSDOF 2
ENDMDL
