MODEL 1
REMARK VINA RESULT:      -2.8      0.000      0.000
REMARK  4 active torsions:
REMARK  status: ('A' for Active; 'I' for Inactive)
REMARK    1  A    between atoms: C3_3  and  C9_9 
REMARK    2  A    between atoms: C6_6  and  C8_8 
REMARK    3  A    between atoms: C7_7  and  C9_9 
REMARK    4  A    between atoms: C8_8  and  C9_9 
ROOT
HETATM    1  C1  UNL     1     -31.957   8.550   1.453  1.00 20.00     0.012 C 
HETATM    2  C2  UNL     1     -31.984   7.349   1.490  1.00 20.00    -0.117 C 
HETATM    3  C6  UNL     1     -32.015   5.881   1.533  1.00 20.00     0.093 C 
ENDROOT
BRANCH   3   4
HETATM    4  C8  UNL     1     -33.406   5.370   1.923  1.00 20.00     0.024 C 
BRANCH   4   5
HETATM    5  C9  UNL     1     -33.633   5.399   3.445  1.00 20.00     0.055 C 
BRANCH   5   6
HETATM    6  C3  UNL     1     -34.591   6.516   3.863  1.00 20.00     0.127 C 
HETATM    7  C4  UNL     1     -33.973   7.760   4.449  1.00 20.00     0.091 C 
HETATM    8  O10 UNL     1     -35.810   6.431   3.711  1.00 20.00    -0.298 OA
ENDBRANCH   5   6
BRANCH   5   9
HETATM    9  C7  UNL     1     -34.127   4.045   3.986  1.00 20.00     0.007 C 
HETATM   10  C5  UNL     1     -33.058   3.195   4.660  1.00 20.00     0.006 C 
ENDBRANCH   5   9
ENDBRANCH   4   5
ENDBRANCH   3   4
TORSDOF 4
ENDMDL
MODEL 2
REMARK VINA RESULT:      -2.6      1.875      2.709
REMARK  4 active torsions:
REMARK  status: ('A' for Active; 'I' for Inactive)
REMARK    1  A    between atoms: C3_3  and  C9_9 
REMARK    2  A    between atoms: C6_6  and  C8_8 
REMARK    3  A    between atoms: C7_7  and  C9_9 
REMARK    4  A    between atoms: C8_8  and  C9_9 
ROOT
HETATM    1  C1  UNL     1     -32.718  10.652  -0.081  1.00 20.00     0.012 C 
HETATM    2  C2  UNL     1     -32.309   9.637   0.416  1.00 20.00    -0.117 C 
HETATM    3  C6  UNL     1     -31.809   8.395   1.020  1.00 20.00     0.093 C 
ENDROOT
BRANCH   3   4
HETATM    4  C8  UNL     1     -32.150   8.333   2.513  1.00 20.00     0.024 C 
BRANCH   4   5
HETATM    5  C9  UNL     1     -32.825   7.007   2.904  1.00 20.00     0.055 C 
BRANCH   5   6
HETATM    6  C3  UNL     1     -33.988   7.217   3.876  1.00 20.00     0.127 C 
HETATM    7  C4  UNL     1     -35.151   6.264   3.764  1.00 20.00     0.091 C 
HETATM    8  O10 UNL     1     -33.979   8.100   4.734  1.00 20.00    -0.298 OA
ENDBRANCH   5   6
BRANCH   5   9
HETATM    9  C7  UNL     1     -33.298   6.209   1.675  1.00 20.00     0.007 C 
HETATM   10  C5  UNL     1     -32.360   5.094   1.233  1.00 20.00     0.006 C 
ENDBRANCH   5   9
ENDBRANCH   4   5
ENDBRANCH   3   4
TORSDOF 4
ENDMDL
MODEL 3
REMARK VINA RESULT:      -2.3      1.524      4.096
REMARK  4 active torsions:
REMARK  status: ('A' for Active; 'I' for Inactive)
REMARK    1  A    between atoms: C3_3  and  C9_9 
REMARK    2  A    between atoms: C6_6  and  C8_8 
REMARK    3  A    between atoms: C7_7  and  C9_9 
REMARK    4  A    between atoms: C8_8  and  C9_9 
ROOT
HETATM    1  C1  UNL     1     -33.126   2.995   4.488  1.00 20.00     0.012 C 
HETATM    2  C2  UNL     1     -33.987   3.833   4.519  1.00 20.00    -0.117 C 
HETATM    3  C6  UNL     1     -35.041   4.856   4.559  1.00 20.00     0.093 C 
ENDROOT
BRANCH   3   4
HETATM    4  C8  UNL     1     -34.895   5.842   3.395  1.00 20.00     0.024 C 
BRANCH   4   5
HETATM    5  C9  UNL     1     -33.558   6.604   3.440  1.00 20.00     0.055 C 
BRANCH   5   6
HETATM    6  C3  UNL     1     -32.840   6.588   2.090  1.00 20.00     0.127 C 
HETATM    7  C4  UNL     1     -32.083   7.835   1.705  1.00 20.00     0.091 C 
HETATM    8  O10 UNL     1     -32.848   5.604   1.350  1.00 20.00    -0.298 OA
ENDBRANCH   5   6
BRANCH   5   9
HETATM    9  C7  UNL     1     -33.728   8.052   3.935  1.00 20.00     0.007 C 
HETATM   10  C5  UNL     1     -33.163   8.328   5.322  1.00 20.00     0.006 C 
ENDBRANCH   5   9
ENDBRANCH   4   5
ENDBRANCH   3   4
TORSDOF 4
ENDMDL
MODEL 4
REMARK VINA RESULT:      -2.2      1.797      3.141
REMARK  4 active torsions:
REMARK  status: ('A' for Active; 'I' for Inactive)
REMARK    1  A    between atoms: C3_3  and  C9_9 
REMARK    2  A    between atoms: C6_6  and  C8_8 
REMARK    3  A    between atoms: C7_7  and  C9_9 
REMARK    4  A    between atoms: C8_8  and  C9_9 
ROOT
HETATM    1  C1  UNL     1     -32.701  10.580   0.122  1.00 20.00     0.012 C 
HETATM    2  C2  UNL     1     -32.287   9.526   0.524  1.00 20.00    -0.117 C 
HETATM    3  C6  UNL     1     -31.780   8.236   1.013  1.00 20.00     0.093 C 
ENDROOT
BRANCH   3   4
HETATM    4  C8  UNL     1     -32.190   8.001   2.470  1.00 20.00     0.024 C 
BRANCH   4   5
HETATM    5  C9  UNL     1     -33.483   7.173   2.587  1.00 20.00     0.055 C 
BRANCH   5   6
HETATM    6  C3  UNL     1     -33.227   5.676   2.402  1.00 20.00     0.127 C 
HETATM    7  C4  UNL     1     -33.806   4.752   3.443  1.00 20.00     0.091 C 
HETATM    8  O10 UNL     1     -32.601   5.227   1.441  1.00 20.00    -0.298 OA
ENDBRANCH   5   6
BRANCH   5   9
HETATM    9  C7  UNL     1     -34.219   7.426   3.915  1.00 20.00     0.007 C 
HETATM   10  C5  UNL     1     -33.404   8.159   4.972  1.00 20.00     0.006 C 
ENDBRANCH   5   9
ENDBRANCH   4   5
ENDBRANCH   3   4
TORSDOF 4
ENDMDL
MODEL 5
REMARK VINA RESULT:      -2.1      0.985      2.484
REMARK  4 active torsions:
REMARK  status: ('A' for Active; 'I' for Inactive)
REMARK    1  A    between atoms: C3_3  and  C9_9 
REMARK    2  A    between atoms: C6_6  and  C8_8 
REMARK    3  A    between atoms: C7_7  and  C9_9 
REMARK    4  A    between atoms: C8_8  and  C9_9 
ROOT
HETATM    1  C1  UNL     1     -31.991   8.887   1.111  1.00 20.00     0.012 C 
HETATM    2  C2  UNL     1     -32.280   7.727   1.228  1.00 20.00    -0.117 C 
HETATM    3  C6  UNL     1     -32.635   6.308   1.368  1.00 20.00     0.093 C 
ENDROOT
BRANCH   3   4
HETATM    4  C8  UNL     1     -32.806   5.926   2.842  1.00 20.00     0.024 C 
BRANCH   4   5
HETATM    5  C9  UNL     1     -34.277   5.975   3.292  1.00 20.00     0.055 C 
BRANCH   5   6
HETATM    6  C3  UNL     1     -34.647   4.786   4.180  1.00 20.00     0.127 C 
HETATM    7  C4  UNL     1     -33.659   3.649   4.244  1.00 20.00     0.091 C 
HETATM    8  O10 UNL     1     -35.686   4.753   4.840  1.00 20.00    -0.298 OA
ENDBRANCH   5   6
BRANCH   5   9
HETATM    9  C7  UNL     1     -34.627   7.296   3.999  1.00 20.00     0.007 C 
HETATM   10  C5  UNL     1     -33.452   7.999   4.666  1.00 20.00     0.006 C 
ENDBRANCH   5   9
ENDBRANCH   4   5
ENDBRANCH   3   4
TORSDOF 4
ENDMDL
MODEL 6
REMARK VINA RESULT:      -2.0      1.864      4.110
REMARK  4 active torsions:
REMARK  status: ('A' for Active; 'I' for Inactive)
REMARK    1  A    between atoms: C3_3  and  C9_9 
REMARK    2  A    between atoms: C6_6  and  C8_8 
REMARK    3  A    between atoms: C7_7  and  C9_9 
REMARK    4  A    between atoms: C8_8  and  C9_9 
ROOT
HETATM    1  C1  UNL     1     -33.859   3.645   4.445  1.00 20.00     0.012 C 
HETATM    2  C2  UNL     1     -34.276   4.723   4.118  1.00 20.00    -0.117 C 
HETATM    3  C6  UNL     1     -34.789   6.041   3.716  1.00 20.00     0.093 C 
ENDROOT
BRANCH   3   4
HETATM    4  C8  UNL     1     -33.646   7.048   3.546  1.00 20.00     0.024 C 
BRANCH   4   5
HETATM    5  C9  UNL     1     -33.131   7.107   2.097  1.00 20.00     0.055 C 
BRANCH   5   6
HETATM    6  C3  UNL     1     -32.135   8.249   1.886  1.00 20.00     0.127 C 
HETATM    7  C4  UNL     1     -32.385   9.163   0.713  1.00 20.00     0.091 C 
HETATM    8  O10 UNL     1     -31.184   8.444   2.643  1.00 20.00    -0.298 OA
ENDBRANCH   5   6
BRANCH   5   9
HETATM    9  C7  UNL     1     -32.512   5.772   1.644  1.00 20.00     0.007 C 
HETATM   10  C5  UNL     1     -33.215   5.104   0.470  1.00 20.00     0.006 C 
ENDBRANCH   5   9
ENDBRANCH   4   5
ENDBRANCH   3   4
TORSDOF 4
ENDMDL
MODEL 7
REMARK VINA RESULT:      -2.0      2.235      3.378
REMARK  4 active torsions:
REMARK  status: ('A' for Active; 'I' for Inactive)
REMARK    1  A    between atoms: C3_3  and  C9_9 
REMARK    2  A    between atoms: C6_6  and  C8_8 
REMARK    3  A    between atoms: C7_7  and  C9_9 
REMARK    4  A    between atoms: C8_8  and  C9_9 
ROOT
HETATM    1  C1  UNL     1     -32.919  10.677  -0.055  1.00 20.00     0.012 C 
HETATM    2  C2  UNL     1     -32.352   9.698   0.346  1.00 20.00    -0.117 C 
HETATM    3  C6  UNL     1     -31.656   8.498   0.834  1.00 20.00     0.093 C 
ENDROOT
BRANCH   3   4
HETATM    4  C8  UNL     1     -32.137   8.115   2.237  1.00 20.00     0.024 C 
BRANCH   4   5
HETATM    5  C9  UNL     1     -33.215   7.017   2.206  1.00 20.00     0.055 C 
BRANCH   5   6
HETATM    6  C3  UNL     1     -32.748   5.773   1.449  1.00 20.00     0.127 C 
HETATM    7  C4  UNL     1     -33.672   5.234   0.386  1.00 20.00     0.091 C 
HETATM    8  O10 UNL     1     -31.660   5.239   1.664  1.00 20.00    -0.298 OA
ENDBRANCH   5   6
BRANCH   5   9
HETATM    9  C7  UNL     1     -33.696   6.632   3.616  1.00 20.00     0.007 C 
HETATM   10  C5  UNL     1     -35.197   6.411   3.746  1.00 20.00     0.006 C 
ENDBRANCH   5   9
ENDBRANCH   4   5
ENDBRANCH   3   4
TORSDOF 4
ENDMDL
MODEL 8
REMARK VINA RESULT:      -1.9      2.482      4.314
REMARK  4 active torsions:
REMARK  status: ('A' for Active; 'I' for Inactive)
REMARK    1  A    between atoms: C3_3  and  C9_9 
REMARK    2  A    between atoms: C6_6  and  C8_8 
REMARK    3  A    between atoms: C7_7  and  C9_9 
REMARK    4  A    between atoms: C8_8  and  C9_9 
ROOT
HETATM    1  C1  UNL     1     -35.151   5.846   4.072  1.00 20.00     0.012 C 
HETATM    2  C2  UNL     1     -34.592   6.909   4.038  1.00 20.00    -0.117 C 
HETATM    3  C6  UNL     1     -33.912   8.210   3.997  1.00 20.00     0.093 C 
ENDROOT
BRANCH   3   4
HETATM    4  C8  UNL     1     -32.538   8.092   3.328  1.00 20.00     0.024 C 
BRANCH   4   5
HETATM    5  C9  UNL     1     -32.645   7.742   1.832  1.00 20.00     0.055 C 
BRANCH   5   6
HETATM    6  C3  UNL     1     -32.052   8.835   0.942  1.00 20.00     0.127 C 
HETATM    7  C4  UNL     1     -32.820  10.130   0.848  1.00 20.00     0.091 C 
HETATM    8  O10 UNL     1     -30.986   8.692   0.343  1.00 20.00    -0.298 OA
ENDBRANCH   5   6
BRANCH   5   9
HETATM    9  C7  UNL     1     -32.003   6.383   1.505  1.00 20.00     0.007 C 
HETATM   10  C5  UNL     1     -32.973   5.315   1.017  1.00 20.00     0.006 C 
ENDBRANCH   5   9
ENDBRANCH   4   5
ENDBRANCH   3   4
TORSDOF 4
ENDMDL
MODEL 9
REMARK VINA RESULT:      -1.6      2.230      4.728
REMARK  4 active torsions:
REMARK  status: ('A' for Active; 'I' for Inactive)
REMARK    1  A    between atoms: C3_3  and  C9_9 
REMARK    2  A    between atoms: C6_6  and  C8_8 
REMARK    3  A    between atoms: C7_7  and  C9_9 
REMARK    4  A    between atoms: C8_8  and  C9_9 
ROOT
HETATM    1  C1  UNL     1     -35.460   5.876   4.131  1.00 20.00     0.012 C 
HETATM    2  C2  UNL     1     -34.589   6.698   4.042  1.00 20.00    -0.117 C 
HETATM    3  C6  UNL     1     -33.523   7.705   3.937  1.00 20.00     0.093 C 
ENDROOT
BRANCH   3   4
HETATM    4  C8  UNL     1     -33.361   8.186   2.491  1.00 20.00     0.024 C 
BRANCH   4   5
HETATM    5  C9  UNL     1     -32.089   7.627   1.828  1.00 20.00     0.055 C 
BRANCH   5   6
HETATM    6  C3  UNL     1     -32.252   6.164   1.412  1.00 20.00     0.127 C 
HETATM    7  C4  UNL     1     -33.498   5.809   0.641  1.00 20.00     0.091 C 
HETATM    8  O10 UNL     1     -31.403   5.309   1.663  1.00 20.00    -0.298 OA
ENDBRANCH   5   6
BRANCH   5   9
HETATM    9  C7  UNL     1     -31.639   8.475   0.625  1.00 20.00     0.007 C 
HETATM   10  C5  UNL     1     -32.447   9.746   0.396  1.00 20.00     0.006 C 
ENDBRANCH   5   9
ENDBRANCH   4   5
ENDBRANCH   3   4
TORSDOF 4
ENDMDL
