MODEL 1
REMARK VINA RESULT:      -1.8      0.000      0.000
REMARK  4 active torsions:
REMARK  status: ('A' for Active; 'I' for Inactive)
REMARK    1  A    between atoms: C5_5  and  C9_9 
REMARK    2  A    between atoms: C7_7  and  C8_8 
REMARK    3  A    between atoms: C8_8  and  C9_9 
REMARK    4  A    between atoms: C9_9  and  O10_10 
ROOT
HETATM    1  C1  UNL     1     -32.802  10.684  -0.020  1.00 20.00     0.012 C 
HETATM    2  C2  UNL     1     -32.311   9.631   0.283  1.00 20.00    -0.117 C 
HETATM    3  C7  UNL     1     -31.706   8.340   0.649  1.00 20.00     0.096 C 
ENDROOT
BRANCH   3   4
HETATM    4  C8  UNL     1     -32.237   7.853   2.004  1.00 20.00     0.050 C 
BRANCH   4   5
HETATM    5  C9  UNL     1     -32.875   6.447   1.976  1.00 20.00     0.059 C 
HETATM    6  C6  UNL     1     -33.828   6.279   0.818  1.00 20.00     0.046 C 
BRANCH   5   7
HETATM    7  C5  UNL     1     -33.608   6.195   3.300  1.00 20.00     0.019 A 
HETATM    8  C3  UNL     1     -34.063   7.351   4.146  1.00 20.00     0.008 A 
HETATM    9  C4  UNL     1     -35.074   6.504   3.424  1.00 20.00     0.008 A 
ENDBRANCH   5   7
BRANCH   5  10
HETATM   10  O10 UNL     1     -31.829   5.477   1.863  1.00 20.00    -0.390 OA
HETATM   11  H24 UNL     1     -31.010   5.976   1.727  1.00 20.00     0.210 HD
ENDBRANCH   5  10
ENDBRANCH   4   5
ENDBRANCH   3   4
TORSDOF 4
ENDMDL
MODEL 2
REMARK VINA RESULT:      -1.5      1.194      4.446
REMARK  4 active torsions:
REMARK  status: ('A' for Active; 'I' for Inactive)
REMARK    1  A    between atoms: C5_5  and  C9_9 
REMARK    2  A    between atoms: C7_7  and  C8_8 
REMARK    3  A    between atoms: C8_8  and  C9_9 
REMARK    4  A    between atoms: C9_9  and  O10_10 
ROOT
HETATM    1  C1  UNL     1     -35.474   5.321   4.434  1.00 20.00     0.012 C 
HETATM    2  C2  UNL     1     -34.834   6.253   4.030  1.00 20.00    -0.117 C 
HETATM    3  C7  UNL     1     -34.050   7.398   3.540  1.00 20.00     0.096 C 
ENDROOT
BRANCH   3   4
HETATM    4  C8  UNL     1     -33.193   6.997   2.332  1.00 20.00     0.050 C 
BRANCH   4   5
HETATM    5  C9  UNL     1     -32.194   8.079   1.866  1.00 20.00     0.059 C 
HETATM    6  C6  UNL     1     -31.604   8.843   3.025  1.00 20.00     0.046 C 
BRANCH   5   7
HETATM    7  C5  UNL     1     -32.903   9.044   0.907  1.00 20.00     0.019 A 
HETATM    8  C3  UNL     1     -32.475  10.482   0.825  1.00 20.00     0.008 A 
HETATM    9  C4  UNL     1     -32.195   9.549  -0.319  1.00 20.00     0.008 A 
ENDBRANCH   5   7
BRANCH   5  10
HETATM   10  O10 UNL     1     -31.139   7.440   1.143  1.00 20.00    -0.390 OA
HETATM   11  H24 UNL     1     -30.372   8.028   1.205  1.00 20.00     0.210 HD
ENDBRANCH   5  10
ENDBRANCH   4   5
ENDBRANCH   3   4
TORSDOF 4
ENDMDL
MODEL 3
REMARK VINA RESULT:      -1.3      1.722      2.449
REMARK  4 active torsions:
REMARK  status: ('A' for Active; 'I' for Inactive)
REMARK    1  A    between atoms: C5_5  and  C9_9 
REMARK    2  A    between atoms: C7_7  and  C8_8 
REMARK    3  A    between atoms: C8_8  and  C9_9 
REMARK    4  A    between atoms: C9_9  and  O10_10 
ROOT
HETATM    1  C1  UNL     1     -32.433   9.642   0.316  1.00 20.00     0.012 C 
HETATM    2  C2  UNL     1     -32.267   8.756   1.108  1.00 20.00    -0.117 C 
HETATM    3  C7  UNL     1     -32.059   7.672   2.082  1.00 20.00     0.096 C 
ENDROOT
BRANCH   3   4
HETATM    4  C8  UNL     1     -33.271   6.731   2.120  1.00 20.00     0.050 C 
BRANCH   4   5
HETATM    5  C9  UNL     1     -34.073   6.770   3.439  1.00 20.00     0.059 C 
HETATM    6  C6  UNL     1     -33.727   7.975   4.278  1.00 20.00     0.046 C 
BRANCH   5   7
HETATM    7  C5  UNL     1     -33.806   5.484   4.233  1.00 20.00     0.019 A 
HETATM    8  C3  UNL     1     -34.938   4.558   4.579  1.00 20.00     0.008 A 
HETATM    9  C4  UNL     1     -33.913   4.143   3.560  1.00 20.00     0.008 A 
ENDBRANCH   5   7
BRANCH   5  10
HETATM   10  O10 UNL     1     -35.467   6.807   3.122  1.00 20.00    -0.390 OA
HETATM   11  H24 UNL     1     -35.903   7.246   3.867  1.00 20.00     0.210 HD
ENDBRANCH   5  10
ENDBRANCH   4   5
ENDBRANCH   3   4
TORSDOF 4
ENDMDL
MODEL 4
REMARK VINA RESULT:      -1.2      2.222      4.990
REMARK  4 active torsions:
REMARK  status: ('A' for Active; 'I' for Inactive)
REMARK    1  A    between atoms: C5_5  and  C9_9 
REMARK    2  A    between atoms: C7_7  and  C8_8 
REMARK    3  A    between atoms: C8_8  and  C9_9 
REMARK    4  A    between atoms: C9_9  and  O10_10 
ROOT
HETATM    1  C1  UNL     1     -33.068   2.314   4.875  1.00 20.00     0.012 C 
HETATM    2  C2  UNL     1     -33.639   3.313   4.531  1.00 20.00    -0.117 C 
HETATM    3  C7  UNL     1     -34.343   4.535   4.111  1.00 20.00     0.096 C 
ENDROOT
BRANCH   3   4
HETATM    4  C8  UNL     1     -33.396   5.481   3.359  1.00 20.00     0.050 C 
BRANCH   4   5
HETATM    5  C9  UNL     1     -33.811   6.968   3.397  1.00 20.00     0.059 C 
HETATM    6  C6  UNL     1     -35.309   7.138   3.445  1.00 20.00     0.046 C 
BRANCH   5   7
HETATM    7  C5  UNL     1     -33.240   7.685   2.167  1.00 20.00     0.019 A 
HETATM    8  C3  UNL     1     -31.855   8.268   2.204  1.00 20.00     0.008 A 
HETATM    9  C4  UNL     1     -32.135   7.052   1.366  1.00 20.00     0.008 A 
ENDBRANCH   5   7
BRANCH   5  10
HETATM   10  O10 UNL     1     -33.236   7.569   4.560  1.00 20.00    -0.390 OA
HETATM   11  H24 UNL     1     -32.309   7.746   4.344  1.00 20.00     0.210 HD
ENDBRANCH   5  10
ENDBRANCH   4   5
ENDBRANCH   3   4
TORSDOF 4
ENDMDL
MODEL 5
REMARK VINA RESULT:      -1.2      1.398      3.961
REMARK  4 active torsions:
REMARK  status: ('A' for Active; 'I' for Inactive)
REMARK    1  A    between atoms: C5_5  and  C9_9 
REMARK    2  A    between atoms: C7_7  and  C8_8 
REMARK    3  A    between atoms: C8_8  and  C9_9 
REMARK    4  A    between atoms: C9_9  and  O10_10 
ROOT
HETATM    1  C1  UNL     1     -35.358   5.484   4.363  1.00 20.00     0.012 C 
HETATM    2  C2  UNL     1     -34.684   6.451   4.139  1.00 20.00    -0.117 C 
HETATM    3  C7  UNL     1     -33.857   7.639   3.871  1.00 20.00     0.096 C 
ENDROOT
BRANCH   3   4
HETATM    4  C8  UNL     1     -33.763   7.910   2.363  1.00 20.00     0.050 C 
BRANCH   4   5
HETATM    5  C9  UNL     1     -32.322   8.025   1.820  1.00 20.00     0.059 C 
HETATM    6  C6  UNL     1     -32.168   9.179   0.860  1.00 20.00     0.046 C 
BRANCH   5   7
HETATM    7  C5  UNL     1     -31.935   6.711   1.129  1.00 20.00     0.019 A 
HETATM    8  C3  UNL     1     -31.895   5.427   1.909  1.00 20.00     0.008 A 
HETATM    9  C4  UNL     1     -32.972   5.650   0.884  1.00 20.00     0.008 A 
ENDBRANCH   5   7
BRANCH   5  10
HETATM   10  O10 UNL     1     -31.435   8.217   2.925  1.00 20.00    -0.390 OA
HETATM   11  H24 UNL     1     -30.692   7.612   2.785  1.00 20.00     0.210 HD
ENDBRANCH   5  10
ENDBRANCH   4   5
ENDBRANCH   3   4
TORSDOF 4
ENDMDL
MODEL 6
REMARK VINA RESULT:      -1.0      1.476      4.500
REMARK  4 active torsions:
REMARK  status: ('A' for Active; 'I' for Inactive)
REMARK    1  A    between atoms: C5_5  and  C9_9 
REMARK    2  A    between atoms: C7_7  and  C8_8 
REMARK    3  A    between atoms: C8_8  and  C9_9 
REMARK    4  A    between atoms: C9_9  and  O10_10 
ROOT
HETATM    1  C1  UNL     1     -33.791   3.595   4.415  1.00 20.00     0.012 C 
HETATM    2  C2  UNL     1     -34.136   4.668   4.003  1.00 20.00    -0.117 C 
HETATM    3  C7  UNL     1     -34.566   5.982   3.497  1.00 20.00     0.096 C 
ENDROOT
BRANCH   3   4
HETATM    4  C8  UNL     1     -33.362   6.916   3.310  1.00 20.00     0.050 C 
BRANCH   4   5
HETATM    5  C9  UNL     1     -32.715   6.855   1.909  1.00 20.00     0.059 C 
HETATM    6  C6  UNL     1     -31.816   5.654   1.751  1.00 20.00     0.046 C 
BRANCH   5   7
HETATM    7  C5  UNL     1     -31.919   8.144   1.662  1.00 20.00     0.019 A 
HETATM    8  C3  UNL     1     -31.535   8.541   0.264  1.00 20.00     0.008 A 
HETATM    9  C4  UNL     1     -32.578   9.327   1.008  1.00 20.00     0.008 A 
ENDBRANCH   5   7
BRANCH   5  10
HETATM   10  O10 UNL     1     -33.757   6.790   0.931  1.00 20.00    -0.390 OA
HETATM   11  H24 UNL     1     -34.406   6.155   1.268  1.00 20.00     0.210 HD
ENDBRANCH   5  10
ENDBRANCH   4   5
ENDBRANCH   3   4
TORSDOF 4
ENDMDL
MODEL 7
REMARK VINA RESULT:      -0.5      1.307      3.703
REMARK  4 active torsions:
REMARK  status: ('A' for Active; 'I' for Inactive)
REMARK    1  A    between atoms: C5_5  and  C9_9 
REMARK    2  A    between atoms: C7_7  and  C8_8 
REMARK    3  A    between atoms: C8_8  and  C9_9 
REMARK    4  A    between atoms: C9_9  and  O10_10 
ROOT
HETATM    1  C1  UNL     1     -33.517   8.324   5.213  1.00 20.00     0.012 C 
HETATM    2  C2  UNL     1     -33.991   7.548   4.429  1.00 20.00    -0.117 C 
HETATM    3  C7  UNL     1     -34.577   6.600   3.468  1.00 20.00     0.096 C 
ENDROOT
BRANCH   3   4
HETATM    4  C8  UNL     1     -33.509   5.637   2.929  1.00 20.00     0.050 C 
BRANCH   4   5
HETATM    5  C9  UNL     1     -32.811   6.111   1.636  1.00 20.00     0.059 C 
HETATM    6  C6  UNL     1     -31.843   5.083   1.104  1.00 20.00     0.046 C 
BRANCH   5   7
HETATM    7  C5  UNL     1     -32.077   7.431   1.910  1.00 20.00     0.019 A 
HETATM    8  C3  UNL     1     -31.281   8.095   0.822  1.00 20.00     0.008 A 
HETATM    9  C4  UNL     1     -32.568   8.712   1.295  1.00 20.00     0.008 A 
ENDBRANCH   5   7
BRANCH   5  10
HETATM   10  O10 UNL     1     -33.812   6.365   0.647  1.00 20.00    -0.390 OA
HETATM   11  H24 UNL     1     -33.362   6.806  -0.087  1.00 20.00     0.210 HD
ENDBRANCH   5  10
ENDBRANCH   4   5
ENDBRANCH   3   4
TORSDOF 4
ENDMDL
MODEL 8
REMARK VINA RESULT:      -0.4      1.116      1.401
REMARK  4 active torsions:
REMARK  status: ('A' for Active; 'I' for Inactive)
REMARK    1  A    between atoms: C5_5  and  C9_9 
REMARK    2  A    between atoms: C7_7  and  C8_8 
REMARK    3  A    between atoms: C8_8  and  C9_9 
REMARK    4  A    between atoms: C9_9  and  O10_10 
ROOT
HETATM    1  C1  UNL     1     -32.773  11.125   0.223  1.00 20.00     0.012 C 
HETATM    2  C2  UNL     1     -32.328  10.011   0.245  1.00 20.00    -0.117 C 
HETATM    3  C7  UNL     1     -31.776   8.647   0.271  1.00 20.00     0.096 C 
ENDROOT
BRANCH   3   4
HETATM    4  C8  UNL     1     -32.859   7.626   0.649  1.00 20.00     0.050 C 
BRANCH   4   5
HETATM    5  C9  UNL     1     -32.747   7.073   2.086  1.00 20.00     0.059 C 
HETATM    6  C6  UNL     1     -32.503   5.585   2.104  1.00 20.00     0.046 C 
BRANCH   5   7
HETATM    7  C5  UNL     1     -34.031   7.404   2.859  1.00 20.00     0.019 A 
HETATM    8  C3  UNL     1     -34.617   6.406   3.818  1.00 20.00     0.008 A 
HETATM    9  C4  UNL     1     -33.978   7.663   4.339  1.00 20.00     0.008 A 
ENDBRANCH   5   7
BRANCH   5  10
HETATM   10  O10 UNL     1     -31.660   7.732   2.742  1.00 20.00    -0.390 OA
HETATM   11  H24 UNL     1     -31.952   8.641   2.904  1.00 20.00     0.210 HD
ENDBRANCH   5  10
ENDBRANCH   4   5
ENDBRANCH   3   4
TORSDOF 4
ENDMDL
MODEL 9
REMARK VINA RESULT:      -0.1      1.965      4.500
REMARK  4 active torsions:
REMARK  status: ('A' for Active; 'I' for Inactive)
REMARK    1  A    between atoms: C5_5  and  C9_9 
REMARK    2  A    between atoms: C7_7  and  C8_8 
REMARK    3  A    between atoms: C8_8  and  C9_9 
REMARK    4  A    between atoms: C9_9  and  O10_10 
ROOT
HETATM    1  C1  UNL     1     -33.101   2.581   5.188  1.00 20.00     0.012 C 
HETATM    2  C2  UNL     1     -33.424   3.358   4.332  1.00 20.00    -0.117 C 
HETATM    3  C7  UNL     1     -33.827   4.308   3.283  1.00 20.00     0.096 C 
ENDROOT
BRANCH   3   4
HETATM    4  C8  UNL     1     -32.704   5.315   2.998  1.00 20.00     0.050 C 
BRANCH   4   5
HETATM    5  C9  UNL     1     -33.131   6.526   2.140  1.00 20.00     0.059 C 
HETATM    6  C6  UNL     1     -31.962   7.413   1.789  1.00 20.00     0.046 C 
BRANCH   5   7
HETATM    7  C5  UNL     1     -34.194   7.334   2.895  1.00 20.00     0.019 A 
HETATM    8  C3  UNL     1     -35.007   6.687   3.982  1.00 20.00     0.008 A 
HETATM    9  C4  UNL     1     -33.973   7.719   4.332  1.00 20.00     0.008 A 
ENDBRANCH   5   7
BRANCH   5  10
HETATM   10  O10 UNL     1     -33.726   6.040   0.934  1.00 20.00    -0.390 OA
HETATM   11  H24 UNL     1     -34.321   6.738   0.624  1.00 20.00     0.210 HD
ENDBRANCH   5  10
ENDBRANCH   4   5
ENDBRANCH   3   4
TORSDOF 4
ENDMDL
