MODEL 1
REMARK VINA RESULT:      -2.5      0.000      0.000
REMARK  3 active torsions:
REMARK  status: ('A' for Active; 'I' for Inactive)
REMARK    1  A    between atoms: C6_6  and  C9_9 
REMARK    2  A    between atoms: C7_7  and  O10_10 
REMARK    3  A    between atoms: C8_8  and  C9_9 
ROOT
HETATM    1  C1  UNL     1     -32.728  10.614  -0.090  1.00 20.00     0.012 C 
HETATM    2  C2  UNL     1     -32.382   9.579   0.410  1.00 20.00    -0.117 C 
HETATM    3  C8  UNL     1     -31.956   8.311   1.018  1.00 20.00     0.093 C 
ENDROOT
BRANCH   3   4
HETATM    4  C9  UNL     1     -31.936   8.430   2.532  1.00 20.00     0.019 C 
BRANCH   4   5
HETATM    5  C6  UNL     1     -32.718   7.298   3.179  1.00 20.00     0.015 C 
HETATM    6  C4  UNL     1     -33.968   7.774   3.912  1.00 20.00     0.007 C 
HETATM    7  C3  UNL     1     -34.861   6.535   4.009  1.00 20.00     0.003 C 
HETATM    8  C5  UNL     1     -34.316   5.532   2.992  1.00 20.00     0.032 C 
HETATM    9  C7  UNL     1     -33.288   6.303   2.172  1.00 20.00     0.122 C 
BRANCH   9  10
HETATM   10  O10 UNL     1     -32.279   5.449   1.667  1.00 20.00    -0.395 OA
HETATM   11  H24 UNL     1     -31.693   5.994   1.116  1.00 20.00     0.210 HD
ENDBRANCH   9  10
ENDBRANCH   4   5
ENDBRANCH   3   4
TORSDOF 3
ENDMDL
MODEL 2
REMARK VINA RESULT:      -2.5      2.132      4.912
REMARK  3 active torsions:
REMARK  status: ('A' for Active; 'I' for Inactive)
REMARK    1  A    between atoms: C6_6  and  C9_9 
REMARK    2  A    between atoms: C7_7  and  O10_10 
REMARK    3  A    between atoms: C8_8  and  C9_9 
ROOT
HETATM    1  C1  UNL     1     -33.142   3.013   4.457  1.00 20.00     0.012 C 
HETATM    2  C2  UNL     1     -33.994   3.852   4.553  1.00 20.00    -0.117 C 
HETATM    3  C8  UNL     1     -35.038   4.879   4.674  1.00 20.00     0.093 C 
ENDROOT
BRANCH   3   4
HETATM    4  C9  UNL     1     -35.007   5.810   3.475  1.00 20.00     0.019 C 
BRANCH   4   5
HETATM    5  C6  UNL     1     -33.602   6.339   3.231  1.00 20.00     0.015 C 
HETATM    6  C4  UNL     1     -33.148   6.193   1.782  1.00 20.00     0.007 C 
HETATM    7  C3  UNL     1     -32.022   7.215   1.620  1.00 20.00     0.003 C 
HETATM    8  C5  UNL     1     -32.145   8.182   2.797  1.00 20.00     0.032 C 
HETATM    9  C7  UNL     1     -33.473   7.842   3.465  1.00 20.00     0.122 C 
BRANCH   9  10
HETATM   10  O10 UNL     1     -33.454   8.146   4.846  1.00 20.00    -0.395 OA
HETATM   11  H24 UNL     1     -32.586   8.540   5.039  1.00 20.00     0.210 HD
ENDBRANCH   9  10
ENDBRANCH   4   5
ENDBRANCH   3   4
TORSDOF 3
ENDMDL
MODEL 3
REMARK VINA RESULT:      -2.0      1.158      1.544
REMARK  3 active torsions:
REMARK  status: ('A' for Active; 'I' for Inactive)
REMARK    1  A    between atoms: C6_6  and  C9_9 
REMARK    2  A    between atoms: C7_7  and  O10_10 
REMARK    3  A    between atoms: C8_8  and  C9_9 
ROOT
HETATM    1  C1  UNL     1     -32.441   9.700   0.292  1.00 20.00     0.012 C 
HETATM    2  C2  UNL     1     -32.125   8.797   1.016  1.00 20.00    -0.117 C 
HETATM    3  C8  UNL     1     -31.735   7.693   1.903  1.00 20.00     0.093 C 
ENDROOT
BRANCH   3   4
HETATM    4  C9  UNL     1     -32.720   6.542   1.781  1.00 20.00     0.019 C 
BRANCH   4   5
HETATM    5  C6  UNL     1     -33.432   6.291   3.101  1.00 20.00     0.015 C 
HETATM    6  C4  UNL     1     -34.683   7.144   3.282  1.00 20.00     0.007 C 
HETATM    7  C3  UNL     1     -35.515   6.403   4.330  1.00 20.00     0.003 C 
HETATM    8  C5  UNL     1     -34.951   4.984   4.402  1.00 20.00     0.032 C 
HETATM    9  C7  UNL     1     -33.981   4.872   3.230  1.00 20.00     0.122 C 
BRANCH   9  10
HETATM   10  O10 UNL     1     -32.948   3.944   3.498  1.00 20.00    -0.395 OA
HETATM   11  H24 UNL     1     -32.105   4.404   3.347  1.00 20.00     0.210 HD
ENDBRANCH   9  10
ENDBRANCH   4   5
ENDBRANCH   3   4
TORSDOF 3
ENDMDL
MODEL 4
REMARK VINA RESULT:      -2.0      1.487      1.951
REMARK  3 active torsions:
REMARK  status: ('A' for Active; 'I' for Inactive)
REMARK    1  A    between atoms: C6_6  and  C9_9 
REMARK    2  A    between atoms: C7_7  and  O10_10 
REMARK    3  A    between atoms: C8_8  and  C9_9 
ROOT
HETATM    1  C1  UNL     1     -32.892  10.684  -0.114  1.00 20.00     0.012 C 
HETATM    2  C2  UNL     1     -32.332   9.684   0.239  1.00 20.00    -0.117 C 
HETATM    3  C8  UNL     1     -31.644   8.458   0.669  1.00 20.00     0.093 C 
ENDROOT
BRANCH   3   4
HETATM    4  C9  UNL     1     -31.904   8.194   2.141  1.00 20.00     0.019 C 
BRANCH   4   5
HETATM    5  C6  UNL     1     -33.110   7.288   2.330  1.00 20.00     0.015 C 
HETATM    6  C4  UNL     1     -32.824   5.828   1.995  1.00 20.00     0.007 C 
HETATM    7  C3  UNL     1     -33.909   5.038   2.730  1.00 20.00     0.003 C 
HETATM    8  C5  UNL     1     -34.500   5.987   3.773  1.00 20.00     0.032 C 
HETATM    9  C7  UNL     1     -33.584   7.206   3.779  1.00 20.00     0.122 C 
BRANCH   9  10
HETATM   10  O10 UNL     1     -34.280   8.377   4.159  1.00 20.00    -0.395 OA
HETATM   11  H24 UNL     1     -33.780   8.783   4.887  1.00 20.00     0.210 HD
ENDBRANCH   9  10
ENDBRANCH   4   5
ENDBRANCH   3   4
TORSDOF 3
ENDMDL
MODEL 5
REMARK VINA RESULT:      -1.7      1.484      2.102
REMARK  3 active torsions:
REMARK  status: ('A' for Active; 'I' for Inactive)
REMARK    1  A    between atoms: C6_6  and  C9_9 
REMARK    2  A    between atoms: C7_7  and  O10_10 
REMARK    3  A    between atoms: C8_8  and  C9_9 
ROOT
HETATM    1  C1  UNL     1     -32.369   9.768   0.100  1.00 20.00     0.012 C 
HETATM    2  C2  UNL     1     -32.196   8.998   1.005  1.00 20.00    -0.117 C 
HETATM    3  C8  UNL     1     -31.985   8.060   2.115  1.00 20.00     0.093 C 
ENDROOT
BRANCH   3   4
HETATM    4  C9  UNL     1     -32.352   6.648   1.692  1.00 20.00     0.019 C 
BRANCH   4   5
HETATM    5  C6  UNL     1     -33.604   6.171   2.410  1.00 20.00     0.015 C 
HETATM    6  C4  UNL     1     -33.448   4.790   3.039  1.00 20.00     0.007 C 
HETATM    7  C3  UNL     1     -34.532   4.724   4.116  1.00 20.00     0.003 C 
HETATM    8  C5  UNL     1     -34.979   6.165   4.365  1.00 20.00     0.032 C 
HETATM    9  C7  UNL     1     -33.980   7.036   3.610  1.00 20.00     0.122 C 
BRANCH   9  10
HETATM   10  O10 UNL     1     -34.562   8.258   3.200  1.00 20.00    -0.395 OA
HETATM   11  H24 UNL     1     -35.483   8.255   3.512  1.00 20.00     0.210 HD
ENDBRANCH   9  10
ENDBRANCH   4   5
ENDBRANCH   3   4
TORSDOF 3
ENDMDL
MODEL 6
REMARK VINA RESULT:      -1.7      1.687      4.610
REMARK  3 active torsions:
REMARK  status: ('A' for Active; 'I' for Inactive)
REMARK    1  A    between atoms: C6_6  and  C9_9 
REMARK    2  A    between atoms: C7_7  and  O10_10 
REMARK    3  A    between atoms: C8_8  and  C9_9 
ROOT
HETATM    1  C1  UNL     1     -32.905   2.865   5.260  1.00 20.00     0.012 C 
HETATM    2  C2  UNL     1     -33.484   3.514   4.433  1.00 20.00    -0.117 C 
HETATM    3  C8  UNL     1     -34.193   4.305   3.418  1.00 20.00     0.093 C 
ENDROOT
BRANCH   3   4
HETATM    4  C9  UNL     1     -34.492   5.697   3.946  1.00 20.00     0.019 C 
BRANCH   4   5
HETATM    5  C6  UNL     1     -33.896   6.764   3.041  1.00 20.00     0.015 C 
HETATM    6  C4  UNL     1     -33.205   7.886   3.809  1.00 20.00     0.007 C 
HETATM    7  C3  UNL     1     -32.249   8.522   2.799  1.00 20.00     0.003 C 
HETATM    8  C5  UNL     1     -32.101   7.517   1.655  1.00 20.00     0.032 C 
HETATM    9  C7  UNL     1     -32.775   6.241   2.148  1.00 20.00     0.122 C 
BRANCH   9  10
HETATM   10  O10 UNL     1     -33.289   5.477   1.073  1.00 20.00    -0.395 OA
HETATM   11  H24 UNL     1     -32.539   5.257   0.495  1.00 20.00     0.210 HD
ENDBRANCH   9  10
ENDBRANCH   4   5
ENDBRANCH   3   4
TORSDOF 3
ENDMDL
MODEL 7
REMARK VINA RESULT:      -1.3      1.126      4.288
REMARK  3 active torsions:
REMARK  status: ('A' for Active; 'I' for Inactive)
REMARK    1  A    between atoms: C6_6  and  C9_9 
REMARK    2  A    between atoms: C7_7  and  O10_10 
REMARK    3  A    between atoms: C8_8  and  C9_9 
ROOT
HETATM    1  C1  UNL     1     -33.945   3.741   4.357  1.00 20.00     0.012 C 
HETATM    2  C2  UNL     1     -34.356   4.843   4.118  1.00 20.00    -0.117 C 
HETATM    3  C8  UNL     1     -34.862   6.191   3.826  1.00 20.00     0.093 C 
ENDROOT
BRANCH   3   4
HETATM    4  C9  UNL     1     -33.726   7.198   3.840  1.00 20.00     0.019 C 
BRANCH   4   5
HETATM    5  C6  UNL     1     -33.335   7.600   2.426  1.00 20.00     0.015 C 
HETATM    6  C4  UNL     1     -32.819   9.032   2.329  1.00 20.00     0.007 C 
HETATM    7  C3  UNL     1     -32.005   9.068   1.035  1.00 20.00     0.003 C 
HETATM    8  C5  UNL     1     -31.724   7.612   0.662  1.00 20.00     0.032 C 
HETATM    9  C7  UNL     1     -32.167   6.792   1.869  1.00 20.00     0.122 C 
BRANCH   9  10
HETATM   10  O10 UNL     1     -32.576   5.492   1.492  1.00 20.00    -0.395 OA
HETATM   11  H24 UNL     1     -33.478   5.366   1.831  1.00 20.00     0.210 HD
ENDBRANCH   9  10
ENDBRANCH   4   5
ENDBRANCH   3   4
TORSDOF 3
ENDMDL
MODEL 8
REMARK VINA RESULT:      -0.7      1.366      1.968
REMARK  3 active torsions:
REMARK  status: ('A' for Active; 'I' for Inactive)
REMARK    1  A    between atoms: C6_6  and  C9_9 
REMARK    2  A    between atoms: C7_7  and  O10_10 
REMARK    3  A    between atoms: C8_8  and  C9_9 
ROOT
HETATM    1  C1  UNL     1     -32.745  10.287  -0.156  1.00 20.00     0.012 C 
HETATM    2  C2  UNL     1     -32.229   9.358   0.403  1.00 20.00    -0.117 C 
HETATM    3  C8  UNL     1     -31.594   8.224   1.087  1.00 20.00     0.093 C 
ENDROOT
BRANCH   3   4
HETATM    4  C9  UNL     1     -32.643   7.221   1.534  1.00 20.00     0.019 C 
BRANCH   4   5
HETATM    5  C6  UNL     1     -32.790   7.221   3.047  1.00 20.00     0.015 C 
HETATM    6  C4  UNL     1     -32.162   8.442   3.712  1.00 20.00     0.007 C 
HETATM    7  C3  UNL     1     -32.851   8.544   5.074  1.00 20.00     0.003 C 
HETATM    8  C5  UNL     1     -34.109   7.680   4.986  1.00 20.00     0.032 C 
HETATM    9  C7  UNL     1     -34.241   7.304   3.514  1.00 20.00     0.122 C 
BRANCH   9  10
HETATM   10  O10 UNL     1     -34.903   6.065   3.352  1.00 20.00    -0.395 OA
HETATM   11  H24 UNL     1     -34.273   5.368   3.604  1.00 20.00     0.210 HD
ENDBRANCH   9  10
ENDBRANCH   4   5
ENDBRANCH   3   4
TORSDOF 3
ENDMDL
MODEL 9
REMARK VINA RESULT:      -0.1      1.961      4.602
REMARK  3 active torsions:
REMARK  status: ('A' for Active; 'I' for Inactive)
REMARK    1  A    between atoms: C6_6  and  C9_9 
REMARK    2  A    between atoms: C7_7  and  O10_10 
REMARK    3  A    between atoms: C8_8  and  C9_9 
ROOT
HETATM    1  C1  UNL     1     -35.334   6.124   4.153  1.00 20.00     0.012 C 
HETATM    2  C2  UNL     1     -34.396   6.436   3.473  1.00 20.00    -0.117 C 
HETATM    3  C8  UNL     1     -33.248   6.816   2.637  1.00 20.00     0.093 C 
ENDROOT
BRANCH   3   4
HETATM    4  C9  UNL     1     -32.798   8.229   2.966  1.00 20.00     0.019 C 
BRANCH   4   5
HETATM    5  C6  UNL     1     -32.030   8.841   1.805  1.00 20.00     0.015 C 
HETATM    6  C4  UNL     1     -31.381   7.801   0.898  1.00 20.00     0.007 C 
HETATM    7  C3  UNL     1     -31.148   8.528  -0.427  1.00 20.00     0.003 C 
HETATM    8  C5  UNL     1     -32.026   9.779  -0.392  1.00 20.00     0.032 C 
HETATM    9  C7  UNL     1     -32.917   9.614   0.834  1.00 20.00     0.122 C 
BRANCH   9  10
HETATM   10  O10 UNL     1     -33.297  10.867   1.371  1.00 20.00    -0.395 OA
HETATM   11  H24 UNL     1     -33.498  11.451   0.621  1.00 20.00     0.210 HD
ENDBRANCH   9  10
ENDBRANCH   4   5
ENDBRANCH   3   4
TORSDOF 3
ENDMDL
