MODEL 1
REMARK VINA RESULT:      -3.2      0.000      0.000
REMARK  4 active torsions:
REMARK  status: ('A' for Active; 'I' for Inactive)
REMARK    1  A    between atoms: C3_3  and  C6_6 
REMARK    2  A    between atoms: C3_3  and  C7_7 
REMARK    3  A    between atoms: C5_5  and  C8_8 
REMARK    4  A    between atoms: C7_7  and  C8_8 
ROOT
HETATM    1  C1  UNL     1     -32.472   9.914   0.010  1.00 20.00     0.012 C 
HETATM    2  C2  UNL     1     -32.144   9.084   0.812  1.00 20.00    -0.117 C 
HETATM    3  C5  UNL     1     -31.738   8.070   1.796  1.00 20.00     0.093 C 
ENDROOT
BRANCH   3   4
HETATM    4  C8  UNL     1     -32.822   7.001   1.962  1.00 20.00     0.019 C 
BRANCH   4   5
HETATM    5  C7  UNL     1     -33.685   7.234   3.201  1.00 20.00     0.079 C 
BRANCH   5   6
HETATM    6  C3  UNL     1     -34.463   6.004   3.649  1.00 20.00     0.126 C 
HETATM    7  O9  UNL     1     -35.518   6.086   4.276  1.00 20.00    -0.298 OA
BRANCH   6   8
HETATM    8  C6  UNL     1     -33.830   4.667   3.300  1.00 20.00     0.074 C 
HETATM    9  C4  UNL     1     -33.833   3.694   4.465  1.00 20.00     0.013 C 
ENDBRANCH   6   8
ENDBRANCH   5   6
ENDBRANCH   4   5
ENDBRANCH   3   4
TORSDOF 4
ENDMDL
MODEL 2
REMARK VINA RESULT:      -3.1      1.428      4.885
REMARK  4 active torsions:
REMARK  status: ('A' for Active; 'I' for Inactive)
REMARK    1  A    between atoms: C3_3  and  C6_6 
REMARK    2  A    between atoms: C3_3  and  C7_7 
REMARK    3  A    between atoms: C5_5  and  C8_8 
REMARK    4  A    between atoms: C7_7  and  C8_8 
ROOT
HETATM    1  C1  UNL     1     -33.573   3.456   4.242  1.00 20.00     0.012 C 
HETATM    2  C2  UNL     1     -34.344   4.368   4.358  1.00 20.00    -0.117 C 
HETATM    3  C5  UNL     1     -35.290   5.484   4.504  1.00 20.00     0.093 C 
ENDROOT
BRANCH   3   4
HETATM    4  C8  UNL     1     -35.053   6.550   3.430  1.00 20.00     0.019 C 
BRANCH   4   5
HETATM    5  C7  UNL     1     -33.645   7.139   3.495  1.00 20.00     0.079 C 
BRANCH   5   6
HETATM    6  C3  UNL     1     -32.829   6.925   2.228  1.00 20.00     0.126 C 
HETATM    7  O9  UNL     1     -32.955   5.923   1.526  1.00 20.00    -0.298 OA
BRANCH   6   8
HETATM    8  C6  UNL     1     -31.821   8.017   1.906  1.00 20.00     0.074 C 
HETATM    9  C4  UNL     1     -32.342   9.016   0.890  1.00 20.00     0.013 C 
ENDBRANCH   6   8
ENDBRANCH   5   6
ENDBRANCH   4   5
ENDBRANCH   3   4
TORSDOF 4
ENDMDL
MODEL 3
REMARK VINA RESULT:      -3.1      1.123      1.295
REMARK  4 active torsions:
REMARK  status: ('A' for Active; 'I' for Inactive)
REMARK    1  A    between atoms: C3_3  and  C6_6 
REMARK    2  A    between atoms: C3_3  and  C7_7 
REMARK    3  A    between atoms: C5_5  and  C8_8 
REMARK    4  A    between atoms: C7_7  and  C8_8 
ROOT
HETATM    1  C1  UNL     1     -32.637  10.468   0.068  1.00 20.00     0.012 C 
HETATM    2  C2  UNL     1     -32.264   9.405   0.486  1.00 20.00    -0.117 C 
HETATM    3  C5  UNL     1     -31.805   8.105   0.993  1.00 20.00     0.093 C 
ENDROOT
BRANCH   3   4
HETATM    4  C8  UNL     1     -32.227   7.904   2.451  1.00 20.00     0.019 C 
BRANCH   4   5
HETATM    5  C7  UNL     1     -33.286   6.814   2.607  1.00 20.00     0.079 C 
BRANCH   5   6
HETATM    6  C3  UNL     1     -34.202   7.012   3.806  1.00 20.00     0.126 C 
HETATM    7  O9  UNL     1     -34.148   8.015   4.516  1.00 20.00    -0.298 OA
BRANCH   6   8
HETATM    8  C6  UNL     1     -35.165   5.871   4.090  1.00 20.00     0.074 C 
HETATM    9  C4  UNL     1     -34.465   4.529   4.215  1.00 20.00     0.013 C 
ENDBRANCH   6   8
ENDBRANCH   5   6
ENDBRANCH   4   5
ENDBRANCH   3   4
TORSDOF 4
ENDMDL
MODEL 4
REMARK VINA RESULT:      -3.0      2.258      4.527
REMARK  4 active torsions:
REMARK  status: ('A' for Active; 'I' for Inactive)
REMARK    1  A    between atoms: C3_3  and  C6_6 
REMARK    2  A    between atoms: C3_3  and  C7_7 
REMARK    3  A    between atoms: C5_5  and  C8_8 
REMARK    4  A    between atoms: C7_7  and  C8_8 
ROOT
HETATM    1  C1  UNL     1     -33.543   3.456   4.237  1.00 20.00     0.012 C 
HETATM    2  C2  UNL     1     -34.344   4.337   4.385  1.00 20.00    -0.117 C 
HETATM    3  C5  UNL     1     -35.327   5.415   4.570  1.00 20.00     0.093 C 
ENDROOT
BRANCH   3   4
HETATM    4  C8  UNL     1     -35.114   6.534   3.547  1.00 20.00     0.019 C 
BRANCH   4   5
HETATM    5  C7  UNL     1     -33.804   7.288   3.771  1.00 20.00     0.079 C 
BRANCH   5   6
HETATM    6  C3  UNL     1     -32.895   7.319   2.551  1.00 20.00     0.126 C 
HETATM    7  O9  UNL     1     -32.051   8.197   2.381  1.00 20.00    -0.298 OA
BRANCH   6   8
HETATM    8  C6  UNL     1     -33.123   6.209   1.537  1.00 20.00     0.074 C 
HETATM    9  C4  UNL     1     -31.899   5.333   1.340  1.00 20.00     0.013 C 
ENDBRANCH   6   8
ENDBRANCH   5   6
ENDBRANCH   4   5
ENDBRANCH   3   4
TORSDOF 4
ENDMDL
MODEL 5
REMARK VINA RESULT:      -3.0      1.726      5.067
REMARK  4 active torsions:
REMARK  status: ('A' for Active; 'I' for Inactive)
REMARK    1  A    between atoms: C3_3  and  C6_6 
REMARK    2  A    between atoms: C3_3  and  C7_7 
REMARK    3  A    between atoms: C5_5  and  C8_8 
REMARK    4  A    between atoms: C7_7  and  C8_8 
ROOT
HETATM    1  C1  UNL     1     -33.859   3.780   4.227  1.00 20.00     0.012 C 
HETATM    2  C2  UNL     1     -34.415   4.837   4.103  1.00 20.00    -0.117 C 
HETATM    3  C5  UNL     1     -35.100   6.128   3.952  1.00 20.00     0.093 C 
ENDROOT
BRANCH   3   4
HETATM    4  C8  UNL     1     -34.099   7.250   3.661  1.00 20.00     0.019 C 
BRANCH   4   5
HETATM    5  C7  UNL     1     -33.237   6.959   2.434  1.00 20.00     0.079 C 
BRANCH   5   6
HETATM    6  C3  UNL     1     -32.168   8.010   2.169  1.00 20.00     0.126 C 
HETATM    7  O9  UNL     1     -31.516   8.527   3.075  1.00 20.00    -0.298 OA
BRANCH   6   8
HETATM    8  C6  UNL     1     -31.985   8.405   0.712  1.00 20.00     0.074 C 
HETATM    9  C4  UNL     1     -32.484   9.808   0.417  1.00 20.00     0.013 C 
ENDBRANCH   6   8
ENDBRANCH   5   6
ENDBRANCH   4   5
ENDBRANCH   3   4
TORSDOF 4
ENDMDL
MODEL 6
REMARK VINA RESULT:      -2.7      1.162      1.857
REMARK  4 active torsions:
REMARK  status: ('A' for Active; 'I' for Inactive)
REMARK    1  A    between atoms: C3_3  and  C6_6 
REMARK    2  A    between atoms: C3_3  and  C7_7 
REMARK    3  A    between atoms: C5_5  and  C8_8 
REMARK    4  A    between atoms: C7_7  and  C8_8 
ROOT
HETATM    1  C1  UNL     1     -32.373   9.897   0.312  1.00 20.00     0.012 C 
HETATM    2  C2  UNL     1     -32.177   8.885   0.927  1.00 20.00    -0.117 C 
HETATM    3  C5  UNL     1     -31.934   7.648   1.682  1.00 20.00     0.093 C 
ENDROOT
BRANCH   3   4
HETATM    4  C8  UNL     1     -33.094   6.664   1.513  1.00 20.00     0.019 C 
BRANCH   4   5
HETATM    5  C7  UNL     1     -32.978   5.458   2.445  1.00 20.00     0.079 C 
BRANCH   5   6
HETATM    6  C3  UNL     1     -34.073   5.387   3.499  1.00 20.00     0.126 C 
HETATM    7  O9  UNL     1     -34.347   4.346   4.094  1.00 20.00    -0.298 OA
BRANCH   6   8
HETATM    8  C6  UNL     1     -34.832   6.682   3.743  1.00 20.00     0.074 C 
HETATM    9  C4  UNL     1     -34.063   7.657   4.616  1.00 20.00     0.013 C 
ENDBRANCH   6   8
ENDBRANCH   5   6
ENDBRANCH   4   5
ENDBRANCH   3   4
TORSDOF 4
ENDMDL
MODEL 7
REMARK VINA RESULT:      -2.6      1.508      1.943
REMARK  4 active torsions:
REMARK  status: ('A' for Active; 'I' for Inactive)
REMARK    1  A    between atoms: C3_3  and  C6_6 
REMARK    2  A    between atoms: C3_3  and  C7_7 
REMARK    3  A    between atoms: C5_5  and  C8_8 
REMARK    4  A    between atoms: C7_7  and  C8_8 
ROOT
HETATM    1  C1  UNL     1     -32.938  10.724  -0.044  1.00 20.00     0.012 C 
HETATM    2  C2  UNL     1     -32.315   9.739   0.244  1.00 20.00    -0.117 C 
HETATM    3  C5  UNL     1     -31.549   8.534   0.594  1.00 20.00     0.093 C 
ENDROOT
BRANCH   3   4
HETATM    4  C8  UNL     1     -32.087   7.895   1.876  1.00 20.00     0.019 C 
BRANCH   4   5
HETATM    5  C7  UNL     1     -32.524   6.446   1.667  1.00 20.00     0.079 C 
BRANCH   5   6
HETATM    6  C3  UNL     1     -33.371   5.888   2.802  1.00 20.00     0.126 C 
HETATM    7  O9  UNL     1     -33.410   4.687   3.065  1.00 20.00    -0.298 OA
BRANCH   6   8
HETATM    8  C6  UNL     1     -34.194   6.912   3.568  1.00 20.00     0.074 C 
HETATM    9  C4  UNL     1     -35.502   6.342   4.088  1.00 20.00     0.013 C 
ENDBRANCH   6   8
ENDBRANCH   5   6
ENDBRANCH   4   5
ENDBRANCH   3   4
TORSDOF 4
ENDMDL
MODEL 8
REMARK VINA RESULT:      -2.6      1.507      4.897
REMARK  4 active torsions:
REMARK  status: ('A' for Active; 'I' for Inactive)
REMARK    1  A    between atoms: C3_3  and  C6_6 
REMARK    2  A    between atoms: C3_3  and  C7_7 
REMARK    3  A    between atoms: C5_5  and  C8_8 
REMARK    4  A    between atoms: C7_7  and  C8_8 
ROOT
HETATM    1  C1  UNL     1     -32.849   2.723   5.304  1.00 20.00     0.012 C 
HETATM    2  C2  UNL     1     -33.475   3.427   4.559  1.00 20.00    -0.117 C 
HETATM    3  C5  UNL     1     -34.240   4.285   3.644  1.00 20.00     0.093 C 
ENDROOT
BRANCH   3   4
HETATM    4  C8  UNL     1     -35.090   5.295   4.420  1.00 20.00     0.019 C 
BRANCH   4   5
HETATM    5  C7  UNL     1     -35.097   6.676   3.766  1.00 20.00     0.079 C 
BRANCH   5   6
HETATM    6  C3  UNL     1     -33.711   7.279   3.585  1.00 20.00     0.126 C 
HETATM    7  O9  UNL     1     -33.171   7.959   4.456  1.00 20.00    -0.298 OA
BRANCH   6   8
HETATM    8  C6  UNL     1     -33.053   7.014   2.241  1.00 20.00     0.074 C 
HETATM    9  C4  UNL     1     -31.996   8.046   1.891  1.00 20.00     0.013 C 
ENDBRANCH   6   8
ENDBRANCH   5   6
ENDBRANCH   4   5
ENDBRANCH   3   4
TORSDOF 4
ENDMDL
MODEL 9
REMARK VINA RESULT:      -2.4      1.633      2.075
REMARK  4 active torsions:
REMARK  status: ('A' for Active; 'I' for Inactive)
REMARK    1  A    between atoms: C3_3  and  C6_6 
REMARK    2  A    between atoms: C3_3  and  C7_7 
REMARK    3  A    between atoms: C5_5  and  C8_8 
REMARK    4  A    between atoms: C7_7  and  C8_8 
ROOT
HETATM    1  C1  UNL     1     -32.182   5.764   1.080  1.00 20.00     0.012 C 
HETATM    2  C2  UNL     1     -32.499   6.677   1.791  1.00 20.00    -0.117 C 
HETATM    3  C5  UNL     1     -32.886   7.799   2.660  1.00 20.00     0.093 C 
ENDROOT
BRANCH   3   4
HETATM    4  C8  UNL     1     -33.610   7.299   3.913  1.00 20.00     0.019 C 
BRANCH   4   5
HETATM    5  C7  UNL     1     -34.866   6.496   3.579  1.00 20.00     0.079 C 
BRANCH   5   6
HETATM    6  C3  UNL     1     -34.886   5.101   4.190  1.00 20.00     0.126 C 
HETATM    7  O9  UNL     1     -35.734   4.754   5.010  1.00 20.00    -0.298 OA
BRANCH   6   8
HETATM    8  C6  UNL     1     -33.763   4.177   3.746  1.00 20.00     0.074 C 
HETATM    9  C4  UNL     1     -33.378   3.168   4.813  1.00 20.00     0.013 C 
ENDBRANCH   6   8
ENDBRANCH   5   6
ENDBRANCH   4   5
ENDBRANCH   3   4
TORSDOF 4
ENDMDL
