MODEL 1
REMARK VINA RESULT:       0.3      0.000      0.000
REMARK  2 active torsions:
REMARK  status: ('A' for Active; 'I' for Inactive)
REMARK    1  A    between atoms: C8_8  and  C9_9 
REMARK    2  A    between atoms: C8_8  and  N10_10 
ROOT
HETATM    1  C1  UNL     1     -32.539   5.810   1.313  1.00 20.00     0.032 C 
HETATM    2  C2  UNL     1     -33.447   5.290   2.425  1.00 20.00     0.024 C 
HETATM    3  C3  UNL     1     -31.681   6.981   1.800  1.00 20.00     0.272 C 
HETATM    4  C4  UNL     1     -33.330   7.582   3.477  1.00 20.00     0.292 C 
HETATM    5  C5  UNL     1     -34.249   6.437   3.037  1.00 20.00     0.110 C 
HETATM    6  N10 UNL     1     -32.446   8.076   2.409  1.00 20.00     0.090 N 
HETATM    7 CL11 UNL     1     -35.186   5.839   4.438  1.00 20.00    -0.123 Cl
ENDROOT
BRANCH   6   8
HETATM    8  C8  UNL     1     -33.168   8.868   1.416  1.00 20.00     0.276 C 
BRANCH   8   9
HETATM    9  C9  UNL     1     -32.216   9.708   0.557  1.00 20.00     0.006 C 
HETATM   10  C6  UNL     1     -32.308   9.356  -0.929  1.00 20.00     0.011 C 
HETATM   11  C7  UNL     1     -32.425  11.209   0.767  1.00 20.00     0.011 C 
ENDBRANCH   8   9
ENDBRANCH   6   8
TORSDOF 2
ENDMDL
MODEL 2
REMARK VINA RESULT:       1.4      1.725      2.878
REMARK  2 active torsions:
REMARK  status: ('A' for Active; 'I' for Inactive)
REMARK    1  A    between atoms: C8_8  and  C9_9 
REMARK    2  A    between atoms: C8_8  and  N10_10 
ROOT
HETATM    1  C1  UNL     1     -35.488   6.361   4.288  1.00 20.00     0.032 C 
HETATM    2  C2  UNL     1     -35.117   4.912   4.594  1.00 20.00     0.024 C 
HETATM    3  C3  UNL     1     -35.120   6.735   2.850  1.00 20.00     0.272 C 
HETATM    4  C4  UNL     1     -33.352   5.073   2.797  1.00 20.00     0.292 C 
HETATM    5  C5  UNL     1     -33.655   4.651   4.239  1.00 20.00     0.110 C 
HETATM    6  N10 UNL     1     -33.720   6.466   2.497  1.00 20.00     0.090 N 
HETATM    7 CL11 UNL     1     -33.281   2.916   4.456  1.00 20.00    -0.123 Cl
ENDROOT
BRANCH   6   8
HETATM    8  C8  UNL     1     -32.801   7.425   3.105  1.00 20.00     0.276 C 
BRANCH   8   9
HETATM    9  C9  UNL     1     -31.889   8.080   2.061  1.00 20.00     0.006 C 
HETATM   10  C6  UNL     1     -31.329   7.068   1.060  1.00 20.00     0.011 C 
HETATM   11  C7  UNL     1     -32.585   9.229   1.330  1.00 20.00     0.011 C 
ENDBRANCH   8   9
ENDBRANCH   6   8
TORSDOF 2
ENDMDL
MODEL 3
REMARK VINA RESULT:       1.7      2.270      4.805
REMARK  2 active torsions:
REMARK  status: ('A' for Active; 'I' for Inactive)
REMARK    1  A    between atoms: C8_8  and  C9_9 
REMARK    2  A    between atoms: C8_8  and  N10_10 
ROOT
HETATM    1  C1  UNL     1     -31.874   7.267   1.834  1.00 20.00     0.032 C 
HETATM    2  C2  UNL     1     -32.348   8.283   2.870  1.00 20.00     0.024 C 
HETATM    3  C3  UNL     1     -33.021   6.359   1.383  1.00 20.00     0.272 C 
HETATM    4  C4  UNL     1     -34.185   6.667   3.490  1.00 20.00     0.292 C 
HETATM    5  C5  UNL     1     -33.069   7.577   4.016  1.00 20.00     0.110 C 
HETATM    6  N10 UNL     1     -33.732   5.695   2.483  1.00 20.00     0.090 N 
HETATM    7 CL11 UNL     1     -33.753   8.790   5.138  1.00 20.00    -0.123 Cl
ENDROOT
BRANCH   6   8
HETATM    8  C8  UNL     1     -32.951   4.610   3.073  1.00 20.00     0.276 C 
BRANCH   8   9
HETATM    9  C9  UNL     1     -33.814   3.702   3.957  1.00 20.00     0.006 C 
HETATM   10  C6  UNL     1     -32.979   2.903   4.959  1.00 20.00     0.011 C 
HETATM   11  C7  UNL     1     -34.917   4.480   4.676  1.00 20.00     0.011 C 
ENDBRANCH   8   9
ENDBRANCH   6   8
TORSDOF 2
ENDMDL
MODEL 4
REMARK VINA RESULT:       2.6      2.559      4.850
REMARK  2 active torsions:
REMARK  status: ('A' for Active; 'I' for Inactive)
REMARK    1  A    between atoms: C8_8  and  C9_9 
REMARK    2  A    between atoms: C8_8  and  N10_10 
ROOT
HETATM    1  C1  UNL     1     -31.309   5.799   1.155  1.00 20.00     0.032 C 
HETATM    2  C2  UNL     1     -31.292   7.309   0.928  1.00 20.00     0.024 C 
HETATM    3  C3  UNL     1     -32.740   5.256   1.166  1.00 20.00     0.272 C 
HETATM    4  C4  UNL     1     -33.620   7.396   1.900  1.00 20.00     0.292 C 
HETATM    5  C5  UNL     1     -32.214   8.007   1.924  1.00 20.00     0.110 C 
HETATM    6  N10 UNL     1     -33.637   5.940   2.107  1.00 20.00     0.090 N 
HETATM    7 CL11 UNL     1     -32.303   9.752   1.544  1.00 20.00    -0.123 Cl
ENDROOT
BRANCH   6   8
HETATM    8  C8  UNL     1     -33.365   5.575   3.495  1.00 20.00     0.276 C 
BRANCH   8   9
HETATM    9  C9  UNL     1     -34.262   4.426   3.968  1.00 20.00     0.006 C 
HETATM   10  C6  UNL     1     -33.479   3.348   4.720  1.00 20.00     0.011 C 
HETATM   11  C7  UNL     1     -35.437   4.923   4.812  1.00 20.00     0.011 C 
ENDBRANCH   8   9
ENDBRANCH   6   8
TORSDOF 2
ENDMDL
MODEL 5
REMARK VINA RESULT:       2.7      2.470      4.201
REMARK  2 active torsions:
REMARK  status: ('A' for Active; 'I' for Inactive)
REMARK    1  A    between atoms: C8_8  and  C9_9 
REMARK    2  A    between atoms: C8_8  and  N10_10 
ROOT
HETATM    1  C1  UNL     1     -30.882   6.276   1.392  1.00 20.00     0.032 C 
HETATM    2  C2  UNL     1     -31.085   7.707   0.901  1.00 20.00     0.024 C 
HETATM    3  C3  UNL     1     -32.133   5.426   1.157  1.00 20.00     0.272 C 
HETATM    4  C4  UNL     1     -33.565   7.384   1.248  1.00 20.00     0.292 C 
HETATM    5  C5  UNL     1     -32.360   8.298   1.498  1.00 20.00     0.110 C 
HETATM    6  N10 UNL     1     -33.365   6.001   1.710  1.00 20.00     0.090 N 
HETATM    7 CL11 UNL     1     -32.666   9.913   0.793  1.00 20.00    -0.123 Cl
ENDROOT
BRANCH   6   8
HETATM    8  C8  UNL     1     -33.423   5.891   3.166  1.00 20.00     0.276 C 
BRANCH   8   9
HETATM    9  C9  UNL     1     -34.550   6.745   3.758  1.00 20.00     0.006 C 
HETATM   10  C6  UNL     1     -35.638   5.897   4.419  1.00 20.00     0.011 C 
HETATM   11  C7  UNL     1     -34.021   7.797   4.734  1.00 20.00     0.011 C 
ENDBRANCH   8   9
ENDBRANCH   6   8
TORSDOF 2
ENDMDL
MODEL 6
REMARK VINA RESULT:       3.0      1.751      3.669
REMARK  2 active torsions:
REMARK  status: ('A' for Active; 'I' for Inactive)
REMARK    1  A    between atoms: C8_8  and  C9_9 
REMARK    2  A    between atoms: C8_8  and  N10_10 
ROOT
HETATM    1  C1  UNL     1     -32.195   8.257   3.393  1.00 20.00     0.032 C 
HETATM    2  C2  UNL     1     -33.505   7.861   4.068  1.00 20.00     0.024 C 
HETATM    3  C3  UNL     1     -32.290   8.116   1.871  1.00 20.00     0.272 C 
HETATM    4  C4  UNL     1     -33.997   6.401   2.068  1.00 20.00     0.292 C 
HETATM    5  C5  UNL     1     -33.949   6.477   3.599  1.00 20.00     0.110 C 
HETATM    6  N10 UNL     1     -32.738   6.793   1.416  1.00 20.00     0.090 N 
HETATM    7 CL11 UNL     1     -35.559   6.097   4.276  1.00 20.00    -0.123 Cl
ENDROOT
BRANCH   6   8
HETATM    8  C8  UNL     1     -31.699   5.777   1.560  1.00 20.00     0.276 C 
BRANCH   8   9
HETATM    9  C9  UNL     1     -32.074   4.473   0.847  1.00 20.00     0.006 C 
HETATM   10  C6  UNL     1     -33.333   4.621  -0.010  1.00 20.00     0.011 C 
HETATM   11  C7  UNL     1     -30.917   3.921   0.012  1.00 20.00     0.011 C 
ENDBRANCH   8   9
ENDBRANCH   6   8
TORSDOF 2
ENDMDL
MODEL 7
REMARK VINA RESULT:       3.1      2.156      4.188
REMARK  2 active torsions:
REMARK  status: ('A' for Active; 'I' for Inactive)
REMARK    1  A    between atoms: C8_8  and  C9_9 
REMARK    2  A    between atoms: C8_8  and  N10_10 
ROOT
HETATM    1  C1  UNL     1     -32.220   8.625   1.805  1.00 20.00     0.032 C 
HETATM    2  C2  UNL     1     -31.964   7.380   0.960  1.00 20.00     0.024 C 
HETATM    3  C3  UNL     1     -32.130   8.308   3.300  1.00 20.00     0.272 C 
HETATM    4  C4  UNL     1     -32.748   5.992   2.918  1.00 20.00     0.292 C 
HETATM    5  C5  UNL     1     -32.870   6.236   1.409  1.00 20.00     0.110 C 
HETATM    6  N10 UNL     1     -32.984   7.194   3.733  1.00 20.00     0.090 N 
HETATM    7 CL11 UNL     1     -32.448   4.744   0.517  1.00 20.00    -0.123 Cl
ENDROOT
BRANCH   6   8
HETATM    8  C8  UNL     1     -34.396   7.563   3.779  1.00 20.00     0.276 C 
BRANCH   8   9
HETATM    9  C9  UNL     1     -35.307   6.369   3.474  1.00 20.00     0.006 C 
HETATM   10  C6  UNL     1     -35.433   5.415   4.663  1.00 20.00     0.011 C 
HETATM   11  C7  UNL     1     -36.690   6.809   2.989  1.00 20.00     0.011 C 
ENDBRANCH   8   9
ENDBRANCH   6   8
TORSDOF 2
ENDMDL
MODEL 8
REMARK VINA RESULT:       3.2      2.507      4.689
REMARK  2 active torsions:
REMARK  status: ('A' for Active; 'I' for Inactive)
REMARK    1  A    between atoms: C8_8  and  C9_9 
REMARK    2  A    between atoms: C8_8  and  N10_10 
ROOT
HETATM    1  C1  UNL     1     -32.492   8.926   3.160  1.00 20.00     0.032 C 
HETATM    2  C2  UNL     1     -32.368   9.793   1.909  1.00 20.00     0.024 C 
HETATM    3  C3  UNL     1     -31.745   7.600   2.992  1.00 20.00     0.272 C 
HETATM    4  C4  UNL     1     -32.014   7.676   0.580  1.00 20.00     0.292 C 
HETATM    5  C5  UNL     1     -32.780   9.001   0.671  1.00 20.00     0.110 C 
HETATM    6  N10 UNL     1     -32.123   6.845   1.790  1.00 20.00     0.090 N 
HETATM    7 CL11 UNL     1     -32.481   9.976  -0.798  1.00 20.00    -0.123 Cl
ENDROOT
BRANCH   6   8
HETATM    8  C8  UNL     1     -33.438   6.222   1.917  1.00 20.00     0.276 C 
BRANCH   8   9
HETATM    9  C9  UNL     1     -33.780   5.908   3.378  1.00 20.00     0.006 C 
HETATM   10  C6  UNL     1     -35.101   6.542   3.815  1.00 20.00     0.011 C 
HETATM   11  C7  UNL     1     -33.788   4.404   3.657  1.00 20.00     0.011 C 
ENDBRANCH   8   9
ENDBRANCH   6   8
TORSDOF 2
ENDMDL
