MODEL 1
REMARK VINA RESULT:      -2.8      0.000      0.000
REMARK  4 active torsions:
REMARK  status: ('A' for Active; 'I' for Inactive)
REMARK    1  A    between atoms: C3_3  and  C9_9 
REMARK    2  A    between atoms: C6_6  and  C8_8 
REMARK    3  A    between atoms: C7_7  and  C9_9 
REMARK    4  A    between atoms: C8_8  and  C9_9 
ROOT
HETATM    1  C1  UNL     1     -31.899   8.546   1.465  1.00 20.00     0.012 C 
HETATM    2  C2  UNL     1     -31.983   7.349   1.482  1.00 20.00    -0.117 C 
HETATM    3  C6  UNL     1     -32.081   5.882   1.500  1.00 20.00     0.093 C 
ENDROOT
BRANCH   3   4
HETATM    4  C8  UNL     1     -33.462   5.430   1.987  1.00 20.00     0.024 C 
BRANCH   4   5
HETATM    5  C9  UNL     1     -33.676   5.716   3.485  1.00 20.00     0.055 C 
BRANCH   5   6
HETATM    6  C3  UNL     1     -34.332   4.535   4.204  1.00 20.00     0.127 C 
HETATM    7  C4  UNL     1     -33.511   3.276   4.338  1.00 20.00     0.091 C 
HETATM    8  O10 UNL     1     -35.465   4.601   4.683  1.00 20.00    -0.298 OA
ENDBRANCH   5   6
BRANCH   5   9
HETATM    9  C7  UNL     1     -34.484   7.002   3.731  1.00 20.00     0.007 C 
HETATM   10  C5  UNL     1     -33.824   8.005   4.669  1.00 20.00     0.006 C 
ENDBRANCH   5   9
ENDBRANCH   4   5
ENDBRANCH   3   4
TORSDOF 4
ENDMDL
MODEL 2
REMARK VINA RESULT:      -2.7      1.874      3.051
REMARK  4 active torsions:
REMARK  status: ('A' for Active; 'I' for Inactive)
REMARK    1  A    between atoms: C3_3  and  C9_9 
REMARK    2  A    between atoms: C6_6  and  C8_8 
REMARK    3  A    between atoms: C7_7  and  C9_9 
REMARK    4  A    between atoms: C8_8  and  C9_9 
ROOT
HETATM    1  C1  UNL     1     -32.729  10.370  -0.087  1.00 20.00     0.012 C 
HETATM    2  C2  UNL     1     -32.200   9.448   0.470  1.00 20.00    -0.117 C 
HETATM    3  C6  UNL     1     -31.550   8.317   1.149  1.00 20.00     0.093 C 
ENDROOT
BRANCH   3   4
HETATM    4  C8  UNL     1     -32.155   8.089   2.539  1.00 20.00     0.024 C 
BRANCH   4   5
HETATM    5  C9  UNL     1     -33.354   7.124   2.503  1.00 20.00     0.055 C 
BRANCH   5   6
HETATM    6  C3  UNL     1     -34.175   7.183   3.793  1.00 20.00     0.127 C 
HETATM    7  C4  UNL     1     -35.264   6.151   3.956  1.00 20.00     0.091 C 
HETATM    8  O10 UNL     1     -33.953   8.008   4.680  1.00 20.00    -0.298 OA
ENDBRANCH   5   6
BRANCH   5   9
HETATM    9  C7  UNL     1     -32.935   5.674   2.207  1.00 20.00     0.007 C 
HETATM   10  C5  UNL     1     -32.950   5.290   0.732  1.00 20.00     0.006 C 
ENDBRANCH   5   9
ENDBRANCH   4   5
ENDBRANCH   3   4
TORSDOF 4
ENDMDL
MODEL 3
REMARK VINA RESULT:      -2.5      1.446      2.982
REMARK  4 active torsions:
REMARK  status: ('A' for Active; 'I' for Inactive)
REMARK    1  A    between atoms: C3_3  and  C9_9 
REMARK    2  A    between atoms: C6_6  and  C8_8 
REMARK    3  A    between atoms: C7_7  and  C9_9 
REMARK    4  A    between atoms: C8_8  and  C9_9 
ROOT
HETATM    1  C1  UNL     1     -32.715  10.270   0.036  1.00 20.00     0.012 C 
HETATM    2  C2  UNL     1     -32.237   9.380   0.684  1.00 20.00    -0.117 C 
HETATM    3  C6  UNL     1     -31.649   8.289   1.475  1.00 20.00     0.093 C 
ENDROOT
BRANCH   3   4
HETATM    4  C8  UNL     1     -32.639   7.776   2.526  1.00 20.00     0.024 C 
BRANCH   4   5
HETATM    5  C9  UNL     1     -33.252   6.418   2.138  1.00 20.00     0.055 C 
BRANCH   5   6
HETATM    6  C3  UNL     1     -34.012   5.780   3.303  1.00 20.00     0.127 C 
HETATM    7  C4  UNL     1     -35.074   6.621   3.967  1.00 20.00     0.091 C 
HETATM    8  O10 UNL     1     -33.800   4.626   3.676  1.00 20.00    -0.298 OA
ENDBRANCH   5   6
BRANCH   5   9
HETATM    9  C7  UNL     1     -32.205   5.435   1.586  1.00 20.00     0.007 C 
HETATM   10  C5  UNL     1     -32.659   4.627   0.376  1.00 20.00     0.006 C 
ENDBRANCH   5   9
ENDBRANCH   4   5
ENDBRANCH   3   4
TORSDOF 4
ENDMDL
MODEL 4
REMARK VINA RESULT:      -2.3      1.098      1.433
REMARK  4 active torsions:
REMARK  status: ('A' for Active; 'I' for Inactive)
REMARK    1  A    between atoms: C3_3  and  C9_9 
REMARK    2  A    between atoms: C6_6  and  C8_8 
REMARK    3  A    between atoms: C7_7  and  C9_9 
REMARK    4  A    between atoms: C8_8  and  C9_9 
ROOT
HETATM    1  C1  UNL     1     -32.487   9.823   0.262  1.00 20.00     0.012 C 
HETATM    2  C2  UNL     1     -32.218   8.835   0.888  1.00 20.00    -0.117 C 
HETATM    3  C6  UNL     1     -31.883   7.626   1.655  1.00 20.00     0.093 C 
ENDROOT
BRANCH   3   4
HETATM    4  C8  UNL     1     -33.140   6.802   1.956  1.00 20.00     0.024 C 
BRANCH   4   5
HETATM    5  C9  UNL     1     -33.434   6.716   3.465  1.00 20.00     0.055 C 
BRANCH   5   6
HETATM    6  C3  UNL     1     -34.516   5.681   3.779  1.00 20.00     0.127 C 
HETATM    7  C4  UNL     1     -34.068   4.246   3.915  1.00 20.00     0.091 C 
HETATM    8  O10 UNL     1     -35.697   5.989   3.945  1.00 20.00    -0.298 OA
ENDBRANCH   5   6
BRANCH   5   9
HETATM    9  C7  UNL     1     -33.813   8.079   4.070  1.00 20.00     0.007 C 
HETATM   10  C5  UNL     1     -33.149   8.396   5.405  1.00 20.00     0.006 C 
ENDBRANCH   5   9
ENDBRANCH   4   5
ENDBRANCH   3   4
TORSDOF 4
ENDMDL
MODEL 5
REMARK VINA RESULT:      -2.0      2.051      4.134
REMARK  4 active torsions:
REMARK  status: ('A' for Active; 'I' for Inactive)
REMARK    1  A    between atoms: C3_3  and  C9_9 
REMARK    2  A    between atoms: C6_6  and  C8_8 
REMARK    3  A    between atoms: C7_7  and  C9_9 
REMARK    4  A    between atoms: C8_8  and  C9_9 
ROOT
HETATM    1  C1  UNL     1     -35.351   5.391   4.241  1.00 20.00     0.012 C 
HETATM    2  C2  UNL     1     -34.833   6.464   4.104  1.00 20.00    -0.117 C 
HETATM    3  C6  UNL     1     -34.201   7.781   3.936  1.00 20.00     0.093 C 
ENDROOT
BRANCH   3   4
HETATM    4  C8  UNL     1     -32.785   7.642   3.364  1.00 20.00     0.024 C 
BRANCH   4   5
HETATM    5  C9  UNL     1     -32.786   7.513   1.830  1.00 20.00     0.055 C 
BRANCH   5   6
HETATM    6  C3  UNL     1     -32.517   6.076   1.377  1.00 20.00     0.127 C 
HETATM    7  C4  UNL     1     -33.590   5.408   0.553  1.00 20.00     0.091 C 
HETATM    8  O10 UNL     1     -31.467   5.487   1.639  1.00 20.00    -0.298 OA
ENDBRANCH   5   6
BRANCH   5   9
HETATM    9  C7  UNL     1     -31.793   8.476   1.156  1.00 20.00     0.007 C 
HETATM   10  C5  UNL     1     -32.435   9.628   0.392  1.00 20.00     0.006 C 
ENDBRANCH   5   9
ENDBRANCH   4   5
ENDBRANCH   3   4
TORSDOF 4
ENDMDL
MODEL 6
REMARK VINA RESULT:      -2.0      0.980      2.536
REMARK  4 active torsions:
REMARK  status: ('A' for Active; 'I' for Inactive)
REMARK    1  A    between atoms: C3_3  and  C9_9 
REMARK    2  A    between atoms: C6_6  and  C8_8 
REMARK    3  A    between atoms: C7_7  and  C9_9 
REMARK    4  A    between atoms: C8_8  and  C9_9 
ROOT
HETATM    1  C1  UNL     1     -31.873   8.396   1.409  1.00 20.00     0.012 C 
HETATM    2  C2  UNL     1     -32.257   7.259   1.435  1.00 20.00    -0.117 C 
HETATM    3  C6  UNL     1     -32.727   5.866   1.464  1.00 20.00     0.093 C 
ENDROOT
BRANCH   3   4
HETATM    4  C8  UNL     1     -32.754   5.325   2.897  1.00 20.00     0.024 C 
BRANCH   4   5
HETATM    5  C9  UNL     1     -34.188   5.082   3.403  1.00 20.00     0.055 C 
BRANCH   5   6
HETATM    6  C3  UNL     1     -34.897   6.389   3.762  1.00 20.00     0.127 C 
HETATM    7  C4  UNL     1     -34.044   7.491   4.342  1.00 20.00     0.091 C 
HETATM    8  O10 UNL     1     -36.101   6.563   3.567  1.00 20.00    -0.298 OA
ENDBRANCH   5   6
BRANCH   5   9
HETATM    9  C7  UNL     1     -34.237   4.108   4.593  1.00 20.00     0.007 C 
HETATM   10  C5  UNL     1     -33.146   3.044   4.597  1.00 20.00     0.006 C 
ENDBRANCH   5   9
ENDBRANCH   4   5
ENDBRANCH   3   4
TORSDOF 4
ENDMDL
MODEL 7
REMARK VINA RESULT:      -2.0      2.083      4.555
REMARK  4 active torsions:
REMARK  status: ('A' for Active; 'I' for Inactive)
REMARK    1  A    between atoms: C3_3  and  C9_9 
REMARK    2  A    between atoms: C6_6  and  C8_8 
REMARK    3  A    between atoms: C7_7  and  C9_9 
REMARK    4  A    between atoms: C8_8  and  C9_9 
ROOT
HETATM    1  C1  UNL     1     -33.919   3.808   4.447  1.00 20.00     0.012 C 
HETATM    2  C2  UNL     1     -34.464   4.838   4.162  1.00 20.00    -0.117 C 
HETATM    3  C6  UNL     1     -35.137   6.098   3.811  1.00 20.00     0.093 C 
ENDROOT
BRANCH   3   4
HETATM    4  C8  UNL     1     -34.136   7.257   3.753  1.00 20.00     0.024 C 
BRANCH   4   5
HETATM    5  C9  UNL     1     -32.922   6.936   2.862  1.00 20.00     0.055 C 
BRANCH   5   6
HETATM    6  C3  UNL     1     -32.117   8.192   2.518  1.00 20.00     0.127 C 
HETATM    7  C4  UNL     1     -32.273   8.739   1.120  1.00 20.00     0.091 C 
HETATM    8  O10 UNL     1     -31.394   8.758   3.338  1.00 20.00    -0.298 OA
ENDBRANCH   5   6
BRANCH   5   9
HETATM    9  C7  UNL     1     -33.316   6.190   1.576  1.00 20.00     0.007 C 
HETATM   10  C5  UNL     1     -32.314   5.139   1.111  1.00 20.00     0.006 C 
ENDBRANCH   5   9
ENDBRANCH   4   5
ENDBRANCH   3   4
TORSDOF 4
ENDMDL
MODEL 8
REMARK VINA RESULT:      -1.9      1.826      4.052
REMARK  4 active torsions:
REMARK  status: ('A' for Active; 'I' for Inactive)
REMARK    1  A    between atoms: C3_3  and  C9_9 
REMARK    2  A    between atoms: C6_6  and  C8_8 
REMARK    3  A    between atoms: C7_7  and  C9_9 
REMARK    4  A    between atoms: C8_8  and  C9_9 
ROOT
HETATM    1  C1  UNL     1     -33.899   3.758   4.360  1.00 20.00     0.012 C 
HETATM    2  C2  UNL     1     -34.233   4.870   4.056  1.00 20.00    -0.117 C 
HETATM    3  C6  UNL     1     -34.646   6.231   3.683  1.00 20.00     0.093 C 
ENDROOT
BRANCH   3   4
HETATM    4  C8  UNL     1     -33.428   7.131   3.452  1.00 20.00     0.024 C 
BRANCH   4   5
HETATM    5  C9  UNL     1     -33.058   7.242   1.961  1.00 20.00     0.055 C 
BRANCH   5   6
HETATM    6  C3  UNL     1     -32.625   5.895   1.378  1.00 20.00     0.127 C 
HETATM    7  C4  UNL     1     -33.571   5.239   0.402  1.00 20.00     0.091 C 
HETATM    8  O10 UNL     1     -31.547   5.370   1.657  1.00 20.00    -0.298 OA
ENDBRANCH   5   6
BRANCH   5   9
HETATM    9  C7  UNL     1     -31.978   8.305   1.699  1.00 20.00     0.007 C 
HETATM   10  C5  UNL     1     -32.339   9.340   0.641  1.00 20.00     0.006 C 
ENDBRANCH   5   9
ENDBRANCH   4   5
ENDBRANCH   3   4
TORSDOF 4
ENDMDL
MODEL 9
REMARK VINA RESULT:      -1.9      2.034      4.313
REMARK  4 active torsions:
REMARK  status: ('A' for Active; 'I' for Inactive)
REMARK    1  A    between atoms: C3_3  and  C9_9 
REMARK    2  A    between atoms: C6_6  and  C8_8 
REMARK    3  A    between atoms: C7_7  and  C9_9 
REMARK    4  A    between atoms: C8_8  and  C9_9 
ROOT
HETATM    1  C1  UNL     1     -33.432   3.248   4.362  1.00 20.00     0.012 C 
HETATM    2  C2  UNL     1     -34.235   4.135   4.450  1.00 20.00    -0.117 C 
HETATM    3  C6  UNL     1     -35.221   5.220   4.561  1.00 20.00     0.093 C 
ENDROOT
BRANCH   3   4
HETATM    4  C8  UNL     1     -34.982   6.291   3.491  1.00 20.00     0.024 C 
BRANCH   4   5
HETATM    5  C9  UNL     1     -33.507   6.361   3.054  1.00 20.00     0.055 C 
BRANCH   5   6
HETATM    6  C3  UNL     1     -32.880   7.720   3.374  1.00 20.00     0.127 C 
HETATM    7  C4  UNL     1     -33.158   8.295   4.741  1.00 20.00     0.091 C 
HETATM    8  O10 UNL     1     -32.156   8.317   2.576  1.00 20.00    -0.298 OA
ENDBRANCH   5   6
BRANCH   5   9
HETATM    9  C7  UNL     1     -33.317   6.026   1.565  1.00 20.00     0.007 C 
HETATM   10  C5  UNL     1     -32.102   5.161   1.251  1.00 20.00     0.006 C 
ENDBRANCH   5   9
ENDBRANCH   4   5
ENDBRANCH   3   4
TORSDOF 4
ENDMDL
