MODEL 1
REMARK VINA RESULT:      -3.4      0.000      0.000
REMARK  2 active torsions:
REMARK  status: ('A' for Active; 'I' for Inactive)
REMARK    1  A    between atoms: C7_7  and  C9_9 
REMARK    2  A    between atoms: C8_8  and  C9_9 
ROOT
HETATM    1  C1  UNL     1     -32.775  10.518   0.032  1.00 20.00     0.012 C 
HETATM    2  C2  UNL     1     -32.277   9.521   0.478  1.00 20.00    -0.117 C 
HETATM    3  C8  UNL     1     -31.665   8.300   1.019  1.00 20.00     0.093 C 
ENDROOT
BRANCH   3   4
HETATM    4  C9  UNL     1     -32.070   8.097   2.470  1.00 20.00     0.024 C 
BRANCH   4   5
HETATM    5  C7  UNL     1     -33.426   7.427   2.573  1.00 20.00     0.056 C 
HETATM    6  C3  UNL     1     -33.353   5.919   2.439  1.00 20.00     0.131 C 
HETATM    7  C4  UNL     1     -34.200   5.220   3.472  1.00 20.00     0.079 C 
HETATM    8  O10 UNL     1     -32.687   5.331   1.597  1.00 20.00    -0.298 OA
HETATM    9  C5  UNL     1     -34.996   6.376   4.066  1.00 20.00     0.008 C 
HETATM   10  C6  UNL     1     -34.062   7.574   3.957  1.00 20.00     0.013 C 
ENDBRANCH   4   5
ENDBRANCH   3   4
TORSDOF 2
ENDMDL
MODEL 2
REMARK VINA RESULT:      -2.6      1.493      4.491
REMARK  2 active torsions:
REMARK  status: ('A' for Active; 'I' for Inactive)
REMARK    1  A    between atoms: C7_7  and  C9_9 
REMARK    2  A    between atoms: C8_8  and  C9_9 
ROOT
HETATM    1  C1  UNL     1     -33.360   3.187   4.397  1.00 20.00     0.012 C 
HETATM    2  C2  UNL     1     -34.178   4.062   4.463  1.00 20.00    -0.117 C 
HETATM    3  C8  UNL     1     -35.182   5.132   4.548  1.00 20.00     0.093 C 
ENDROOT
BRANCH   3   4
HETATM    4  C9  UNL     1     -34.959   6.163   3.453  1.00 20.00     0.024 C 
BRANCH   4   5
HETATM    5  C7  UNL     1     -33.511   6.606   3.403  1.00 20.00     0.056 C 
HETATM    6  C3  UNL     1     -32.895   6.459   2.026  1.00 20.00     0.131 C 
HETATM    7  C4  UNL     1     -32.091   7.672   1.635  1.00 20.00     0.079 C 
HETATM    8  O10 UNL     1     -33.030   5.476   1.308  1.00 20.00    -0.298 OA
HETATM    9  C5  UNL     1     -32.029   8.448   2.945  1.00 20.00     0.008 C 
HETATM   10  C6  UNL     1     -33.335   8.105   3.650  1.00 20.00     0.013 C 
ENDBRANCH   4   5
ENDBRANCH   3   4
TORSDOF 2
ENDMDL
MODEL 3
REMARK VINA RESULT:      -2.6      1.495      2.026
REMARK  2 active torsions:
REMARK  status: ('A' for Active; 'I' for Inactive)
REMARK    1  A    between atoms: C7_7  and  C9_9 
REMARK    2  A    between atoms: C8_8  and  C9_9 
ROOT
HETATM    1  C1  UNL     1     -32.404   9.924  -0.033  1.00 20.00     0.012 C 
HETATM    2  C2  UNL     1     -32.199   9.080   0.796  1.00 20.00    -0.117 C 
HETATM    3  C8  UNL     1     -31.946   8.050   1.811  1.00 20.00     0.093 C 
ENDROOT
BRANCH   3   4
HETATM    4  C9  UNL     1     -32.962   6.925   1.698  1.00 20.00     0.024 C 
BRANCH   4   5
HETATM    5  C7  UNL     1     -33.211   6.272   3.043  1.00 20.00     0.056 C 
HETATM    6  C3  UNL     1     -34.426   6.831   3.756  1.00 20.00     0.131 C 
HETATM    7  C4  UNL     1     -35.282   5.741   4.350  1.00 20.00     0.079 C 
HETATM    8  O10 UNL     1     -34.691   8.023   3.842  1.00 20.00    -0.298 OA
HETATM    9  C5  UNL     1     -34.390   4.516   4.193  1.00 20.00     0.008 C 
HETATM   10  C6  UNL     1     -33.583   4.793   2.931  1.00 20.00     0.013 C 
ENDBRANCH   4   5
ENDBRANCH   3   4
TORSDOF 2
ENDMDL
MODEL 4
REMARK VINA RESULT:      -2.2      2.089      4.969
REMARK  2 active torsions:
REMARK  status: ('A' for Active; 'I' for Inactive)
REMARK    1  A    between atoms: C7_7  and  C9_9 
REMARK    2  A    between atoms: C8_8  and  C9_9 
ROOT
HETATM    1  C1  UNL     1     -32.875   2.778   5.304  1.00 20.00     0.012 C 
HETATM    2  C2  UNL     1     -33.468   3.438   4.496  1.00 20.00    -0.117 C 
HETATM    3  C8  UNL     1     -34.194   4.242   3.504  1.00 20.00     0.093 C 
ENDROOT
BRANCH   3   4
HETATM    4  C9  UNL     1     -34.555   5.603   4.079  1.00 20.00     0.024 C 
BRANCH   4   5
HETATM    5  C7  UNL     1     -34.125   6.722   3.151  1.00 20.00     0.056 C 
HETATM    6  C3  UNL     1     -33.293   7.780   3.847  1.00 20.00     0.131 C 
HETATM    7  C4  UNL     1     -32.092   8.181   3.030  1.00 20.00     0.079 C 
HETATM    8  O10 UNL     1     -33.557   8.258   4.943  1.00 20.00    -0.298 OA
HETATM    9  C5  UNL     1     -32.379   7.510   1.692  1.00 20.00     0.008 C 
HETATM   10  C6  UNL     1     -33.162   6.256   2.058  1.00 20.00     0.013 C 
ENDBRANCH   4   5
ENDBRANCH   3   4
TORSDOF 2
ENDMDL
MODEL 5
REMARK VINA RESULT:      -2.1      1.551      1.987
REMARK  2 active torsions:
REMARK  status: ('A' for Active; 'I' for Inactive)
REMARK    1  A    between atoms: C7_7  and  C9_9 
REMARK    2  A    between atoms: C8_8  and  C9_9 
ROOT
HETATM    1  C1  UNL     1     -32.693  10.291  -0.397  1.00 20.00     0.012 C 
HETATM    2  C2  UNL     1     -32.349   9.365   0.284  1.00 20.00    -0.117 C 
HETATM    3  C8  UNL     1     -31.926   8.230   1.114  1.00 20.00     0.093 C 
ENDROOT
BRANCH   3   4
HETATM    4  C9  UNL     1     -32.249   8.486   2.577  1.00 20.00     0.024 C 
BRANCH   4   5
HETATM    5  C7  UNL     1     -32.731   7.223   3.262  1.00 20.00     0.056 C 
HETATM    6  C3  UNL     1     -33.967   7.445   4.110  1.00 20.00     0.131 C 
HETATM    7  C4  UNL     1     -34.994   6.360   3.904  1.00 20.00     0.079 C 
HETATM    8  O10 UNL     1     -34.123   8.389   4.873  1.00 20.00    -0.298 OA
HETATM    9  C5  UNL     1     -34.212   5.333   3.094  1.00 20.00     0.008 C 
HETATM   10  C6  UNL     1     -33.228   6.162   2.280  1.00 20.00     0.013 C 
ENDBRANCH   4   5
ENDBRANCH   3   4
TORSDOF 2
ENDMDL
MODEL 6
REMARK VINA RESULT:      -1.3      2.070      4.825
REMARK  2 active torsions:
REMARK  status: ('A' for Active; 'I' for Inactive)
REMARK    1  A    between atoms: C7_7  and  C9_9 
REMARK    2  A    between atoms: C8_8  and  C9_9 
ROOT
HETATM    1  C1  UNL     1     -33.092   2.970   4.820  1.00 20.00     0.012 C 
HETATM    2  C2  UNL     1     -33.883   3.807   4.482  1.00 20.00    -0.117 C 
HETATM    3  C8  UNL     1     -34.853   4.829   4.069  1.00 20.00     0.093 C 
ENDROOT
BRANCH   3   4
HETATM    4  C9  UNL     1     -34.246   6.219   4.176  1.00 20.00     0.024 C 
BRANCH   4   5
HETATM    5  C7  UNL     1     -33.829   6.742   2.816  1.00 20.00     0.056 C 
HETATM    6  C3  UNL     1     -32.641   7.681   2.883  1.00 20.00     0.131 C 
HETATM    7  C4  UNL     1     -31.623   7.379   1.812  1.00 20.00     0.079 C 
HETATM    8  O10 UNL     1     -32.513   8.579   3.705  1.00 20.00    -0.298 OA
HETATM    9  C5  UNL     1     -32.373   6.388   0.931  1.00 20.00     0.008 C 
HETATM   10  C6  UNL     1     -33.293   5.647   1.893  1.00 20.00     0.013 C 
ENDBRANCH   4   5
ENDBRANCH   3   4
TORSDOF 2
ENDMDL
MODEL 7
REMARK VINA RESULT:      -0.6      1.588      4.727
REMARK  2 active torsions:
REMARK  status: ('A' for Active; 'I' for Inactive)
REMARK    1  A    between atoms: C7_7  and  C9_9 
REMARK    2  A    between atoms: C8_8  and  C9_9 
ROOT
HETATM    1  C1  UNL     1     -32.634   3.095   5.858  1.00 20.00     0.012 C 
HETATM    2  C2  UNL     1     -33.249   3.401   4.873  1.00 20.00    -0.117 C 
HETATM    3  C8  UNL     1     -34.001   3.770   3.667  1.00 20.00     0.093 C 
ENDROOT
BRANCH   3   4
HETATM    4  C9  UNL     1     -34.341   5.252   3.680  1.00 20.00     0.024 C 
BRANCH   4   5
HETATM    5  C7  UNL     1     -33.121   6.098   3.376  1.00 20.00     0.056 C 
HETATM    6  C3  UNL     1     -32.830   6.204   1.892  1.00 20.00     0.131 C 
HETATM    7  C4  UNL     1     -32.500   7.616   1.482  1.00 20.00     0.079 C 
HETATM    8  O10 UNL     1     -32.859   5.260   1.112  1.00 20.00    -0.298 OA
HETATM    9  C5  UNL     1     -32.345   8.310   2.829  1.00 20.00     0.008 C 
HETATM   10  C6  UNL     1     -33.305   7.570   3.750  1.00 20.00     0.013 C 
ENDBRANCH   4   5
ENDBRANCH   3   4
TORSDOF 2
ENDMDL
