MODEL 1
REMARK VINA RESULT:      -1.9      0.000      0.000
REMARK  2 active torsions:
REMARK  status: ('A' for Active; 'I' for Inactive)
REMARK    1  A    between atoms: C1_1  and  C6_6 
REMARK    2  A    between atoms: C1_1  and  C8_8 
ROOT
HETATM    1  C2  UNL     1     -32.393   6.724   1.351  1.00 20.00     0.027 C 
HETATM    2  C3  UNL     1     -32.894   5.518   2.140  1.00 20.00     0.016 C 
HETATM    3  C4  UNL     1     -32.145   7.908   2.276  1.00 20.00     0.167 C 
HETATM    4  C5  UNL     1     -33.733   7.145   3.859  1.00 20.00     0.179 C 
HETATM    5  C6  UNL     1     -34.073   5.912   3.028  1.00 20.00     0.079 C 
HETATM    6  O10 UNL     1     -33.322   8.224   3.020  1.00 20.00    -0.390 OA
ENDROOT
BRANCH   5   7
HETATM    7  C1  UNL     1     -34.439   4.768   3.919  1.00 20.00     0.132 C 
HETATM    8  O9  UNL     1     -35.396   4.844   4.689  1.00 20.00    -0.298 OA
BRANCH   7   9
HETATM    9  C8  UNL     1     -33.567   3.530   3.810  1.00 20.00     0.074 C 
HETATM   10  C7  UNL     1     -33.071   3.045   5.161  1.00 20.00     0.013 C 
ENDBRANCH   7   9
ENDBRANCH   5   7
TORSDOF 2
ENDMDL
MODEL 2
REMARK VINA RESULT:      -1.7      1.711      4.750
REMARK  2 active torsions:
REMARK  status: ('A' for Active; 'I' for Inactive)
REMARK    1  A    between atoms: C1_1  and  C6_6 
REMARK    2  A    between atoms: C1_1  and  C8_8 
ROOT
HETATM    1  C2  UNL     1     -34.792   6.495   3.917  1.00 20.00     0.027 C 
HETATM    2  C3  UNL     1     -33.773   7.563   3.532  1.00 20.00     0.016 C 
HETATM    3  C4  UNL     1     -34.197   5.102   3.764  1.00 20.00     0.167 C 
HETATM    4  C5  UNL     1     -32.665   5.818   2.105  1.00 20.00     0.179 C 
HETATM    5  C6  UNL     1     -33.168   7.258   2.163  1.00 20.00     0.079 C 
HETATM    6  O10 UNL     1     -33.709   4.903   2.436  1.00 20.00    -0.390 OA
ENDROOT
BRANCH   5   7
HETATM    7  C1  UNL     1     -32.052   8.211   1.879  1.00 20.00     0.132 C 
HETATM    8  O9  UNL     1     -31.245   8.522   2.754  1.00 20.00    -0.298 OA
BRANCH   7   9
HETATM    9  C8  UNL     1     -31.983   8.758   0.464  1.00 20.00     0.074 C 
HETATM   10  C7  UNL     1     -32.582  10.148   0.347  1.00 20.00     0.013 C 
ENDBRANCH   7   9
ENDBRANCH   5   7
TORSDOF 2
ENDMDL
MODEL 3
REMARK VINA RESULT:      -1.5      1.344      1.939
REMARK  2 active torsions:
REMARK  status: ('A' for Active; 'I' for Inactive)
REMARK    1  A    between atoms: C1_1  and  C6_6 
REMARK    2  A    between atoms: C1_1  and  C8_8 
ROOT
HETATM    1  C2  UNL     1     -32.079   8.340   2.927  1.00 20.00     0.027 C 
HETATM    2  C3  UNL     1     -33.376   7.830   3.547  1.00 20.00     0.016 C 
HETATM    3  C4  UNL     1     -31.942   7.858   1.489  1.00 20.00     0.167 C 
HETATM    4  C5  UNL     1     -33.289   5.950   1.884  1.00 20.00     0.179 C 
HETATM    5  C6  UNL     1     -33.508   6.321   3.348  1.00 20.00     0.079 C 
HETATM    6  O10 UNL     1     -32.028   6.434   1.423  1.00 20.00    -0.390 OA
ENDROOT
BRANCH   5   7
HETATM    7  C1  UNL     1     -34.858   5.867   3.804  1.00 20.00     0.132 C 
HETATM    8  O9  UNL     1     -35.866   6.529   3.560  1.00 20.00    -0.298 OA
BRANCH   7   9
HETATM    9  C8  UNL     1     -34.899   4.558   4.572  1.00 20.00     0.074 C 
HETATM   10  C7  UNL     1     -33.681   3.690   4.311  1.00 20.00     0.013 C 
ENDBRANCH   7   9
ENDBRANCH   5   7
TORSDOF 2
ENDMDL
MODEL 4
REMARK VINA RESULT:      -1.3      1.785      4.591
REMARK  2 active torsions:
REMARK  status: ('A' for Active; 'I' for Inactive)
REMARK    1  A    between atoms: C1_1  and  C6_6 
REMARK    2  A    between atoms: C1_1  and  C8_8 
ROOT
HETATM    1  C2  UNL     1     -34.067   5.313   3.372  1.00 20.00     0.027 C 
HETATM    2  C3  UNL     1     -33.273   6.022   2.278  1.00 20.00     0.016 C 
HETATM    3  C4  UNL     1     -35.098   6.252   3.984  1.00 20.00     0.167 C 
HETATM    4  C5  UNL     1     -33.829   8.178   3.441  1.00 20.00     0.179 C 
HETATM    5  C6  UNL     1     -32.723   7.351   2.792  1.00 20.00     0.079 C 
HETATM    6  O10 UNL     1     -34.472   7.437   4.478  1.00 20.00    -0.390 OA
ENDROOT
BRANCH   5   7
HETATM    7  C1  UNL     1     -32.100   8.110   1.664  1.00 20.00     0.132 C 
HETATM    8  O9  UNL     1     -31.126   7.662   1.059  1.00 20.00    -0.298 OA
BRANCH   7   9
HETATM    9  C8  UNL     1     -32.738   9.444   1.323  1.00 20.00     0.074 C 
HETATM   10  C7  UNL     1     -32.439   9.887  -0.099  1.00 20.00     0.013 C 
ENDBRANCH   7   9
ENDBRANCH   5   7
TORSDOF 2
ENDMDL
MODEL 5
REMARK VINA RESULT:      -1.2      1.599      4.324
REMARK  2 active torsions:
REMARK  status: ('A' for Active; 'I' for Inactive)
REMARK    1  A    between atoms: C1_1  and  C6_6 
REMARK    2  A    between atoms: C1_1  and  C8_8 
ROOT
HETATM    1  C2  UNL     1     -35.473   6.273   4.096  1.00 20.00     0.027 C 
HETATM    2  C3  UNL     1     -34.306   6.901   3.340  1.00 20.00     0.016 C 
HETATM    3  C4  UNL     1     -35.029   5.006   4.815  1.00 20.00     0.167 C 
HETATM    4  C5  UNL     1     -33.275   4.612   3.273  1.00 20.00     0.179 C 
HETATM    5  C6  UNL     1     -33.614   5.860   2.462  1.00 20.00     0.079 C 
HETATM    6  O10 UNL     1     -34.444   4.082   3.897  1.00 20.00    -0.390 OA
ENDROOT
BRANCH   5   7
HETATM    7  C1  UNL     1     -32.374   6.446   1.866  1.00 20.00     0.132 C 
HETATM    8  O9  UNL     1     -31.618   5.763   1.177  1.00 20.00    -0.298 OA
BRANCH   7   9
HETATM    9  C8  UNL     1     -32.118   7.913   2.162  1.00 20.00     0.074 C 
HETATM   10  C7  UNL     1     -32.114   8.769   0.908  1.00 20.00     0.013 C 
ENDBRANCH   7   9
ENDBRANCH   5   7
TORSDOF 2
ENDMDL
MODEL 6
REMARK VINA RESULT:      -0.5      1.717      2.157
REMARK  2 active torsions:
REMARK  status: ('A' for Active; 'I' for Inactive)
REMARK    1  A    between atoms: C1_1  and  C6_6 
REMARK    2  A    between atoms: C1_1  and  C8_8 
ROOT
HETATM    1  C2  UNL     1     -32.234   6.024   1.031  1.00 20.00     0.027 C 
HETATM    2  C3  UNL     1     -33.059   5.884   2.307  1.00 20.00     0.016 C 
HETATM    3  C4  UNL     1     -31.268   7.196   1.140  1.00 20.00     0.167 C 
HETATM    4  C5  UNL     1     -32.648   8.330   2.696  1.00 20.00     0.179 C 
HETATM    5  C6  UNL     1     -33.695   7.221   2.682  1.00 20.00     0.079 C 
HETATM    6  O10 UNL     1     -31.970   8.402   1.442  1.00 20.00    -0.390 OA
ENDROOT
BRANCH   5   7
HETATM    7  C1  UNL     1     -34.353   7.109   4.021  1.00 20.00     0.132 C 
HETATM    8  O9  UNL     1     -34.019   7.838   4.954  1.00 20.00    -0.298 OA
BRANCH   7   9
HETATM    9  C8  UNL     1     -35.441   6.058   4.146  1.00 20.00     0.074 C 
HETATM   10  C7  UNL     1     -34.898   4.705   4.572  1.00 20.00     0.013 C 
ENDBRANCH   7   9
ENDBRANCH   5   7
TORSDOF 2
ENDMDL
MODEL 7
REMARK VINA RESULT:      -0.0      2.405      3.613
REMARK  2 active torsions:
REMARK  status: ('A' for Active; 'I' for Inactive)
REMARK    1  A    between atoms: C1_1  and  C6_6 
REMARK    2  A    between atoms: C1_1  and  C8_8 
ROOT
HETATM    1  C2  UNL     1     -32.688  10.435   0.927  1.00 20.00     0.027 C 
HETATM    2  C3  UNL     1     -33.375   9.324   1.717  1.00 20.00     0.016 C 
HETATM    3  C4  UNL     1     -31.976   9.867  -0.293  1.00 20.00     0.167 C 
HETATM    4  C5  UNL     1     -31.696   7.745   0.721  1.00 20.00     0.179 C 
HETATM    5  C6  UNL     1     -32.395   8.187   2.002  1.00 20.00     0.079 C 
HETATM    6  O10 UNL     1     -31.050   8.850   0.090  1.00 20.00    -0.390 OA
ENDROOT
BRANCH   5   7
HETATM    7  C1  UNL     1     -33.124   7.036   2.621  1.00 20.00     0.132 C 
HETATM    8  O9  UNL     1     -33.036   5.903   2.151  1.00 20.00    -0.298 OA
BRANCH   7   9
HETATM    9  C8  UNL     1     -33.961   7.356   3.847  1.00 20.00     0.074 C 
HETATM   10  C7  UNL     1     -35.152   6.427   3.998  1.00 20.00     0.013 C 
ENDBRANCH   7   9
ENDBRANCH   5   7
TORSDOF 2
ENDMDL
MODEL 8
REMARK VINA RESULT:       0.1      1.943      2.668
REMARK  2 active torsions:
REMARK  status: ('A' for Active; 'I' for Inactive)
REMARK    1  A    between atoms: C1_1  and  C6_6 
REMARK    2  A    between atoms: C1_1  and  C8_8 
ROOT
HETATM    1  C2  UNL     1     -31.610   8.287   1.478  1.00 20.00     0.027 C 
HETATM    2  C3  UNL     1     -32.708   8.449   2.525  1.00 20.00     0.016 C 
HETATM    3  C4  UNL     1     -31.907   7.106   0.563  1.00 20.00     0.167 C 
HETATM    4  C5  UNL     1     -33.188   6.002   2.222  1.00 20.00     0.179 C 
HETATM    5  C6  UNL     1     -32.970   7.122   3.235  1.00 20.00     0.079 C 
HETATM    6  O10 UNL     1     -32.083   5.910   1.323  1.00 20.00    -0.390 OA
ENDROOT
BRANCH   5   7
HETATM    7  C1  UNL     1     -34.161   7.254   4.130  1.00 20.00     0.132 C 
HETATM    8  O9  UNL     1     -34.166   8.053   5.065  1.00 20.00    -0.298 OA
BRANCH   7   9
HETATM    9  C8  UNL     1     -35.339   6.352   3.811  1.00 20.00     0.074 C 
HETATM   10  C7  UNL     1     -35.338   5.077   4.635  1.00 20.00     0.013 C 
ENDBRANCH   7   9
ENDBRANCH   5   7
TORSDOF 2
ENDMDL
MODEL 9
REMARK VINA RESULT:       0.4      1.393      3.681
REMARK  2 active torsions:
REMARK  status: ('A' for Active; 'I' for Inactive)
REMARK    1  A    between atoms: C1_1  and  C6_6 
REMARK    2  A    between atoms: C1_1  and  C8_8 
ROOT
HETATM    1  C2  UNL     1     -34.300   4.319   4.478  1.00 20.00     0.027 C 
HETATM    2  C3  UNL     1     -33.501   4.693   3.233  1.00 20.00     0.016 C 
HETATM    3  C4  UNL     1     -35.563   5.163   4.581  1.00 20.00     0.167 C 
HETATM    4  C5  UNL     1     -34.606   6.945   3.349  1.00 20.00     0.179 C 
HETATM    5  C6  UNL     1     -33.284   6.204   3.169  1.00 20.00     0.079 C 
HETATM    6  O10 UNL     1     -35.244   6.555   4.564  1.00 20.00    -0.390 OA
ENDROOT
BRANCH   5   7
HETATM    7  C1  UNL     1     -32.655   6.569   1.863  1.00 20.00     0.132 C 
HETATM    8  O9  UNL     1     -32.089   7.651   1.712  1.00 20.00    -0.298 OA
BRANCH   7   9
HETATM    9  C8  UNL     1     -32.761   5.535   0.757  1.00 20.00     0.074 C 
HETATM   10  C7  UNL     1     -31.476   4.748   0.570  1.00 20.00     0.013 C 
ENDBRANCH   7   9
ENDBRANCH   5   7
TORSDOF 2
ENDMDL
