MODEL 1
REMARK VINA RESULT:      -1.1      0.000      0.000
REMARK  2 active torsions:
REMARK  status: ('A' for Active; 'I' for Inactive)
REMARK    1  A    between atoms: C5_5  and  N8_8 
REMARK    2  A    between atoms: C6_6  and  N8_8 
ROOT
HETATM    1  N8  UNL     1     -33.253   7.291   3.680  1.00 20.00     0.097 N 
HETATM    2  H22 UNL     1     -32.880   8.141   4.094  1.00 20.00     0.317 HD
ENDROOT
BRANCH   1   3
HETATM    3  C5  UNL     1     -34.601   7.064   4.211  1.00 20.00     0.225 A 
HETATM    4  C1  UNL     1     -35.686   6.510   3.325  1.00 20.00     0.042 A 
HETATM    5  C4  UNL     1     -35.148   5.678   4.456  1.00 20.00     0.016 A 
HETATM    6  C7  UNL     1     -34.360   4.446   4.170  1.00 20.00     0.012 C 
ENDBRANCH   1   3
BRANCH   1   7
HETATM    7  C6  UNL     1     -33.291   7.427   2.233  1.00 20.00     0.268 C 
HETATM    8  C2  UNL     1     -32.505   6.272   1.613  1.00 20.00     0.205 C 
HETATM    9  O9  UNL     1     -31.335   7.112   1.437  1.00 20.00    -0.387 OA
HETATM   10  C3  UNL     1     -32.107   8.287   1.792  1.00 20.00     0.205 C 
ENDBRANCH   1   7
TORSDOF 2
ENDMDL
MODEL 2
REMARK VINA RESULT:      -0.7      2.089      4.388
REMARK  2 active torsions:
REMARK  status: ('A' for Active; 'I' for Inactive)
REMARK    1  A    between atoms: C5_5  and  N8_8 
REMARK    2  A    between atoms: C6_6  and  N8_8 
ROOT
HETATM    1  N8  UNL     1     -33.328   7.842   2.318  1.00 20.00     0.097 N 
HETATM    2  H22 UNL     1     -33.832   8.713   2.465  1.00 20.00     0.317 HD
ENDROOT
BRANCH   1   3
HETATM    3  C5  UNL     1     -31.955   8.157   1.913  1.00 20.00     0.225 A 
HETATM    4  C1  UNL     1     -31.449   7.753   0.553  1.00 20.00     0.042 A 
HETATM    5  C4  UNL     1     -31.641   9.209   0.877  1.00 20.00     0.016 A 
HETATM    6  C7  UNL     1     -32.703   9.996   0.190  1.00 20.00     0.012 C 
ENDBRANCH   1   3
BRANCH   1   7
HETATM    7  C6  UNL     1     -33.332   7.063   3.546  1.00 20.00     0.268 C 
HETATM    8  C2  UNL     1     -34.139   5.787   3.313  1.00 20.00     0.205 C 
HETATM    9  O9  UNL     1     -35.311   6.367   3.941  1.00 20.00    -0.387 OA
HETATM   10  C3  UNL     1     -34.526   7.497   4.397  1.00 20.00     0.205 C 
ENDBRANCH   1   7
TORSDOF 2
ENDMDL
MODEL 3
REMARK VINA RESULT:      -0.6      1.271      1.499
REMARK  2 active torsions:
REMARK  status: ('A' for Active; 'I' for Inactive)
REMARK    1  A    between atoms: C5_5  and  N8_8 
REMARK    2  A    between atoms: C6_6  and  N8_8 
ROOT
HETATM    1  N8  UNL     1     -33.286   6.401   2.046  1.00 20.00     0.097 N 
HETATM    2  H22 UNL     1     -33.154   5.397   1.954  1.00 20.00     0.317 HD
ENDROOT
BRANCH   1   3
HETATM    3  C5  UNL     1     -33.889   6.677   3.354  1.00 20.00     0.225 A 
HETATM    4  C1  UNL     1     -35.345   6.383   3.600  1.00 20.00     0.042 A 
HETATM    5  C4  UNL     1     -34.290   5.576   4.305  1.00 20.00     0.016 A 
HETATM    6  C7  UNL     1     -34.109   4.133   3.980  1.00 20.00     0.012 C 
ENDBRANCH   1   3
BRANCH   1   7
HETATM    7  C6  UNL     1     -32.003   7.074   1.924  1.00 20.00     0.268 C 
HETATM    8  C2  UNL     1     -32.098   8.436   2.610  1.00 20.00     0.205 C 
HETATM    9  O9  UNL     1     -32.317   9.104   1.341  1.00 20.00    -0.387 OA
HETATM   10  C3  UNL     1     -31.997   7.883   0.627  1.00 20.00     0.205 C 
ENDBRANCH   1   7
TORSDOF 2
ENDMDL
MODEL 4
REMARK VINA RESULT:      -0.5      2.144      3.323
REMARK  2 active torsions:
REMARK  status: ('A' for Active; 'I' for Inactive)
REMARK    1  A    between atoms: C5_5  and  N8_8 
REMARK    2  A    between atoms: C6_6  and  N8_8 
ROOT
HETATM    1  N8  UNL     1     -32.351   8.421   1.735  1.00 20.00     0.097 N 
HETATM    2  H22 UNL     1     -33.230   8.838   2.030  1.00 20.00     0.317 HD
ENDROOT
BRANCH   1   3
HETATM    3  C5  UNL     1     -32.623   7.086   1.193  1.00 20.00     0.225 A 
HETATM    4  C1  UNL     1     -31.923   5.877   1.757  1.00 20.00     0.042 A 
HETATM    5  C4  UNL     1     -33.403   6.048   1.962  1.00 20.00     0.016 A 
HETATM    6  C7  UNL     1     -33.945   6.303   3.326  1.00 20.00     0.012 C 
ENDBRANCH   1   3
BRANCH   1   7
HETATM    7  C6  UNL     1     -31.725   9.263   0.729  1.00 20.00     0.268 C 
HETATM    8  C2  UNL     1     -32.556  10.535   0.570  1.00 20.00     0.205 C 
HETATM    9  O9  UNL     1     -33.215  10.003  -0.608  1.00 20.00    -0.387 OA
HETATM   10  C3  UNL     1     -32.289   8.888  -0.642  1.00 20.00     0.205 C 
ENDBRANCH   1   7
TORSDOF 2
ENDMDL
MODEL 5
REMARK VINA RESULT:      -0.3      1.930      4.069
REMARK  2 active torsions:
REMARK  status: ('A' for Active; 'I' for Inactive)
REMARK    1  A    between atoms: C5_5  and  N8_8 
REMARK    2  A    between atoms: C6_6  and  N8_8 
ROOT
HETATM    1  N8  UNL     1     -33.388   7.589   3.290  1.00 20.00     0.097 N 
HETATM    2  H22 UNL     1     -33.221   7.496   4.289  1.00 20.00     0.317 HD
ENDROOT
BRANCH   1   3
HETATM    3  C5  UNL     1     -32.103   7.506   2.590  1.00 20.00     0.225 A 
HETATM    4  C1  UNL     1     -32.032   6.964   1.187  1.00 20.00     0.042 A 
HETATM    5  C4  UNL     1     -31.750   8.419   1.441  1.00 20.00     0.016 A 
HETATM    6  C7  UNL     1     -32.685   9.463   0.933  1.00 20.00     0.012 C 
ENDBRANCH   1   3
BRANCH   1   7
HETATM    7  C6  UNL     1     -34.281   6.532   2.844  1.00 20.00     0.268 C 
HETATM    8  C2  UNL     1     -35.405   6.378   3.867  1.00 20.00     0.205 C 
HETATM    9  O9  UNL     1     -34.740   5.247   4.485  1.00 20.00    -0.387 OA
HETATM   10  C3  UNL     1     -33.779   5.200   3.400  1.00 20.00     0.205 C 
ENDBRANCH   1   7
TORSDOF 2
ENDMDL
MODEL 6
REMARK VINA RESULT:      -0.1      1.139      1.181
REMARK  2 active torsions:
REMARK  status: ('A' for Active; 'I' for Inactive)
REMARK    1  A    between atoms: C5_5  and  N8_8 
REMARK    2  A    between atoms: C6_6  and  N8_8 
ROOT
HETATM    1  N8  UNL     1     -33.347   6.247   2.275  1.00 20.00     0.097 N 
HETATM    2  H22 UNL     1     -32.507   5.695   2.429  1.00 20.00     0.317 HD
ENDROOT
BRANCH   1   3
HETATM    3  C5  UNL     1     -34.018   6.450   3.563  1.00 20.00     0.225 A 
HETATM    4  C1  UNL     1     -35.454   6.036   3.749  1.00 20.00     0.042 A 
HETATM    5  C4  UNL     1     -34.364   5.303   4.481  1.00 20.00     0.016 A 
HETATM    6  C7  UNL     1     -34.055   3.886   4.141  1.00 20.00     0.012 C 
ENDBRANCH   1   3
BRANCH   1   7
HETATM    7  C6  UNL     1     -32.990   7.524   1.678  1.00 20.00     0.268 C 
HETATM    8  C2  UNL     1     -31.504   7.500   1.325  1.00 20.00     0.205 C 
HETATM    9  O9  UNL     1     -31.165   8.224   2.535  1.00 20.00    -0.387 OA
HETATM   10  C3  UNL     1     -32.568   8.483   2.792  1.00 20.00     0.205 C 
ENDBRANCH   1   7
TORSDOF 2
ENDMDL
MODEL 7
REMARK VINA RESULT:      -0.1      2.025      3.906
REMARK  2 active torsions:
REMARK  status: ('A' for Active; 'I' for Inactive)
REMARK    1  A    between atoms: C5_5  and  N8_8 
REMARK    2  A    between atoms: C6_6  and  N8_8 
ROOT
HETATM    1  N8  UNL     1     -33.464   6.888   3.594  1.00 20.00     0.097 N 
HETATM    2  H22 UNL     1     -32.664   6.367   3.945  1.00 20.00     0.317 HD
ENDROOT
BRANCH   1   3
HETATM    3  C5  UNL     1     -33.024   7.723   2.472  1.00 20.00     0.225 A 
HETATM    4  C1  UNL     1     -31.571   8.090   2.318  1.00 20.00     0.042 A 
HETATM    5  C4  UNL     1     -32.219   7.168   1.322  1.00 20.00     0.016 A 
HETATM    6  C7  UNL     1     -31.810   5.737   1.250  1.00 20.00     0.012 C 
ENDBRANCH   1   3
BRANCH   1   7
HETATM    7  C6  UNL     1     -34.500   5.962   3.166  1.00 20.00     0.268 C 
HETATM    8  C2  UNL     1     -35.588   5.916   4.238  1.00 20.00     0.205 C 
HETATM    9  O9  UNL     1     -35.041   4.695   4.796  1.00 20.00    -0.387 OA
HETATM   10  C3  UNL     1     -34.143   4.563   3.665  1.00 20.00     0.205 C 
ENDBRANCH   1   7
TORSDOF 2
ENDMDL
MODEL 8
REMARK VINA RESULT:       0.1      1.113      1.771
REMARK  2 active torsions:
REMARK  status: ('A' for Active; 'I' for Inactive)
REMARK    1  A    between atoms: C5_5  and  N8_8 
REMARK    2  A    between atoms: C6_6  and  N8_8 
ROOT
HETATM    1  N8  UNL     1     -33.395   5.670   2.775  1.00 20.00     0.097 N 
HETATM    2  H22 UNL     1     -32.683   5.904   3.462  1.00 20.00     0.317 HD
ENDROOT
BRANCH   1   3
HETATM    3  C5  UNL     1     -34.631   6.379   3.120  1.00 20.00     0.225 A 
HETATM    4  C1  UNL     1     -35.316   6.121   4.437  1.00 20.00     0.042 A 
HETATM    5  C4  UNL     1     -34.673   7.456   4.178  1.00 20.00     0.016 A 
HETATM    6  C7  UNL     1     -33.466   7.868   4.948  1.00 20.00     0.012 C 
ENDBRANCH   1   3
BRANCH   1   7
HETATM    7  C6  UNL     1     -32.940   6.054   1.449  1.00 20.00     0.268 C 
HETATM    8  C2  UNL     1     -31.428   5.850   1.373  1.00 20.00     0.205 C 
HETATM    9  O9  UNL     1     -31.186   7.258   1.619  1.00 20.00    -0.387 OA
HETATM   10  C3  UNL     1     -32.599   7.544   1.461  1.00 20.00     0.205 C 
ENDBRANCH   1   7
TORSDOF 2
ENDMDL
MODEL 9
REMARK VINA RESULT:       0.2      2.449      3.194
REMARK  2 active torsions:
REMARK  status: ('A' for Active; 'I' for Inactive)
REMARK    1  A    between atoms: C5_5  and  N8_8 
REMARK    2  A    between atoms: C6_6  and  N8_8 
ROOT
HETATM    1  N8  UNL     1     -31.784   8.444   1.350  1.00 20.00     0.097 N 
HETATM    2  H22 UNL     1     -31.043   9.076   1.641  1.00 20.00     0.317 HD
ENDROOT
BRANCH   1   3
HETATM    3  C5  UNL     1     -32.231   7.676   2.516  1.00 20.00     0.225 A 
HETATM    4  C1  UNL     1     -33.696   7.397   2.730  1.00 20.00     0.042 A 
HETATM    5  C4  UNL     1     -32.761   6.267   2.397  1.00 20.00     0.016 A 
HETATM    6  C7  UNL     1     -32.873   5.562   1.089  1.00 20.00     0.012 C 
ENDBRANCH   1   3
BRANCH   1   7
HETATM    7  C6  UNL     1     -32.887   9.209   0.790  1.00 20.00     0.268 C 
HETATM    8  C2  UNL     1     -32.561   9.542  -0.665  1.00 20.00     0.205 C 
HETATM    9  O9  UNL     1     -32.116  10.874  -0.301  1.00 20.00    -0.387 OA
HETATM   10  C3  UNL     1     -32.630  10.694   1.043  1.00 20.00     0.205 C 
ENDBRANCH   1   7
TORSDOF 2
ENDMDL
