MODEL 1
REMARK VINA RESULT:      -1.0      0.000      0.000
REMARK  2 active torsions:
REMARK  status: ('A' for Active; 'I' for Inactive)
REMARK    1  A    between atoms: C5_5  and  N8_8 
REMARK    2  A    between atoms: C6_6  and  N8_8 
ROOT
HETATM    1  N8  UNL     1     -33.330   6.956   1.973  1.00 20.00     0.097 N 
HETATM    2  H22 UNL     1     -33.620   6.156   1.418  1.00 20.00     0.317 HD
ENDROOT
BRANCH   1   3
HETATM    3  C5  UNL     1     -31.961   7.320   1.595  1.00 20.00     0.225 A 
HETATM    4  C1  UNL     1     -31.258   8.446   2.308  1.00 20.00     0.042 A 
HETATM    5  C4  UNL     1     -31.658   8.608   0.868  1.00 20.00     0.016 A 
HETATM    6  C7  UNL     1     -32.727   9.577   0.493  1.00 20.00     0.012 C 
ENDBRANCH   1   3
BRANCH   1   7
HETATM    7  C6  UNL     1     -33.397   6.621   3.386  1.00 20.00     0.268 C 
HETATM    8  C2  UNL     1     -34.376   5.461   3.567  1.00 20.00     0.205 C 
HETATM    9  O9  UNL     1     -35.437   6.367   3.963  1.00 20.00    -0.387 OA
HETATM   10  C3  UNL     1     -34.491   7.465   4.038  1.00 20.00     0.205 C 
ENDBRANCH   1   7
TORSDOF 2
ENDMDL
MODEL 2
REMARK VINA RESULT:      -0.8      2.443      4.375
REMARK  2 active torsions:
REMARK  status: ('A' for Active; 'I' for Inactive)
REMARK    1  A    between atoms: C5_5  and  N8_8 
REMARK    2  A    between atoms: C6_6  and  N8_8 
ROOT
HETATM    1  N8  UNL     1     -32.862   8.577   1.666  1.00 20.00     0.097 N 
HETATM    2  H22 UNL     1     -32.962   9.121   2.519  1.00 20.00     0.317 HD
ENDROOT
BRANCH   1   3
HETATM    3  C5  UNL     1     -32.330   7.256   2.009  1.00 20.00     0.225 A 
HETATM    4  C1  UNL     1     -32.977   6.015   1.450  1.00 20.00     0.042 A 
HETATM    5  C4  UNL     1     -33.079   6.314   2.920  1.00 20.00     0.016 A 
HETATM    6  C7  UNL     1     -34.396   6.672   3.520  1.00 20.00     0.012 C 
ENDBRANCH   1   3
BRANCH   1   7
HETATM    7  C6  UNL     1     -31.969   9.265   0.749  1.00 20.00     0.268 C 
HETATM    8  C2  UNL     1     -32.551  10.645   0.442  1.00 20.00     0.205 C 
HETATM    9  O9  UNL     1     -33.108  10.174  -0.812  1.00 20.00    -0.387 OA
HETATM   10  C3  UNL     1     -32.379   8.926  -0.683  1.00 20.00     0.205 C 
ENDBRANCH   1   7
TORSDOF 2
ENDMDL
MODEL 3
REMARK VINA RESULT:      -0.5      2.023      4.209
REMARK  2 active torsions:
REMARK  status: ('A' for Active; 'I' for Inactive)
REMARK    1  A    between atoms: C5_5  and  N8_8 
REMARK    2  A    between atoms: C6_6  and  N8_8 
ROOT
HETATM    1  N8  UNL     1     -32.952   6.925   2.280  1.00 20.00     0.097 N 
HETATM    2  H22 UNL     1     -33.254   6.643   1.352  1.00 20.00     0.317 HD
ENDROOT
BRANCH   1   3
HETATM    3  C5  UNL     1     -34.120   7.388   3.035  1.00 20.00     0.225 A 
HETATM    4  C1  UNL     1     -34.045   7.513   4.535  1.00 20.00     0.042 A 
HETATM    5  C4  UNL     1     -34.913   6.452   3.916  1.00 20.00     0.016 A 
HETATM    6  C7  UNL     1     -34.557   5.013   4.066  1.00 20.00     0.012 C 
ENDBRANCH   1   3
BRANCH   1   7
HETATM    7  C6  UNL     1     -31.963   7.984   2.172  1.00 20.00     0.268 C 
HETATM    8  C2  UNL     1     -32.663   9.263   1.713  1.00 20.00     0.205 C 
HETATM    9  O9  UNL     1     -32.249   9.045   0.341  1.00 20.00    -0.387 OA
HETATM   10  C3  UNL     1     -31.376   7.964   0.761  1.00 20.00     0.205 C 
ENDBRANCH   1   7
TORSDOF 2
ENDMDL
MODEL 4
REMARK VINA RESULT:      -0.0      2.059      4.367
REMARK  2 active torsions:
REMARK  status: ('A' for Active; 'I' for Inactive)
REMARK    1  A    between atoms: C5_5  and  N8_8 
REMARK    2  A    between atoms: C6_6  and  N8_8 
ROOT
HETATM    1  N8  UNL     1     -33.539   6.983   3.397  1.00 20.00     0.097 N 
HETATM    2  H22 UNL     1     -32.832   6.348   3.758  1.00 20.00     0.317 HD
ENDROOT
BRANCH   1   3
HETATM    3  C5  UNL     1     -34.858   6.371   3.577  1.00 20.00     0.225 A 
HETATM    4  C1  UNL     1     -35.356   6.048   4.962  1.00 20.00     0.042 A 
HETATM    5  C4  UNL     1     -35.010   4.933   4.014  1.00 20.00     0.016 A 
HETATM    6  C7  UNL     1     -33.833   4.060   4.285  1.00 20.00     0.012 C 
ENDBRANCH   1   3
BRANCH   1   7
HETATM    7  C6  UNL     1     -33.286   7.247   1.990  1.00 20.00     0.268 C 
HETATM    8  C2  UNL     1     -32.453   6.099   1.419  1.00 20.00     0.205 C 
HETATM    9  O9  UNL     1     -31.231   6.869   1.550  1.00 20.00    -0.387 OA
HETATM   10  C3  UNL     1     -31.999   8.060   1.867  1.00 20.00     0.205 C 
ENDBRANCH   1   7
TORSDOF 2
ENDMDL
MODEL 5
REMARK VINA RESULT:       0.0      1.999      4.111
REMARK  2 active torsions:
REMARK  status: ('A' for Active; 'I' for Inactive)
REMARK    1  A    between atoms: C5_5  and  N8_8 
REMARK    2  A    between atoms: C6_6  and  N8_8 
ROOT
HETATM    1  N8  UNL     1     -33.213   6.103   2.452  1.00 20.00     0.097 N 
HETATM    2  H22 UNL     1     -33.554   5.193   2.152  1.00 20.00     0.317 HD
ENDROOT
BRANCH   1   3
HETATM    3  C5  UNL     1     -34.334   6.865   3.009  1.00 20.00     0.225 A 
HETATM    4  C1  UNL     1     -34.282   7.345   4.437  1.00 20.00     0.042 A 
HETATM    5  C4  UNL     1     -35.258   6.270   4.043  1.00 20.00     0.016 A 
HETATM    6  C7  UNL     1     -35.086   4.881   4.554  1.00 20.00     0.012 C 
ENDBRANCH   1   3
BRANCH   1   7
HETATM    7  C6  UNL     1     -32.630   6.804   1.320  1.00 20.00     0.268 C 
HETATM    8  C2  UNL     1     -31.144   7.029   1.597  1.00 20.00     0.205 C 
HETATM    9  O9  UNL     1     -31.390   8.393   2.026  1.00 20.00    -0.387 OA
HETATM   10  C3  UNL     1     -32.761   8.308   1.555  1.00 20.00     0.205 C 
ENDBRANCH   1   7
TORSDOF 2
ENDMDL
MODEL 6
REMARK VINA RESULT:       0.1      2.152      4.569
REMARK  2 active torsions:
REMARK  status: ('A' for Active; 'I' for Inactive)
REMARK    1  A    between atoms: C5_5  and  N8_8 
REMARK    2  A    between atoms: C6_6  and  N8_8 
ROOT
HETATM    1  N8  UNL     1     -32.838   5.312   2.851  1.00 20.00     0.097 N 
HETATM    2  H22 UNL     1     -32.232   4.762   2.247  1.00 20.00     0.317 HD
ENDROOT
BRANCH   1   3
HETATM    3  C5  UNL     1     -33.993   4.494   3.231  1.00 20.00     0.225 A 
HETATM    4  C1  UNL     1     -34.661   4.708   4.564  1.00 20.00     0.042 A 
HETATM    5  C4  UNL     1     -33.895   3.439   4.307  1.00 20.00     0.016 A 
HETATM    6  C7  UNL     1     -32.626   3.170   5.039  1.00 20.00     0.012 C 
ENDBRANCH   1   3
BRANCH   1   7
HETATM    7  C6  UNL     1     -33.268   6.511   2.151  1.00 20.00     0.268 C 
HETATM    8  C2  UNL     1     -32.043   7.183   1.532  1.00 20.00     0.205 C 
HETATM    9  O9  UNL     1     -31.958   8.127   2.629  1.00 20.00    -0.387 OA
HETATM   10  C3  UNL     1     -33.247   7.684   3.129  1.00 20.00     0.205 C 
ENDBRANCH   1   7
TORSDOF 2
ENDMDL
MODEL 7
REMARK VINA RESULT:       0.1      0.981      1.268
REMARK  2 active torsions:
REMARK  status: ('A' for Active; 'I' for Inactive)
REMARK    1  A    between atoms: C5_5  and  N8_8 
REMARK    2  A    between atoms: C6_6  and  N8_8 
ROOT
HETATM    1  N8  UNL     1     -33.300   7.686   2.959  1.00 20.00     0.097 N 
HETATM    2  H22 UNL     1     -33.671   8.627   2.863  1.00 20.00     0.317 HD
ENDROOT
BRANCH   1   3
HETATM    3  C5  UNL     1     -32.219   7.503   1.986  1.00 20.00     0.225 A 
HETATM    4  C1  UNL     1     -30.977   8.351   2.073  1.00 20.00     0.042 A 
HETATM    5  C4  UNL     1     -31.929   8.535   0.924  1.00 20.00     0.016 A 
HETATM    6  C7  UNL     1     -32.720   9.792   0.803  1.00 20.00     0.012 C 
ENDBRANCH   1   3
BRANCH   1   7
HETATM    7  C6  UNL     1     -34.360   6.718   2.733  1.00 20.00     0.268 C 
HETATM    8  C2  UNL     1     -35.027   6.402   4.072  1.00 20.00     0.205 C 
HETATM    9  O9  UNL     1     -34.254   5.183   4.215  1.00 20.00    -0.387 OA
HETATM   10  C3  UNL     1     -33.774   5.312   2.851  1.00 20.00     0.205 C 
ENDBRANCH   1   7
TORSDOF 2
ENDMDL
MODEL 8
REMARK VINA RESULT:       0.2      1.217      1.872
REMARK  2 active torsions:
REMARK  status: ('A' for Active; 'I' for Inactive)
REMARK    1  A    between atoms: C5_5  and  N8_8 
REMARK    2  A    between atoms: C6_6  and  N8_8 
ROOT
HETATM    1  N8  UNL     1     -33.985   7.143   2.798  1.00 20.00     0.097 N 
HETATM    2  H22 UNL     1     -34.167   6.417   2.110  1.00 20.00     0.317 HD
ENDROOT
BRANCH   1   3
HETATM    3  C5  UNL     1     -32.632   7.664   2.586  1.00 20.00     0.225 A 
HETATM    4  C1  UNL     1     -32.253   8.255   1.253  1.00 20.00     0.042 A 
HETATM    5  C4  UNL     1     -31.642   6.954   1.694  1.00 20.00     0.016 A 
HETATM    6  C7  UNL     1     -31.982   5.689   0.983  1.00 20.00     0.012 C 
ENDBRANCH   1   3
BRANCH   1   7
HETATM    7  C6  UNL     1     -34.116   6.592   4.137  1.00 20.00     0.268 C 
HETATM    8  C2  UNL     1     -33.810   5.095   4.081  1.00 20.00     0.205 C 
HETATM    9  O9  UNL     1     -35.223   4.767   4.053  1.00 20.00    -0.387 OA
HETATM   10  C3  UNL     1     -35.563   6.148   4.345  1.00 20.00     0.205 C 
ENDBRANCH   1   7
TORSDOF 2
ENDMDL
MODEL 9
REMARK VINA RESULT:       0.4      0.892      1.215
REMARK  2 active torsions:
REMARK  status: ('A' for Active; 'I' for Inactive)
REMARK    1  A    between atoms: C5_5  and  N8_8 
REMARK    2  A    between atoms: C6_6  and  N8_8 
ROOT
HETATM    1  N8  UNL     1     -33.000   7.607   1.764  1.00 20.00     0.097 N 
HETATM    2  H22 UNL     1     -32.681   6.920   1.086  1.00 20.00     0.317 HD
ENDROOT
BRANCH   1   3
HETATM    3  C5  UNL     1     -32.130   8.784   1.686  1.00 20.00     0.225 A 
HETATM    4  C1  UNL     1     -32.734  10.156   1.529  1.00 20.00     0.042 A 
HETATM    5  C4  UNL     1     -31.950   9.550   0.398  1.00 20.00     0.016 A 
HETATM    6  C7  UNL     1     -32.640   9.154  -0.862  1.00 20.00     0.012 C 
ENDBRANCH   1   3
BRANCH   1   7
HETATM    7  C6  UNL     1     -32.961   7.031   3.098  1.00 20.00     0.268 C 
HETATM    8  C2  UNL     1     -33.894   5.820   3.135  1.00 20.00     0.205 C 
HETATM    9  O9  UNL     1     -34.948   6.603   3.750  1.00 20.00    -0.387 OA
HETATM   10  C3  UNL     1     -34.029   7.707   3.956  1.00 20.00     0.205 C 
ENDBRANCH   1   7
TORSDOF 2
ENDMDL
