MODEL 1
REMARK VINA RESULT:      -3.2      0.000      0.000
REMARK  6 active torsions:
REMARK  status: ('A' for Active; 'I' for Inactive)
REMARK    1  A    between atoms: C4_4  and  C6_6 
REMARK    2  A    between atoms: C5_5  and  C7_7 
REMARK    3  A    between atoms: C6_6  and  C8_8 
REMARK    4  A    between atoms: C7_7  and  C9_9 
REMARK    5  A    between atoms: C8_8  and  C9_9 
REMARK    6  A    between atoms: C9_9  and  O10_10 
ROOT
HETATM    1  C1  UNL     1     -32.495   9.931  -0.018  1.00 20.00     0.012 C 
HETATM    2  C2  UNL     1     -32.159   9.071   0.748  1.00 20.00    -0.117 C 
HETATM    3  C4  UNL     1     -31.742   8.020   1.688  1.00 20.00     0.093 C 
ENDROOT
BRANCH   3   4
HETATM    4  C6  UNL     1     -32.884   7.061   2.030  1.00 20.00     0.014 C 
BRANCH   4   5
HETATM    5  C8  UNL     1     -33.704   7.520   3.245  1.00 20.00     0.032 C 
BRANCH   5   6
HETATM    6  C9  UNL     1     -34.379   6.344   3.964  1.00 20.00     0.118 C 
BRANCH   6   7
HETATM    7  C7  UNL     1     -33.854   4.973   3.519  1.00 20.00     0.031 C 
BRANCH   7   8
HETATM    8  C5  UNL     1     -34.143   3.851   4.516  1.00 20.00    -0.002 C 
HETATM    9  C3  UNL     1     -32.950   2.916   4.658  1.00 20.00     0.005 C 
ENDBRANCH   7   8
ENDBRANCH   6   7
BRANCH   6  10
HETATM   10  O10 UNL     1     -35.785   6.379   3.707  1.00 20.00    -0.396 OA
HETATM   11  H26 UNL     1     -35.934   5.818   2.931  1.00 20.00     0.210 HD
ENDBRANCH   6  10
ENDBRANCH   5   6
ENDBRANCH   4   5
ENDBRANCH   3   4
TORSDOF 6
ENDMDL
MODEL 2
REMARK VINA RESULT:      -3.0      1.368      5.320
REMARK  6 active torsions:
REMARK  status: ('A' for Active; 'I' for Inactive)
REMARK    1  A    between atoms: C4_4  and  C6_6 
REMARK    2  A    between atoms: C5_5  and  C7_7 
REMARK    3  A    between atoms: C6_6  and  C8_8 
REMARK    4  A    between atoms: C7_7  and  C9_9 
REMARK    5  A    between atoms: C8_8  and  C9_9 
REMARK    6  A    between atoms: C9_9  and  O10_10 
ROOT
HETATM    1  C1  UNL     1     -33.878   3.722   4.283  1.00 20.00     0.012 C 
HETATM    2  C2  UNL     1     -34.457   4.771   4.211  1.00 20.00    -0.117 C 
HETATM    3  C4  UNL     1     -35.170   6.053   4.123  1.00 20.00     0.093 C 
ENDROOT
BRANCH   3   4
HETATM    4  C6  UNL     1     -34.216   7.249   4.123  1.00 20.00     0.014 C 
BRANCH   4   5
HETATM    5  C8  UNL     1     -33.871   7.735   2.706  1.00 20.00     0.032 C 
BRANCH   5   6
HETATM    6  C9  UNL     1     -32.535   7.164   2.210  1.00 20.00     0.118 C 
BRANCH   6   7
HETATM    7  C7  UNL     1     -31.781   8.108   1.265  1.00 20.00     0.031 C 
BRANCH   7   8
HETATM    8  C5  UNL     1     -32.429   9.485   1.125  1.00 20.00    -0.002 C 
HETATM    9  C3  UNL     1     -32.578   9.881  -0.338  1.00 20.00     0.005 C 
ENDBRANCH   7   8
ENDBRANCH   6   7
BRANCH   6  10
HETATM   10  O10 UNL     1     -32.776   5.942   1.509  1.00 20.00    -0.396 OA
HETATM   11  H26 UNL     1     -33.630   5.611   1.825  1.00 20.00     0.210 HD
ENDBRANCH   6  10
ENDBRANCH   5   6
ENDBRANCH   4   5
ENDBRANCH   3   4
TORSDOF 6
ENDMDL
MODEL 3
REMARK VINA RESULT:      -2.8      1.175      1.419
REMARK  6 active torsions:
REMARK  status: ('A' for Active; 'I' for Inactive)
REMARK    1  A    between atoms: C4_4  and  C6_6 
REMARK    2  A    between atoms: C5_5  and  C7_7 
REMARK    3  A    between atoms: C6_6  and  C8_8 
REMARK    4  A    between atoms: C7_7  and  C9_9 
REMARK    5  A    between atoms: C8_8  and  C9_9 
REMARK    6  A    between atoms: C9_9  and  O10_10 
ROOT
HETATM    1  C1  UNL     1     -32.824  10.623  -0.048  1.00 20.00     0.012 C 
HETATM    2  C2  UNL     1     -32.324   9.601   0.332  1.00 20.00    -0.117 C 
HETATM    3  C4  UNL     1     -31.708   8.348   0.794  1.00 20.00     0.093 C 
ENDROOT
BRANCH   3   4
HETATM    4  C6  UNL     1     -32.103   8.003   2.232  1.00 20.00     0.014 C 
BRANCH   4   5
HETATM    5  C8  UNL     1     -33.266   7.002   2.306  1.00 20.00     0.032 C 
BRANCH   5   6
HETATM    6  C9  UNL     1     -33.781   6.821   3.741  1.00 20.00     0.118 C 
BRANCH   6   7
HETATM    7  C7  UNL     1     -35.161   6.156   3.815  1.00 20.00     0.031 C 
BRANCH   7   8
HETATM    8  C5  UNL     1     -35.168   4.839   4.592  1.00 20.00    -0.002 C 
HETATM    9  C3  UNL     1     -33.979   3.967   4.213  1.00 20.00     0.005 C 
ENDBRANCH   7   8
ENDBRANCH   6   7
BRANCH   6  10
HETATM   10  O10 UNL     1     -33.877   8.100   4.372  1.00 20.00    -0.396 OA
HETATM   11  H26 UNL     1     -33.567   8.748   3.722  1.00 20.00     0.210 HD
ENDBRANCH   6  10
ENDBRANCH   5   6
ENDBRANCH   4   5
ENDBRANCH   3   4
TORSDOF 6
ENDMDL
MODEL 4
REMARK VINA RESULT:      -2.7      1.744      5.516
REMARK  6 active torsions:
REMARK  status: ('A' for Active; 'I' for Inactive)
REMARK    1  A    between atoms: C4_4  and  C6_6 
REMARK    2  A    between atoms: C5_5  and  C7_7 
REMARK    3  A    between atoms: C6_6  and  C8_8 
REMARK    4  A    between atoms: C7_7  and  C9_9 
REMARK    5  A    between atoms: C8_8  and  C9_9 
REMARK    6  A    between atoms: C9_9  and  O10_10 
ROOT
HETATM    1  C1  UNL     1     -33.835   3.789   4.224  1.00 20.00     0.012 C 
HETATM    2  C2  UNL     1     -34.421   4.832   4.130  1.00 20.00    -0.117 C 
HETATM    3  C4  UNL     1     -35.143   6.108   4.017  1.00 20.00     0.093 C 
ENDROOT
BRANCH   3   4
HETATM    4  C6  UNL     1     -34.198   7.291   3.795  1.00 20.00     0.014 C 
BRANCH   4   5
HETATM    5  C8  UNL     1     -33.202   7.051   2.650  1.00 20.00     0.032 C 
BRANCH   5   6
HETATM    6  C9  UNL     1     -32.423   8.323   2.287  1.00 20.00     0.118 C 
BRANCH   6   7
HETATM    7  C7  UNL     1     -31.771   8.266   0.900  1.00 20.00     0.031 C 
BRANCH   7   8
HETATM    8  C5  UNL     1     -32.319   9.304  -0.080  1.00 20.00    -0.002 C 
HETATM    9  C3  UNL     1     -32.732  10.580   0.640  1.00 20.00     0.005 C 
ENDBRANCH   7   8
ENDBRANCH   6   7
BRANCH   6  10
HETATM   10  O10 UNL     1     -31.387   8.532   3.250  1.00 20.00    -0.396 OA
HETATM   11  H26 UNL     1     -31.603   9.358   3.707  1.00 20.00     0.210 HD
ENDBRANCH   6  10
ENDBRANCH   5   6
ENDBRANCH   4   5
ENDBRANCH   3   4
TORSDOF 6
ENDMDL
MODEL 5
REMARK VINA RESULT:      -2.5      1.675      5.300
REMARK  6 active torsions:
REMARK  status: ('A' for Active; 'I' for Inactive)
REMARK    1  A    between atoms: C4_4  and  C6_6 
REMARK    2  A    between atoms: C5_5  and  C7_7 
REMARK    3  A    between atoms: C6_6  and  C8_8 
REMARK    4  A    between atoms: C7_7  and  C9_9 
REMARK    5  A    between atoms: C8_8  and  C9_9 
REMARK    6  A    between atoms: C9_9  and  O10_10 
ROOT
HETATM    1  C1  UNL     1     -33.465   3.140   4.458  1.00 20.00     0.012 C 
HETATM    2  C2  UNL     1     -34.158   4.117   4.380  1.00 20.00    -0.117 C 
HETATM    3  C4  UNL     1     -35.010   5.311   4.288  1.00 20.00     0.093 C 
ENDROOT
BRANCH   3   4
HETATM    4  C6  UNL     1     -34.446   6.353   3.320  1.00 20.00     0.014 C 
BRANCH   4   5
HETATM    5  C8  UNL     1     -33.861   7.579   4.039  1.00 20.00     0.032 C 
BRANCH   5   6
HETATM    6  C9  UNL     1     -32.852   8.334   3.163  1.00 20.00     0.118 C 
BRANCH   6   7
HETATM    7  C7  UNL     1     -32.383   7.533   1.941  1.00 20.00     0.031 C 
BRANCH   7   8
HETATM    8  C5  UNL     1     -31.659   8.378   0.893  1.00 20.00    -0.002 C 
HETATM    9  C3  UNL     1     -32.469   9.613   0.522  1.00 20.00     0.005 C 
ENDBRANCH   7   8
ENDBRANCH   6   7
BRANCH   6  10
HETATM   10  O10 UNL     1     -31.699   8.658   3.944  1.00 20.00    -0.396 OA
HETATM   11  H26 UNL     1     -31.006   8.909   3.314  1.00 20.00     0.210 HD
ENDBRANCH   6  10
ENDBRANCH   5   6
ENDBRANCH   4   5
ENDBRANCH   3   4
TORSDOF 6
ENDMDL
MODEL 6
REMARK VINA RESULT:      -2.4      1.588      2.056
REMARK  6 active torsions:
REMARK  status: ('A' for Active; 'I' for Inactive)
REMARK    1  A    between atoms: C4_4  and  C6_6 
REMARK    2  A    between atoms: C5_5  and  C7_7 
REMARK    3  A    between atoms: C6_6  and  C8_8 
REMARK    4  A    between atoms: C7_7  and  C9_9 
REMARK    5  A    between atoms: C8_8  and  C9_9 
REMARK    6  A    between atoms: C9_9  and  O10_10 
ROOT
HETATM    1  C1  UNL     1     -32.016   5.819   1.142  1.00 20.00     0.012 C 
HETATM    2  C2  UNL     1     -32.379   6.761   1.791  1.00 20.00    -0.117 C 
HETATM    3  C4  UNL     1     -32.823   7.917   2.583  1.00 20.00     0.093 C 
ENDROOT
BRANCH   3   4
HETATM    4  C6  UNL     1     -33.588   7.500   3.841  1.00 20.00     0.014 C 
BRANCH   4   5
HETATM    5  C8  UNL     1     -34.680   6.458   3.555  1.00 20.00     0.032 C 
BRANCH   5   6
HETATM    6  C9  UNL     1     -34.497   5.185   4.394  1.00 20.00     0.118 C 
BRANCH   6   7
HETATM    7  C7  UNL     1     -33.846   4.032   3.619  1.00 20.00     0.031 C 
BRANCH   7   8
HETATM    8  C5  UNL     1     -33.472   2.837   4.496  1.00 20.00    -0.002 C 
HETATM    9  C3  UNL     1     -32.595   3.262   5.666  1.00 20.00     0.005 C 
ENDBRANCH   7   8
ENDBRANCH   6   7
BRANCH   6  10
HETATM   10  O10 UNL     1     -35.773   4.737   4.856  1.00 20.00    -0.396 OA
HETATM   11  H26 UNL     1     -36.427   5.090   4.233  1.00 20.00     0.210 HD
ENDBRANCH   6  10
ENDBRANCH   5   6
ENDBRANCH   4   5
ENDBRANCH   3   4
TORSDOF 6
ENDMDL
MODEL 7
REMARK VINA RESULT:      -2.1      2.120      4.561
REMARK  6 active torsions:
REMARK  status: ('A' for Active; 'I' for Inactive)
REMARK    1  A    between atoms: C4_4  and  C6_6 
REMARK    2  A    between atoms: C5_5  and  C7_7 
REMARK    3  A    between atoms: C6_6  and  C8_8 
REMARK    4  A    between atoms: C7_7  and  C9_9 
REMARK    5  A    between atoms: C8_8  and  C9_9 
REMARK    6  A    between atoms: C9_9  and  O10_10 
ROOT
HETATM    1  C1  UNL     1     -33.486   3.446   4.173  1.00 20.00     0.012 C 
HETATM    2  C2  UNL     1     -34.316   4.289   4.371  1.00 20.00    -0.117 C 
HETATM    3  C4  UNL     1     -35.335   5.321   4.617  1.00 20.00     0.093 C 
ENDROOT
BRANCH   3   4
HETATM    4  C6  UNL     1     -35.185   6.521   3.680  1.00 20.00     0.014 C 
BRANCH   4   5
HETATM    5  C8  UNL     1     -33.836   7.239   3.844  1.00 20.00     0.032 C 
BRANCH   5   6
HETATM    6  C9  UNL     1     -33.206   7.599   2.491  1.00 20.00     0.118 C 
BRANCH   6   7
HETATM    7  C7  UNL     1     -33.148   6.421   1.510  1.00 20.00     0.031 C 
BRANCH   7   8
HETATM    8  C5  UNL     1     -31.828   5.651   1.552  1.00 20.00    -0.002 C 
HETATM    9  C3  UNL     1     -31.812   4.526   0.527  1.00 20.00     0.005 C 
ENDBRANCH   7   8
ENDBRANCH   6   7
BRANCH   6  10
HETATM   10  O10 UNL     1     -31.870   8.060   2.701  1.00 20.00    -0.396 OA
HETATM   11  H26 UNL     1     -31.298   7.490   2.164  1.00 20.00     0.210 HD
ENDBRANCH   6  10
ENDBRANCH   5   6
ENDBRANCH   4   5
ENDBRANCH   3   4
TORSDOF 6
ENDMDL
MODEL 8
REMARK VINA RESULT:      -2.0      2.004      5.347
REMARK  6 active torsions:
REMARK  status: ('A' for Active; 'I' for Inactive)
REMARK    1  A    between atoms: C4_4  and  C6_6 
REMARK    2  A    between atoms: C5_5  and  C7_7 
REMARK    3  A    between atoms: C6_6  and  C8_8 
REMARK    4  A    between atoms: C7_7  and  C9_9 
REMARK    5  A    between atoms: C8_8  and  C9_9 
REMARK    6  A    between atoms: C9_9  and  O10_10 
ROOT
HETATM    1  C1  UNL     1     -35.307   6.577   4.077  1.00 20.00     0.012 C 
HETATM    2  C2  UNL     1     -34.440   5.917   3.574  1.00 20.00    -0.117 C 
HETATM    3  C4  UNL     1     -33.378   5.105   2.962  1.00 20.00     0.093 C 
ENDROOT
BRANCH   3   4
HETATM    4  C6  UNL     1     -33.059   5.550   1.533  1.00 20.00     0.014 C 
BRANCH   4   5
HETATM    5  C8  UNL     1     -31.811   6.442   1.452  1.00 20.00     0.032 C 
BRANCH   5   6
HETATM    6  C9  UNL     1     -32.155   7.931   1.601  1.00 20.00     0.118 C 
BRANCH   6   7
HETATM    7  C7  UNL     1     -31.510   8.817   0.528  1.00 20.00     0.031 C 
BRANCH   7   8
HETATM    8  C5  UNL     1     -32.503   9.726  -0.197  1.00 20.00    -0.002 C 
HETATM    9  C3  UNL     1     -32.859  10.942   0.648  1.00 20.00     0.005 C 
ENDBRANCH   7   8
ENDBRANCH   6   7
BRANCH   6  10
HETATM   10  O10 UNL     1     -31.709   8.393   2.878  1.00 20.00    -0.396 OA
HETATM   11  H26 UNL     1     -31.061   9.092   2.703  1.00 20.00     0.210 HD
ENDBRANCH   6  10
ENDBRANCH   5   6
ENDBRANCH   4   5
ENDBRANCH   3   4
TORSDOF 6
ENDMDL
MODEL 9
REMARK VINA RESULT:      -2.0      1.519      2.467
REMARK  6 active torsions:
REMARK  status: ('A' for Active; 'I' for Inactive)
REMARK    1  A    between atoms: C4_4  and  C6_6 
REMARK    2  A    between atoms: C5_5  and  C7_7 
REMARK    3  A    between atoms: C6_6  and  C8_8 
REMARK    4  A    between atoms: C7_7  and  C9_9 
REMARK    5  A    between atoms: C8_8  and  C9_9 
REMARK    6  A    between atoms: C9_9  and  O10_10 
ROOT
HETATM    1  C1  UNL     1     -32.487   9.826   0.365  1.00 20.00     0.012 C 
HETATM    2  C2  UNL     1     -32.180   8.796   0.900  1.00 20.00    -0.117 C 
HETATM    3  C4  UNL     1     -31.800   7.537   1.557  1.00 20.00     0.093 C 
ENDROOT
BRANCH   3   4
HETATM    4  C6  UNL     1     -32.948   6.526   1.583  1.00 20.00     0.014 C 
BRANCH   4   5
HETATM    5  C8  UNL     1     -32.914   5.618   2.822  1.00 20.00     0.032 C 
BRANCH   5   6
HETATM    6  C9  UNL     1     -34.322   5.273   3.325  1.00 20.00     0.118 C 
BRANCH   6   7
HETATM    7  C7  UNL     1     -34.964   6.390   4.157  1.00 20.00     0.031 C 
BRANCH   7   8
HETATM    8  C5  UNL     1     -34.299   7.754   3.974  1.00 20.00    -0.002 C 
HETATM    9  C3  UNL     1     -33.360   8.072   5.130  1.00 20.00     0.005 C 
ENDBRANCH   7   8
ENDBRANCH   6   7
BRANCH   6  10
HETATM   10  O10 UNL     1     -34.259   4.101   4.140  1.00 20.00    -0.396 OA
HETATM   11  H26 UNL     1     -33.345   3.782   4.087  1.00 20.00     0.210 HD
ENDBRANCH   6  10
ENDBRANCH   5   6
ENDBRANCH   4   5
ENDBRANCH   3   4
TORSDOF 6
ENDMDL
