MODEL 1
REMARK VINA RESULT:      -0.8      0.000      0.000
REMARK  2 active torsions:
REMARK  status: ('A' for Active; 'I' for Inactive)
REMARK    1  A    between atoms: C4_4  and  C5_5 
REMARK    2  A    between atoms: C5_5  and  C6_6 
ROOT
HETATM    1  C1  UNL     1     -33.375   7.579   2.824  1.00 20.00     0.034 A 
HETATM    2  C2  UNL     1     -33.331   5.313   2.311  1.00 20.00     0.069 A 
HETATM    3  C3  UNL     1     -33.920   6.289   3.085  1.00 20.00     0.018 A 
HETATM    4  C4  UNL     1     -32.391   7.542   1.861  1.00 20.00    -0.015 A 
HETATM    5  S7  UNL     1     -32.127   5.954   1.275  1.00 20.00    -0.105 SA
HETATM    6 BR9  UNL     1     -35.285   6.001   4.349  1.00 20.00    -0.051 Br
ENDROOT
BRANCH   4   7
HETATM    7  C5  UNL     1     -31.590   8.660   1.317  1.00 20.00     0.061 C 
BRANCH   7   8
HETATM    8  C6  UNL     1     -32.406   9.906   0.938  1.00 20.00     0.119 C 
HETATM    9 CL8  UNL     1     -32.820   9.916  -0.794  1.00 20.00    -0.130 Cl
ENDBRANCH   7   8
ENDBRANCH   4   7
TORSDOF 2
ENDMDL
MODEL 2
REMARK VINA RESULT:      -0.3      2.324      2.829
REMARK  2 active torsions:
REMARK  status: ('A' for Active; 'I' for Inactive)
REMARK    1  A    between atoms: C4_4  and  C5_5 
REMARK    2  A    between atoms: C5_5  and  C6_6 
ROOT
HETATM    1  C1  UNL     1     -33.143   5.341   3.357  1.00 20.00     0.034 A 
HETATM    2  C2  UNL     1     -35.105   4.853   4.502  1.00 20.00     0.069 A 
HETATM    3  C3  UNL     1     -33.886   4.367   4.083  1.00 20.00     0.018 A 
HETATM    4  C4  UNL     1     -33.822   6.535   3.246  1.00 20.00    -0.015 A 
HETATM    5  S7  UNL     1     -35.350   6.477   4.018  1.00 20.00    -0.105 SA
HETATM    6 BR9  UNL     1     -33.235   2.631   4.410  1.00 20.00    -0.051 Br
ENDROOT
BRANCH   4   7
HETATM    7  C5  UNL     1     -33.394   7.779   2.572  1.00 20.00     0.061 C 
BRANCH   7   8
HETATM    8  C6  UNL     1     -32.069   7.667   1.801  1.00 20.00     0.119 C 
HETATM    9 CL8  UNL     1     -31.918   8.944   0.569  1.00 20.00    -0.130 Cl
ENDBRANCH   7   8
ENDBRANCH   4   7
TORSDOF 2
ENDMDL
MODEL 3
REMARK VINA RESULT:      -0.2      1.540      1.783
REMARK  2 active torsions:
REMARK  status: ('A' for Active; 'I' for Inactive)
REMARK    1  A    between atoms: C4_4  and  C5_5 
REMARK    2  A    between atoms: C5_5  and  C6_6 
ROOT
HETATM    1  C1  UNL     1     -32.775   5.871   2.394  1.00 20.00     0.034 A 
HETATM    2  C2  UNL     1     -34.321   6.664   3.937  1.00 20.00     0.069 A 
HETATM    3  C3  UNL     1     -33.684   5.547   3.442  1.00 20.00     0.018 A 
HETATM    4  C4  UNL     1     -32.751   7.222   2.127  1.00 20.00    -0.015 A 
HETATM    5  S7  UNL     1     -33.824   8.094   3.138  1.00 20.00    -0.105 SA
HETATM    6 BR9  UNL     1     -33.949   3.784   4.047  1.00 20.00    -0.051 Br
ENDROOT
BRANCH   4   7
HETATM    7  C5  UNL     1     -31.948   7.948   1.120  1.00 20.00     0.061 C 
BRANCH   7   8
HETATM    8  C6  UNL     1     -32.246   9.453   1.028  1.00 20.00     0.119 C 
HETATM    9 CL8  UNL     1     -32.778   9.916  -0.608  1.00 20.00    -0.130 Cl
ENDBRANCH   7   8
ENDBRANCH   4   7
TORSDOF 2
ENDMDL
MODEL 4
REMARK VINA RESULT:      -0.1      3.975      5.042
REMARK  2 active torsions:
REMARK  status: ('A' for Active; 'I' for Inactive)
REMARK    1  A    between atoms: C4_4  and  C5_5 
REMARK    2  A    between atoms: C5_5  and  C6_6 
ROOT
HETATM    1  C1  UNL     1     -32.708   6.417   1.749  1.00 20.00     0.034 A 
HETATM    2  C2  UNL     1     -33.184   8.309   3.010  1.00 20.00     0.069 A 
HETATM    3  C3  UNL     1     -32.555   7.827   1.884  1.00 20.00     0.018 A 
HETATM    4  C4  UNL     1     -33.447   5.874   2.777  1.00 20.00    -0.015 A 
HETATM    5  S7  UNL     1     -33.954   7.065   3.899  1.00 20.00    -0.105 SA
HETATM    6 BR9  UNL     1     -31.598   8.867   0.641  1.00 20.00    -0.051 Br
ENDROOT
BRANCH   4   7
HETATM    7  C5  UNL     1     -33.822   4.461   2.996  1.00 20.00     0.061 C 
BRANCH   7   8
HETATM    8  C6  UNL     1     -34.089   4.090   4.464  1.00 20.00     0.119 C 
HETATM    9 CL8  UNL     1     -32.989   2.806   5.024  1.00 20.00    -0.130 Cl
ENDBRANCH   7   8
ENDBRANCH   4   7
TORSDOF 2
ENDMDL
MODEL 5
REMARK VINA RESULT:       0.1      3.594      4.468
REMARK  2 active torsions:
REMARK  status: ('A' for Active; 'I' for Inactive)
REMARK    1  A    between atoms: C4_4  and  C5_5 
REMARK    2  A    between atoms: C5_5  and  C6_6 
ROOT
HETATM    1  C1  UNL     1     -33.326   8.599   2.403  1.00 20.00     0.034 A 
HETATM    2  C2  UNL     1     -32.067   7.240   1.000  1.00 20.00     0.069 A 
HETATM    3  C3  UNL     1     -32.510   8.523   1.237  1.00 20.00     0.018 A 
HETATM    4  C4  UNL     1     -33.476   7.372   3.012  1.00 20.00    -0.015 A 
HETATM    5  S7  UNL     1     -32.635   6.135   2.178  1.00 20.00    -0.105 SA
HETATM    6 BR9  UNL     1     -32.111  10.027   0.179  1.00 20.00    -0.051 Br
ENDROOT
BRANCH   4   7
HETATM    7  C5  UNL     1     -34.241   7.037   4.232  1.00 20.00     0.061 C 
BRANCH   7   8
HETATM    8  C6  UNL     1     -35.220   5.862   4.071  1.00 20.00     0.119 C 
HETATM    9 CL8  UNL     1     -34.437   4.304   4.434  1.00 20.00    -0.130 Cl
ENDBRANCH   7   8
ENDBRANCH   4   7
TORSDOF 2
ENDMDL
MODEL 6
REMARK VINA RESULT:       0.2      3.662      4.697
REMARK  2 active torsions:
REMARK  status: ('A' for Active; 'I' for Inactive)
REMARK    1  A    between atoms: C4_4  and  C5_5 
REMARK    2  A    between atoms: C5_5  and  C6_6 
ROOT
HETATM    1  C1  UNL     1     -33.414   7.670   2.716  1.00 20.00     0.034 A 
HETATM    2  C2  UNL     1     -31.997   6.851   1.067  1.00 20.00     0.069 A 
HETATM    3  C3  UNL     1     -32.574   7.979   1.608  1.00 20.00     0.018 A 
HETATM    4  C4  UNL     1     -33.448   6.318   2.981  1.00 20.00    -0.015 A 
HETATM    5  S7  UNL     1     -32.469   5.428   1.894  1.00 20.00    -0.105 SA
HETATM    6 BR9  UNL     1     -32.313   9.738   0.993  1.00 20.00    -0.051 Br
ENDROOT
BRANCH   4   7
HETATM    7  C5  UNL     1     -34.197   5.604   4.037  1.00 20.00     0.061 C 
BRANCH   7   8
HETATM    8  C6  UNL     1     -34.245   4.077   3.867  1.00 20.00     0.119 C 
HETATM    9 CL8  UNL     1     -33.123   3.259   4.983  1.00 20.00    -0.130 Cl
ENDBRANCH   7   8
ENDBRANCH   4   7
TORSDOF 2
ENDMDL
MODEL 7
REMARK VINA RESULT:       0.2      3.552      4.343
REMARK  2 active torsions:
REMARK  status: ('A' for Active; 'I' for Inactive)
REMARK    1  A    between atoms: C4_4  and  C5_5 
REMARK    2  A    between atoms: C5_5  and  C6_6 
ROOT
HETATM    1  C1  UNL     1     -33.143   5.795   2.322  1.00 20.00     0.034 A 
HETATM    2  C2  UNL     1     -31.575   7.164   1.289  1.00 20.00     0.069 A 
HETATM    3  C3  UNL     1     -32.096   5.891   1.360  1.00 20.00     0.018 A 
HETATM    4  C4  UNL     1     -33.381   6.997   2.951  1.00 20.00    -0.015 A 
HETATM    5  S7  UNL     1     -32.345   8.236   2.380  1.00 20.00    -0.105 SA
HETATM    6 BR9  UNL     1     -31.529   4.423   0.328  1.00 20.00    -0.051 Br
ENDROOT
BRANCH   4   7
HETATM    7  C5  UNL     1     -34.376   7.307   4.001  1.00 20.00     0.061 C 
BRANCH   7   8
HETATM    8  C6  UNL     1     -35.559   6.329   4.070  1.00 20.00     0.119 C 
HETATM    9 CL8  UNL     1     -35.041   4.711   4.605  1.00 20.00    -0.130 Cl
ENDBRANCH   7   8
ENDBRANCH   4   7
TORSDOF 2
ENDMDL
MODEL 8
REMARK VINA RESULT:       1.1      3.131      4.090
REMARK  2 active torsions:
REMARK  status: ('A' for Active; 'I' for Inactive)
REMARK    1  A    between atoms: C4_4  and  C5_5 
REMARK    2  A    between atoms: C5_5  and  C6_6 
ROOT
HETATM    1  C1  UNL     1     -33.401   7.957   2.019  1.00 20.00     0.034 A 
HETATM    2  C2  UNL     1     -31.484   7.403   0.828  1.00 20.00     0.069 A 
HETATM    3  C3  UNL     1     -32.385   8.402   1.125  1.00 20.00     0.018 A 
HETATM    4  C4  UNL     1     -33.239   6.635   2.372  1.00 20.00    -0.015 A 
HETATM    5  S7  UNL     1     -31.865   5.936   1.625  1.00 20.00    -0.105 SA
HETATM    6 BR9  UNL     1     -32.321  10.160   0.456  1.00 20.00    -0.051 Br
ENDROOT
BRANCH   4   7
HETATM    7  C5  UNL     1     -34.077   5.811   3.270  1.00 20.00     0.061 C 
BRANCH   7   8
HETATM    8  C6  UNL     1     -34.980   6.615   4.218  1.00 20.00     0.119 C 
HETATM    9 CL8  UNL     1     -34.077   7.915   5.035  1.00 20.00    -0.130 Cl
ENDBRANCH   7   8
ENDBRANCH   4   7
TORSDOF 2
ENDMDL
MODEL 9
REMARK VINA RESULT:       1.4      3.442      4.554
REMARK  2 active torsions:
REMARK  status: ('A' for Active; 'I' for Inactive)
REMARK    1  A    between atoms: C4_4  and  C5_5 
REMARK    2  A    between atoms: C5_5  and  C6_6 
ROOT
HETATM    1  C1  UNL     1     -32.653   6.726   1.475  1.00 20.00     0.034 A 
HETATM    2  C2  UNL     1     -32.532   8.615   2.823  1.00 20.00     0.069 A 
HETATM    3  C3  UNL     1     -32.336   8.113   1.556  1.00 20.00     0.018 A 
HETATM    4  C4  UNL     1     -33.079   6.220   2.683  1.00 20.00    -0.015 A 
HETATM    5  S7  UNL     1     -33.095   7.416   3.909  1.00 20.00    -0.105 SA
HETATM    6 BR9  UNL     1     -31.726   9.101   0.074  1.00 20.00    -0.051 Br
ENDROOT
BRANCH   4   7
HETATM    7  C5  UNL     1     -33.495   4.839   3.009  1.00 20.00     0.061 C 
BRANCH   7   8
HETATM    8  C6  UNL     1     -34.497   4.730   4.170  1.00 20.00     0.119 C 
HETATM    9 CL8  UNL     1     -35.689   6.052   4.131  1.00 20.00    -0.130 Cl
ENDBRANCH   7   8
ENDBRANCH   4   7
TORSDOF 2
ENDMDL
