MODEL 1
REMARK VINA RESULT:       1.2      0.000      0.000
REMARK  2 active torsions:
REMARK  status: ('A' for Active; 'I' for Inactive)
REMARK    1  A    between atoms: C1_1  and  C7_7 
REMARK    2  A    between atoms: C7_7  and  S10_10 
ROOT
HETATM    1  C1  UNL     1     -33.504   5.577   2.776  1.00 20.00     0.061 A 
HETATM    2  C2  UNL     1     -34.565   6.013   3.543  1.00 20.00     0.006 A 
HETATM    3  C3  UNL     1     -33.630   3.879   4.158  1.00 20.00     0.072 A 
HETATM    4  C4  UNL     1     -35.361   7.253   3.450  1.00 20.00     0.058 C 
HETATM    5  C5  UNL     1     -33.340   2.587   4.817  1.00 20.00     0.078 C 
HETATM    6  N8  UNL     1     -32.968   4.354   3.127  1.00 20.00    -0.249 NA
HETATM    7  S9  UNL     1     -34.912   4.851   4.756  1.00 20.00    -0.078 SA
ENDROOT
BRANCH   1   8
HETATM    8  C7  UNL     1     -32.889   6.317   1.604  1.00 20.00     0.093 C 
HETATM    9  C6  UNL     1     -31.897   5.460   0.819  1.00 20.00     0.028 C 
BRANCH   8  10
HETATM   10  S10 UNL     1     -32.077   7.860   2.151  1.00 20.00    -0.172 SA
HETATM   11  H21 UNL     1     -31.160   7.258   2.918  1.00 20.00     0.102 HD
ENDBRANCH   8  10
ENDBRANCH   1   8
TORSDOF 2
ENDMDL
MODEL 2
REMARK VINA RESULT:       1.5      2.185      3.200
REMARK  2 active torsions:
REMARK  status: ('A' for Active; 'I' for Inactive)
REMARK    1  A    between atoms: C1_1  and  C7_7 
REMARK    2  A    between atoms: C7_7  and  S10_10 
ROOT
HETATM    1  C1  UNL     1     -32.633   7.062   2.213  1.00 20.00     0.061 A 
HETATM    2  C2  UNL     1     -32.601   5.752   1.782  1.00 20.00     0.006 A 
HETATM    3  C3  UNL     1     -34.299   6.282   3.407  1.00 20.00     0.072 A 
HETATM    4  C4  UNL     1     -31.708   5.092   0.808  1.00 20.00     0.058 C 
HETATM    5  C5  UNL     1     -35.430   6.220   4.358  1.00 20.00     0.078 C 
HETATM    6  N8  UNL     1     -33.606   7.367   3.144  1.00 20.00    -0.249 NA
HETATM    7  S9  UNL     1     -33.834   4.857   2.570  1.00 20.00    -0.078 SA
ENDROOT
BRANCH   1   8
HETATM    8  C7  UNL     1     -31.708   8.174   1.755  1.00 20.00     0.093 C 
HETATM    9  C6  UNL     1     -31.164   9.004   2.916  1.00 20.00     0.028 C 
BRANCH   8  10
HETATM   10  S10 UNL     1     -32.539   9.266   0.548  1.00 20.00    -0.172 SA
HETATM   11  H21 UNL     1     -32.939  10.172   1.447  1.00 20.00     0.102 HD
ENDBRANCH   8  10
ENDBRANCH   1   8
TORSDOF 2
ENDMDL
MODEL 3
REMARK VINA RESULT:       1.9      1.867      4.348
REMARK  2 active torsions:
REMARK  status: ('A' for Active; 'I' for Inactive)
REMARK    1  A    between atoms: C1_1  and  C7_7 
REMARK    2  A    between atoms: C7_7  and  S10_10 
ROOT
HETATM    1  C1  UNL     1     -33.474   6.190   2.837  1.00 20.00     0.061 A 
HETATM    2  C2  UNL     1     -32.824   6.029   1.631  1.00 20.00     0.006 A 
HETATM    3  C3  UNL     1     -32.228   7.994   2.891  1.00 20.00     0.072 A 
HETATM    4  C4  UNL     1     -32.942   4.957   0.622  1.00 20.00     0.058 C 
HETATM    5  C5  UNL     1     -31.618   9.260   3.352  1.00 20.00     0.078 C 
HETATM    6  N8  UNL     1     -33.133   7.316   3.560  1.00 20.00    -0.249 NA
HETATM    7  S9  UNL     1     -31.741   7.335   1.382  1.00 20.00    -0.078 SA
ENDROOT
BRANCH   1   8
HETATM    8  C7  UNL     1     -34.509   5.250   3.424  1.00 20.00     0.093 C 
HETATM    9  C6  UNL     1     -35.480   5.957   4.369  1.00 20.00     0.028 C 
BRANCH   8  10
HETATM   10  S10 UNL     1     -33.712   3.850   4.288  1.00 20.00    -0.172 SA
HETATM   11  H21 UNL     1     -32.718   3.703   3.404  1.00 20.00     0.102 HD
ENDBRANCH   8  10
ENDBRANCH   1   8
TORSDOF 2
ENDMDL
MODEL 4
REMARK VINA RESULT:       1.9      2.731      5.020
REMARK  2 active torsions:
REMARK  status: ('A' for Active; 'I' for Inactive)
REMARK    1  A    between atoms: C1_1  and  C7_7 
REMARK    2  A    between atoms: C7_7  and  S10_10 
ROOT
HETATM    1  C1  UNL     1     -32.905   7.563   2.450  1.00 20.00     0.061 A 
HETATM    2  C2  UNL     1     -32.204   6.826   1.517  1.00 20.00     0.006 A 
HETATM    3  C3  UNL     1     -32.473   9.168   1.021  1.00 20.00     0.072 A 
HETATM    4  C4  UNL     1     -31.857   5.391   1.503  1.00 20.00     0.058 C 
HETATM    5  C5  UNL     1     -32.427  10.506   0.390  1.00 20.00     0.078 C 
HETATM    6  N8  UNL     1     -33.060   8.905   2.167  1.00 20.00    -0.249 NA
HETATM    7  S9  UNL     1     -31.716   7.847   0.229  1.00 20.00    -0.078 SA
ENDROOT
BRANCH   1   8
HETATM    8  C7  UNL     1     -33.505   7.031   3.738  1.00 20.00     0.093 C 
HETATM    9  C6  UNL     1     -34.959   6.592   3.575  1.00 20.00     0.028 C 
BRANCH   8  10
HETATM   10  S10 UNL     1     -33.376   8.263   5.082  1.00 20.00    -0.172 SA
HETATM   11  H21 UNL     1     -34.693   8.349   5.304  1.00 20.00     0.102 HD
ENDBRANCH   8  10
ENDBRANCH   1   8
TORSDOF 2
ENDMDL
MODEL 5
REMARK VINA RESULT:       2.1      1.941      4.140
REMARK  2 active torsions:
REMARK  status: ('A' for Active; 'I' for Inactive)
REMARK    1  A    between atoms: C1_1  and  C7_7 
REMARK    2  A    between atoms: C7_7  and  S10_10 
ROOT
HETATM    1  C1  UNL     1     -33.490   6.584   2.989  1.00 20.00     0.061 A 
HETATM    2  C2  UNL     1     -33.179   7.668   3.782  1.00 20.00     0.006 A 
HETATM    3  C3  UNL     1     -32.110   7.604   1.624  1.00 20.00     0.072 A 
HETATM    4  C4  UNL     1     -33.645   8.021   5.138  1.00 20.00     0.058 C 
HETATM    5  C5  UNL     1     -31.295   7.908   0.427  1.00 20.00     0.078 C 
HETATM    6  N8  UNL     1     -32.878   6.545   1.751  1.00 20.00    -0.249 NA
HETATM    7  S9  UNL     1     -32.075   8.687   2.954  1.00 20.00    -0.078 SA
ENDROOT
BRANCH   1   8
HETATM    8  C7  UNL     1     -34.432   5.453   3.355  1.00 20.00     0.093 C 
HETATM    9  C6  UNL     1     -35.585   5.910   4.247  1.00 20.00     0.028 C 
BRANCH   8  10
HETATM   10  S10 UNL     1     -33.533   4.080   4.159  1.00 20.00    -0.172 SA
HETATM   11  H21 UNL     1     -32.310   4.570   3.921  1.00 20.00     0.102 HD
ENDBRANCH   8  10
ENDBRANCH   1   8
TORSDOF 2
ENDMDL
MODEL 6
REMARK VINA RESULT:       2.1      2.303      3.944
REMARK  2 active torsions:
REMARK  status: ('A' for Active; 'I' for Inactive)
REMARK    1  A    between atoms: C1_1  and  C7_7 
REMARK    2  A    between atoms: C7_7  and  S10_10 
ROOT
HETATM    1  C1  UNL     1     -33.211   7.195   2.599  1.00 20.00     0.061 A 
HETATM    2  C2  UNL     1     -32.491   8.101   1.849  1.00 20.00     0.006 A 
HETATM    3  C3  UNL     1     -32.165   5.779   1.292  1.00 20.00     0.072 A 
HETATM    4  C4  UNL     1     -32.451   9.575   1.917  1.00 20.00     0.058 C 
HETATM    5  C5  UNL     1     -31.718   4.510   0.677  1.00 20.00     0.078 C 
HETATM    6  N8  UNL     1     -33.025   5.864   2.282  1.00 20.00    -0.249 NA
HETATM    7  S9  UNL     1     -31.538   7.261   0.695  1.00 20.00    -0.078 SA
ENDROOT
BRANCH   1   8
HETATM    8  C7  UNL     1     -34.174   7.533   3.721  1.00 20.00     0.093 C 
HETATM    9  C6  UNL     1     -33.463   8.014   4.985  1.00 20.00     0.028 C 
BRANCH   8  10
HETATM   10  S10 UNL     1     -35.249   6.109   4.119  1.00 20.00    -0.172 SA
HETATM   11  H21 UNL     1     -36.240   6.838   4.645  1.00 20.00     0.102 HD
ENDBRANCH   8  10
ENDBRANCH   1   8
TORSDOF 2
ENDMDL
MODEL 7
REMARK VINA RESULT:       2.7      2.120      2.872
REMARK  2 active torsions:
REMARK  status: ('A' for Active; 'I' for Inactive)
REMARK    1  A    between atoms: C1_1  and  C7_7 
REMARK    2  A    between atoms: C7_7  and  S10_10 
ROOT
HETATM    1  C1  UNL     1     -33.065   6.137   1.859  1.00 20.00     0.061 A 
HETATM    2  C2  UNL     1     -32.708   7.398   2.292  1.00 20.00     0.006 A 
HETATM    3  C3  UNL     1     -34.393   6.276   3.599  1.00 20.00     0.072 A 
HETATM    4  C4  UNL     1     -31.724   8.350   1.740  1.00 20.00     0.058 C 
HETATM    5  C5  UNL     1     -35.409   5.925   4.615  1.00 20.00     0.078 C 
HETATM    6  N8  UNL     1     -34.031   5.493   2.607  1.00 20.00    -0.249 NA
HETATM    7  S9  UNL     1     -33.614   7.802   3.691  1.00 20.00    -0.078 SA
ENDROOT
BRANCH   1   8
HETATM    8  C7  UNL     1     -32.494   5.413   0.655  1.00 20.00     0.093 C 
HETATM    9  C6  UNL     1     -33.542   4.591  -0.092  1.00 20.00     0.028 C 
BRANCH   8  10
HETATM   10  S10 UNL     1     -31.092   4.343   1.135  1.00 20.00    -0.172 SA
HETATM   11  H21 UNL     1     -30.164   5.040   0.469  1.00 20.00     0.102 HD
ENDBRANCH   8  10
ENDBRANCH   1   8
TORSDOF 2
ENDMDL
MODEL 8
REMARK VINA RESULT:       2.7      2.229      4.541
REMARK  2 active torsions:
REMARK  status: ('A' for Active; 'I' for Inactive)
REMARK    1  A    between atoms: C1_1  and  C7_7 
REMARK    2  A    between atoms: C7_7  and  S10_10 
ROOT
HETATM    1  C1  UNL     1     -33.336   7.279   2.810  1.00 20.00     0.061 A 
HETATM    2  C2  UNL     1     -32.988   6.028   2.341  1.00 20.00     0.006 A 
HETATM    3  C3  UNL     1     -31.984   7.896   1.197  1.00 20.00     0.072 A 
HETATM    4  C4  UNL     1     -33.408   4.690   2.801  1.00 20.00     0.058 C 
HETATM    5  C5  UNL     1     -31.197   8.750   0.281  1.00 20.00     0.078 C 
HETATM    6  N8  UNL     1     -32.761   8.350   2.155  1.00 20.00    -0.249 NA
HETATM    7  S9  UNL     1     -31.898   6.190   1.027  1.00 20.00    -0.078 SA
ENDROOT
BRANCH   1   8
HETATM    8  C7  UNL     1     -34.277   7.569   3.963  1.00 20.00     0.093 C 
HETATM    9  C6  UNL     1     -33.541   7.984   5.236  1.00 20.00     0.028 C 
BRANCH   8  10
HETATM   10  S10 UNL     1     -35.354   6.133   4.310  1.00 20.00    -0.172 SA
HETATM   11  H21 UNL     1     -34.539   5.225   3.763  1.00 20.00     0.102 HD
ENDBRANCH   8  10
ENDBRANCH   1   8
TORSDOF 2
ENDMDL
MODEL 9
REMARK VINA RESULT:       3.2      2.396      2.924
REMARK  2 active torsions:
REMARK  status: ('A' for Active; 'I' for Inactive)
REMARK    1  A    between atoms: C1_1  and  C7_7 
REMARK    2  A    between atoms: C7_7  and  S10_10 
ROOT
HETATM    1  C1  UNL     1     -32.725   7.176   2.722  1.00 20.00     0.061 A 
HETATM    2  C2  UNL     1     -32.633   8.088   3.754  1.00 20.00     0.006 A 
HETATM    3  C3  UNL     1     -34.498   6.566   3.860  1.00 20.00     0.072 A 
HETATM    4  C4  UNL     1     -31.634   9.146   4.003  1.00 20.00     0.058 C 
HETATM    5  C5  UNL     1     -35.719   5.834   4.262  1.00 20.00     0.078 C 
HETATM    6  N8  UNL     1     -33.794   6.303   2.782  1.00 20.00    -0.249 NA
HETATM    7  S9  UNL     1     -33.933   7.851   4.847  1.00 20.00    -0.078 SA
ENDROOT
BRANCH   1   8
HETATM    8  C7  UNL     1     -31.767   7.054   1.553  1.00 20.00     0.093 C 
HETATM    9  C6  UNL     1     -31.896   8.209   0.561  1.00 20.00     0.028 C 
BRANCH   8  10
HETATM   10  S10 UNL     1     -31.989   5.462   0.683  1.00 20.00    -0.172 SA
HETATM   11  H21 UNL     1     -32.266   6.003  -0.509  1.00 20.00     0.102 HD
ENDBRANCH   8  10
ENDBRANCH   1   8
TORSDOF 2
ENDMDL
