MODEL 1
REMARK VINA RESULT:      -2.1      0.000      0.000
REMARK  2 active torsions:
REMARK  status: ('A' for Active; 'I' for Inactive)
REMARK    1  A    between atoms: C6_6  and  C7_7 
REMARK    2  A    between atoms: C7_7  and  N9_9 
ROOT
HETATM    1  C1  UNL     1     -32.477   9.818   0.056  1.00 20.00     0.012 C 
HETATM    2  C2  UNL     1     -32.223   9.023   0.919  1.00 20.00    -0.116 C 
HETATM    3  C6  UNL     1     -31.908   8.052   1.978  1.00 20.00     0.113 C 
ENDROOT
BRANCH   3   4
HETATM    4  C7  UNL     1     -32.559   6.691   1.728  1.00 20.00     0.141 C 
BRANCH   4   5
HETATM    5  N9  UNL     1     -33.528   6.312   2.754  1.00 20.00    -0.349 N 
HETATM    6  C4  UNL     1     -34.322   7.162   3.471  1.00 20.00     0.111 A 
HETATM    7  C3  UNL     1     -35.052   6.345   4.301  1.00 20.00     0.135 A 
HETATM    8  N8  UNL     1     -34.726   5.025   4.111  1.00 20.00    -0.255 NA
HETATM    9  C5  UNL     1     -33.805   5.040   3.172  1.00 20.00     0.209 A 
ENDBRANCH   4   5
ENDBRANCH   3   4
TORSDOF 2
ENDMDL
MODEL 2
REMARK VINA RESULT:      -2.1      0.928      1.345
REMARK  2 active torsions:
REMARK  status: ('A' for Active; 'I' for Inactive)
REMARK    1  A    between atoms: C6_6  and  C7_7 
REMARK    2  A    between atoms: C7_7  and  N9_9 
ROOT
HETATM    1  C1  UNL     1     -32.604   9.955  -0.106  1.00 20.00     0.012 C 
HETATM    2  C2  UNL     1     -32.171   9.183   0.705  1.00 20.00    -0.116 C 
HETATM    3  C6  UNL     1     -31.635   8.240   1.697  1.00 20.00     0.113 C 
ENDROOT
BRANCH   3   4
HETATM    4  C7  UNL     1     -32.381   6.905   1.689  1.00 20.00     0.141 C 
BRANCH   4   5
HETATM    5  N9  UNL     1     -33.382   6.791   2.747  1.00 20.00    -0.349 N 
HETATM    6  C4  UNL     1     -34.185   5.713   2.990  1.00 20.00     0.111 A 
HETATM    7  C3  UNL     1     -34.948   6.078   4.074  1.00 20.00     0.135 A 
HETATM    8  N8  UNL     1     -34.632   7.345   4.498  1.00 20.00    -0.255 NA
HETATM    9  C5  UNL     1     -33.686   7.746   3.677  1.00 20.00     0.209 A 
ENDBRANCH   4   5
ENDBRANCH   3   4
TORSDOF 2
ENDMDL
MODEL 3
REMARK VINA RESULT:      -1.8      1.529      4.413
REMARK  2 active torsions:
REMARK  status: ('A' for Active; 'I' for Inactive)
REMARK    1  A    between atoms: C6_6  and  C7_7 
REMARK    2  A    between atoms: C7_7  and  N9_9 
ROOT
HETATM    1  C1  UNL     1     -33.518   3.389   4.643  1.00 20.00     0.012 C 
HETATM    2  C2  UNL     1     -34.244   4.303   4.363  1.00 20.00    -0.116 C 
HETATM    3  C6  UNL     1     -35.137   5.420   4.018  1.00 20.00     0.113 C 
ENDROOT
BRANCH   3   4
HETATM    4  C7  UNL     1     -34.430   6.773   4.100  1.00 20.00     0.141 C 
BRANCH   4   5
HETATM    5  N9  UNL     1     -33.439   6.977   3.047  1.00 20.00    -0.349 N 
HETATM    6  C4  UNL     1     -32.637   8.072   2.890  1.00 20.00     0.111 A 
HETATM    7  C3  UNL     1     -31.885   7.801   1.772  1.00 20.00     0.135 A 
HETATM    8  N8  UNL     1     -32.205   6.576   1.244  1.00 20.00    -0.255 NA
HETATM    9  C5  UNL     1     -33.145   6.106   2.035  1.00 20.00     0.209 A 
ENDBRANCH   4   5
ENDBRANCH   3   4
TORSDOF 2
ENDMDL
MODEL 4
REMARK VINA RESULT:      -1.8      1.746      4.569
REMARK  2 active torsions:
REMARK  status: ('A' for Active; 'I' for Inactive)
REMARK    1  A    between atoms: C6_6  and  C7_7 
REMARK    2  A    between atoms: C7_7  and  N9_9 
ROOT
HETATM    1  C1  UNL     1     -33.493   3.387   4.678  1.00 20.00     0.012 C 
HETATM    2  C2  UNL     1     -34.220   4.294   4.377  1.00 20.00    -0.116 C 
HETATM    3  C6  UNL     1     -35.112   5.402   4.005  1.00 20.00     0.113 C 
ENDROOT
BRANCH   3   4
HETATM    4  C7  UNL     1     -34.400   6.755   4.035  1.00 20.00     0.141 C 
BRANCH   4   5
HETATM    5  N9  UNL     1     -33.415   6.918   2.969  1.00 20.00    -0.349 N 
HETATM    6  C4  UNL     1     -33.152   6.027   1.967  1.00 20.00     0.111 A 
HETATM    7  C3  UNL     1     -32.160   6.620   1.220  1.00 20.00     0.135 A 
HETATM    8  N8  UNL     1     -31.814   7.843   1.738  1.00 20.00    -0.255 NA
HETATM    9  C5  UNL     1     -32.588   7.992   2.790  1.00 20.00     0.209 A 
ENDBRANCH   4   5
ENDBRANCH   3   4
TORSDOF 2
ENDMDL
MODEL 5
REMARK VINA RESULT:      -1.1      2.306      4.635
REMARK  2 active torsions:
REMARK  status: ('A' for Active; 'I' for Inactive)
REMARK    1  A    between atoms: C6_6  and  C7_7 
REMARK    2  A    between atoms: C7_7  and  N9_9 
ROOT
HETATM    1  C1  UNL     1     -34.621   6.726   3.807  1.00 20.00     0.012 C 
HETATM    2  C2  UNL     1     -33.798   6.651   2.936  1.00 20.00    -0.116 C 
HETATM    3  C6  UNL     1     -32.789   6.555   1.871  1.00 20.00     0.113 C 
ENDROOT
BRANCH   3   4
HETATM    4  C7  UNL     1     -31.830   7.746   1.871  1.00 20.00     0.141 C 
BRANCH   4   5
HETATM    5  N9  UNL     1     -32.262   8.842   1.008  1.00 20.00    -0.349 N 
HETATM    6  C4  UNL     1     -32.613  10.101   1.411  1.00 20.00     0.111 A 
HETATM    7  C3  UNL     1     -32.941  10.763   0.251  1.00 20.00     0.135 A 
HETATM    8  N8  UNL     1     -32.801   9.946  -0.843  1.00 20.00    -0.255 NA
HETATM    9  C5  UNL     1     -32.391   8.797  -0.352  1.00 20.00     0.209 A 
ENDBRANCH   4   5
ENDBRANCH   3   4
TORSDOF 2
ENDMDL
MODEL 6
REMARK VINA RESULT:      -1.0      2.226      4.763
REMARK  2 active torsions:
REMARK  status: ('A' for Active; 'I' for Inactive)
REMARK    1  A    between atoms: C6_6  and  C7_7 
REMARK    2  A    between atoms: C7_7  and  N9_9 
ROOT
HETATM    1  C1  UNL     1     -34.801   6.556   3.934  1.00 20.00     0.012 C 
HETATM    2  C2  UNL     1     -33.958   6.561   3.080  1.00 20.00    -0.116 C 
HETATM    3  C6  UNL     1     -32.925   6.562   2.034  1.00 20.00     0.113 C 
ENDROOT
BRANCH   3   4
HETATM    4  C7  UNL     1     -31.971   7.750   2.162  1.00 20.00     0.141 C 
BRANCH   4   5
HETATM    5  N9  UNL     1     -32.248   8.824   1.211  1.00 20.00    -0.349 N 
HETATM    6  C4  UNL     1     -31.967   8.815  -0.126  1.00 20.00     0.111 A 
HETATM    7  C3  UNL     1     -32.409  10.032  -0.588  1.00 20.00     0.135 A 
HETATM    8  N8  UNL     1     -32.950  10.781   0.428  1.00 20.00    -0.255 NA
HETATM    9  C5  UNL     1     -32.837  10.025   1.498  1.00 20.00     0.209 A 
ENDBRANCH   4   5
ENDBRANCH   3   4
TORSDOF 2
ENDMDL
MODEL 7
REMARK VINA RESULT:      -0.5      1.709      4.330
REMARK  2 active torsions:
REMARK  status: ('A' for Active; 'I' for Inactive)
REMARK    1  A    between atoms: C6_6  and  C7_7 
REMARK    2  A    between atoms: C7_7  and  N9_9 
ROOT
HETATM    1  C1  UNL     1     -34.945   4.380   4.753  1.00 20.00     0.012 C 
HETATM    2  C2  UNL     1     -35.064   5.474   4.273  1.00 20.00    -0.116 C 
HETATM    3  C6  UNL     1     -35.212   6.811   3.681  1.00 20.00     0.113 C 
ENDROOT
BRANCH   3   4
HETATM    4  C7  UNL     1     -33.934   7.643   3.802  1.00 20.00     0.141 C 
BRANCH   4   5
HETATM    5  N9  UNL     1     -32.987   7.418   2.713  1.00 20.00    -0.349 N 
HETATM    6  C4  UNL     1     -32.066   8.311   2.243  1.00 20.00     0.111 A 
HETATM    7  C3  UNL     1     -31.418   7.648   1.228  1.00 20.00     0.135 A 
HETATM    8  N8  UNL     1     -31.917   6.379   1.067  1.00 20.00    -0.255 NA
HETATM    9  C5  UNL     1     -32.861   6.273   1.977  1.00 20.00     0.209 A 
ENDBRANCH   4   5
ENDBRANCH   3   4
TORSDOF 2
ENDMDL
MODEL 8
REMARK VINA RESULT:      -0.0      2.694      4.677
REMARK  2 active torsions:
REMARK  status: ('A' for Active; 'I' for Inactive)
REMARK    1  A    between atoms: C6_6  and  C7_7 
REMARK    2  A    between atoms: C7_7  and  N9_9 
ROOT
HETATM    1  C1  UNL     1     -32.357   4.792   0.775  1.00 20.00     0.012 C 
HETATM    2  C2  UNL     1     -32.577   5.768   1.439  1.00 20.00    -0.116 C 
HETATM    3  C6  UNL     1     -32.852   6.962   2.251  1.00 20.00     0.113 C 
ENDROOT
BRANCH   3   4
HETATM    4  C7  UNL     1     -31.831   8.075   2.010  1.00 20.00     0.141 C 
BRANCH   4   5
HETATM    5  N9  UNL     1     -32.264   9.057   1.019  1.00 20.00    -0.349 N 
HETATM    6  C4  UNL     1     -32.656  10.341   1.269  1.00 20.00     0.111 A 
HETATM    7  C3  UNL     1     -32.966  10.863   0.035  1.00 20.00     0.135 A 
HETATM    8  N8  UNL     1     -32.774   9.934  -0.957  1.00 20.00    -0.255 NA
HETATM    9  C5  UNL     1     -32.351   8.858  -0.331  1.00 20.00     0.209 A 
ENDBRANCH   4   5
ENDBRANCH   3   4
TORSDOF 2
ENDMDL
MODEL 9
REMARK VINA RESULT:       0.1      1.848      4.644
REMARK  2 active torsions:
REMARK  status: ('A' for Active; 'I' for Inactive)
REMARK    1  A    between atoms: C6_6  and  C7_7 
REMARK    2  A    between atoms: C7_7  and  N9_9 
ROOT
HETATM    1  C1  UNL     1     -33.296   2.839   4.758  1.00 20.00     0.012 C 
HETATM    2  C2  UNL     1     -33.641   3.761   4.071  1.00 20.00    -0.116 C 
HETATM    3  C6  UNL     1     -34.068   4.889   3.231  1.00 20.00     0.113 C 
ENDROOT
BRANCH   3   4
HETATM    4  C7  UNL     1     -33.145   5.100   2.030  1.00 20.00     0.141 C 
BRANCH   4   5
HETATM    5  N9  UNL     1     -32.622   6.460   1.930  1.00 20.00    -0.349 N 
HETATM    6  C4  UNL     1     -32.756   7.450   2.861  1.00 20.00     0.111 A 
HETATM    7  C3  UNL     1     -32.103   8.533   2.321  1.00 20.00     0.135 A 
HETATM    8  N8  UNL     1     -31.576   8.231   1.091  1.00 20.00    -0.255 NA
HETATM    9  C5  UNL     1     -31.906   6.975   0.884  1.00 20.00     0.209 A 
ENDBRANCH   4   5
ENDBRANCH   3   4
TORSDOF 2
ENDMDL
