MODEL 1
REMARK VINA RESULT:       1.7      0.000      0.000
REMARK  2 active torsions:
REMARK  status: ('A' for Active; 'I' for Inactive)
REMARK    1  A    between atoms: C1_1  and  C7_7 
REMARK    2  A    between atoms: C7_7  and  S10_10 
ROOT
HETATM    1  C1  UNL     1     -32.845   7.679   2.507  1.00 20.00     0.061 A 
HETATM    2  C2  UNL     1     -32.214   6.909   1.553  1.00 20.00     0.006 A 
HETATM    3  C3  UNL     1     -32.474   9.243   1.017  1.00 20.00     0.072 A 
HETATM    4  C4  UNL     1     -31.890   5.469   1.552  1.00 20.00     0.058 C 
HETATM    5  C5  UNL     1     -32.446  10.565   0.355  1.00 20.00     0.078 C 
HETATM    6  N8  UNL     1     -32.995   9.017   2.202  1.00 20.00    -0.249 NA
HETATM    7  S9  UNL     1     -31.787   7.892   0.213  1.00 20.00    -0.078 SA
ENDROOT
BRANCH   1   8
HETATM    8  C7  UNL     1     -33.375   7.187   3.840  1.00 20.00     0.093 C 
HETATM    9  C6  UNL     1     -33.396   8.282   4.906  1.00 20.00     0.028 C 
BRANCH   8  10
HETATM   10  S10 UNL     1     -35.040   6.453   3.653  1.00 20.00    -0.172 SA
HETATM   11  H21 UNL     1     -34.643   5.426   2.891  1.00 20.00     0.102 HD
ENDBRANCH   8  10
ENDBRANCH   1   8
TORSDOF 2
ENDMDL
MODEL 2
REMARK VINA RESULT:       1.9      2.744      5.046
REMARK  2 active torsions:
REMARK  status: ('A' for Active; 'I' for Inactive)
REMARK    1  A    between atoms: C1_1  and  C7_7 
REMARK    2  A    between atoms: C7_7  and  S10_10 
ROOT
HETATM    1  C1  UNL     1     -33.538   5.672   2.822  1.00 20.00     0.061 A 
HETATM    2  C2  UNL     1     -34.618   6.075   3.579  1.00 20.00     0.006 A 
HETATM    3  C3  UNL     1     -33.663   3.942   4.163  1.00 20.00     0.072 A 
HETATM    4  C4  UNL     1     -35.430   7.305   3.500  1.00 20.00     0.058 C 
HETATM    5  C5  UNL     1     -33.365   2.640   4.797  1.00 20.00     0.078 C 
HETATM    6  N8  UNL     1     -32.989   4.450   3.155  1.00 20.00    -0.249 NA
HETATM    7  S9  UNL     1     -34.970   4.882   4.759  1.00 20.00    -0.078 SA
ENDROOT
BRANCH   1   8
HETATM    8  C7  UNL     1     -32.914   6.447   1.678  1.00 20.00     0.093 C 
HETATM    9  C6  UNL     1     -32.171   7.696   2.149  1.00 20.00     0.028 C 
BRANCH   8  10
HETATM   10  S10 UNL     1     -31.799   5.380   0.696  1.00 20.00    -0.172 SA
HETATM   11  H21 UNL     1     -31.062   4.973   1.736  1.00 20.00     0.102 HD
ENDBRANCH   8  10
ENDBRANCH   1   8
TORSDOF 2
ENDMDL
MODEL 3
REMARK VINA RESULT:       2.3      2.300      4.217
REMARK  2 active torsions:
REMARK  status: ('A' for Active; 'I' for Inactive)
REMARK    1  A    between atoms: C1_1  and  C7_7 
REMARK    2  A    between atoms: C7_7  and  S10_10 
ROOT
HETATM    1  C1  UNL     1     -33.005   6.111   1.853  1.00 20.00     0.061 A 
HETATM    2  C2  UNL     1     -32.691   7.387   2.270  1.00 20.00     0.006 A 
HETATM    3  C3  UNL     1     -34.370   6.243   3.564  1.00 20.00     0.072 A 
HETATM    4  C4  UNL     1     -31.723   8.357   1.722  1.00 20.00     0.058 C 
HETATM    5  C5  UNL     1     -35.396   5.880   4.566  1.00 20.00     0.078 C 
HETATM    6  N8  UNL     1     -33.967   5.452   2.593  1.00 20.00    -0.249 NA
HETATM    7  S9  UNL     1     -33.634   7.791   3.644  1.00 20.00    -0.078 SA
ENDROOT
BRANCH   1   8
HETATM    8  C7  UNL     1     -32.390   5.382   0.674  1.00 20.00     0.093 C 
HETATM    9  C6  UNL     1     -31.208   4.502   1.077  1.00 20.00     0.028 C 
BRANCH   8  10
HETATM   10  S10 UNL     1     -33.646   4.391  -0.211  1.00 20.00    -0.172 SA
HETATM   11  H21 UNL     1     -33.897   3.561   0.809  1.00 20.00     0.102 HD
ENDBRANCH   8  10
ENDBRANCH   1   8
TORSDOF 2
ENDMDL
MODEL 4
REMARK VINA RESULT:       2.3      1.875      3.736
REMARK  2 active torsions:
REMARK  status: ('A' for Active; 'I' for Inactive)
REMARK    1  A    between atoms: C1_1  and  C7_7 
REMARK    2  A    between atoms: C7_7  and  S10_10 
ROOT
HETATM    1  C1  UNL     1     -32.707   7.010   2.252  1.00 20.00     0.061 A 
HETATM    2  C2  UNL     1     -32.628   5.706   1.811  1.00 20.00     0.006 A 
HETATM    3  C3  UNL     1     -34.341   6.161   3.442  1.00 20.00     0.072 A 
HETATM    4  C4  UNL     1     -31.716   5.085   0.830  1.00 20.00     0.058 C 
HETATM    5  C5  UNL     1     -35.467   6.053   4.395  1.00 20.00     0.078 C 
HETATM    6  N8  UNL     1     -33.689   7.274   3.187  1.00 20.00    -0.249 NA
HETATM    7  S9  UNL     1     -33.827   4.761   2.594  1.00 20.00    -0.078 SA
ENDROOT
BRANCH   1   8
HETATM    8  C7  UNL     1     -31.825   8.157   1.801  1.00 20.00     0.093 C 
HETATM    9  C6  UNL     1     -32.487   9.025   0.732  1.00 20.00     0.028 C 
BRANCH   8  10
HETATM   10  S10 UNL     1     -31.310   9.186   3.223  1.00 20.00    -0.172 SA
HETATM   11  H21 UNL     1     -32.064  10.243   2.897  1.00 20.00     0.102 HD
ENDBRANCH   8  10
ENDBRANCH   1   8
TORSDOF 2
ENDMDL
MODEL 5
REMARK VINA RESULT:       2.5      1.716      3.110
REMARK  2 active torsions:
REMARK  status: ('A' for Active; 'I' for Inactive)
REMARK    1  A    between atoms: C1_1  and  C7_7 
REMARK    2  A    between atoms: C7_7  and  S10_10 
ROOT
HETATM    1  C1  UNL     1     -33.271   7.123   2.566  1.00 20.00     0.061 A 
HETATM    2  C2  UNL     1     -32.515   8.037   1.862  1.00 20.00     0.006 A 
HETATM    3  C3  UNL     1     -32.186   5.724   1.273  1.00 20.00     0.072 A 
HETATM    4  C4  UNL     1     -32.465   9.509   1.959  1.00 20.00     0.058 C 
HETATM    5  C5  UNL     1     -31.726   4.463   0.652  1.00 20.00     0.078 C 
HETATM    6  N8  UNL     1     -33.084   5.797   2.230  1.00 20.00    -0.249 NA
HETATM    7  S9  UNL     1     -31.524   7.212   0.731  1.00 20.00    -0.078 SA
ENDROOT
BRANCH   1   8
HETATM    8  C7  UNL     1     -34.274   7.449   3.655  1.00 20.00     0.093 C 
HETATM    9  C6  UNL     1     -35.155   6.255   4.020  1.00 20.00     0.028 C 
BRANCH   8  10
HETATM   10  S10 UNL     1     -33.436   8.097   5.146  1.00 20.00    -0.172 SA
HETATM   11  H21 UNL     1     -34.533   8.647   5.681  1.00 20.00     0.102 HD
ENDBRANCH   8  10
ENDBRANCH   1   8
TORSDOF 2
ENDMDL
MODEL 6
REMARK VINA RESULT:       2.7      1.823      2.288
REMARK  2 active torsions:
REMARK  status: ('A' for Active; 'I' for Inactive)
REMARK    1  A    between atoms: C1_1  and  C7_7 
REMARK    2  A    between atoms: C7_7  and  S10_10 
ROOT
HETATM    1  C1  UNL     1     -33.360   6.063   2.703  1.00 20.00     0.061 A 
HETATM    2  C2  UNL     1     -32.688   5.886   1.513  1.00 20.00     0.006 A 
HETATM    3  C3  UNL     1     -32.242   7.948   2.675  1.00 20.00     0.072 A 
HETATM    4  C4  UNL     1     -32.719   4.759   0.559  1.00 20.00     0.058 C 
HETATM    5  C5  UNL     1     -31.727   9.275   3.077  1.00 20.00     0.078 C 
HETATM    6  N8  UNL     1     -33.106   7.244   3.371  1.00 20.00    -0.249 NA
HETATM    7  S9  UNL     1     -31.694   7.250   1.206  1.00 20.00    -0.078 SA
ENDROOT
BRANCH   1   8
HETATM    8  C7  UNL     1     -34.335   5.085   3.329  1.00 20.00     0.093 C 
HETATM    9  C6  UNL     1     -33.634   3.966   4.099  1.00 20.00     0.028 C 
BRANCH   8  10
HETATM   10  S10 UNL     1     -35.526   5.950   4.414  1.00 20.00    -0.172 SA
HETATM   11  H21 UNL     1     -35.082   5.405   5.553  1.00 20.00     0.102 HD
ENDBRANCH   8  10
ENDBRANCH   1   8
TORSDOF 2
ENDMDL
MODEL 7
REMARK VINA RESULT:       2.8      1.826      3.733
REMARK  2 active torsions:
REMARK  status: ('A' for Active; 'I' for Inactive)
REMARK    1  A    between atoms: C1_1  and  C7_7 
REMARK    2  A    between atoms: C7_7  and  S10_10 
ROOT
HETATM    1  C1  UNL     1     -32.714   7.256   2.116  1.00 20.00     0.061 A 
HETATM    2  C2  UNL     1     -33.594   6.490   2.851  1.00 20.00     0.006 A 
HETATM    3  C3  UNL     1     -32.280   5.303   1.217  1.00 20.00     0.072 A 
HETATM    4  C4  UNL     1     -34.534   6.881   3.920  1.00 20.00     0.058 C 
HETATM    5  C5  UNL     1     -31.678   4.264   0.356  1.00 20.00     0.078 C 
HETATM    6  N8  UNL     1     -31.960   6.578   1.179  1.00 20.00    -0.249 NA
HETATM    7  S9  UNL     1     -33.481   4.852   2.356  1.00 20.00    -0.078 SA
ENDROOT
BRANCH   1   8
HETATM    8  C7  UNL     1     -32.508   8.752   2.251  1.00 20.00     0.093 C 
HETATM    9  C6  UNL     1     -31.402   9.106   3.244  1.00 20.00     0.028 C 
BRANCH   8  10
HETATM   10  S10 UNL     1     -32.168   9.516   0.625  1.00 20.00    -0.172 SA
HETATM   11  H21 UNL     1     -31.421   8.507   0.162  1.00 20.00     0.102 HD
ENDBRANCH   8  10
ENDBRANCH   1   8
TORSDOF 2
ENDMDL
MODEL 8
REMARK VINA RESULT:       2.8      2.572      3.481
REMARK  2 active torsions:
REMARK  status: ('A' for Active; 'I' for Inactive)
REMARK    1  A    between atoms: C1_1  and  C7_7 
REMARK    2  A    between atoms: C7_7  and  S10_10 
ROOT
HETATM    1  C1  UNL     1     -33.495   5.747   3.423  1.00 20.00     0.061 A 
HETATM    2  C2  UNL     1     -33.379   7.118   3.326  1.00 20.00     0.006 A 
HETATM    3  C3  UNL     1     -32.379   5.849   1.539  1.00 20.00     0.072 A 
HETATM    4  C4  UNL     1     -33.868   8.181   4.225  1.00 20.00     0.058 C 
HETATM    5  C5  UNL     1     -31.672   5.434   0.308  1.00 20.00     0.078 C 
HETATM    6  N8  UNL     1     -32.922   5.018   2.400  1.00 20.00    -0.249 NA
HETATM    7  S9  UNL     1     -32.518   7.521   1.898  1.00 20.00    -0.078 SA
ENDROOT
BRANCH   1   8
HETATM    8  C7  UNL     1     -34.189   4.989   4.538  1.00 20.00     0.093 C 
HETATM    9  C6  UNL     1     -35.712   5.074   4.449  1.00 20.00     0.028 C 
BRANCH   8  10
HETATM   10  S10 UNL     1     -33.653   3.241   4.574  1.00 20.00    -0.172 SA
HETATM   11  H21 UNL     1     -32.840   3.334   3.515  1.00 20.00     0.102 HD
ENDBRANCH   8  10
ENDBRANCH   1   8
TORSDOF 2
ENDMDL
MODEL 9
REMARK VINA RESULT:       2.9      1.950      2.895
REMARK  2 active torsions:
REMARK  status: ('A' for Active; 'I' for Inactive)
REMARK    1  A    between atoms: C1_1  and  C7_7 
REMARK    2  A    between atoms: C7_7  and  S10_10 
ROOT
HETATM    1  C1  UNL     1     -33.560   7.037   3.521  1.00 20.00     0.061 A 
HETATM    2  C2  UNL     1     -32.921   8.035   4.225  1.00 20.00     0.006 A 
HETATM    3  C3  UNL     1     -32.262   7.789   1.921  1.00 20.00     0.072 A 
HETATM    4  C4  UNL     1     -33.079   8.460   5.630  1.00 20.00     0.058 C 
HETATM    5  C5  UNL     1     -31.618   7.943   0.599  1.00 20.00     0.078 C 
HETATM    6  N8  UNL     1     -33.183   6.894   2.200  1.00 20.00    -0.249 NA
HETATM    7  S9  UNL     1     -31.801   8.834   3.202  1.00 20.00    -0.078 SA
ENDROOT
BRANCH   1   8
HETATM    8  C7  UNL     1     -34.623   6.103   4.065  1.00 20.00     0.093 C 
HETATM    9  C6  UNL     1     -35.983   6.309   3.401  1.00 20.00     0.028 C 
BRANCH   8  10
HETATM   10  S10 UNL     1     -34.101   4.357   3.912  1.00 20.00    -0.172 SA
HETATM   11  H21 UNL     1     -33.349   4.542   2.821  1.00 20.00     0.102 HD
ENDBRANCH   8  10
ENDBRANCH   1   8
TORSDOF 2
ENDMDL
