MODEL 1
REMARK VINA RESULT:      -2.1      0.000      0.000
REMARK  2 active torsions:
REMARK  status: ('A' for Active; 'I' for Inactive)
REMARK    1  A    between atoms: C4_4  and  C5_5 
REMARK    2  A    between atoms: C5_5  and  C7_7 
ROOT
HETATM    1  C1  UNL     1     -33.868   4.617   3.660  1.00 20.00     0.033 A 
HETATM    2  C2  UNL     1     -34.935   4.597   4.530  1.00 20.00     0.088 A 
HETATM    3  C3  UNL     1     -34.874   6.631   3.595  1.00 20.00     0.102 A 
HETATM    4  C4  UNL     1     -33.829   5.905   3.069  1.00 20.00     0.027 A 
HETATM    5  N10 UNL     1     -35.539   5.827   4.483  1.00 20.00    -0.374 N 
HETATM    6  H22 UNL     1     -36.351   6.098   5.020  1.00 20.00     0.164 HD
ENDROOT
BRANCH   4   7
HETATM    7  C5  UNL     1     -32.877   6.412   2.078  1.00 20.00     0.165 C 
HETATM    8  O11 UNL     1     -32.255   5.712   1.286  1.00 20.00    -0.292 OA
BRANCH   7   9
HETATM    9  C7  UNL     1     -32.664   7.864   2.036  1.00 20.00     0.065 A 
HETATM   10  C6  UNL     1     -31.263   8.408   2.147  1.00 20.00     0.018 A 
HETATM   11  C8  UNL     1     -31.990   8.474   0.833  1.00 20.00    -0.006 A 
HETATM   12  C9  UNL     1     -32.454   9.786   0.300  1.00 20.00     0.011 C 
ENDBRANCH   7   9
ENDBRANCH   4   7
TORSDOF 2
ENDMDL
MODEL 2
REMARK VINA RESULT:      -2.1      0.605      1.142
REMARK  2 active torsions:
REMARK  status: ('A' for Active; 'I' for Inactive)
REMARK    1  A    between atoms: C4_4  and  C5_5 
REMARK    2  A    between atoms: C5_5  and  C7_7 
ROOT
HETATM    1  C1  UNL     1     -34.786   6.812   3.658  1.00 20.00     0.033 A 
HETATM    2  C2  UNL     1     -35.511   5.996   4.499  1.00 20.00     0.088 A 
HETATM    3  C3  UNL     1     -33.959   4.723   3.504  1.00 20.00     0.102 A 
HETATM    4  C4  UNL     1     -33.805   6.007   3.028  1.00 20.00     0.027 A 
HETATM    5  N10 UNL     1     -34.999   4.728   4.396  1.00 20.00    -0.374 N 
HETATM    6  H22 UNL     1     -35.337   3.921   4.902  1.00 20.00     0.164 HD
ENDROOT
BRANCH   4   7
HETATM    7  C5  UNL     1     -32.794   6.418   2.051  1.00 20.00     0.165 C 
HETATM    8  O11 UNL     1     -32.231   5.658   1.269  1.00 20.00    -0.292 OA
BRANCH   7   9
HETATM    9  C7  UNL     1     -32.443   7.842   2.009  1.00 20.00     0.065 A 
HETATM   10  C6  UNL     1     -31.022   8.243   1.705  1.00 20.00     0.018 A 
HETATM   11  C8  UNL     1     -32.100   8.477   0.685  1.00 20.00    -0.006 A 
HETATM   12  C9  UNL     1     -32.554   9.862   0.379  1.00 20.00     0.011 C 
ENDBRANCH   7   9
ENDBRANCH   4   7
TORSDOF 2
ENDMDL
MODEL 3
REMARK VINA RESULT:      -0.6      2.349      4.747
REMARK  2 active torsions:
REMARK  status: ('A' for Active; 'I' for Inactive)
REMARK    1  A    between atoms: C4_4  and  C5_5 
REMARK    2  A    between atoms: C5_5  and  C7_7 
ROOT
HETATM    1  C1  UNL     1     -32.740   6.183   1.582  1.00 20.00     0.033 A 
HETATM    2  C2  UNL     1     -31.740   7.000   1.104  1.00 20.00     0.088 A 
HETATM    3  C3  UNL     1     -32.723   8.071   2.808  1.00 20.00     0.102 A 
HETATM    4  C4  UNL     1     -33.362   6.860   2.660  1.00 20.00     0.027 A 
HETATM    5  N10 UNL     1     -31.740   8.146   1.857  1.00 20.00    -0.374 N 
HETATM    6  H22 UNL     1     -31.110   8.926   1.731  1.00 20.00     0.164 HD
ENDROOT
BRANCH   4   7
HETATM    7  C5  UNL     1     -34.477   6.399   3.491  1.00 20.00     0.165 C 
HETATM    8  O11 UNL     1     -35.632   6.802   3.394  1.00 20.00    -0.292 OA
BRANCH   7   9
HETATM    9  C7  UNL     1     -34.180   5.379   4.503  1.00 20.00     0.065 A 
HETATM   10  C6  UNL     1     -35.262   4.415   4.919  1.00 20.00     0.018 A 
HETATM   11  C8  UNL     1     -34.107   3.931   4.089  1.00 20.00    -0.006 A 
HETATM   12  C9  UNL     1     -33.080   3.032   4.687  1.00 20.00     0.011 C 
ENDBRANCH   7   9
ENDBRANCH   4   7
TORSDOF 2
ENDMDL
MODEL 4
REMARK VINA RESULT:      -0.4      2.401      4.791
REMARK  2 active torsions:
REMARK  status: ('A' for Active; 'I' for Inactive)
REMARK    1  A    between atoms: C4_4  and  C5_5 
REMARK    2  A    between atoms: C5_5  and  C7_7 
ROOT
HETATM    1  C1  UNL     1     -32.388   9.194  -0.426  1.00 20.00     0.033 A 
HETATM    2  C2  UNL     1     -32.689  10.532  -0.551  1.00 20.00     0.088 A 
HETATM    3  C3  UNL     1     -32.765  10.031   1.630  1.00 20.00     0.102 A 
HETATM    4  C4  UNL     1     -32.437   8.877   0.954  1.00 20.00     0.027 A 
HETATM    5  N10 UNL     1     -32.917  11.030   0.706  1.00 20.00    -0.374 N 
HETATM    6  H22 UNL     1     -33.159  11.988   0.918  1.00 20.00     0.164 HD
ENDROOT
BRANCH   4   7
HETATM    7  C5  UNL     1     -32.190   7.580   1.589  1.00 20.00     0.165 C 
HETATM    8  O11 UNL     1     -31.077   7.130   1.845  1.00 20.00    -0.292 OA
BRANCH   7   9
HETATM    9  C7  UNL     1     -33.364   6.774   1.944  1.00 20.00     0.065 A 
HETATM   10  C6  UNL     1     -33.166   5.434   2.606  1.00 20.00     0.018 A 
HETATM   11  C8  UNL     1     -33.714   6.587   3.399  1.00 20.00    -0.006 A 
HETATM   12  C9  UNL     1     -35.141   6.587   3.831  1.00 20.00     0.011 C 
ENDBRANCH   7   9
ENDBRANCH   4   7
TORSDOF 2
ENDMDL
MODEL 5
REMARK VINA RESULT:      -0.3      1.291      1.899
REMARK  2 active torsions:
REMARK  status: ('A' for Active; 'I' for Inactive)
REMARK    1  A    between atoms: C4_4  and  C5_5 
REMARK    2  A    between atoms: C5_5  and  C7_7 
ROOT
HETATM    1  C1  UNL     1     -34.174   7.458   3.712  1.00 20.00     0.033 A 
HETATM    2  C2  UNL     1     -34.805   6.346   4.225  1.00 20.00     0.088 A 
HETATM    3  C3  UNL     1     -33.369   5.637   2.659  1.00 20.00     0.102 A 
HETATM    4  C4  UNL     1     -33.265   7.009   2.721  1.00 20.00     0.027 A 
HETATM    5  N10 UNL     1     -34.308   5.245   3.576  1.00 20.00    -0.374 N 
HETATM    6  H22 UNL     1     -34.590   4.290   3.750  1.00 20.00     0.164 HD
ENDROOT
BRANCH   4   7
HETATM    7  C5  UNL     1     -32.364   7.815   1.895  1.00 20.00     0.165 C 
HETATM    8  O11 UNL     1     -31.151   7.648   1.820  1.00 20.00    -0.292 OA
BRANCH   7   9
HETATM    9  C7  UNL     1     -32.967   8.892   1.100  1.00 20.00     0.065 A 
HETATM   10  C6  UNL     1     -32.668  10.327   1.454  1.00 20.00     0.018 A 
HETATM   11  C8  UNL     1     -32.087   9.727   0.205  1.00 20.00    -0.006 A 
HETATM   12  C9  UNL     1     -32.578  10.162  -1.133  1.00 20.00     0.011 C 
ENDBRANCH   7   9
ENDBRANCH   4   7
TORSDOF 2
ENDMDL
MODEL 6
REMARK VINA RESULT:      -0.3      2.563      4.902
REMARK  2 active torsions:
REMARK  status: ('A' for Active; 'I' for Inactive)
REMARK    1  A    between atoms: C4_4  and  C5_5 
REMARK    2  A    between atoms: C5_5  and  C7_7 
ROOT
HETATM    1  C1  UNL     1     -32.691  10.187   1.420  1.00 20.00     0.033 A 
HETATM    2  C2  UNL     1     -32.848  11.043   0.353  1.00 20.00     0.088 A 
HETATM    3  C3  UNL     1     -32.409   9.010  -0.479  1.00 20.00     0.102 A 
HETATM    4  C4  UNL     1     -32.412   8.901   0.894  1.00 20.00     0.027 A 
HETATM    5  N10 UNL     1     -32.673  10.316  -0.797  1.00 20.00    -0.374 N 
HETATM    6  H22 UNL     1     -32.732  10.687  -1.735  1.00 20.00     0.164 HD
ENDROOT
BRANCH   4   7
HETATM    7  C5  UNL     1     -32.169   7.659   1.632  1.00 20.00     0.165 C 
HETATM    8  O11 UNL     1     -31.064   7.269   1.995  1.00 20.00    -0.292 OA
BRANCH   7   9
HETATM    9  C7  UNL     1     -33.339   6.835   1.960  1.00 20.00     0.065 A 
HETATM   10  C6  UNL     1     -33.134   5.478   2.585  1.00 20.00     0.018 A 
HETATM   11  C8  UNL     1     -33.694   6.604   3.407  1.00 20.00    -0.006 A 
HETATM   12  C9  UNL     1     -35.121   6.582   3.833  1.00 20.00     0.011 C 
ENDBRANCH   7   9
ENDBRANCH   4   7
TORSDOF 2
ENDMDL
MODEL 7
REMARK VINA RESULT:      -0.1      1.602      1.744
REMARK  2 active torsions:
REMARK  status: ('A' for Active; 'I' for Inactive)
REMARK    1  A    between atoms: C4_4  and  C5_5 
REMARK    2  A    between atoms: C5_5  and  C7_7 
ROOT
HETATM    1  C1  UNL     1     -33.383   5.105   3.625  1.00 20.00     0.033 A 
HETATM    2  C2  UNL     1     -34.219   4.106   4.073  1.00 20.00     0.088 A 
HETATM    3  C3  UNL     1     -35.321   6.045   4.279  1.00 20.00     0.102 A 
HETATM    4  C4  UNL     1     -34.080   6.331   3.755  1.00 20.00     0.027 A 
HETATM    5  N10 UNL     1     -35.394   4.691   4.469  1.00 20.00    -0.374 N 
HETATM    6  H22 UNL     1     -36.193   4.197   4.843  1.00 20.00     0.164 HD
ENDROOT
BRANCH   4   7
HETATM    7  C5  UNL     1     -33.611   7.675   3.410  1.00 20.00     0.165 C 
HETATM    8  O11 UNL     1     -34.136   8.716   3.793  1.00 20.00    -0.292 OA
BRANCH   7   9
HETATM    9  C7  UNL     1     -32.426   7.770   2.550  1.00 20.00     0.065 A 
HETATM   10  C6  UNL     1     -32.284   6.828   1.382  1.00 20.00     0.018 A 
HETATM   11  C8  UNL     1     -32.580   8.280   1.139  1.00 20.00    -0.006 A 
HETATM   12  C9  UNL     1     -31.540   9.168   0.546  1.00 20.00     0.011 C 
ENDBRANCH   7   9
ENDBRANCH   4   7
TORSDOF 2
ENDMDL
MODEL 8
REMARK VINA RESULT:       0.2      2.276      4.682
REMARK  2 active torsions:
REMARK  status: ('A' for Active; 'I' for Inactive)
REMARK    1  A    between atoms: C4_4  and  C5_5 
REMARK    2  A    between atoms: C5_5  and  C7_7 
ROOT
HETATM    1  C1  UNL     1     -32.972   6.479   1.774  1.00 20.00     0.033 A 
HETATM    2  C2  UNL     1     -32.089   7.512   1.554  1.00 20.00     0.088 A 
HETATM    3  C3  UNL     1     -33.002   7.831   3.574  1.00 20.00     0.102 A 
HETATM    4  C4  UNL     1     -33.550   6.681   3.052  1.00 20.00     0.027 A 
HETATM    5  N10 UNL     1     -32.116   8.329   2.655  1.00 20.00    -0.374 N 
HETATM    6  H22 UNL     1     -31.566   9.169   2.771  1.00 20.00     0.164 HD
ENDROOT
BRANCH   4   7
HETATM    7  C5  UNL     1     -34.545   5.849   3.733  1.00 20.00     0.165 C 
HETATM    8  O11 UNL     1     -35.572   6.275   4.251  1.00 20.00    -0.292 OA
BRANCH   7   9
HETATM    9  C7  UNL     1     -34.287   4.405   3.787  1.00 20.00     0.065 A 
HETATM   10  C6  UNL     1     -33.128   3.833   3.012  1.00 20.00     0.018 A 
HETATM   11  C8  UNL     1     -33.063   3.903   4.511  1.00 20.00    -0.006 A 
HETATM   12  C9  UNL     1     -33.132   2.656   5.323  1.00 20.00     0.011 C 
ENDBRANCH   7   9
ENDBRANCH   4   7
TORSDOF 2
ENDMDL
MODEL 9
REMARK VINA RESULT:       0.3      2.467      4.812
REMARK  2 active torsions:
REMARK  status: ('A' for Active; 'I' for Inactive)
REMARK    1  A    between atoms: C4_4  and  C5_5 
REMARK    2  A    between atoms: C5_5  and  C7_7 
ROOT
HETATM    1  C1  UNL     1     -33.066   9.420   1.547  1.00 20.00     0.033 A 
HETATM    2  C2  UNL     1     -32.216   9.617   0.482  1.00 20.00     0.088 A 
HETATM    3  C3  UNL     1     -31.537   7.768   1.548  1.00 20.00     0.102 A 
HETATM    4  C4  UNL     1     -32.637   8.251   2.222  1.00 20.00     0.027 A 
HETATM    5  N10 UNL     1     -31.289   8.606   0.493  1.00 20.00    -0.374 N 
HETATM    6  H22 UNL     1     -30.539   8.495  -0.175  1.00 20.00     0.164 HD
ENDROOT
BRANCH   4   7
HETATM    7  C5  UNL     1     -33.221   7.632   3.414  1.00 20.00     0.165 C 
HETATM    8  O11 UNL     1     -33.127   8.084   4.551  1.00 20.00    -0.292 OA
BRANCH   7   9
HETATM    9  C7  UNL     1     -33.975   6.388   3.222  1.00 20.00     0.065 A 
HETATM   10  C6  UNL     1     -33.610   5.472   2.082  1.00 20.00     0.018 A 
HETATM   11  C8  UNL     1     -33.298   5.068   3.495  1.00 20.00    -0.006 A 
HETATM   12  C9  UNL     1     -34.054   3.958   4.140  1.00 20.00     0.011 C 
ENDBRANCH   7   9
ENDBRANCH   4   7
TORSDOF 2
ENDMDL
