MODEL 1
REMARK VINA RESULT:      -1.4      0.000      0.000
REMARK  3 active torsions:
REMARK  status: ('A' for Active; 'I' for Inactive)
REMARK    1  A    between atoms: C4_4  and  C8_8 
REMARK    2  A    between atoms: C7_7  and  N10_10 
REMARK    3  A    between atoms: C8_8  and  N10_10 
ROOT
HETATM    1  C1  UNL     1     -33.580   3.843   4.120  1.00 20.00     0.089 C 
HETATM    2  C7  UNL     1     -33.852   4.970   3.229  1.00 20.00     0.394 C 
HETATM    3  N9  UNL     1     -33.363   2.947   4.824  1.00 20.00    -0.195 NA
ENDROOT
BRANCH   2   4
HETATM    4  N10 UNL     1     -34.231   6.167   3.997  1.00 20.00     0.097 N 
HETATM    5  C6  UNL     1     -35.628   6.518   3.698  1.00 20.00     0.311 C 
BRANCH   4   6
HETATM    6  C8  UNL     1     -33.346   7.266   3.725  1.00 20.00     0.278 C 
BRANCH   6   7
HETATM    7  C4  UNL     1     -33.165   7.462   2.261  1.00 20.00     0.018 A 
HETATM    8  C2  UNL     1     -31.963   6.882   1.561  1.00 20.00     0.011 A 
HETATM    9  C3  UNL     1     -32.078   8.373   1.749  1.00 20.00    -0.012 A 
HETATM   10  C5  UNL     1     -32.333   9.257   0.578  1.00 20.00     0.010 C 
ENDBRANCH   6   7
ENDBRANCH   4   6
ENDBRANCH   2   4
TORSDOF 3
ENDMDL
MODEL 2
REMARK VINA RESULT:      -1.2      2.149      4.937
REMARK  3 active torsions:
REMARK  status: ('A' for Active; 'I' for Inactive)
REMARK    1  A    between atoms: C4_4  and  C8_8 
REMARK    2  A    between atoms: C7_7  and  N10_10 
REMARK    3  A    between atoms: C8_8  and  N10_10 
ROOT
HETATM    1  C1  UNL     1     -32.167   9.193   0.723  1.00 20.00     0.089 C 
HETATM    2  C7  UNL     1     -31.496   8.630   1.894  1.00 20.00     0.394 C 
HETATM    3  N9  UNL     1     -32.697   9.642  -0.206  1.00 20.00    -0.195 NA
ENDROOT
BRANCH   2   4
HETATM    4  N10 UNL     1     -32.124   7.363   2.300  1.00 20.00     0.097 N 
HETATM    5  C6  UNL     1     -32.276   6.493   1.124  1.00 20.00     0.311 C 
BRANCH   4   6
HETATM    6  C8  UNL     1     -33.384   7.588   2.952  1.00 20.00     0.278 C 
BRANCH   6   7
HETATM    7  C4  UNL     1     -34.184   6.334   3.026  1.00 20.00     0.018 A 
HETATM    8  C2  UNL     1     -35.361   6.240   3.962  1.00 20.00     0.011 A 
HETATM    9  C3  UNL     1     -34.105   5.459   4.250  1.00 20.00    -0.012 A 
HETATM   10  C5  UNL     1     -34.099   3.976   4.110  1.00 20.00     0.010 C 
ENDBRANCH   6   7
ENDBRANCH   4   6
ENDBRANCH   2   4
TORSDOF 3
ENDMDL
MODEL 3
REMARK VINA RESULT:      -1.1      1.560      2.325
REMARK  3 active torsions:
REMARK  status: ('A' for Active; 'I' for Inactive)
REMARK    1  A    between atoms: C4_4  and  C8_8 
REMARK    2  A    between atoms: C7_7  and  N10_10 
REMARK    3  A    between atoms: C8_8  and  N10_10 
ROOT
HETATM    1  C1  UNL     1     -34.810   5.958   4.136  1.00 20.00     0.089 C 
HETATM    2  C7  UNL     1     -34.096   7.165   3.723  1.00 20.00     0.394 C 
HETATM    3  N9  UNL     1     -35.377   5.001   4.468  1.00 20.00    -0.195 NA
ENDROOT
BRANCH   2   4
HETATM    4  N10 UNL     1     -33.462   6.976   2.408  1.00 20.00     0.097 N 
HETATM    5  C6  UNL     1     -33.046   5.572   2.263  1.00 20.00     0.311 C 
BRANCH   4   6
HETATM    6  C8  UNL     1     -32.354   7.872   2.227  1.00 20.00     0.278 C 
BRANCH   6   7
HETATM    7  C4  UNL     1     -32.312   8.402   0.836  1.00 20.00     0.018 A 
HETATM    8  C2  UNL     1     -31.052   9.034   0.303  1.00 20.00     0.011 A 
HETATM    9  C3  UNL     1     -32.258   9.889   0.595  1.00 20.00    -0.012 A 
HETATM   10  C5  UNL     1     -33.033  10.495  -0.523  1.00 20.00     0.010 C 
ENDBRANCH   6   7
ENDBRANCH   4   6
ENDBRANCH   2   4
TORSDOF 3
ENDMDL
MODEL 4
REMARK VINA RESULT:      -0.9      1.066      1.616
REMARK  3 active torsions:
REMARK  status: ('A' for Active; 'I' for Inactive)
REMARK    1  A    between atoms: C4_4  and  C8_8 
REMARK    2  A    between atoms: C7_7  and  N10_10 
REMARK    3  A    between atoms: C8_8  and  N10_10 
ROOT
HETATM    1  C1  UNL     1     -34.130   4.594   4.129  1.00 20.00     0.089 C 
HETATM    2  C7  UNL     1     -34.410   6.008   3.889  1.00 20.00     0.394 C 
HETATM    3  N9  UNL     1     -33.909   3.471   4.323  1.00 20.00    -0.195 NA
ENDROOT
BRANCH   2   4
HETATM    4  N10 UNL     1     -33.875   6.435   2.586  1.00 20.00     0.097 N 
HETATM    5  C6  UNL     1     -33.115   5.330   1.983  1.00 20.00     0.311 C 
BRANCH   4   6
HETATM    6  C8  UNL     1     -33.069   7.618   2.712  1.00 20.00     0.278 C 
BRANCH   6   7
HETATM    7  C4  UNL     1     -32.493   8.020   1.399  1.00 20.00     0.018 A 
HETATM    8  C2  UNL     1     -31.121   8.639   1.331  1.00 20.00     0.011 A 
HETATM    9  C3  UNL     1     -32.341   9.480   1.055  1.00 20.00    -0.012 A 
HETATM   10  C5  UNL     1     -32.624   9.956  -0.327  1.00 20.00     0.010 C 
ENDBRANCH   6   7
ENDBRANCH   4   6
ENDBRANCH   2   4
TORSDOF 3
ENDMDL
MODEL 5
REMARK VINA RESULT:      -0.8      2.523      5.191
REMARK  3 active torsions:
REMARK  status: ('A' for Active; 'I' for Inactive)
REMARK    1  A    between atoms: C4_4  and  C8_8 
REMARK    2  A    between atoms: C7_7  and  N10_10 
REMARK    3  A    between atoms: C8_8  and  N10_10 
ROOT
HETATM    1  C1  UNL     1     -32.343   9.696   0.142  1.00 20.00     0.089 C 
HETATM    2  C7  UNL     1     -31.817   8.409   0.597  1.00 20.00     0.394 C 
HETATM    3  N9  UNL     1     -32.759  10.716  -0.221  1.00 20.00    -0.195 NA
ENDROOT
BRANCH   2   4
HETATM    4  N10 UNL     1     -32.249   8.122   1.973  1.00 20.00     0.097 N 
HETATM    5  C6  UNL     1     -31.144   8.407   2.902  1.00 20.00     0.311 C 
BRANCH   4   6
HETATM    6  C8  UNL     1     -32.708   6.767   2.106  1.00 20.00     0.278 C 
BRANCH   6   7
HETATM    7  C4  UNL     1     -34.044   6.713   2.762  1.00 20.00     0.018 A 
HETATM    8  C2  UNL     1     -34.311   7.524   4.003  1.00 20.00     0.011 A 
HETATM    9  C3  UNL     1     -34.205   6.024   4.093  1.00 20.00    -0.012 A 
HETATM   10  C5  UNL     1     -35.417   5.204   4.368  1.00 20.00     0.010 C 
ENDBRANCH   6   7
ENDBRANCH   4   6
ENDBRANCH   2   4
TORSDOF 3
ENDMDL
MODEL 6
REMARK VINA RESULT:      -0.3      1.820      4.675
REMARK  3 active torsions:
REMARK  status: ('A' for Active; 'I' for Inactive)
REMARK    1  A    between atoms: C4_4  and  C8_8 
REMARK    2  A    between atoms: C7_7  and  N10_10 
REMARK    3  A    between atoms: C8_8  and  N10_10 
ROOT
HETATM    1  C1  UNL     1     -32.368   8.310   1.597  1.00 20.00     0.089 C 
HETATM    2  C7  UNL     1     -32.592   7.202   2.525  1.00 20.00     0.394 C 
HETATM    3  N9  UNL     1     -32.186   9.187   0.860  1.00 20.00    -0.195 NA
ENDROOT
BRANCH   2   4
HETATM    4  N10 UNL     1     -33.763   7.461   3.378  1.00 20.00     0.097 N 
HETATM    5  C6  UNL     1     -33.334   8.167   4.596  1.00 20.00     0.311 C 
BRANCH   4   6
HETATM    6  C8  UNL     1     -34.459   6.245   3.695  1.00 20.00     0.278 C 
BRANCH   6   7
HETATM    7  C4  UNL     1     -33.528   5.083   3.724  1.00 20.00     0.018 A 
HETATM    8  C2  UNL     1     -33.816   3.861   2.892  1.00 20.00     0.011 A 
HETATM    9  C3  UNL     1     -33.944   3.797   4.392  1.00 20.00    -0.012 A 
HETATM   10  C5  UNL     1     -32.961   3.019   5.195  1.00 20.00     0.010 C 
ENDBRANCH   6   7
ENDBRANCH   4   6
ENDBRANCH   2   4
TORSDOF 3
ENDMDL
MODEL 7
REMARK VINA RESULT:      -0.3      2.145      4.459
REMARK  3 active torsions:
REMARK  status: ('A' for Active; 'I' for Inactive)
REMARK    1  A    between atoms: C4_4  and  C8_8 
REMARK    2  A    between atoms: C7_7  and  N10_10 
REMARK    3  A    between atoms: C8_8  and  N10_10 
ROOT
HETATM    1  C1  UNL     1     -32.023   8.326   1.082  1.00 20.00     0.089 C 
HETATM    2  C7  UNL     1     -31.365   7.287   1.873  1.00 20.00     0.394 C 
HETATM    3  N9  UNL     1     -32.543   9.152   0.455  1.00 20.00    -0.195 NA
ENDROOT
BRANCH   2   4
HETATM    4  N10 UNL     1     -32.102   6.016   1.787  1.00 20.00     0.097 N 
HETATM    5  C6  UNL     1     -31.846   5.389   0.481  1.00 20.00     0.311 C 
BRANCH   4   6
HETATM    6  C8  UNL     1     -33.508   6.210   2.008  1.00 20.00     0.278 C 
BRANCH   6   7
HETATM    7  C4  UNL     1     -33.810   6.353   3.459  1.00 20.00     0.018 A 
HETATM    8  C2  UNL     1     -35.235   6.501   3.925  1.00 20.00     0.011 A 
HETATM    9  C3  UNL     1     -34.292   7.673   4.005  1.00 20.00    -0.012 A 
HETATM   10  C5  UNL     1     -33.809   8.156   5.328  1.00 20.00     0.010 C 
ENDBRANCH   6   7
ENDBRANCH   4   6
ENDBRANCH   2   4
TORSDOF 3
ENDMDL
MODEL 8
REMARK VINA RESULT:      -0.3      2.130      3.904
REMARK  3 active torsions:
REMARK  status: ('A' for Active; 'I' for Inactive)
REMARK    1  A    between atoms: C4_4  and  C8_8 
REMARK    2  A    between atoms: C7_7  and  N10_10 
REMARK    3  A    between atoms: C8_8  and  N10_10 
ROOT
HETATM    1  C1  UNL     1     -32.158   5.876   1.208  1.00 20.00     0.089 C 
HETATM    2  C7  UNL     1     -31.574   7.201   1.001  1.00 20.00     0.394 C 
HETATM    3  N9  UNL     1     -32.619   4.824   1.370  1.00 20.00    -0.195 NA
ENDROOT
BRANCH   2   4
HETATM    4  N10 UNL     1     -32.495   8.257   1.449  1.00 20.00     0.097 N 
HETATM    5  C6  UNL     1     -32.195   9.505   0.731  1.00 20.00     0.311 C 
BRANCH   4   6
HETATM    6  C8  UNL     1     -32.429   8.442   2.872  1.00 20.00     0.278 C 
BRANCH   6   7
HETATM    7  C4  UNL     1     -33.747   8.177   3.512  1.00 20.00     0.018 A 
HETATM    8  C2  UNL     1     -33.836   7.956   5.000  1.00 20.00     0.011 A 
HETATM    9  C3  UNL     1     -34.062   6.806   4.054  1.00 20.00    -0.012 A 
HETATM   10  C5  UNL     1     -35.426   6.232   3.887  1.00 20.00     0.010 C 
ENDBRANCH   6   7
ENDBRANCH   4   6
ENDBRANCH   2   4
TORSDOF 3
ENDMDL
MODEL 9
REMARK VINA RESULT:      -0.2      1.275      2.096
REMARK  3 active torsions:
REMARK  status: ('A' for Active; 'I' for Inactive)
REMARK    1  A    between atoms: C4_4  and  C8_8 
REMARK    2  A    between atoms: C7_7  and  N10_10 
REMARK    3  A    between atoms: C8_8  and  N10_10 
ROOT
HETATM    1  C1  UNL     1     -34.516   5.031   4.106  1.00 20.00     0.089 C 
HETATM    2  C7  UNL     1     -34.909   6.437   4.025  1.00 20.00     0.394 C 
HETATM    3  N9  UNL     1     -34.208   3.914   4.170  1.00 20.00    -0.195 NA
ENDROOT
BRANCH   2   4
HETATM    4  N10 UNL     1     -33.739   7.318   4.170  1.00 20.00     0.097 N 
HETATM    5  C6  UNL     1     -34.002   8.313   5.221  1.00 20.00     0.311 C 
BRANCH   4   6
HETATM    6  C8  UNL     1     -33.401   7.950   2.924  1.00 20.00     0.278 C 
BRANCH   6   7
HETATM    7  C4  UNL     1     -32.247   7.272   2.272  1.00 20.00     0.018 A 
HETATM    8  C2  UNL     1     -31.822   7.669   0.882  1.00 20.00     0.011 A 
HETATM    9  C3  UNL     1     -32.478   6.333   1.115  1.00 20.00    -0.012 A 
HETATM   10  C5  UNL     1     -31.682   5.079   0.999  1.00 20.00     0.010 C 
ENDBRANCH   6   7
ENDBRANCH   4   6
ENDBRANCH   2   4
TORSDOF 3
ENDMDL
