MODEL 1
REMARK VINA RESULT:      -0.7      0.000      0.000
REMARK  2 active torsions:
REMARK  status: ('A' for Active; 'I' for Inactive)
REMARK    1  A    between atoms: C6_6  and  C8_8 
REMARK    2  A    between atoms: C8_8  and  N9_9 
ROOT
HETATM    1  C1  UNL     1     -32.274   8.888   1.078  1.00 20.00     0.157 C 
HETATM    2  N9  UNL     1     -32.086   8.053   1.889  1.00 20.00    -0.275 NA
HETATM    3  S10 UNL     1     -32.515  10.025  -0.010  1.00 20.00    -0.055 SA
ENDROOT
BRANCH   2   4
HETATM    4  C8  UNL     1     -32.900   6.855   1.749  1.00 20.00     0.159 C 
BRANCH   4   5
HETATM    5  C6  UNL     1     -33.580   6.580   3.091  1.00 20.00    -0.026 C 
HETATM    6  C4  UNL     1     -33.500   5.094   3.471  1.00 20.00     0.011 C 
HETATM    7  C2  UNL     1     -34.652   4.871   4.447  1.00 20.00     0.001 C 
HETATM    8  C3  UNL     1     -35.679   5.965   4.152  1.00 20.00     0.001 C 
HETATM    9  C5  UNL     1     -35.097   6.799   3.012  1.00 20.00     0.011 C 
HETATM   10  C7  UNL     1     -32.943   7.467   4.174  1.00 20.00     0.017 C 
ENDBRANCH   4   5
ENDBRANCH   2   4
TORSDOF 2
ENDMDL
MODEL 2
REMARK VINA RESULT:      -0.3      0.813      1.819
REMARK  2 active torsions:
REMARK  status: ('A' for Active; 'I' for Inactive)
REMARK    1  A    between atoms: C6_6  and  C8_8 
REMARK    2  A    between atoms: C8_8  and  N9_9 
ROOT
HETATM    1  C1  UNL     1     -32.162   8.927   1.188  1.00 20.00     0.157 C 
HETATM    2  N9  UNL     1     -31.994   8.243   2.133  1.00 20.00    -0.275 NA
HETATM    3  S10 UNL     1     -32.388   9.866  -0.078  1.00 20.00    -0.055 SA
ENDROOT
BRANCH   2   4
HETATM    4  C8  UNL     1     -31.944   6.813   1.865  1.00 20.00     0.159 C 
BRANCH   4   5
HETATM    5  C6  UNL     1     -33.285   6.203   2.278  1.00 20.00    -0.026 C 
HETATM    6  C4  UNL     1     -34.084   7.154   3.181  1.00 20.00     0.011 C 
HETATM    7  C2  UNL     1     -35.043   6.254   3.954  1.00 20.00     0.001 C 
HETATM    8  C3  UNL     1     -34.407   4.863   3.967  1.00 20.00     0.001 C 
HETATM    9  C5  UNL     1     -33.094   4.989   3.197  1.00 20.00     0.011 C 
HETATM   10  C7  UNL     1     -34.082   5.829   1.017  1.00 20.00     0.017 C 
ENDBRANCH   4   5
ENDBRANCH   2   4
TORSDOF 2
ENDMDL
MODEL 3
REMARK VINA RESULT:       0.4      0.814      1.606
REMARK  2 active torsions:
REMARK  status: ('A' for Active; 'I' for Inactive)
REMARK    1  A    between atoms: C6_6  and  C8_8 
REMARK    2  A    between atoms: C8_8  and  N9_9 
ROOT
HETATM    1  C1  UNL     1     -32.122   8.758   0.944  1.00 20.00     0.157 C 
HETATM    2  N9  UNL     1     -31.809   7.842   1.616  1.00 20.00    -0.275 NA
HETATM    3  S10 UNL     1     -32.533  10.005   0.043  1.00 20.00    -0.055 SA
ENDROOT
BRANCH   2   4
HETATM    4  C8  UNL     1     -32.606   6.638   1.438  1.00 20.00     0.159 C 
BRANCH   4   5
HETATM    5  C6  UNL     1     -33.349   6.360   2.747  1.00 20.00    -0.026 C 
HETATM    6  C4  UNL     1     -34.871   6.443   2.559  1.00 20.00     0.011 C 
HETATM    7  C2  UNL     1     -35.427   6.729   3.951  1.00 20.00     0.001 C 
HETATM    8  C3  UNL     1     -34.293   7.387   4.737  1.00 20.00     0.001 C 
HETATM    9  C5  UNL     1     -33.103   7.466   3.782  1.00 20.00     0.011 C 
HETATM   10  C7  UNL     1     -32.928   4.984   3.287  1.00 20.00     0.017 C 
ENDBRANCH   4   5
ENDBRANCH   2   4
TORSDOF 2
ENDMDL
MODEL 4
REMARK VINA RESULT:       0.7      3.416      4.576
REMARK  2 active torsions:
REMARK  status: ('A' for Active; 'I' for Inactive)
REMARK    1  A    between atoms: C6_6  and  C8_8 
REMARK    2  A    between atoms: C8_8  and  N9_9 
ROOT
HETATM    1  C1  UNL     1     -33.712   3.532   4.508  1.00 20.00     0.157 C 
HETATM    2  N9  UNL     1     -34.530   4.112   3.888  1.00 20.00    -0.275 NA
HETATM    3  S10 UNL     1     -32.606   2.736   5.331  1.00 20.00    -0.055 SA
ENDROOT
BRANCH   2   4
HETATM    4  C8  UNL     1     -35.033   5.329   4.507  1.00 20.00     0.159 C 
BRANCH   4   5
HETATM    5  C6  UNL     1     -34.599   6.517   3.647  1.00 20.00    -0.026 C 
HETATM    6  C4  UNL     1     -33.553   6.105   2.602  1.00 20.00     0.011 C 
HETATM    7  C2  UNL     1     -32.815   7.393   2.249  1.00 20.00     0.001 C 
HETATM    8  C3  UNL     1     -32.987   8.325   3.448  1.00 20.00     0.001 C 
HETATM    9  C5  UNL     1     -33.824   7.556   4.469  1.00 20.00     0.011 C 
HETATM   10  C7  UNL     1     -35.837   7.141   2.982  1.00 20.00     0.017 C 
ENDBRANCH   4   5
ENDBRANCH   2   4
TORSDOF 2
ENDMDL
MODEL 5
REMARK VINA RESULT:       1.2      1.542      2.647
REMARK  2 active torsions:
REMARK  status: ('A' for Active; 'I' for Inactive)
REMARK    1  A    between atoms: C6_6  and  C8_8 
REMARK    2  A    between atoms: C8_8  and  N9_9 
ROOT
HETATM    1  C1  UNL     1     -32.167   9.083   0.975  1.00 20.00     0.157 C 
HETATM    2  N9  UNL     1     -31.865   8.234   1.734  1.00 20.00    -0.275 NA
HETATM    3  S10 UNL     1     -32.559  10.233  -0.055  1.00 20.00    -0.055 SA
ENDROOT
BRANCH   2   4
HETATM    4  C8  UNL     1     -32.974   7.594   2.426  1.00 20.00     0.159 C 
BRANCH   4   5
HETATM    5  C6  UNL     1     -33.029   6.129   1.987  1.00 20.00    -0.026 C 
HETATM    6  C4  UNL     1     -31.649   5.619   1.548  1.00 20.00     0.011 C 
HETATM    7  C2  UNL     1     -31.937   4.433   0.632  1.00 20.00     0.001 C 
HETATM    8  C3  UNL     1     -33.348   4.649   0.086  1.00 20.00     0.001 C 
HETATM    9  C5  UNL     1     -33.847   5.955   0.701  1.00 20.00     0.011 C 
HETATM   10  C7  UNL     1     -33.600   5.277   3.132  1.00 20.00     0.017 C 
ENDBRANCH   4   5
ENDBRANCH   2   4
TORSDOF 2
ENDMDL
MODEL 6
REMARK VINA RESULT:       1.2      2.673      4.561
REMARK  2 active torsions:
REMARK  status: ('A' for Active; 'I' for Inactive)
REMARK    1  A    between atoms: C6_6  and  C8_8 
REMARK    2  A    between atoms: C8_8  and  N9_9 
ROOT
HETATM    1  C1  UNL     1     -34.604   6.707   4.029  1.00 20.00     0.157 C 
HETATM    2  N9  UNL     1     -34.104   7.739   3.758  1.00 20.00    -0.275 NA
HETATM    3  S10 UNL     1     -35.295   5.320   4.398  1.00 20.00    -0.055 SA
ENDROOT
BRANCH   2   4
HETATM    4  C8  UNL     1     -32.674   7.689   3.494  1.00 20.00     0.159 C 
BRANCH   4   5
HETATM    5  C6  UNL     1     -32.461   7.844   1.986  1.00 20.00    -0.026 C 
HETATM    6  C4  UNL     1     -30.992   8.135   1.651  1.00 20.00     0.011 C 
HETATM    7  C2  UNL     1     -31.025   8.819   0.287  1.00 20.00     0.001 C 
HETATM    8  C3  UNL     1     -32.415   9.439   0.153  1.00 20.00     0.001 C 
HETATM    9  C5  UNL     1     -33.159   9.099   1.444  1.00 20.00     0.011 C 
HETATM   10  C7  UNL     1     -32.956   6.576   1.271  1.00 20.00     0.017 C 
ENDBRANCH   4   5
ENDBRANCH   2   4
TORSDOF 2
ENDMDL
MODEL 7
REMARK VINA RESULT:       1.3      2.551      4.769
REMARK  2 active torsions:
REMARK  status: ('A' for Active; 'I' for Inactive)
REMARK    1  A    between atoms: C6_6  and  C8_8 
REMARK    2  A    between atoms: C8_8  and  N9_9 
ROOT
HETATM    1  C1  UNL     1     -34.292   6.631   3.692  1.00 20.00     0.157 C 
HETATM    2  N9  UNL     1     -33.520   7.422   3.283  1.00 20.00    -0.275 NA
HETATM    3  S10 UNL     1     -35.339   5.574   4.258  1.00 20.00    -0.055 SA
ENDROOT
BRANCH   2   4
HETATM    4  C8  UNL     1     -32.927   7.104   1.993  1.00 20.00     0.159 C 
BRANCH   4   5
HETATM    5  C6  UNL     1     -32.279   8.374   1.438  1.00 20.00    -0.026 C 
HETATM    6  C4  UNL     1     -33.072   9.629   1.830  1.00 20.00     0.011 C 
HETATM    7  C2  UNL     1     -32.695  10.678   0.788  1.00 20.00     0.001 C 
HETATM    8  C3  UNL     1     -32.236   9.906  -0.449  1.00 20.00     0.001 C 
HETATM    9  C5  UNL     1     -32.355   8.425  -0.094  1.00 20.00     0.011 C 
HETATM   10  C7  UNL     1     -30.825   8.458   1.929  1.00 20.00     0.017 C 
ENDBRANCH   4   5
ENDBRANCH   2   4
TORSDOF 2
ENDMDL
MODEL 8
REMARK VINA RESULT:       1.4      2.816      4.639
REMARK  2 active torsions:
REMARK  status: ('A' for Active; 'I' for Inactive)
REMARK    1  A    between atoms: C6_6  and  C8_8 
REMARK    2  A    between atoms: C8_8  and  N9_9 
ROOT
HETATM    1  C1  UNL     1     -33.758   5.165   3.388  1.00 20.00     0.157 C 
HETATM    2  N9  UNL     1     -33.694   6.089   2.659  1.00 20.00    -0.275 NA
HETATM    3  S10 UNL     1     -33.847   3.906   4.358  1.00 20.00    -0.055 SA
ENDROOT
BRANCH   2   4
HETATM    4  C8  UNL     1     -33.495   7.378   3.305  1.00 20.00     0.159 C 
BRANCH   4   5
HETATM    5  C6  UNL     1     -32.493   8.180   2.471  1.00 20.00    -0.026 C 
HETATM    6  C4  UNL     1     -33.179   9.325   1.712  1.00 20.00     0.011 C 
HETATM    7  C2  UNL     1     -32.252   9.636   0.541  1.00 20.00     0.001 C 
HETATM    8  C3  UNL     1     -31.444   8.364   0.286  1.00 20.00     0.001 C 
HETATM    9  C5  UNL     1     -31.920   7.344   1.318  1.00 20.00     0.011 C 
HETATM   10  C7  UNL     1     -31.378   8.707   3.387  1.00 20.00     0.017 C 
ENDBRANCH   4   5
ENDBRANCH   2   4
TORSDOF 2
ENDMDL
MODEL 9
REMARK VINA RESULT:       1.8      3.225      4.689
REMARK  2 active torsions:
REMARK  status: ('A' for Active; 'I' for Inactive)
REMARK    1  A    between atoms: C6_6  and  C8_8 
REMARK    2  A    between atoms: C8_8  and  N9_9 
ROOT
HETATM    1  C1  UNL     1     -33.681   4.176   3.915  1.00 20.00     0.157 C 
HETATM    2  N9  UNL     1     -33.989   5.181   3.382  1.00 20.00    -0.275 NA
HETATM    3  S10 UNL     1     -33.278   2.821   4.648  1.00 20.00    -0.055 SA
ENDROOT
BRANCH   2   4
HETATM    4  C8  UNL     1     -33.217   5.517   2.195  1.00 20.00     0.159 C 
BRANCH   4   5
HETATM    5  C6  UNL     1     -32.963   7.026   2.202  1.00 20.00    -0.026 C 
HETATM    6  C4  UNL     1     -33.372   7.674   0.871  1.00 20.00     0.011 C 
HETATM    7  C2  UNL     1     -32.565   8.967   0.795  1.00 20.00     0.001 C 
HETATM    8  C3  UNL     1     -31.338   8.758   1.683  1.00 20.00     0.001 C 
HETATM    9  C5  UNL     1     -31.464   7.347   2.256  1.00 20.00     0.011 C 
HETATM   10  C7  UNL     1     -33.714   7.661   3.384  1.00 20.00     0.017 C 
ENDBRANCH   4   5
ENDBRANCH   2   4
TORSDOF 2
ENDMDL
