MODEL 1
REMARK VINA RESULT:      -1.2      0.000      0.000
REMARK  3 active torsions:
REMARK  status: ('A' for Active; 'I' for Inactive)
REMARK    1  A    between atoms: C5_5  and  C6_6 
REMARK    2  A    between atoms: C5_5  and  C7_7 
REMARK    3  A    between atoms: C7_7  and  C8_8 
ROOT
HETATM    1  C1  UNL     1     -33.050   5.784   1.379  1.00 20.00     0.011 C 
HETATM    2  C7  UNL     1     -32.900   6.611   2.668  1.00 20.00    -0.010 C 
ENDROOT
BRANCH   2   3
HETATM    3  C5  UNL     1     -32.469   8.065   2.324  1.00 20.00     0.020 C 
BRANCH   3   4
HETATM    4  C6  UNL     1     -31.839   8.278   0.946  1.00 20.00     0.115 C 
HETATM    5 CL9  UNL     1     -32.403   9.777   0.173  1.00 20.00    -0.130 Cl
ENDBRANCH   3   4
ENDBRANCH   2   3
BRANCH   2   6
HETATM    6  C8  UNL     1     -34.178   6.544   3.594  1.00 20.00    -0.048 C 
HETATM    7  C2  UNL     1     -34.055   7.558   4.754  1.00 20.00     0.015 C 
HETATM    8  C3  UNL     1     -34.393   5.145   4.201  1.00 20.00     0.015 C 
HETATM    9  C4  UNL     1     -35.447   6.926   2.798  1.00 20.00     0.015 C 
ENDBRANCH   2   6
TORSDOF 3
ENDMDL
MODEL 2
REMARK VINA RESULT:      -1.0      2.977      4.537
REMARK  3 active torsions:
REMARK  status: ('A' for Active; 'I' for Inactive)
REMARK    1  A    between atoms: C5_5  and  C6_6 
REMARK    2  A    between atoms: C5_5  and  C7_7 
REMARK    3  A    between atoms: C7_7  and  C8_8 
ROOT
HETATM    1  C1  UNL     1     -34.320   7.252   3.683  1.00 20.00     0.011 C 
HETATM    2  C7  UNL     1     -33.378   6.127   3.219  1.00 20.00    -0.010 C 
ENDROOT
BRANCH   2   3
HETATM    3  C5  UNL     1     -34.104   4.754   3.296  1.00 20.00     0.020 C 
BRANCH   3   4
HETATM    4  C6  UNL     1     -34.163   4.095   4.676  1.00 20.00     0.115 C 
HETATM    5 CL9  UNL     1     -32.998   2.761   4.835  1.00 20.00    -0.130 Cl
ENDBRANCH   3   4
ENDBRANCH   2   3
BRANCH   2   6
HETATM    6  C8  UNL     1     -32.734   6.410   1.805  1.00 20.00    -0.048 C 
HETATM    7  C2  UNL     1     -31.677   5.333   1.470  1.00 20.00     0.015 C 
HETATM    8  C3  UNL     1     -32.052   7.789   1.733  1.00 20.00     0.015 C 
HETATM    9  C4  UNL     1     -33.808   6.344   0.694  1.00 20.00     0.015 C 
ENDBRANCH   2   6
TORSDOF 3
ENDMDL
MODEL 3
REMARK VINA RESULT:      -1.0      2.961      4.509
REMARK  3 active torsions:
REMARK  status: ('A' for Active; 'I' for Inactive)
REMARK    1  A    between atoms: C5_5  and  C6_6 
REMARK    2  A    between atoms: C5_5  and  C7_7 
REMARK    3  A    between atoms: C7_7  and  C8_8 
ROOT
HETATM    1  C1  UNL     1     -34.247   7.310   3.704  1.00 20.00     0.011 C 
HETATM    2  C7  UNL     1     -33.371   6.140   3.219  1.00 20.00    -0.010 C 
ENDROOT
BRANCH   2   3
HETATM    3  C5  UNL     1     -34.162   4.805   3.313  1.00 20.00     0.020 C 
BRANCH   3   4
HETATM    4  C6  UNL     1     -34.192   4.128   4.686  1.00 20.00     0.115 C 
HETATM    5 CL9  UNL     1     -33.018   2.798   4.805  1.00 20.00    -0.130 Cl
ENDBRANCH   3   4
ENDBRANCH   2   3
BRANCH   2   6
HETATM    6  C8  UNL     1     -32.745   6.392   1.792  1.00 20.00    -0.048 C 
HETATM    7  C2  UNL     1     -32.053   7.774   1.744  1.00 20.00     0.015 C 
HETATM    8  C3  UNL     1     -33.799   6.345   0.670  1.00 20.00     0.015 C 
HETATM    9  C4  UNL     1     -31.659   5.337   1.479  1.00 20.00     0.015 C 
ENDBRANCH   2   6
TORSDOF 3
ENDMDL
MODEL 4
REMARK VINA RESULT:      -0.9      2.558      4.096
REMARK  3 active torsions:
REMARK  status: ('A' for Active; 'I' for Inactive)
REMARK    1  A    between atoms: C5_5  and  C6_6 
REMARK    2  A    between atoms: C5_5  and  C7_7 
REMARK    3  A    between atoms: C7_7  and  C8_8 
ROOT
HETATM    1  C1  UNL     1     -33.069   5.647   1.767  1.00 20.00     0.011 C 
HETATM    2  C7  UNL     1     -33.413   7.090   2.175  1.00 20.00    -0.010 C 
ENDROOT
BRANCH   2   3
HETATM    3  C5  UNL     1     -33.950   7.120   3.634  1.00 20.00     0.020 C 
BRANCH   3   4
HETATM    4  C6  UNL     1     -35.250   6.356   3.895  1.00 20.00     0.115 C 
HETATM    5 CL9  UNL     1     -34.954   4.711   4.504  1.00 20.00    -0.130 Cl
ENDBRANCH   3   4
ENDBRANCH   2   3
BRANCH   2   6
HETATM    6  C8  UNL     1     -32.222   8.098   1.931  1.00 20.00    -0.048 C 
HETATM    7  C2  UNL     1     -31.769   8.729   3.268  1.00 20.00     0.015 C 
HETATM    8  C3  UNL     1     -32.604   9.239   0.969  1.00 20.00     0.015 C 
HETATM    9  C4  UNL     1     -30.996   7.361   1.346  1.00 20.00     0.015 C 
ENDBRANCH   2   6
TORSDOF 3
ENDMDL
MODEL 5
REMARK VINA RESULT:      -0.9      2.563      4.061
REMARK  3 active torsions:
REMARK  status: ('A' for Active; 'I' for Inactive)
REMARK    1  A    between atoms: C5_5  and  C6_6 
REMARK    2  A    between atoms: C5_5  and  C7_7 
REMARK    3  A    between atoms: C7_7  and  C8_8 
ROOT
HETATM    1  C1  UNL     1     -33.079   5.655   1.776  1.00 20.00     0.011 C 
HETATM    2  C7  UNL     1     -33.411   7.096   2.201  1.00 20.00    -0.010 C 
ENDROOT
BRANCH   2   3
HETATM    3  C5  UNL     1     -33.955   7.113   3.657  1.00 20.00     0.020 C 
BRANCH   3   4
HETATM    4  C6  UNL     1     -35.258   6.348   3.904  1.00 20.00     0.115 C 
HETATM    5 CL9  UNL     1     -34.967   4.702   4.510  1.00 20.00    -0.130 Cl
ENDBRANCH   3   4
ENDBRANCH   2   3
BRANCH   2   6
HETATM    6  C8  UNL     1     -32.208   8.095   1.976  1.00 20.00    -0.048 C 
HETATM    7  C2  UNL     1     -31.011   7.358   1.331  1.00 20.00     0.015 C 
HETATM    8  C3  UNL     1     -31.723   8.738   3.289  1.00 20.00     0.015 C 
HETATM    9  C4  UNL     1     -32.613   9.226   1.004  1.00 20.00     0.015 C 
ENDBRANCH   2   6
TORSDOF 3
ENDMDL
MODEL 6
REMARK VINA RESULT:      -0.9      2.567      4.092
REMARK  3 active torsions:
REMARK  status: ('A' for Active; 'I' for Inactive)
REMARK    1  A    between atoms: C5_5  and  C6_6 
REMARK    2  A    between atoms: C5_5  and  C7_7 
REMARK    3  A    between atoms: C7_7  and  C8_8 
ROOT
HETATM    1  C1  UNL     1     -33.098   5.637   1.765  1.00 20.00     0.011 C 
HETATM    2  C7  UNL     1     -33.417   7.081   2.191  1.00 20.00    -0.010 C 
ENDROOT
BRANCH   2   3
HETATM    3  C5  UNL     1     -33.949   7.103   3.652  1.00 20.00     0.020 C 
BRANCH   3   4
HETATM    4  C6  UNL     1     -35.261   6.357   3.909  1.00 20.00     0.115 C 
HETATM    5 CL9  UNL     1     -34.990   4.714   4.531  1.00 20.00    -0.130 Cl
ENDBRANCH   3   4
ENDBRANCH   2   3
BRANCH   2   6
HETATM    6  C8  UNL     1     -32.210   8.072   1.955  1.00 20.00    -0.048 C 
HETATM    7  C2  UNL     1     -32.636   9.222   1.014  1.00 20.00     0.015 C 
HETATM    8  C3  UNL     1     -30.987   7.372   1.334  1.00 20.00     0.015 C 
HETATM    9  C4  UNL     1     -31.771   8.723   3.287  1.00 20.00     0.015 C 
ENDBRANCH   2   6
TORSDOF 3
ENDMDL
MODEL 7
REMARK VINA RESULT:      -0.8      1.200      2.555
REMARK  3 active torsions:
REMARK  status: ('A' for Active; 'I' for Inactive)
REMARK    1  A    between atoms: C5_5  and  C6_6 
REMARK    2  A    between atoms: C5_5  and  C7_7 
REMARK    3  A    between atoms: C7_7  and  C8_8 
ROOT
HETATM    1  C1  UNL     1     -33.552   7.586   3.612  1.00 20.00     0.011 C 
HETATM    2  C7  UNL     1     -33.136   7.335   2.151  1.00 20.00    -0.010 C 
ENDROOT
BRANCH   2   3
HETATM    3  C5  UNL     1     -31.856   8.149   1.811  1.00 20.00     0.020 C 
BRANCH   3   4
HETATM    4  C6  UNL     1     -31.857   8.888   0.471  1.00 20.00     0.115 C 
HETATM    5 CL9  UNL     1     -32.729  10.434   0.556  1.00 20.00    -0.130 Cl
ENDBRANCH   3   4
ENDBRANCH   2   3
BRANCH   2   6
HETATM    6  C8  UNL     1     -33.006   5.799   1.806  1.00 20.00    -0.048 C 
HETATM    7  C2  UNL     1     -31.518   5.408   1.652  1.00 20.00     0.015 C 
HETATM    8  C3  UNL     1     -33.737   5.424   0.503  1.00 20.00     0.015 C 
HETATM    9  C4  UNL     1     -33.581   4.933   2.949  1.00 20.00     0.015 C 
ENDBRANCH   2   6
TORSDOF 3
ENDMDL
MODEL 8
REMARK VINA RESULT:      -0.7      1.208      2.399
REMARK  3 active torsions:
REMARK  status: ('A' for Active; 'I' for Inactive)
REMARK    1  A    between atoms: C5_5  and  C6_6 
REMARK    2  A    between atoms: C5_5  and  C7_7 
REMARK    3  A    between atoms: C7_7  and  C8_8 
ROOT
HETATM    1  C1  UNL     1     -33.518   7.603   3.618  1.00 20.00     0.011 C 
HETATM    2  C7  UNL     1     -33.113   7.355   2.154  1.00 20.00    -0.010 C 
ENDROOT
BRANCH   2   3
HETATM    3  C5  UNL     1     -31.834   8.169   1.807  1.00 20.00     0.020 C 
BRANCH   3   4
HETATM    4  C6  UNL     1     -31.814   8.851   0.436  1.00 20.00     0.115 C 
HETATM    5 CL9  UNL     1     -32.662  10.413   0.450  1.00 20.00    -0.130 Cl
ENDBRANCH   3   4
ENDBRANCH   2   3
BRANCH   2   6
HETATM    6  C8  UNL     1     -32.986   5.821   1.803  1.00 20.00    -0.048 C 
HETATM    7  C2  UNL     1     -33.625   4.960   2.918  1.00 20.00     0.015 C 
HETATM    8  C3  UNL     1     -31.522   5.374   1.632  1.00 20.00     0.015 C 
HETATM    9  C4  UNL     1     -33.747   5.496   0.496  1.00 20.00     0.015 C 
ENDBRANCH   2   6
TORSDOF 3
ENDMDL
MODEL 9
REMARK VINA RESULT:      -0.3      1.406      2.263
REMARK  3 active torsions:
REMARK  status: ('A' for Active; 'I' for Inactive)
REMARK    1  A    between atoms: C5_5  and  C6_6 
REMARK    2  A    between atoms: C5_5  and  C7_7 
REMARK    3  A    between atoms: C7_7  and  C8_8 
ROOT
HETATM    1  C1  UNL     1     -33.643   3.982   3.695  1.00 20.00     0.011 C 
HETATM    2  C7  UNL     1     -33.430   5.457   3.309  1.00 20.00    -0.010 C 
ENDROOT
BRANCH   2   3
HETATM    3  C5  UNL     1     -33.196   5.580   1.777  1.00 20.00     0.020 C 
BRANCH   3   4
HETATM    4  C6  UNL     1     -31.936   6.332   1.341  1.00 20.00     0.115 C 
HETATM    5 CL9  UNL     1     -32.030   8.070   1.706  1.00 20.00    -0.130 Cl
ENDBRANCH   3   4
ENDBRANCH   2   3
BRANCH   2   6
HETATM    6  C8  UNL     1     -34.578   6.402   3.840  1.00 20.00    -0.048 C 
HETATM    7  C2  UNL     1     -35.414   6.948   2.659  1.00 20.00     0.015 C 
HETATM    8  C3  UNL     1     -34.032   7.603   4.635  1.00 20.00     0.015 C 
HETATM    9  C4  UNL     1     -35.551   5.620   4.752  1.00 20.00     0.015 C 
ENDBRANCH   2   6
TORSDOF 3
ENDMDL
