MODEL 1
REMARK VINA RESULT:      -1.6      0.000      0.000
REMARK  4 active torsions:
REMARK  status: ('A' for Active; 'I' for Inactive)
REMARK    1  A    between atoms: C8_8  and  C11_11 
REMARK    2  A    between atoms: C9_9  and  C10_10 
REMARK    3  A    between atoms: C10_10  and  C11_11 
REMARK    4  A    between atoms: C11_11  and  O12_12 
ROOT
HETATM    1  C1  UNL     1     -32.955  10.636  -0.042  1.00 20.00     0.012 C 
HETATM    2  C2  UNL     1     -32.350   9.628   0.203  1.00 20.00    -0.117 C 
HETATM    3  C9  UNL     1     -31.609   8.395   0.499  1.00 20.00     0.095 C 
ENDROOT
BRANCH   3   4
HETATM    4  C10 UNL     1     -31.920   7.851   1.897  1.00 20.00     0.044 C 
BRANCH   4   5
HETATM    5  C11 UNL     1     -31.999   6.320   1.960  1.00 20.00     0.123 C 
BRANCH   5   6
HETATM    6  C8  UNL     1     -33.324   5.866   2.565  1.00 20.00     0.018 C 
HETATM    7  C6  UNL     1     -34.041   7.041   3.255  1.00 20.00     0.034 C 
HETATM    8  C4  UNL     1     -35.188   6.606   4.119  1.00 20.00    -0.030 C 
HETATM    9  C3  UNL     1     -35.378   5.337   4.500  1.00 20.00    -0.031 C 
HETATM   10  C5  UNL     1     -34.446   4.222   4.130  1.00 20.00     0.027 C 
HETATM   11  C7  UNL     1     -33.114   4.712   3.555  1.00 20.00     0.011 C 
ENDBRANCH   5   6
BRANCH   5  12
HETATM   12  O12 UNL     1     -31.894   5.790   0.643  1.00 20.00    -0.395 OA
HETATM   13  H28 UNL     1     -31.091   6.171   0.253  1.00 20.00     0.210 HD
ENDBRANCH   5  12
ENDBRANCH   4   5
ENDBRANCH   3   4
TORSDOF 4
ENDMDL
MODEL 2
REMARK VINA RESULT:      -1.1      0.512      1.526
REMARK  4 active torsions:
REMARK  status: ('A' for Active; 'I' for Inactive)
REMARK    1  A    between atoms: C8_8  and  C11_11 
REMARK    2  A    between atoms: C9_9  and  C10_10 
REMARK    3  A    between atoms: C10_10  and  C11_11 
REMARK    4  A    between atoms: C11_11  and  O12_12 
ROOT
HETATM    1  C1  UNL     1     -33.027  10.626  -0.285  1.00 20.00     0.012 C 
HETATM    2  C2  UNL     1     -32.367   9.695   0.089  1.00 20.00    -0.117 C 
HETATM    3  C9  UNL     1     -31.559   8.555   0.543  1.00 20.00     0.095 C 
ENDROOT
BRANCH   3   4
HETATM    4  C10 UNL     1     -32.024   8.017   1.900  1.00 20.00     0.044 C 
BRANCH   4   5
HETATM    5  C11 UNL     1     -32.326   6.514   1.897  1.00 20.00     0.123 C 
BRANCH   5   6
HETATM    6  C8  UNL     1     -33.170   6.123   3.107  1.00 20.00     0.018 C 
HETATM    7  C6  UNL     1     -33.230   4.591   3.260  1.00 20.00     0.034 C 
HETATM    8  C4  UNL     1     -34.274   4.137   4.236  1.00 20.00    -0.030 C 
HETATM    9  C3  UNL     1     -35.251   4.934   4.688  1.00 20.00    -0.031 C 
HETATM   10  C5  UNL     1     -35.421   6.356   4.241  1.00 20.00     0.027 C 
HETATM   11  C7  UNL     1     -34.586   6.706   3.007  1.00 20.00     0.011 C 
ENDBRANCH   5   6
BRANCH   5  12
HETATM   12  O12 UNL     1     -33.046   6.182   0.713  1.00 20.00    -0.395 OA
HETATM   13  H28 UNL     1     -32.868   6.889   0.074  1.00 20.00     0.210 HD
ENDBRANCH   5  12
ENDBRANCH   4   5
ENDBRANCH   3   4
TORSDOF 4
ENDMDL
MODEL 3
REMARK VINA RESULT:      -1.1      2.005      5.214
REMARK  4 active torsions:
REMARK  status: ('A' for Active; 'I' for Inactive)
REMARK    1  A    between atoms: C8_8  and  C11_11 
REMARK    2  A    between atoms: C9_9  and  C10_10 
REMARK    3  A    between atoms: C10_10  and  C11_11 
REMARK    4  A    between atoms: C11_11  and  O12_12 
ROOT
HETATM    1  C1  UNL     1     -32.616   2.716   5.641  1.00 20.00     0.012 C 
HETATM    2  C2  UNL     1     -33.311   3.287   4.845  1.00 20.00    -0.117 C 
HETATM    3  C9  UNL     1     -34.157   3.985   3.868  1.00 20.00     0.095 C 
ENDROOT
BRANCH   3   4
HETATM    4  C10 UNL     1     -35.143   4.948   4.537  1.00 20.00     0.044 C 
BRANCH   4   5
HETATM    5  C11 UNL     1     -34.985   6.406   4.085  1.00 20.00     0.123 C 
BRANCH   5   6
HETATM    6  C8  UNL     1     -33.644   6.619   3.388  1.00 20.00     0.018 C 
HETATM    7  C6  UNL     1     -33.270   8.113   3.369  1.00 20.00     0.034 C 
HETATM    8  C4  UNL     1     -32.127   8.422   2.449  1.00 20.00    -0.030 C 
HETATM    9  C3  UNL     1     -31.685   7.568   1.517  1.00 20.00    -0.031 C 
HETATM   10  C5  UNL     1     -32.307   6.225   1.275  1.00 20.00     0.027 C 
HETATM   11  C7  UNL     1     -33.665   6.055   1.961  1.00 20.00     0.011 C 
ENDBRANCH   5   6
BRANCH   5  12
HETATM   12  O12 UNL     1     -36.029   6.731   3.173  1.00 20.00    -0.395 OA
HETATM   13  H28 UNL     1     -36.862   6.489   3.607  1.00 20.00     0.210 HD
ENDBRANCH   5  12
ENDBRANCH   4   5
ENDBRANCH   3   4
TORSDOF 4
ENDMDL
MODEL 4
REMARK VINA RESULT:      -1.0      1.344      1.981
REMARK  4 active torsions:
REMARK  status: ('A' for Active; 'I' for Inactive)
REMARK    1  A    between atoms: C8_8  and  C11_11 
REMARK    2  A    between atoms: C9_9  and  C10_10 
REMARK    3  A    between atoms: C10_10  and  C11_11 
REMARK    4  A    between atoms: C11_11  and  O12_12 
ROOT
HETATM    1  C1  UNL     1     -33.065  10.587  -0.142  1.00 20.00     0.012 C 
HETATM    2  C2  UNL     1     -32.305   9.695   0.121  1.00 20.00    -0.117 C 
HETATM    3  C9  UNL     1     -31.374   8.605   0.439  1.00 20.00     0.095 C 
ENDROOT
BRANCH   3   4
HETATM    4  C10 UNL     1     -32.012   7.538   1.334  1.00 20.00     0.044 C 
BRANCH   4   5
HETATM    5  C11 UNL     1     -32.589   8.094   2.642  1.00 20.00     0.123 C 
BRANCH   5   6
HETATM    6  C8  UNL     1     -33.229   6.984   3.472  1.00 20.00     0.018 C 
HETATM    7  C6  UNL     1     -33.009   5.611   2.811  1.00 20.00     0.034 C 
HETATM    8  C4  UNL     1     -33.858   4.527   3.407  1.00 20.00    -0.030 C 
HETATM    9  C3  UNL     1     -34.908   4.773   4.202  1.00 20.00    -0.031 C 
HETATM   10  C5  UNL     1     -35.364   6.157   4.553  1.00 20.00     0.027 C 
HETATM   11  C7  UNL     1     -34.727   7.243   3.682  1.00 20.00     0.011 C 
ENDBRANCH   5   6
BRANCH   5  12
HETATM   12  O12 UNL     1     -31.542   8.686   3.403  1.00 20.00    -0.395 OA
HETATM   13  H28 UNL     1     -31.967   9.274   4.048  1.00 20.00     0.210 HD
ENDBRANCH   5  12
ENDBRANCH   4   5
ENDBRANCH   3   4
TORSDOF 4
ENDMDL
MODEL 5
REMARK VINA RESULT:      -0.9      1.316      1.405
REMARK  4 active torsions:
REMARK  status: ('A' for Active; 'I' for Inactive)
REMARK    1  A    between atoms: C8_8  and  C11_11 
REMARK    2  A    between atoms: C9_9  and  C10_10 
REMARK    3  A    between atoms: C10_10  and  C11_11 
REMARK    4  A    between atoms: C11_11  and  O12_12 
ROOT
HETATM    1  C1  UNL     1     -33.117  10.628   0.040  1.00 20.00     0.012 C 
HETATM    2  C2  UNL     1     -32.293   9.763   0.167  1.00 20.00    -0.117 C 
HETATM    3  C9  UNL     1     -31.284   8.706   0.319  1.00 20.00     0.095 C 
ENDROOT
BRANCH   3   4
HETATM    4  C10 UNL     1     -31.776   7.557   1.205  1.00 20.00     0.044 C 
BRANCH   4   5
HETATM    5  C11 UNL     1     -32.705   8.007   2.339  1.00 20.00     0.123 C 
BRANCH   5   6
HETATM    6  C8  UNL     1     -33.674   6.892   2.726  1.00 20.00     0.018 C 
HETATM    7  C6  UNL     1     -34.541   7.315   3.927  1.00 20.00     0.034 C 
HETATM    8  C4  UNL     1     -35.294   6.173   4.540  1.00 20.00    -0.030 C 
HETATM    9  C3  UNL     1     -35.013   4.888   4.285  1.00 20.00    -0.031 C 
HETATM   10  C5  UNL     1     -33.896   4.458   3.383  1.00 20.00     0.027 C 
HETATM   11  C7  UNL     1     -32.925   5.590   3.039  1.00 20.00     0.011 C 
ENDBRANCH   5   6
BRANCH   5  12
HETATM   12  O12 UNL     1     -31.924   8.348   3.480  1.00 20.00    -0.395 OA
HETATM   13  H28 UNL     1     -31.627   7.511   3.873  1.00 20.00     0.210 HD
ENDBRANCH   5  12
ENDBRANCH   4   5
ENDBRANCH   3   4
TORSDOF 4
ENDMDL
MODEL 6
REMARK VINA RESULT:      -0.9      1.933      5.321
REMARK  4 active torsions:
REMARK  status: ('A' for Active; 'I' for Inactive)
REMARK    1  A    between atoms: C8_8  and  C11_11 
REMARK    2  A    between atoms: C9_9  and  C10_10 
REMARK    3  A    between atoms: C10_10  and  C11_11 
REMARK    4  A    between atoms: C11_11  and  O12_12 
ROOT
HETATM    1  C1  UNL     1     -33.345   3.280   4.358  1.00 20.00     0.012 C 
HETATM    2  C2  UNL     1     -34.270   4.022   4.549  1.00 20.00    -0.117 C 
HETATM    3  C9  UNL     1     -35.403   4.927   4.783  1.00 20.00     0.095 C 
ENDROOT
BRANCH   3   4
HETATM    4  C10 UNL     1     -35.324   6.192   3.924  1.00 20.00     0.044 C 
BRANCH   4   5
HETATM    5  C11 UNL     1     -33.994   6.945   4.055  1.00 20.00     0.123 C 
BRANCH   5   6
HETATM    6  C8  UNL     1     -33.418   7.282   2.682  1.00 20.00     0.018 C 
HETATM    7  C6  UNL     1     -32.848   6.022   2.004  1.00 20.00     0.034 C 
HETATM    8  C4  UNL     1     -32.009   6.330   0.800  1.00 20.00    -0.030 C 
HETATM    9  C3  UNL     1     -31.547   7.556   0.523  1.00 20.00    -0.031 C 
HETATM   10  C5  UNL     1     -31.793   8.743   1.404  1.00 20.00     0.027 C 
HETATM   11  C7  UNL     1     -32.340   8.369   2.785  1.00 20.00     0.011 C 
ENDBRANCH   5   6
BRANCH   5  12
HETATM   12  O12 UNL     1     -34.209   8.159   4.769  1.00 20.00    -0.395 OA
HETATM   13  H28 UNL     1     -33.392   8.339   5.260  1.00 20.00     0.210 HD
ENDBRANCH   5  12
ENDBRANCH   4   5
ENDBRANCH   3   4
TORSDOF 4
ENDMDL
MODEL 7
REMARK VINA RESULT:      -0.7      1.957      5.103
REMARK  4 active torsions:
REMARK  status: ('A' for Active; 'I' for Inactive)
REMARK    1  A    between atoms: C8_8  and  C11_11 
REMARK    2  A    between atoms: C9_9  and  C10_10 
REMARK    3  A    between atoms: C10_10  and  C11_11 
REMARK    4  A    between atoms: C11_11  and  O12_12 
ROOT
HETATM    1  C1  UNL     1     -33.347   3.211   4.455  1.00 20.00     0.012 C 
HETATM    2  C2  UNL     1     -34.242   4.002   4.579  1.00 20.00    -0.117 C 
HETATM    3  C9  UNL     1     -35.340   4.967   4.733  1.00 20.00     0.095 C 
ENDROOT
BRANCH   3   4
HETATM    4  C10 UNL     1     -35.216   6.147   3.764  1.00 20.00     0.044 C 
BRANCH   4   5
HETATM    5  C11 UNL     1     -34.113   7.144   4.145  1.00 20.00     0.123 C 
BRANCH   5   6
HETATM    6  C8  UNL     1     -32.946   7.069   3.164  1.00 20.00     0.018 C 
HETATM    7  C6  UNL     1     -32.626   8.461   2.589  1.00 20.00     0.034 C 
HETATM    8  C4  UNL     1     -31.700   8.411   1.409  1.00 20.00    -0.030 C 
HETATM    9  C3  UNL     1     -31.431   7.286   0.736  1.00 20.00    -0.031 C 
HETATM   10  C5  UNL     1     -32.050   5.962   1.071  1.00 20.00     0.027 C 
HETATM   11  C7  UNL     1     -33.238   6.075   2.031  1.00 20.00     0.011 C 
ENDBRANCH   5   6
BRANCH   5  12
HETATM   12  O12 UNL     1     -34.645   8.465   4.120  1.00 20.00    -0.395 OA
HETATM   13  H28 UNL     1     -34.672   8.735   3.189  1.00 20.00     0.210 HD
ENDBRANCH   5  12
ENDBRANCH   4   5
ENDBRANCH   3   4
TORSDOF 4
ENDMDL
MODEL 8
REMARK VINA RESULT:      -0.4      1.720      5.161
REMARK  4 active torsions:
REMARK  status: ('A' for Active; 'I' for Inactive)
REMARK    1  A    between atoms: C8_8  and  C11_11 
REMARK    2  A    between atoms: C9_9  and  C10_10 
REMARK    3  A    between atoms: C10_10  and  C11_11 
REMARK    4  A    between atoms: C11_11  and  O12_12 
ROOT
HETATM    1  C1  UNL     1     -33.814   3.922   4.094  1.00 20.00     0.012 C 
HETATM    2  C2  UNL     1     -34.461   4.933   4.141  1.00 20.00    -0.117 C 
HETATM    3  C9  UNL     1     -35.256   6.167   4.198  1.00 20.00     0.095 C 
ENDROOT
BRANCH   3   4
HETATM    4  C10 UNL     1     -34.586   7.325   3.451  1.00 20.00     0.044 C 
BRANCH   4   5
HETATM    5  C11 UNL     1     -33.079   7.437   3.712  1.00 20.00     0.123 C 
BRANCH   5   6
HETATM    6  C8  UNL     1     -32.389   8.226   2.602  1.00 20.00     0.018 C 
HETATM    7  C6  UNL     1     -33.281   9.386   2.122  1.00 20.00     0.034 C 
HETATM    8  C4  UNL     1     -32.800  10.009   0.845  1.00 20.00    -0.030 C 
HETATM    9  C3  UNL     1     -31.891   9.435   0.046  1.00 20.00    -0.031 C 
HETATM   10  C5  UNL     1     -31.283   8.093   0.329  1.00 20.00     0.027 C 
HETATM   11  C7  UNL     1     -32.016   7.315   1.424  1.00 20.00     0.011 C 
ENDBRANCH   5   6
BRANCH   5  12
HETATM   12  O12 UNL     1     -32.864   8.109   4.949  1.00 20.00    -0.395 OA
HETATM   13  H28 UNL     1     -33.713   8.102   5.418  1.00 20.00     0.210 HD
ENDBRANCH   5  12
ENDBRANCH   4   5
ENDBRANCH   3   4
TORSDOF 4
ENDMDL
MODEL 9
REMARK VINA RESULT:      -0.3      1.689      5.340
REMARK  4 active torsions:
REMARK  status: ('A' for Active; 'I' for Inactive)
REMARK    1  A    between atoms: C8_8  and  C11_11 
REMARK    2  A    between atoms: C9_9  and  C10_10 
REMARK    3  A    between atoms: C10_10  and  C11_11 
REMARK    4  A    between atoms: C11_11  and  O12_12 
ROOT
HETATM    1  C1  UNL     1     -33.912   3.952   4.365  1.00 20.00     0.012 C 
HETATM    2  C2  UNL     1     -34.510   4.955   4.084  1.00 20.00    -0.117 C 
HETATM    3  C9  UNL     1     -35.243   6.180   3.737  1.00 20.00     0.095 C 
ENDROOT
BRANCH   3   4
HETATM    4  C10 UNL     1     -34.495   7.446   4.164  1.00 20.00     0.044 C 
BRANCH   4   5
HETATM    5  C11 UNL     1     -33.036   7.490   3.690  1.00 20.00     0.123 C 
BRANCH   5   6
HETATM    6  C8  UNL     1     -32.940   8.029   2.265  1.00 20.00     0.018 C 
HETATM    7  C6  UNL     1     -31.691   7.475   1.555  1.00 20.00     0.034 C 
HETATM    8  C4  UNL     1     -31.377   8.189   0.274  1.00 20.00    -0.030 C 
HETATM    9  C3  UNL     1     -31.920   9.366  -0.061  1.00 20.00    -0.031 C 
HETATM   10  C5  UNL     1     -32.877  10.109   0.824  1.00 20.00     0.027 C 
HETATM   11  C7  UNL     1     -32.926   9.564   2.254  1.00 20.00     0.011 C 
ENDBRANCH   5   6
BRANCH   5  12
HETATM   12  O12 UNL     1     -32.288   8.343   4.551  1.00 20.00    -0.395 OA
HETATM   13  H28 UNL     1     -31.876   9.015   3.986  1.00 20.00     0.210 HD
ENDBRANCH   5  12
ENDBRANCH   4   5
ENDBRANCH   3   4
TORSDOF 4
ENDMDL
