MODEL 1
REMARK VINA RESULT:      -1.2      0.000      0.000
REMARK  3 active torsions:
REMARK  status: ('A' for Active; 'I' for Inactive)
REMARK    1  A    between atoms: C4_4  and  C8_8 
REMARK    2  A    between atoms: C8_8  and  N11_11 
REMARK    3  A    between atoms: C9_9  and  N11_11 
ROOT
HETATM    1  C1  UNL     1     -33.884   4.652   3.897  1.00 20.00     0.095 C 
HETATM    2  C6  UNL     1     -35.389   6.605   3.860  1.00 20.00     0.059 C 
HETATM    3  C9  UNL     1     -33.960   6.104   3.691  1.00 20.00     0.324 C 
HETATM    4  N10 UNL     1     -33.823   3.505   4.061  1.00 20.00    -0.195 NA
ENDROOT
BRANCH   3   5
HETATM    5  N11 UNL     1     -33.442   6.449   2.358  1.00 20.00     0.102 N 
HETATM    6  C7  UNL     1     -32.628   5.336   1.846  1.00 20.00     0.311 C 
BRANCH   5   7
HETATM    7  C8  UNL     1     -32.691   7.675   2.389  1.00 20.00     0.278 C 
BRANCH   7   8
HETATM    8  C4  UNL     1     -32.412   8.171   1.012  1.00 20.00     0.018 A 
HETATM    9  C2  UNL     1     -31.079   8.789   0.688  1.00 20.00     0.011 A 
HETATM   10  C3  UNL     1     -32.312   9.651   0.748  1.00 20.00    -0.012 A 
HETATM   11  C5  UNL     1     -32.885  10.228  -0.500  1.00 20.00     0.010 C 
ENDBRANCH   7   8
ENDBRANCH   5   7
ENDBRANCH   3   5
TORSDOF 3
ENDMDL
MODEL 2
REMARK VINA RESULT:      -0.8      1.249      1.414
REMARK  3 active torsions:
REMARK  status: ('A' for Active; 'I' for Inactive)
REMARK    1  A    between atoms: C4_4  and  C8_8 
REMARK    2  A    between atoms: C8_8  and  N11_11 
REMARK    3  A    between atoms: C9_9  and  N11_11 
ROOT
HETATM    1  C1  UNL     1     -34.730   6.232   3.931  1.00 20.00     0.095 C 
HETATM    2  C6  UNL     1     -33.449   8.305   4.306  1.00 20.00     0.059 C 
HETATM    3  C9  UNL     1     -33.447   6.907   3.702  1.00 20.00     0.324 C 
HETATM    4  N10 UNL     1     -35.745   5.698   4.113  1.00 20.00    -0.195 NA
ENDROOT
BRANCH   3   5
HETATM    5  N11 UNL     1     -33.160   6.963   2.260  1.00 20.00     0.102 N 
HETATM    6  C7  UNL     1     -32.847   5.613   1.769  1.00 20.00     0.311 C 
BRANCH   5   7
HETATM    7  C8  UNL     1     -32.094   7.884   1.973  1.00 20.00     0.278 C 
BRANCH   7   8
HETATM    8  C4  UNL     1     -32.266   8.505   0.630  1.00 20.00     0.018 A 
HETATM    9  C2  UNL     1     -31.091   9.141  -0.064  1.00 20.00     0.011 A 
HETATM   10  C3  UNL     1     -32.201  10.003   0.476  1.00 20.00    -0.012 A 
HETATM   11  C5  UNL     1     -33.131  10.699  -0.457  1.00 20.00     0.010 C 
ENDBRANCH   7   8
ENDBRANCH   5   7
ENDBRANCH   3   5
TORSDOF 3
ENDMDL
MODEL 3
REMARK VINA RESULT:      -0.4      1.266      1.800
REMARK  3 active torsions:
REMARK  status: ('A' for Active; 'I' for Inactive)
REMARK    1  A    between atoms: C4_4  and  C8_8 
REMARK    2  A    between atoms: C8_8  and  N11_11 
REMARK    3  A    between atoms: C9_9  and  N11_11 
ROOT
HETATM    1  C1  UNL     1     -33.944   7.244   3.975  1.00 20.00     0.095 C 
HETATM    2  C6  UNL     1     -33.850   4.802   3.650  1.00 20.00     0.059 C 
HETATM    3  C9  UNL     1     -34.116   6.156   3.005  1.00 20.00     0.324 C 
HETATM    4  N10 UNL     1     -33.810   8.105   4.743  1.00 20.00    -0.195 NA
ENDROOT
BRANCH   3   5
HETATM    5  N11 UNL     1     -33.226   6.367   1.852  1.00 20.00     0.102 N 
HETATM    6  C7  UNL     1     -32.355   5.194   1.684  1.00 20.00     0.311 C 
BRANCH   5   7
HETATM    7  C8  UNL     1     -32.458   7.573   1.998  1.00 20.00     0.278 C 
BRANCH   7   8
HETATM    8  C4  UNL     1     -32.349   8.302   0.703  1.00 20.00     0.018 A 
HETATM    9  C2  UNL     1     -31.064   8.991   0.328  1.00 20.00     0.011 A 
HETATM   10  C3  UNL     1     -32.276   9.808   0.688  1.00 20.00    -0.012 A 
HETATM   11  C5  UNL     1     -32.997  10.580  -0.362  1.00 20.00     0.010 C 
ENDBRANCH   7   8
ENDBRANCH   5   7
ENDBRANCH   3   5
TORSDOF 3
ENDMDL
MODEL 4
REMARK VINA RESULT:      -0.1      1.073      1.838
REMARK  3 active torsions:
REMARK  status: ('A' for Active; 'I' for Inactive)
REMARK    1  A    between atoms: C4_4  and  C8_8 
REMARK    2  A    between atoms: C8_8  and  N11_11 
REMARK    3  A    between atoms: C9_9  and  N11_11 
ROOT
HETATM    1  C1  UNL     1     -33.851   5.004   3.330  1.00 20.00     0.095 C 
HETATM    2  C6  UNL     1     -32.362   5.387   1.401  1.00 20.00     0.059 C 
HETATM    3  C9  UNL     1     -33.373   6.000   2.362  1.00 20.00     0.324 C 
HETATM    4  N10 UNL     1     -34.229   4.216   4.094  1.00 20.00    -0.195 NA
ENDROOT
BRANCH   3   5
HETATM    5  N11 UNL     1     -32.788   7.148   3.071  1.00 20.00     0.102 N 
HETATM    6  C7  UNL     1     -33.865   8.016   3.571  1.00 20.00     0.311 C 
BRANCH   5   7
HETATM    7  C8  UNL     1     -31.879   7.876   2.229  1.00 20.00     0.278 C 
BRANCH   7   8
HETATM    8  C4  UNL     1     -32.606   8.595   1.146  1.00 20.00     0.018 A 
HETATM    9  C2  UNL     1     -31.980   8.742  -0.216  1.00 20.00     0.011 A 
HETATM   10  C3  UNL     1     -32.124   9.944   0.678  1.00 20.00    -0.012 A 
HETATM   11  C5  UNL     1     -33.105  11.014   0.344  1.00 20.00     0.010 C 
ENDBRANCH   7   8
ENDBRANCH   5   7
ENDBRANCH   3   5
TORSDOF 3
ENDMDL
MODEL 5
REMARK VINA RESULT:      -0.0      1.398      1.980
REMARK  3 active torsions:
REMARK  status: ('A' for Active; 'I' for Inactive)
REMARK    1  A    between atoms: C4_4  and  C8_8 
REMARK    2  A    between atoms: C8_8  and  N11_11 
REMARK    3  A    between atoms: C9_9  and  N11_11 
ROOT
HETATM    1  C1  UNL     1     -33.899   7.968   4.618  1.00 20.00     0.095 C 
HETATM    2  C6  UNL     1     -35.346   6.015   4.205  1.00 20.00     0.059 C 
HETATM    3  C9  UNL     1     -34.612   7.199   3.590  1.00 20.00     0.324 C 
HETATM    4  N10 UNL     1     -33.337   8.576   5.431  1.00 20.00    -0.195 NA
ENDROOT
BRANCH   3   5
HETATM    5  N11 UNL     1     -33.667   6.747   2.557  1.00 20.00     0.102 N 
HETATM    6  C7  UNL     1     -33.292   5.349   2.814  1.00 20.00     0.311 C 
BRANCH   5   7
HETATM    7  C8  UNL     1     -32.509   7.597   2.498  1.00 20.00     0.278 C 
BRANCH   7   8
HETATM    8  C4  UNL     1     -32.296   8.122   1.120  1.00 20.00     0.018 A 
HETATM    9  C2  UNL     1     -31.011   8.823   0.769  1.00 20.00     0.011 A 
HETATM   10  C3  UNL     1     -32.291   9.608   0.870  1.00 20.00    -0.012 A 
HETATM   11  C5  UNL     1     -32.930  10.160  -0.358  1.00 20.00     0.010 C 
ENDBRANCH   7   8
ENDBRANCH   5   7
ENDBRANCH   3   5
TORSDOF 3
ENDMDL
MODEL 6
REMARK VINA RESULT:       0.3      1.896      5.388
REMARK  3 active torsions:
REMARK  status: ('A' for Active; 'I' for Inactive)
REMARK    1  A    between atoms: C4_4  and  C8_8 
REMARK    2  A    between atoms: C8_8  and  N11_11 
REMARK    3  A    between atoms: C9_9  and  N11_11 
ROOT
HETATM    1  C1  UNL     1     -32.352   7.626   1.870  1.00 20.00     0.095 C 
HETATM    2  C6  UNL     1     -33.138   5.416   1.112  1.00 20.00     0.059 C 
HETATM    3  C9  UNL     1     -32.885   6.329   2.304  1.00 20.00     0.324 C 
HETATM    4  N10 UNL     1     -31.928   8.651   1.527  1.00 20.00    -0.195 NA
ENDROOT
BRANCH   3   5
HETATM    5  N11 UNL     1     -34.120   6.529   3.079  1.00 20.00     0.102 N 
HETATM    6  C7  UNL     1     -33.897   7.566   4.097  1.00 20.00     0.311 C 
BRANCH   5   7
HETATM    7  C8  UNL     1     -34.570   5.300   3.673  1.00 20.00     0.278 C 
BRANCH   7   8
HETATM    8  C4  UNL     1     -33.419   4.451   4.092  1.00 20.00     0.018 A 
HETATM    9  C2  UNL     1     -33.411   2.979   3.777  1.00 20.00     0.011 A 
HETATM   10  C3  UNL     1     -33.587   3.442   5.199  1.00 20.00    -0.012 A 
HETATM   11  C5  UNL     1     -32.498   3.236   6.194  1.00 20.00     0.010 C 
ENDBRANCH   7   8
ENDBRANCH   5   7
ENDBRANCH   3   5
TORSDOF 3
ENDMDL
MODEL 7
REMARK VINA RESULT:       0.4      2.094      5.388
REMARK  3 active torsions:
REMARK  status: ('A' for Active; 'I' for Inactive)
REMARK    1  A    between atoms: C4_4  and  C8_8 
REMARK    2  A    between atoms: C8_8  and  N11_11 
REMARK    3  A    between atoms: C9_9  and  N11_11 
ROOT
HETATM    1  C1  UNL     1     -32.737   7.562   2.436  1.00 20.00     0.095 C 
HETATM    2  C6  UNL     1     -33.543   7.794   4.754  1.00 20.00     0.059 C 
HETATM    3  C9  UNL     1     -33.901   7.425   3.321  1.00 20.00     0.324 C 
HETATM    4  N10 UNL     1     -31.817   7.673   1.736  1.00 20.00    -0.195 NA
ENDROOT
BRANCH   3   5
HETATM    5  N11 UNL     1     -34.424   6.052   3.251  1.00 20.00     0.102 N 
HETATM    6  C7  UNL     1     -35.454   5.867   4.285  1.00 20.00     0.311 C 
BRANCH   5   7
HETATM    7  C8  UNL     1     -33.371   5.083   3.382  1.00 20.00     0.278 C 
BRANCH   7   8
HETATM    8  C4  UNL     1     -33.798   3.935   4.231  1.00 20.00     0.018 A 
HETATM    9  C2  UNL     1     -33.156   3.708   5.574  1.00 20.00     0.011 A 
HETATM   10  C3  UNL     1     -32.873   2.763   4.436  1.00 20.00    -0.012 A 
HETATM   11  C5  UNL     1     -33.419   1.377   4.462  1.00 20.00     0.010 C 
ENDBRANCH   7   8
ENDBRANCH   5   7
ENDBRANCH   3   5
TORSDOF 3
ENDMDL
MODEL 8
REMARK VINA RESULT:       0.4      1.520      2.664
REMARK  3 active torsions:
REMARK  status: ('A' for Active; 'I' for Inactive)
REMARK    1  A    between atoms: C4_4  and  C8_8 
REMARK    2  A    between atoms: C8_8  and  N11_11 
REMARK    3  A    between atoms: C9_9  and  N11_11 
ROOT
HETATM    1  C1  UNL     1     -34.465   4.995   4.212  1.00 20.00     0.095 C 
HETATM    2  C6  UNL     1     -35.828   6.754   3.150  1.00 20.00     0.059 C 
HETATM    3  C9  UNL     1     -34.891   6.397   4.297  1.00 20.00     0.324 C 
HETATM    4  N10 UNL     1     -34.130   3.885   4.146  1.00 20.00    -0.195 NA
ENDROOT
BRANCH   3   5
HETATM    5  N11 UNL     1     -33.714   7.279   4.301  1.00 20.00     0.102 N 
HETATM    6  C7  UNL     1     -33.885   8.320   5.326  1.00 20.00     0.311 C 
BRANCH   5   7
HETATM    7  C8  UNL     1     -33.485   7.855   3.004  1.00 20.00     0.278 C 
BRANCH   7   8
HETATM    8  C4  UNL     1     -32.317   7.222   2.332  1.00 20.00     0.018 A 
HETATM    9  C2  UNL     1     -31.932   7.634   0.936  1.00 20.00     0.011 A 
HETATM   10  C3  UNL     1     -32.530   6.274   1.179  1.00 20.00    -0.012 A 
HETATM   11  C5  UNL     1     -31.688   5.052   1.051  1.00 20.00     0.010 C 
ENDBRANCH   7   8
ENDBRANCH   5   7
ENDBRANCH   3   5
TORSDOF 3
ENDMDL
MODEL 9
REMARK VINA RESULT:       0.4      1.202      1.706
REMARK  3 active torsions:
REMARK  status: ('A' for Active; 'I' for Inactive)
REMARK    1  A    between atoms: C4_4  and  C8_8 
REMARK    2  A    between atoms: C8_8  and  N11_11 
REMARK    3  A    between atoms: C9_9  and  N11_11 
ROOT
HETATM    1  C1  UNL     1     -34.242   4.664   4.205  1.00 20.00     0.095 C 
HETATM    2  C6  UNL     1     -35.951   6.279   3.465  1.00 20.00     0.059 C 
HETATM    3  C9  UNL     1     -34.698   6.056   4.301  1.00 20.00     0.324 C 
HETATM    4  N10 UNL     1     -33.883   3.562   4.130  1.00 20.00    -0.195 NA
ENDROOT
BRANCH   3   5
HETATM    5  N11 UNL     1     -33.621   6.966   3.878  1.00 20.00     0.102 N 
HETATM    6  C7  UNL     1     -33.534   8.092   4.819  1.00 20.00     0.311 C 
BRANCH   5   7
HETATM    7  C8  UNL     1     -33.821   7.424   2.531  1.00 20.00     0.278 C 
BRANCH   7   8
HETATM    8  C4  UNL     1     -32.526   7.547   1.805  1.00 20.00     0.018 A 
HETATM    9  C2  UNL     1     -31.410   8.373   2.386  1.00 20.00     0.011 A 
HETATM   10  C3  UNL     1     -32.142   8.854   1.161  1.00 20.00    -0.012 A 
HETATM   11  C5  UNL     1     -31.460   8.862  -0.164  1.00 20.00     0.010 C 
ENDBRANCH   7   8
ENDBRANCH   5   7
ENDBRANCH   3   5
TORSDOF 3
ENDMDL
