MODEL 1
REMARK VINA RESULT:      -1.7      0.000      0.000
REMARK  3 active torsions:
REMARK  status: ('A' for Active; 'I' for Inactive)
REMARK    1  A    between atoms: C4_4  and  C8_8 
REMARK    2  A    between atoms: C7_7  and  N10_10 
REMARK    3  A    between atoms: C8_8  and  N10_10 
ROOT
HETATM    1  C1  UNL     1     -33.773   3.874   4.241  1.00 20.00     0.089 C 
HETATM    2  C7  UNL     1     -34.508   4.982   3.633  1.00 20.00     0.394 C 
HETATM    3  N9  UNL     1     -33.193   2.992   4.724  1.00 20.00    -0.195 NA
ENDROOT
BRANCH   2   4
HETATM    4  N10 UNL     1     -33.683   6.200   3.596  1.00 20.00     0.097 N 
HETATM    5  C6  UNL     1     -34.463   7.335   4.116  1.00 20.00     0.311 C 
BRANCH   4   6
HETATM    6  C8  UNL     1     -33.198   6.463   2.269  1.00 20.00     0.278 C 
BRANCH   6   7
HETATM    7  C4  UNL     1     -32.755   7.879   2.129  1.00 20.00     0.018 A 
HETATM    8  C2  UNL     1     -31.287   8.214   2.105  1.00 20.00     0.011 A 
HETATM    9  C3  UNL     1     -32.110   8.347   0.851  1.00 20.00    -0.012 A 
HETATM   10  C5  UNL     1     -32.427   9.696   0.304  1.00 20.00     0.010 C 
ENDBRANCH   6   7
ENDBRANCH   4   6
ENDBRANCH   2   4
TORSDOF 3
ENDMDL
MODEL 2
REMARK VINA RESULT:      -1.6      2.351      5.041
REMARK  3 active torsions:
REMARK  status: ('A' for Active; 'I' for Inactive)
REMARK    1  A    between atoms: C4_4  and  C8_8 
REMARK    2  A    between atoms: C7_7  and  N10_10 
REMARK    3  A    between atoms: C8_8  and  N10_10 
ROOT
HETATM    1  C1  UNL     1     -32.262   9.587   0.396  1.00 20.00     0.089 C 
HETATM    2  C7  UNL     1     -31.637   8.266   0.354  1.00 20.00     0.394 C 
HETATM    3  N9  UNL     1     -32.756  10.636   0.427  1.00 20.00    -0.195 NA
ENDROOT
BRANCH   2   4
HETATM    4  N10 UNL     1     -31.777   7.577   1.647  1.00 20.00     0.097 N 
HETATM    5  C6  UNL     1     -32.153   6.173   1.415  1.00 20.00     0.311 C 
BRANCH   4   6
HETATM    6  C8  UNL     1     -32.729   8.242   2.494  1.00 20.00     0.278 C 
BRANCH   6   7
HETATM    7  C4  UNL     1     -33.228   7.329   3.561  1.00 20.00     0.018 A 
HETATM    8  C2  UNL     1     -33.786   7.894   4.840  1.00 20.00     0.011 A 
HETATM    9  C3  UNL     1     -34.704   7.235   3.845  1.00 20.00    -0.012 A 
HETATM   10  C5  UNL     1     -35.323   5.917   4.156  1.00 20.00     0.010 C 
ENDBRANCH   6   7
ENDBRANCH   4   6
ENDBRANCH   2   4
TORSDOF 3
ENDMDL
MODEL 3
REMARK VINA RESULT:      -1.5      1.895      5.148
REMARK  3 active torsions:
REMARK  status: ('A' for Active; 'I' for Inactive)
REMARK    1  A    between atoms: C4_4  and  C8_8 
REMARK    2  A    between atoms: C7_7  and  N10_10 
REMARK    3  A    between atoms: C8_8  and  N10_10 
ROOT
HETATM    1  C1  UNL     1     -32.233   8.980   0.932  1.00 20.00     0.089 C 
HETATM    2  C7  UNL     1     -32.004   7.863   1.847  1.00 20.00     0.394 C 
HETATM    3  N9  UNL     1     -32.411   9.867   0.205  1.00 20.00    -0.195 NA
ENDROOT
BRANCH   2   4
HETATM    4  N10 UNL     1     -33.248   7.486   2.536  1.00 20.00     0.097 N 
HETATM    5  C6  UNL     1     -33.167   7.889   3.949  1.00 20.00     0.311 C 
BRANCH   4   6
HETATM    6  C8  UNL     1     -33.513   6.079   2.407  1.00 20.00     0.278 C 
BRANCH   6   7
HETATM    7  C4  UNL     1     -33.621   5.428   3.743  1.00 20.00     0.018 A 
HETATM    8  C2  UNL     1     -34.962   4.971   4.255  1.00 20.00     0.011 A 
HETATM    9  C3  UNL     1     -33.928   3.956   3.844  1.00 20.00    -0.012 A 
HETATM   10  C5  UNL     1     -33.249   3.120   4.872  1.00 20.00     0.010 C 
ENDBRANCH   6   7
ENDBRANCH   4   6
ENDBRANCH   2   4
TORSDOF 3
ENDMDL
MODEL 4
REMARK VINA RESULT:      -1.2      1.973      5.087
REMARK  3 active torsions:
REMARK  status: ('A' for Active; 'I' for Inactive)
REMARK    1  A    between atoms: C4_4  and  C8_8 
REMARK    2  A    between atoms: C7_7  and  N10_10 
REMARK    3  A    between atoms: C8_8  and  N10_10 
ROOT
HETATM    1  C1  UNL     1     -32.169   9.131   0.742  1.00 20.00     0.089 C 
HETATM    2  C7  UNL     1     -31.443   8.369   1.756  1.00 20.00     0.394 C 
HETATM    3  N9  UNL     1     -32.742   9.739  -0.063  1.00 20.00    -0.195 NA
ENDROOT
BRANCH   2   4
HETATM    4  N10 UNL     1     -32.217   7.192   2.182  1.00 20.00     0.097 N 
HETATM    5  C6  UNL     1     -32.305   6.235   1.066  1.00 20.00     0.311 C 
BRANCH   4   6
HETATM    6  C8  UNL     1     -33.522   7.566   2.654  1.00 20.00     0.278 C 
BRANCH   6   7
HETATM    7  C4  UNL     1     -33.955   6.695   3.784  1.00 20.00     0.018 A 
HETATM    8  C2  UNL     1     -35.412   6.362   3.967  1.00 20.00     0.011 A 
HETATM    9  C3  UNL     1     -34.447   5.297   3.515  1.00 20.00    -0.012 A 
HETATM   10  C5  UNL     1     -34.077   4.184   4.433  1.00 20.00     0.010 C 
ENDBRANCH   6   7
ENDBRANCH   4   6
ENDBRANCH   2   4
TORSDOF 3
ENDMDL
MODEL 5
REMARK VINA RESULT:      -0.5      1.844      2.591
REMARK  3 active torsions:
REMARK  status: ('A' for Active; 'I' for Inactive)
REMARK    1  A    between atoms: C4_4  and  C8_8 
REMARK    2  A    between atoms: C7_7  and  N10_10 
REMARK    3  A    between atoms: C8_8  and  N10_10 
ROOT
HETATM    1  C1  UNL     1     -34.556   6.687   3.745  1.00 20.00     0.089 C 
HETATM    2  C7  UNL     1     -33.387   7.507   3.431  1.00 20.00     0.394 C 
HETATM    3  N9  UNL     1     -35.483   6.037   3.998  1.00 20.00    -0.195 NA
ENDROOT
BRANCH   2   4
HETATM    4  N10 UNL     1     -32.923   7.255   2.058  1.00 20.00     0.097 N 
HETATM    5  C6  UNL     1     -32.973   5.810   1.782  1.00 20.00     0.311 C 
BRANCH   4   6
HETATM    6  C8  UNL     1     -31.603   7.782   1.845  1.00 20.00     0.278 C 
BRANCH   6   7
HETATM    7  C4  UNL     1     -31.607   8.830   0.785  1.00 20.00     0.018 A 
HETATM    8  C2  UNL     1     -32.620   8.776  -0.328  1.00 20.00     0.011 A 
HETATM    9  C3  UNL     1     -32.718   9.845   0.729  1.00 20.00    -0.012 A 
HETATM   10  C5  UNL     1     -32.419  11.263   0.389  1.00 20.00     0.010 C 
ENDBRANCH   6   7
ENDBRANCH   4   6
ENDBRANCH   2   4
TORSDOF 3
ENDMDL
MODEL 6
REMARK VINA RESULT:      -0.3      1.259      1.956
REMARK  3 active torsions:
REMARK  status: ('A' for Active; 'I' for Inactive)
REMARK    1  A    between atoms: C4_4  and  C8_8 
REMARK    2  A    between atoms: C7_7  and  N10_10 
REMARK    3  A    between atoms: C8_8  and  N10_10 
ROOT
HETATM    1  C1  UNL     1     -33.562   3.640   4.372  1.00 20.00     0.089 C 
HETATM    2  C7  UNL     1     -34.218   4.580   3.465  1.00 20.00     0.394 C 
HETATM    3  N9  UNL     1     -33.042   2.892   5.090  1.00 20.00    -0.195 NA
ENDROOT
BRANCH   2   4
HETATM    4  N10 UNL     1     -34.371   5.900   4.096  1.00 20.00     0.097 N 
HETATM    5  C6  UNL     1     -35.743   6.388   3.885  1.00 20.00     0.311 C 
BRANCH   4   6
HETATM    6  C8  UNL     1     -33.400   6.835   3.598  1.00 20.00     0.278 C 
BRANCH   6   7
HETATM    7  C4  UNL     1     -33.155   6.631   2.142  1.00 20.00     0.018 A 
HETATM    8  C2  UNL     1     -32.084   7.421   1.437  1.00 20.00     0.011 A 
HETATM    9  C3  UNL     1     -31.897   5.946   1.676  1.00 20.00    -0.012 A 
HETATM   10  C5  UNL     1     -31.944   4.991   0.535  1.00 20.00     0.010 C 
ENDBRANCH   6   7
ENDBRANCH   4   6
ENDBRANCH   2   4
TORSDOF 3
ENDMDL
MODEL 7
REMARK VINA RESULT:      -0.2      1.985      4.423
REMARK  3 active torsions:
REMARK  status: ('A' for Active; 'I' for Inactive)
REMARK    1  A    between atoms: C4_4  and  C8_8 
REMARK    2  A    between atoms: C7_7  and  N10_10 
REMARK    3  A    between atoms: C8_8  and  N10_10 
ROOT
HETATM    1  C1  UNL     1     -32.168   6.500   1.631  1.00 20.00     0.089 C 
HETATM    2  C7  UNL     1     -32.322   7.793   2.294  1.00 20.00     0.394 C 
HETATM    3  N9  UNL     1     -32.044   5.474   1.103  1.00 20.00    -0.195 NA
ENDROOT
BRANCH   2   4
HETATM    4  N10 UNL     1     -33.513   7.802   3.158  1.00 20.00     0.097 N 
HETATM    5  C6  UNL     1     -33.098   7.966   4.561  1.00 20.00     0.311 C 
BRANCH   4   6
HETATM    6  C8  UNL     1     -34.297   6.610   2.981  1.00 20.00     0.278 C 
BRANCH   6   7
HETATM    7  C4  UNL     1     -34.167   5.700   4.154  1.00 20.00     0.018 A 
HETATM    8  C2  UNL     1     -35.362   4.932   4.652  1.00 20.00     0.011 A 
HETATM    9  C3  UNL     1     -34.235   4.208   3.964  1.00 20.00    -0.012 A 
HETATM   10  C5  UNL     1     -33.334   3.313   4.742  1.00 20.00     0.010 C 
ENDBRANCH   6   7
ENDBRANCH   4   6
ENDBRANCH   2   4
TORSDOF 3
ENDMDL
MODEL 8
REMARK VINA RESULT:      -0.2      1.836      4.995
REMARK  3 active torsions:
REMARK  status: ('A' for Active; 'I' for Inactive)
REMARK    1  A    between atoms: C4_4  and  C8_8 
REMARK    2  A    between atoms: C7_7  and  N10_10 
REMARK    3  A    between atoms: C8_8  and  N10_10 
ROOT
HETATM    1  C1  UNL     1     -32.693   7.621   2.583  1.00 20.00     0.089 C 
HETATM    2  C7  UNL     1     -33.637   7.308   3.655  1.00 20.00     0.394 C 
HETATM    3  N9  UNL     1     -31.942   7.872   1.735  1.00 20.00    -0.195 NA
ENDROOT
BRANCH   2   4
HETATM    4  N10 UNL     1     -34.419   6.105   3.330  1.00 20.00     0.097 N 
HETATM    5  C6  UNL     1     -35.457   5.905   4.354  1.00 20.00     0.311 C 
BRANCH   4   6
HETATM    6  C8  UNL     1     -33.575   4.948   3.207  1.00 20.00     0.278 C 
BRANCH   6   7
HETATM    7  C4  UNL     1     -33.747   4.031   4.369  1.00 20.00     0.018 A 
HETATM    8  C2  UNL     1     -33.489   2.556   4.212  1.00 20.00     0.011 A 
HETATM    9  C3  UNL     1     -32.543   3.404   5.021  1.00 20.00    -0.012 A 
HETATM   10  C5  UNL     1     -32.487   3.258   6.502  1.00 20.00     0.010 C 
ENDBRANCH   6   7
ENDBRANCH   4   6
ENDBRANCH   2   4
TORSDOF 3
ENDMDL
MODEL 9
REMARK VINA RESULT:      -0.1      2.106      3.974
REMARK  3 active torsions:
REMARK  status: ('A' for Active; 'I' for Inactive)
REMARK    1  A    between atoms: C4_4  and  C8_8 
REMARK    2  A    between atoms: C7_7  and  N10_10 
REMARK    3  A    between atoms: C8_8  and  N10_10 
ROOT
HETATM    1  C1  UNL     1     -32.311   5.810   1.087  1.00 20.00     0.089 C 
HETATM    2  C7  UNL     1     -31.561   7.037   1.349  1.00 20.00     0.394 C 
HETATM    3  N9  UNL     1     -32.903   4.834   0.879  1.00 20.00    -0.195 NA
ENDROOT
BRANCH   2   4
HETATM    4  N10 UNL     1     -32.468   8.189   1.477  1.00 20.00     0.097 N 
HETATM    5  C6  UNL     1     -32.023   9.264   0.575  1.00 20.00     0.311 C 
BRANCH   4   6
HETATM    6  C8  UNL     1     -32.546   8.645   2.837  1.00 20.00     0.278 C 
BRANCH   6   7
HETATM    7  C4  UNL     1     -33.094   7.585   3.730  1.00 20.00     0.018 A 
HETATM    8  C2  UNL     1     -33.710   7.954   5.053  1.00 20.00     0.011 A 
HETATM    9  C3  UNL     1     -34.582   7.459   3.929  1.00 20.00    -0.012 A 
HETATM   10  C5  UNL     1     -35.214   6.113   4.009  1.00 20.00     0.010 C 
ENDBRANCH   6   7
ENDBRANCH   4   6
ENDBRANCH   2   4
TORSDOF 3
ENDMDL
