MODEL 1
REMARK VINA RESULT:      -1.6      0.000      0.000
REMARK  3 active torsions:
REMARK  status: ('A' for Active; 'I' for Inactive)
REMARK    1  A    between atoms: C5_5  and  C9_9 
REMARK    2  A    between atoms: C8_8  and  N10_10 
REMARK    3  A    between atoms: C9_9  and  N10_10 
ROOT
HETATM    1  C1  UNL     1     -32.582  10.293  -0.188  1.00 20.00     0.013 C 
HETATM    2  C2  UNL     1     -32.273   9.351   0.490  1.00 20.00    -0.087 C 
HETATM    3  C8  UNL     1     -31.891   8.200   1.312  1.00 20.00     0.364 C 
ENDROOT
BRANCH   3   4
HETATM    4  N10 UNL     1     -32.751   8.106   2.503  1.00 20.00     0.095 N 
HETATM    5  C7  UNL     1     -31.975   8.475   3.697  1.00 20.00     0.310 C 
BRANCH   4   6
HETATM    6  C9  UNL     1     -33.323   6.794   2.634  1.00 20.00     0.278 C 
BRANCH   6   7
HETATM    7  C5  UNL     1     -34.238   6.721   3.806  1.00 20.00     0.018 A 
HETATM    8  C3  UNL     1     -35.630   6.166   3.651  1.00 20.00     0.011 A 
HETATM    9  C4  UNL     1     -34.610   5.413   4.465  1.00 20.00    -0.012 A 
HETATM   10  C6  UNL     1     -34.088   4.101   3.989  1.00 20.00     0.010 C 
ENDBRANCH   6   7
ENDBRANCH   4   6
ENDBRANCH   3   4
TORSDOF 3
ENDMDL
MODEL 2
REMARK VINA RESULT:      -1.5      1.216      5.050
REMARK  3 active torsions:
REMARK  status: ('A' for Active; 'I' for Inactive)
REMARK    1  A    between atoms: C5_5  and  C9_9 
REMARK    2  A    between atoms: C8_8  and  N10_10 
REMARK    3  A    between atoms: C9_9  and  N10_10 
ROOT
HETATM    1  C1  UNL     1     -33.513   3.126   4.786  1.00 20.00     0.013 C 
HETATM    2  C2  UNL     1     -33.607   4.016   3.984  1.00 20.00    -0.087 C 
HETATM    3  C8  UNL     1     -33.720   5.096   3.002  1.00 20.00     0.364 C 
ENDROOT
BRANCH   3   4
HETATM    4  N10 UNL     1     -34.053   6.368   3.665  1.00 20.00     0.095 N 
HETATM    5  C7  UNL     1     -35.466   6.352   4.073  1.00 20.00     0.310 C 
BRANCH   4   6
HETATM    6  C9  UNL     1     -33.764   7.492   2.817  1.00 20.00     0.278 C 
BRANCH   6   7
HETATM    7  C5  UNL     1     -32.304   7.595   2.541  1.00 20.00     0.018 A 
HETATM    8  C3  UNL     1     -31.732   7.048   1.258  1.00 20.00     0.011 A 
HETATM    9  C4  UNL     1     -31.741   8.535   1.500  1.00 20.00    -0.012 A 
HETATM   10  C6  UNL     1     -32.605   9.426   0.675  1.00 20.00     0.010 C 
ENDBRANCH   6   7
ENDBRANCH   4   6
ENDBRANCH   3   4
TORSDOF 3
ENDMDL
MODEL 3
REMARK VINA RESULT:      -1.4      1.141      4.967
REMARK  3 active torsions:
REMARK  status: ('A' for Active; 'I' for Inactive)
REMARK    1  A    between atoms: C5_5  and  C9_9 
REMARK    2  A    between atoms: C8_8  and  N10_10 
REMARK    3  A    between atoms: C9_9  and  N10_10 
ROOT
HETATM    1  C1  UNL     1     -35.367   6.139   4.017  1.00 20.00     0.013 C 
HETATM    2  C2  UNL     1     -34.410   6.819   3.765  1.00 20.00    -0.087 C 
HETATM    3  C8  UNL     1     -33.242   7.651   3.463  1.00 20.00     0.364 C 
ENDROOT
BRANCH   3   4
HETATM    4  N10 UNL     1     -32.826   7.474   2.063  1.00 20.00     0.095 N 
HETATM    5  C7  UNL     1     -32.665   6.040   1.777  1.00 20.00     0.310 C 
BRANCH   4   6
HETATM    6  C9  UNL     1     -31.622   8.204   1.777  1.00 20.00     0.278 C 
BRANCH   6   7
HETATM    7  C5  UNL     1     -31.613   8.698   0.372  1.00 20.00     0.018 A 
HETATM    8  C3  UNL     1     -32.898   8.796  -0.408  1.00 20.00     0.011 A 
HETATM    9  C4  UNL     1     -32.163  10.051  -0.014  1.00 20.00    -0.012 A 
HETATM   10  C6  UNL     1     -32.755  10.989   0.981  1.00 20.00     0.010 C 
ENDBRANCH   6   7
ENDBRANCH   4   6
ENDBRANCH   3   4
TORSDOF 3
ENDMDL
MODEL 4
REMARK VINA RESULT:      -1.2      1.077      4.989
REMARK  3 active torsions:
REMARK  status: ('A' for Active; 'I' for Inactive)
REMARK    1  A    between atoms: C5_5  and  C9_9 
REMARK    2  A    between atoms: C8_8  and  N10_10 
REMARK    3  A    between atoms: C9_9  and  N10_10 
ROOT
HETATM    1  C1  UNL     1     -33.851   3.602   4.389  1.00 20.00     0.013 C 
HETATM    2  C2  UNL     1     -34.264   4.694   4.110  1.00 20.00    -0.087 C 
HETATM    3  C8  UNL     1     -34.774   6.025   3.770  1.00 20.00     0.364 C 
ENDROOT
BRANCH   3   4
HETATM    4  N10 UNL     1     -33.685   7.015   3.774  1.00 20.00     0.095 N 
HETATM    5  C7  UNL     1     -33.935   8.012   4.827  1.00 20.00     0.310 C 
BRANCH   4   6
HETATM    6  C9  UNL     1     -33.537   7.637   2.487  1.00 20.00     0.278 C 
BRANCH   6   7
HETATM    7  C5  UNL     1     -32.110   7.955   2.205  1.00 20.00     0.018 A 
HETATM    8  C3  UNL     1     -31.465   7.490   0.925  1.00 20.00     0.011 A 
HETATM    9  C4  UNL     1     -31.696   8.961   1.156  1.00 20.00    -0.012 A 
HETATM   10  C6  UNL     1     -32.685   9.706   0.327  1.00 20.00     0.010 C 
ENDBRANCH   6   7
ENDBRANCH   4   6
ENDBRANCH   3   4
TORSDOF 3
ENDMDL
MODEL 5
REMARK VINA RESULT:      -1.1      0.980      1.368
REMARK  3 active torsions:
REMARK  status: ('A' for Active; 'I' for Inactive)
REMARK    1  A    between atoms: C5_5  and  C9_9 
REMARK    2  A    between atoms: C8_8  and  N10_10 
REMARK    3  A    between atoms: C9_9  and  N10_10 
ROOT
HETATM    1  C1  UNL     1     -32.488   9.536   0.121  1.00 20.00     0.013 C 
HETATM    2  C2  UNL     1     -32.102   8.854   1.031  1.00 20.00    -0.087 C 
HETATM    3  C8  UNL     1     -31.628   8.026   2.143  1.00 20.00     0.364 C 
ENDROOT
BRANCH   3   4
HETATM    4  N10 UNL     1     -32.318   6.727   2.154  1.00 20.00     0.095 N 
HETATM    5  C7  UNL     1     -31.916   5.948   0.972  1.00 20.00     0.310 C 
BRANCH   4   6
HETATM    6  C9  UNL     1     -33.745   6.891   2.214  1.00 20.00     0.278 C 
BRANCH   6   7
HETATM    7  C5  UNL     1     -34.232   6.846   3.620  1.00 20.00     0.018 A 
HETATM    8  C3  UNL     1     -35.607   6.314   3.932  1.00 20.00     0.011 A 
HETATM    9  C4  UNL     1     -34.389   5.551   4.383  1.00 20.00    -0.012 A 
HETATM   10  C6  UNL     1     -34.068   4.225   3.782  1.00 20.00     0.010 C 
ENDBRANCH   6   7
ENDBRANCH   4   6
ENDBRANCH   3   4
TORSDOF 3
ENDMDL
MODEL 6
REMARK VINA RESULT:      -0.9      1.298      1.900
REMARK  3 active torsions:
REMARK  status: ('A' for Active; 'I' for Inactive)
REMARK    1  A    between atoms: C5_5  and  C9_9 
REMARK    2  A    between atoms: C8_8  and  N10_10 
REMARK    3  A    between atoms: C9_9  and  N10_10 
ROOT
HETATM    1  C1  UNL     1     -32.728  10.692   0.503  1.00 20.00     0.013 C 
HETATM    2  C2  UNL     1     -32.274   9.581   0.454  1.00 20.00    -0.087 C 
HETATM    3  C8  UNL     1     -31.719   8.227   0.389  1.00 20.00     0.364 C 
ENDROOT
BRANCH   3   4
HETATM    4  N10 UNL     1     -31.898   7.529   1.672  1.00 20.00     0.095 N 
HETATM    5  C7  UNL     1     -32.003   6.082   1.432  1.00 20.00     0.310 C 
BRANCH   4   6
HETATM    6  C9  UNL     1     -33.043   8.027   2.384  1.00 20.00     0.278 C 
BRANCH   6   7
HETATM    7  C5  UNL     1     -33.151   7.403   3.731  1.00 20.00     0.018 A 
HETATM    8  C3  UNL     1     -33.994   8.046   4.803  1.00 20.00     0.011 A 
HETATM    9  C4  UNL     1     -34.413   6.725   4.212  1.00 20.00    -0.012 A 
HETATM   10  C6  UNL     1     -35.642   6.633   3.373  1.00 20.00     0.010 C 
ENDBRANCH   6   7
ENDBRANCH   4   6
ENDBRANCH   3   4
TORSDOF 3
ENDMDL
MODEL 7
REMARK VINA RESULT:      -0.8      1.138      5.081
REMARK  3 active torsions:
REMARK  status: ('A' for Active; 'I' for Inactive)
REMARK    1  A    between atoms: C5_5  and  C9_9 
REMARK    2  A    between atoms: C8_8  and  N10_10 
REMARK    3  A    between atoms: C9_9  and  N10_10 
ROOT
HETATM    1  C1  UNL     1     -35.430   6.096   4.061  1.00 20.00     0.013 C 
HETATM    2  C2  UNL     1     -34.419   6.682   3.785  1.00 20.00    -0.087 C 
HETATM    3  C8  UNL     1     -33.185   7.399   3.454  1.00 20.00     0.364 C 
ENDROOT
BRANCH   3   4
HETATM    4  N10 UNL     1     -32.893   7.295   2.015  1.00 20.00     0.095 N 
HETATM    5  C7  UNL     1     -32.287   5.985   1.732  1.00 20.00     0.310 C 
BRANCH   4   6
HETATM    6  C9  UNL     1     -32.050   8.371   1.572  1.00 20.00     0.278 C 
BRANCH   6   7
HETATM    7  C5  UNL     1     -32.856   9.490   1.011  1.00 20.00     0.018 A 
HETATM    8  C3  UNL     1     -32.205  10.809   0.687  1.00 20.00     0.011 A 
HETATM    9  C4  UNL     1     -32.730   9.940  -0.426  1.00 20.00    -0.012 A 
HETATM   10  C6  UNL     1     -31.788   9.297  -1.386  1.00 20.00     0.010 C 
ENDBRANCH   6   7
ENDBRANCH   4   6
ENDBRANCH   3   4
TORSDOF 3
ENDMDL
MODEL 8
REMARK VINA RESULT:      -0.8      1.771      4.848
REMARK  3 active torsions:
REMARK  status: ('A' for Active; 'I' for Inactive)
REMARK    1  A    between atoms: C5_5  and  C9_9 
REMARK    2  A    between atoms: C8_8  and  N10_10 
REMARK    3  A    between atoms: C9_9  and  N10_10 
ROOT
HETATM    1  C1  UNL     1     -33.055   2.867   5.057  1.00 20.00     0.013 C 
HETATM    2  C2  UNL     1     -33.607   3.657   4.340  1.00 20.00    -0.087 C 
HETATM    3  C8  UNL     1     -34.281   4.615   3.462  1.00 20.00     0.364 C 
ENDROOT
BRANCH   3   4
HETATM    4  N10 UNL     1     -34.383   5.932   4.110  1.00 20.00     0.095 N 
HETATM    5  C7  UNL     1     -35.621   6.598   3.676  1.00 20.00     0.310 C 
BRANCH   4   6
HETATM    6  C9  UNL     1     -33.228   6.742   3.837  1.00 20.00     0.278 C 
BRANCH   6   7
HETATM    7  C5  UNL     1     -33.293   7.328   2.470  1.00 20.00     0.018 A 
HETATM    8  C3  UNL     1     -32.080   7.988   1.866  1.00 20.00     0.011 A 
HETATM    9  C4  UNL     1     -32.600   6.699   1.284  1.00 20.00    -0.012 A 
HETATM   10  C6  UNL     1     -31.800   5.446   1.397  1.00 20.00     0.010 C 
ENDBRANCH   6   7
ENDBRANCH   4   6
ENDBRANCH   3   4
TORSDOF 3
ENDMDL
MODEL 9
REMARK VINA RESULT:      -0.8      1.313      2.098
REMARK  3 active torsions:
REMARK  status: ('A' for Active; 'I' for Inactive)
REMARK    1  A    between atoms: C5_5  and  C9_9 
REMARK    2  A    between atoms: C8_8  and  N10_10 
REMARK    3  A    between atoms: C9_9  and  N10_10 
ROOT
HETATM    1  C1  UNL     1     -32.480   9.626   0.261  1.00 20.00     0.013 C 
HETATM    2  C2  UNL     1     -32.129   8.746   0.998  1.00 20.00    -0.087 C 
HETATM    3  C8  UNL     1     -31.697   7.676   1.901  1.00 20.00     0.364 C 
ENDROOT
BRANCH   3   4
HETATM    4  N10 UNL     1     -32.393   6.418   1.586  1.00 20.00     0.095 N 
HETATM    5  C7  UNL     1     -33.373   6.656   0.514  1.00 20.00     0.310 C 
BRANCH   4   6
HETATM    6  C9  UNL     1     -33.018   5.858   2.753  1.00 20.00     0.278 C 
BRANCH   6   7
HETATM    7  C5  UNL     1     -34.363   6.454   2.982  1.00 20.00     0.018 A 
HETATM    8  C3  UNL     1     -35.165   6.076   4.200  1.00 20.00     0.011 A 
HETATM    9  C4  UNL     1     -34.623   7.476   4.064  1.00 20.00    -0.012 A 
HETATM   10  C6  UNL     1     -33.553   7.959   4.982  1.00 20.00     0.010 C 
ENDBRANCH   6   7
ENDBRANCH   4   6
ENDBRANCH   3   4
TORSDOF 3
ENDMDL
