MODEL 1
REMARK VINA RESULT:      -0.8      0.000      0.000
REMARK  4 active torsions:
REMARK  status: ('A' for Active; 'I' for Inactive)
REMARK    1  A    between atoms: C2_2  and  C10_10 
REMARK    2  A    between atoms: C7_7  and  C11_11 
REMARK    3  A    between atoms: C10_10  and  N12_12 
REMARK    4  A    between atoms: C11_11  and  N12_12 
ROOT
HETATM    1  C1  UNL     1     -32.366   9.579   0.490  1.00 20.00    -0.109 C 
HETATM    2  C2  UNL     1     -31.972   8.568   1.006  1.00 20.00    -0.077 C 
HETATM    3  C8  UNL     1     -32.844  10.809  -0.140  1.00 20.00     0.112 C 
ENDROOT
BRANCH   2   4
HETATM    4  C10 UNL     1     -31.487   7.338   1.637  1.00 20.00     0.362 C 
BRANCH   4   5
HETATM    5  N12 UNL     1     -32.529   6.301   1.640  1.00 20.00     0.095 N 
HETATM    6  H31 UNL     1     -32.222   5.555   2.285  1.00 20.00     0.317 HD
BRANCH   5   7
HETATM    7  C11 UNL     1     -33.798   6.815   2.019  1.00 20.00     0.279 C 
BRANCH   7   8
HETATM    8  C7  UNL     1     -34.036   6.535   3.508  1.00 20.00    -0.018 C 
HETATM    9  C5  UNL     1     -33.248   5.286   3.970  1.00 20.00     0.011 C 
HETATM   10  C3  UNL     1     -34.294   4.211   4.230  1.00 20.00     0.001 C 
HETATM   11  C4  UNL     1     -35.499   5.000   4.708  1.00 20.00     0.001 C 
HETATM   12  C6  UNL     1     -35.522   6.193   3.763  1.00 20.00     0.011 C 
HETATM   13  C9  UNL     1     -33.615   7.765   4.324  1.00 20.00     0.017 C 
ENDBRANCH   7   8
ENDBRANCH   5   7
ENDBRANCH   4   5
ENDBRANCH   2   4
TORSDOF 4
ENDMDL
MODEL 2
REMARK VINA RESULT:      -0.7      1.377      5.477
REMARK  4 active torsions:
REMARK  status: ('A' for Active; 'I' for Inactive)
REMARK    1  A    between atoms: C2_2  and  C10_10 
REMARK    2  A    between atoms: C7_7  and  C11_11 
REMARK    3  A    between atoms: C10_10  and  N12_12 
REMARK    4  A    between atoms: C11_11  and  N12_12 
ROOT
HETATM    1  C1  UNL     1     -33.892   3.936   4.365  1.00 20.00    -0.109 C 
HETATM    2  C2  UNL     1     -34.429   4.997   4.197  1.00 20.00    -0.077 C 
HETATM    3  C8  UNL     1     -33.238   2.644   4.572  1.00 20.00     0.112 C 
ENDROOT
BRANCH   2   4
HETATM    4  C10 UNL     1     -35.080   6.294   3.996  1.00 20.00     0.362 C 
BRANCH   4   5
HETATM    5  N12 UNL     1     -34.092   7.338   3.692  1.00 20.00     0.095 N 
HETATM    6  H31 UNL     1     -33.358   7.292   4.417  1.00 20.00     0.317 HD
BRANCH   5   7
HETATM    7  C11 UNL     1     -33.536   7.190   2.392  1.00 20.00     0.279 C 
BRANCH   7   8
HETATM    8  C7  UNL     1     -32.431   8.235   2.190  1.00 20.00    -0.018 C 
HETATM    9  C5  UNL     1     -33.001   9.532   1.568  1.00 20.00     0.011 C 
HETATM   10  C3  UNL     1     -32.458   9.580   0.146  1.00 20.00     0.001 C 
HETATM   11  C4  UNL     1     -31.101   8.912   0.264  1.00 20.00     0.001 C 
HETATM   12  C6  UNL     1     -31.384   7.725   1.174  1.00 20.00     0.011 C 
HETATM   13  C9  UNL     1     -31.771   8.537   3.543  1.00 20.00     0.017 C 
ENDBRANCH   7   8
ENDBRANCH   5   7
ENDBRANCH   4   5
ENDBRANCH   2   4
TORSDOF 4
ENDMDL
MODEL 3
REMARK VINA RESULT:      -0.6      1.632      4.921
REMARK  4 active torsions:
REMARK  status: ('A' for Active; 'I' for Inactive)
REMARK    1  A    between atoms: C2_2  and  C10_10 
REMARK    2  A    between atoms: C7_7  and  C11_11 
REMARK    3  A    between atoms: C10_10  and  N12_12 
REMARK    4  A    between atoms: C11_11  and  N12_12 
ROOT
HETATM    1  C1  UNL     1     -33.930   3.875   4.381  1.00 20.00    -0.109 C 
HETATM    2  C2  UNL     1     -34.568   4.886   4.269  1.00 20.00    -0.077 C 
HETATM    3  C8  UNL     1     -33.153   2.643   4.519  1.00 20.00     0.112 C 
ENDROOT
BRANCH   2   4
HETATM    4  C10 UNL     1     -35.348   6.120   4.138  1.00 20.00     0.362 C 
BRANCH   4   5
HETATM    5  N12 UNL     1     -34.704   7.052   3.201  1.00 20.00     0.095 N 
HETATM    6  H31 UNL     1     -35.100   7.990   3.375  1.00 20.00     0.317 HD
BRANCH   5   7
HETATM    7  C11 UNL     1     -33.290   7.061   3.337  1.00 20.00     0.279 C 
BRANCH   7   8
HETATM    8  C7  UNL     1     -32.646   6.876   1.957  1.00 20.00    -0.018 C 
HETATM    9  C5  UNL     1     -33.713   6.544   0.887  1.00 20.00     0.011 C 
HETATM   10  C3  UNL     1     -33.478   5.086   0.511  1.00 20.00     0.001 C 
HETATM   11  C4  UNL     1     -31.979   4.918   0.670  1.00 20.00     0.001 C 
HETATM   12  C6  UNL     1     -31.688   5.663   1.965  1.00 20.00     0.011 C 
HETATM   13  C9  UNL     1     -31.892   8.160   1.579  1.00 20.00     0.017 C 
ENDBRANCH   7   8
ENDBRANCH   5   7
ENDBRANCH   4   5
ENDBRANCH   2   4
TORSDOF 4
ENDMDL
MODEL 4
REMARK VINA RESULT:       0.1      1.353      5.296
REMARK  4 active torsions:
REMARK  status: ('A' for Active; 'I' for Inactive)
REMARK    1  A    between atoms: C2_2  and  C10_10 
REMARK    2  A    between atoms: C7_7  and  C11_11 
REMARK    3  A    between atoms: C10_10  and  N12_12 
REMARK    4  A    between atoms: C11_11  and  N12_12 
ROOT
HETATM    1  C1  UNL     1     -33.913   3.878   4.413  1.00 20.00    -0.109 C 
HETATM    2  C2  UNL     1     -34.545   4.888   4.265  1.00 20.00    -0.077 C 
HETATM    3  C8  UNL     1     -33.142   2.648   4.594  1.00 20.00     0.112 C 
ENDROOT
BRANCH   2   4
HETATM    4  C10 UNL     1     -35.312   6.124   4.086  1.00 20.00     0.362 C 
BRANCH   4   5
HETATM    5  N12 UNL     1     -34.678   6.996   3.086  1.00 20.00     0.095 N 
HETATM    6  H31 UNL     1     -35.172   7.902   3.108  1.00 20.00     0.317 HD
BRANCH   5   7
HETATM    7  C11 UNL     1     -33.287   7.165   3.324  1.00 20.00     0.279 C 
BRANCH   7   8
HETATM    8  C7  UNL     1     -32.540   7.175   1.984  1.00 20.00    -0.018 C 
HETATM    9  C5  UNL     1     -31.340   8.151   2.027  1.00 20.00     0.011 C 
HETATM   10  C3  UNL     1     -31.723   9.315   1.121  1.00 20.00     0.001 C 
HETATM   11  C4  UNL     1     -32.584   8.663   0.055  1.00 20.00     0.001 C 
HETATM   12  C6  UNL     1     -33.455   7.707   0.858  1.00 20.00     0.011 C 
HETATM   13  C9  UNL     1     -32.059   5.752   1.667  1.00 20.00     0.017 C 
ENDBRANCH   7   8
ENDBRANCH   5   7
ENDBRANCH   4   5
ENDBRANCH   2   4
TORSDOF 4
ENDMDL
MODEL 5
REMARK VINA RESULT:       1.1      0.864      2.132
REMARK  4 active torsions:
REMARK  status: ('A' for Active; 'I' for Inactive)
REMARK    1  A    between atoms: C2_2  and  C10_10 
REMARK    2  A    between atoms: C7_7  and  C11_11 
REMARK    3  A    between atoms: C10_10  and  N12_12 
REMARK    4  A    between atoms: C11_11  and  N12_12 
ROOT
HETATM    1  C1  UNL     1     -32.317   9.401   0.657  1.00 20.00    -0.109 C 
HETATM    2  C2  UNL     1     -32.118   8.282   1.043  1.00 20.00    -0.077 C 
HETATM    3  C8  UNL     1     -32.560  10.764   0.184  1.00 20.00     0.112 C 
ENDROOT
BRANCH   2   4
HETATM    4  C10 UNL     1     -31.872   6.915   1.511  1.00 20.00     0.362 C 
BRANCH   4   5
HETATM    5  N12 UNL     1     -33.103   6.113   1.464  1.00 20.00     0.095 N 
HETATM    6  H31 UNL     1     -33.138   5.651   0.541  1.00 20.00     0.317 HD
BRANCH   5   7
HETATM    7  C11 UNL     1     -33.164   5.159   2.515  1.00 20.00     0.279 C 
BRANCH   7   8
HETATM    8  C7  UNL     1     -34.008   5.722   3.665  1.00 20.00    -0.018 C 
HETATM    9  C5  UNL     1     -35.180   6.577   3.126  1.00 20.00     0.011 C 
HETATM   10  C3  UNL     1     -34.839   8.017   3.486  1.00 20.00     0.001 C 
HETATM   11  C4  UNL     1     -34.074   7.883   4.789  1.00 20.00     0.001 C 
HETATM   12  C6  UNL     1     -33.167   6.688   4.530  1.00 20.00     0.011 C 
HETATM   13  C9  UNL     1     -34.542   4.559   4.513  1.00 20.00     0.017 C 
ENDBRANCH   7   8
ENDBRANCH   5   7
ENDBRANCH   4   5
ENDBRANCH   2   4
TORSDOF 4
ENDMDL
MODEL 6
REMARK VINA RESULT:       1.2      0.915      1.762
REMARK  4 active torsions:
REMARK  status: ('A' for Active; 'I' for Inactive)
REMARK    1  A    between atoms: C2_2  and  C10_10 
REMARK    2  A    between atoms: C7_7  and  C11_11 
REMARK    3  A    between atoms: C10_10  and  N12_12 
REMARK    4  A    between atoms: C11_11  and  N12_12 
ROOT
HETATM    1  C1  UNL     1     -32.424   9.826   0.100  1.00 20.00    -0.109 C 
HETATM    2  C2  UNL     1     -31.767   9.129   0.825  1.00 20.00    -0.077 C 
HETATM    3  C8  UNL     1     -33.225  10.675  -0.781  1.00 20.00     0.112 C 
ENDROOT
BRANCH   2   4
HETATM    4  C10 UNL     1     -30.970   8.276   1.712  1.00 20.00     0.362 C 
BRANCH   4   5
HETATM    5  N12 UNL     1     -31.684   7.030   2.023  1.00 20.00     0.095 N 
HETATM    6  H31 UNL     1     -31.004   6.382   2.453  1.00 20.00     0.317 HD
BRANCH   5   7
HETATM    7  C11 UNL     1     -32.796   7.246   2.881  1.00 20.00     0.279 C 
BRANCH   7   8
HETATM    8  C7  UNL     1     -33.772   6.069   2.756  1.00 20.00    -0.018 C 
HETATM    9  C5  UNL     1     -35.181   6.461   3.259  1.00 20.00     0.011 C 
HETATM   10  C3  UNL     1     -35.383   5.693   4.558  1.00 20.00     0.001 C 
HETATM   11  C4  UNL     1     -34.604   4.410   4.334  1.00 20.00     0.001 C 
HETATM   12  C6  UNL     1     -33.328   4.900   3.664  1.00 20.00     0.011 C 
HETATM   13  C9  UNL     1     -33.834   5.622   1.288  1.00 20.00     0.017 C 
ENDBRANCH   7   8
ENDBRANCH   5   7
ENDBRANCH   4   5
ENDBRANCH   2   4
TORSDOF 4
ENDMDL
MODEL 7
REMARK VINA RESULT:       1.2      1.293      1.938
REMARK  4 active torsions:
REMARK  status: ('A' for Active; 'I' for Inactive)
REMARK    1  A    between atoms: C2_2  and  C10_10 
REMARK    2  A    between atoms: C7_7  and  C11_11 
REMARK    3  A    between atoms: C10_10  and  N12_12 
REMARK    4  A    between atoms: C11_11  and  N12_12 
ROOT
HETATM    1  C1  UNL     1     -32.411   9.400   0.538  1.00 20.00    -0.109 C 
HETATM    2  C2  UNL     1     -32.411   8.811   1.585  1.00 20.00    -0.077 C 
HETATM    3  C8  UNL     1     -32.411  10.119  -0.735  1.00 20.00     0.112 C 
ENDROOT
BRANCH   2   4
HETATM    4  C10 UNL     1     -32.414   8.096   2.864  1.00 20.00     0.362 C 
BRANCH   4   5
HETATM    5  N12 UNL     1     -33.677   8.312   3.584  1.00 20.00     0.095 N 
HETATM    6  H31 UNL     1     -34.429   8.372   2.880  1.00 20.00     0.317 HD
BRANCH   5   7
HETATM    7  C11 UNL     1     -33.941   7.283   4.528  1.00 20.00     0.279 C 
BRANCH   7   8
HETATM    8  C7  UNL     1     -34.592   6.092   3.813  1.00 20.00    -0.018 C 
HETATM    9  C5  UNL     1     -34.894   4.946   4.808  1.00 20.00     0.011 C 
HETATM   10  C3  UNL     1     -33.916   3.831   4.460  1.00 20.00     0.001 C 
HETATM   11  C4  UNL     1     -33.732   3.977   2.961  1.00 20.00     0.001 C 
HETATM   12  C6  UNL     1     -33.619   5.484   2.778  1.00 20.00     0.011 C 
HETATM   13  C9  UNL     1     -35.885   6.562   3.131  1.00 20.00     0.017 C 
ENDBRANCH   7   8
ENDBRANCH   5   7
ENDBRANCH   4   5
ENDBRANCH   2   4
TORSDOF 4
ENDMDL
MODEL 8
REMARK VINA RESULT:       1.6      1.424      2.457
REMARK  4 active torsions:
REMARK  status: ('A' for Active; 'I' for Inactive)
REMARK    1  A    between atoms: C2_2  and  C10_10 
REMARK    2  A    between atoms: C7_7  and  C11_11 
REMARK    3  A    between atoms: C10_10  and  N12_12 
REMARK    4  A    between atoms: C11_11  and  N12_12 
ROOT
HETATM    1  C1  UNL     1     -31.811   5.628   0.786  1.00 20.00    -0.109 C 
HETATM    2  C2  UNL     1     -31.767   6.776   1.139  1.00 20.00    -0.077 C 
HETATM    3  C8  UNL     1     -31.867   4.232   0.357  1.00 20.00     0.112 C 
ENDROOT
BRANCH   2   4
HETATM    4  C10 UNL     1     -31.716   8.175   1.574  1.00 20.00     0.362 C 
BRANCH   4   5
HETATM    5  N12 UNL     1     -32.633   8.410   2.698  1.00 20.00     0.095 N 
HETATM    6  H31 UNL     1     -32.842   9.421   2.721  1.00 20.00     0.317 HD
BRANCH   5   7
HETATM    7  C11 UNL     1     -33.825   7.643   2.590  1.00 20.00     0.279 C 
BRANCH   7   8
HETATM    8  C7  UNL     1     -34.086   6.920   3.917  1.00 20.00    -0.018 C 
HETATM    9  C5  UNL     1     -33.241   5.628   4.020  1.00 20.00     0.011 C 
HETATM   10  C3  UNL     1     -34.232   4.477   3.904  1.00 20.00     0.001 C 
HETATM   11  C4  UNL     1     -35.491   5.031   4.544  1.00 20.00     0.001 C 
HETATM   12  C6  UNL     1     -35.556   6.449   3.996  1.00 20.00     0.011 C 
HETATM   13  C9  UNL     1     -33.757   7.867   5.079  1.00 20.00     0.017 C 
ENDBRANCH   7   8
ENDBRANCH   5   7
ENDBRANCH   4   5
ENDBRANCH   2   4
TORSDOF 4
ENDMDL
MODEL 9
REMARK VINA RESULT:       2.1      1.231      5.175
REMARK  4 active torsions:
REMARK  status: ('A' for Active; 'I' for Inactive)
REMARK    1  A    between atoms: C2_2  and  C10_10 
REMARK    2  A    between atoms: C7_7  and  C11_11 
REMARK    3  A    between atoms: C10_10  and  N12_12 
REMARK    4  A    between atoms: C11_11  and  N12_12 
ROOT
HETATM    1  C1  UNL     1     -34.407   5.741   3.542  1.00 20.00    -0.109 C 
HETATM    2  C2  UNL     1     -33.501   5.415   2.824  1.00 20.00    -0.077 C 
HETATM    3  C8  UNL     1     -35.511   6.137   4.415  1.00 20.00     0.112 C 
ENDROOT
BRANCH   2   4
HETATM    4  C10 UNL     1     -32.398   5.022   1.943  1.00 20.00     0.362 C 
BRANCH   4   5
HETATM    5  N12 UNL     1     -31.908   6.170   1.168  1.00 20.00     0.095 N 
HETATM    6  H31 UNL     1     -31.703   5.835   0.213  1.00 20.00     0.317 HD
BRANCH   5   7
HETATM    7  C11 UNL     1     -32.842   7.241   1.144  1.00 20.00     0.279 C 
BRANCH   7   8
HETATM    8  C7  UNL     1     -32.087   8.575   1.206  1.00 20.00    -0.018 C 
HETATM    9  C5  UNL     1     -33.070   9.761   1.353  1.00 20.00     0.011 C 
HETATM   10  C3  UNL     1     -33.026  10.501   0.023  1.00 20.00     0.001 C 
HETATM   11  C4  UNL     1     -31.597  10.298  -0.446  1.00 20.00     0.001 C 
HETATM   12  C6  UNL     1     -31.337   8.834  -0.120  1.00 20.00     0.011 C 
HETATM   13  C9  UNL     1     -31.107   8.544   2.387  1.00 20.00     0.017 C 
ENDBRANCH   7   8
ENDBRANCH   5   7
ENDBRANCH   4   5
ENDBRANCH   2   4
TORSDOF 4
ENDMDL
