MODEL 1
REMARK VINA RESULT:      -2.2      0.000      0.000
REMARK  3 active torsions:
REMARK  status: ('A' for Active; 'I' for Inactive)
REMARK    1  A    between atoms: C5_5  and  C9_9 
REMARK    2  A    between atoms: C8_8  and  N10_10 
REMARK    3  A    between atoms: C9_9  and  N10_10 
ROOT
HETATM    1  C1  UNL     1     -32.383   9.884   0.106  1.00 20.00     0.013 C 
HETATM    2  C2  UNL     1     -32.212   9.037   0.940  1.00 20.00    -0.087 C 
HETATM    3  C8  UNL     1     -31.999   8.007   1.959  1.00 20.00     0.364 C 
ENDROOT
BRANCH   3   4
HETATM    4  N10 UNL     1     -33.064   6.992   1.903  1.00 20.00     0.095 N 
HETATM    5  C7  UNL     1     -32.503   5.719   1.423  1.00 20.00     0.310 C 
BRANCH   4   6
HETATM    6  C9  UNL     1     -33.704   6.834   3.180  1.00 20.00     0.278 C 
BRANCH   6   7
HETATM    7  C5  UNL     1     -34.265   5.464   3.337  1.00 20.00     0.018 A 
HETATM    8  C3  UNL     1     -35.271   5.177   4.421  1.00 20.00     0.011 A 
HETATM    9  C4  UNL     1     -33.875   4.618   4.521  1.00 20.00    -0.012 A 
HETATM   10  C6  UNL     1     -33.640   3.157   4.352  1.00 20.00     0.010 C 
ENDBRANCH   6   7
ENDBRANCH   4   6
ENDBRANCH   3   4
TORSDOF 3
ENDMDL
MODEL 2
REMARK VINA RESULT:      -1.8      1.444      2.043
REMARK  3 active torsions:
REMARK  status: ('A' for Active; 'I' for Inactive)
REMARK    1  A    between atoms: C5_5  and  C9_9 
REMARK    2  A    between atoms: C8_8  and  N10_10 
REMARK    3  A    between atoms: C9_9  and  N10_10 
ROOT
HETATM    1  C1  UNL     1     -32.410   9.804   0.305  1.00 20.00     0.013 C 
HETATM    2  C2  UNL     1     -32.142   8.842   0.974  1.00 20.00    -0.087 C 
HETATM    3  C8  UNL     1     -31.813   7.673   1.793  1.00 20.00     0.364 C 
ENDROOT
BRANCH   3   4
HETATM    4  N10 UNL     1     -32.445   6.462   1.245  1.00 20.00     0.095 N 
HETATM    5  C7  UNL     1     -31.587   5.297   1.516  1.00 20.00     0.310 C 
BRANCH   4   6
HETATM    6  C9  UNL     1     -33.766   6.275   1.780  1.00 20.00     0.278 C 
BRANCH   6   7
HETATM    7  C5  UNL     1     -33.764   6.358   3.267  1.00 20.00     0.018 A 
HETATM    8  C3  UNL     1     -35.058   6.267   4.033  1.00 20.00     0.011 A 
HETATM    9  C4  UNL     1     -34.320   7.578   3.955  1.00 20.00    -0.012 A 
HETATM   10  C6  UNL     1     -33.643   8.128   5.163  1.00 20.00     0.010 C 
ENDBRANCH   6   7
ENDBRANCH   4   6
ENDBRANCH   3   4
TORSDOF 3
ENDMDL
MODEL 3
REMARK VINA RESULT:      -1.8      1.095      5.027
REMARK  3 active torsions:
REMARK  status: ('A' for Active; 'I' for Inactive)
REMARK    1  A    between atoms: C5_5  and  C9_9 
REMARK    2  A    between atoms: C8_8  and  N10_10 
REMARK    3  A    between atoms: C9_9  and  N10_10 
ROOT
HETATM    1  C1  UNL     1     -33.519   3.211   4.509  1.00 20.00     0.013 C 
HETATM    2  C2  UNL     1     -34.253   4.157   4.420  1.00 20.00    -0.087 C 
HETATM    3  C8  UNL     1     -35.153   5.308   4.315  1.00 20.00     0.364 C 
ENDROOT
BRANCH   3   4
HETATM    4  N10 UNL     1     -34.531   6.382   3.524  1.00 20.00     0.095 N 
HETATM    5  C7  UNL     1     -34.313   7.558   4.382  1.00 20.00     0.310 C 
BRANCH   4   6
HETATM    6  C9  UNL     1     -33.304   5.942   2.918  1.00 20.00     0.278 C 
BRANCH   6   7
HETATM    7  C5  UNL     1     -33.006   6.714   1.680  1.00 20.00     0.018 A 
HETATM    8  C3  UNL     1     -31.664   6.582   1.010  1.00 20.00     0.011 A 
HETATM    9  C4  UNL     1     -32.028   7.859   1.721  1.00 20.00    -0.012 A 
HETATM   10  C6  UNL     1     -32.295   9.100   0.941  1.00 20.00     0.010 C 
ENDBRANCH   6   7
ENDBRANCH   4   6
ENDBRANCH   3   4
TORSDOF 3
ENDMDL
MODEL 4
REMARK VINA RESULT:      -1.6      1.535      1.994
REMARK  3 active torsions:
REMARK  status: ('A' for Active; 'I' for Inactive)
REMARK    1  A    between atoms: C5_5  and  C9_9 
REMARK    2  A    between atoms: C8_8  and  N10_10 
REMARK    3  A    between atoms: C9_9  and  N10_10 
ROOT
HETATM    1  C1  UNL     1     -32.727  10.600   0.097  1.00 20.00     0.013 C 
HETATM    2  C2  UNL     1     -32.200   9.544   0.319  1.00 20.00    -0.087 C 
HETATM    3  C8  UNL     1     -31.551   8.258   0.586  1.00 20.00     0.364 C 
ENDROOT
BRANCH   3   4
HETATM    4  N10 UNL     1     -32.399   7.418   1.448  1.00 20.00     0.095 N 
HETATM    5  C7  UNL     1     -31.948   6.020   1.367  1.00 20.00     0.310 C 
BRANCH   4   6
HETATM    6  C9  UNL     1     -32.395   7.892   2.805  1.00 20.00     0.278 C 
BRANCH   6   7
HETATM    7  C5  UNL     1     -33.760   7.839   3.399  1.00 20.00     0.018 A 
HETATM    8  C3  UNL     1     -33.936   7.852   4.895  1.00 20.00     0.011 A 
HETATM    9  C4  UNL     1     -34.224   6.596   4.114  1.00 20.00    -0.012 A 
HETATM   10  C6  UNL     1     -35.627   6.120   3.954  1.00 20.00     0.010 C 
ENDBRANCH   6   7
ENDBRANCH   4   6
ENDBRANCH   3   4
TORSDOF 3
ENDMDL
MODEL 5
REMARK VINA RESULT:      -1.6      1.267      5.261
REMARK  3 active torsions:
REMARK  status: ('A' for Active; 'I' for Inactive)
REMARK    1  A    between atoms: C5_5  and  C9_9 
REMARK    2  A    between atoms: C8_8  and  N10_10 
REMARK    3  A    between atoms: C9_9  and  N10_10 
ROOT
HETATM    1  C1  UNL     1     -35.439   5.390   4.384  1.00 20.00     0.013 C 
HETATM    2  C2  UNL     1     -34.815   6.339   3.996  1.00 20.00    -0.087 C 
HETATM    3  C8  UNL     1     -34.058   7.501   3.524  1.00 20.00     0.364 C 
ENDROOT
BRANCH   3   4
HETATM    4  N10 UNL     1     -32.793   7.078   2.901  1.00 20.00     0.095 N 
HETATM    5  C7  UNL     1     -33.078   6.146   1.799  1.00 20.00     0.310 C 
BRANCH   4   6
HETATM    6  C9  UNL     1     -32.032   8.209   2.446  1.00 20.00     0.278 C 
BRANCH   6   7
HETATM    7  C5  UNL     1     -32.299   8.498   1.010  1.00 20.00     0.018 A 
HETATM    8  C3  UNL     1     -31.163   8.840   0.081  1.00 20.00     0.011 A 
HETATM    9  C4  UNL     1     -32.153   9.902   0.482  1.00 20.00    -0.012 A 
HETATM   10  C6  UNL     1     -33.127  10.431  -0.514  1.00 20.00     0.010 C 
ENDBRANCH   6   7
ENDBRANCH   4   6
ENDBRANCH   3   4
TORSDOF 3
ENDMDL
MODEL 6
REMARK VINA RESULT:      -0.7      1.707      4.976
REMARK  3 active torsions:
REMARK  status: ('A' for Active; 'I' for Inactive)
REMARK    1  A    between atoms: C5_5  and  C9_9 
REMARK    2  A    between atoms: C8_8  and  N10_10 
REMARK    3  A    between atoms: C9_9  and  N10_10 
ROOT
HETATM    1  C1  UNL     1     -33.942   8.133   4.954  1.00 20.00     0.013 C 
HETATM    2  C2  UNL     1     -33.928   7.392   4.009  1.00 20.00    -0.087 C 
HETATM    3  C8  UNL     1     -33.917   6.486   2.858  1.00 20.00     0.364 C 
ENDROOT
BRANCH   3   4
HETATM    4  N10 UNL     1     -32.576   6.431   2.254  1.00 20.00     0.095 N 
HETATM    5  C7  UNL     1     -32.654   5.754   0.950  1.00 20.00     0.310 C 
BRANCH   4   6
HETATM    6  C9  UNL     1     -32.006   7.744   2.128  1.00 20.00     0.278 C 
BRANCH   6   7
HETATM    7  C5  UNL     1     -32.230   8.303   0.766  1.00 20.00     0.018 A 
HETATM    8  C3  UNL     1     -31.087   8.916   0.000  1.00 20.00     0.011 A 
HETATM    9  C4  UNL     1     -32.186   9.792   0.543  1.00 20.00    -0.012 A 
HETATM   10  C6  UNL     1     -33.155  10.439  -0.386  1.00 20.00     0.010 C 
ENDBRANCH   6   7
ENDBRANCH   4   6
ENDBRANCH   3   4
TORSDOF 3
ENDMDL
MODEL 7
REMARK VINA RESULT:      -0.5      1.540      2.442
REMARK  3 active torsions:
REMARK  status: ('A' for Active; 'I' for Inactive)
REMARK    1  A    between atoms: C5_5  and  C9_9 
REMARK    2  A    between atoms: C8_8  and  N10_10 
REMARK    3  A    between atoms: C9_9  and  N10_10 
ROOT
HETATM    1  C1  UNL     1     -32.778  10.664   0.415  1.00 20.00     0.013 C 
HETATM    2  C2  UNL     1     -32.267   9.581   0.326  1.00 20.00    -0.087 C 
HETATM    3  C8  UNL     1     -31.641   8.261   0.213  1.00 20.00     0.364 C 
ENDROOT
BRANCH   3   4
HETATM    4  N10 UNL     1     -31.699   7.547   1.499  1.00 20.00     0.095 N 
HETATM    5  C7  UNL     1     -31.370   8.478   2.591  1.00 20.00     0.310 C 
BRANCH   4   6
HETATM    6  C9  UNL     1     -32.984   6.936   1.701  1.00 20.00     0.278 C 
BRANCH   6   7
HETATM    7  C5  UNL     1     -33.261   6.728   3.149  1.00 20.00     0.018 A 
HETATM    8  C3  UNL     1     -34.599   6.201   3.596  1.00 20.00     0.011 A 
HETATM    9  C4  UNL     1     -34.224   7.633   3.872  1.00 20.00    -0.012 A 
HETATM   10  C6  UNL     1     -33.933   8.076   5.265  1.00 20.00     0.010 C 
ENDBRANCH   6   7
ENDBRANCH   4   6
ENDBRANCH   3   4
TORSDOF 3
ENDMDL
MODEL 8
REMARK VINA RESULT:      -0.5      1.634      3.149
REMARK  3 active torsions:
REMARK  status: ('A' for Active; 'I' for Inactive)
REMARK    1  A    between atoms: C5_5  and  C9_9 
REMARK    2  A    between atoms: C8_8  and  N10_10 
REMARK    3  A    between atoms: C9_9  and  N10_10 
ROOT
HETATM    1  C1  UNL     1     -31.517   4.543   1.125  1.00 20.00     0.013 C 
HETATM    2  C2  UNL     1     -32.118   5.583   1.104  1.00 20.00    -0.087 C 
HETATM    3  C8  UNL     1     -32.856   6.848   1.077  1.00 20.00     0.364 C 
ENDROOT
BRANCH   3   4
HETATM    4  N10 UNL     1     -32.010   7.952   1.558  1.00 20.00     0.095 N 
HETATM    5  C7  UNL     1     -32.363   9.188   0.841  1.00 20.00     0.310 C 
BRANCH   4   6
HETATM    6  C9  UNL     1     -32.130   8.120   2.981  1.00 20.00     0.278 C 
BRANCH   6   7
HETATM    7  C5  UNL     1     -33.550   8.019   3.419  1.00 20.00     0.018 A 
HETATM    8  C3  UNL     1     -33.900   8.110   4.881  1.00 20.00     0.011 A 
HETATM    9  C4  UNL     1     -34.027   6.795   4.157  1.00 20.00    -0.012 A 
HETATM   10  C6  UNL     1     -35.374   6.226   3.870  1.00 20.00     0.010 C 
ENDBRANCH   6   7
ENDBRANCH   4   6
ENDBRANCH   3   4
TORSDOF 3
ENDMDL
MODEL 9
REMARK VINA RESULT:      -0.4      1.569      5.005
REMARK  3 active torsions:
REMARK  status: ('A' for Active; 'I' for Inactive)
REMARK    1  A    between atoms: C5_5  and  C9_9 
REMARK    2  A    between atoms: C8_8  and  N10_10 
REMARK    3  A    between atoms: C9_9  and  N10_10 
ROOT
HETATM    1  C1  UNL     1     -32.269   4.993   0.723  1.00 20.00     0.013 C 
HETATM    2  C2  UNL     1     -32.815   5.393   1.715  1.00 20.00    -0.087 C 
HETATM    3  C8  UNL     1     -33.481   5.875   2.927  1.00 20.00     0.364 C 
ENDROOT
BRANCH   3   4
HETATM    4  N10 UNL     1     -33.590   7.343   2.910  1.00 20.00     0.095 N 
HETATM    5  C7  UNL     1     -33.990   7.820   4.243  1.00 20.00     0.310 C 
BRANCH   4   6
HETATM    6  C9  UNL     1     -32.362   7.954   2.481  1.00 20.00     0.278 C 
BRANCH   6   7
HETATM    7  C5  UNL     1     -32.446   8.398   1.062  1.00 20.00     0.018 A 
HETATM    8  C3  UNL     1     -31.195   8.764   0.308  1.00 20.00     0.011 A 
HETATM    9  C4  UNL     1     -32.176   9.836   0.704  1.00 20.00    -0.012 A 
HETATM   10  C6  UNL     1     -33.001  10.516  -0.333  1.00 20.00     0.010 C 
ENDBRANCH   6   7
ENDBRANCH   4   6
ENDBRANCH   3   4
TORSDOF 3
ENDMDL
