MODEL 1
REMARK VINA RESULT:      -1.8      0.000      0.000
REMARK  4 active torsions:
REMARK  status: ('A' for Active; 'I' for Inactive)
REMARK    1  A    between atoms: C6_6  and  C10_10 
REMARK    2  A    between atoms: C8_8  and  C9_9 
REMARK    3  A    between atoms: C9_9  and  C10_10 
REMARK    4  A    between atoms: C10_10  and  O11_11 
ROOT
HETATM    1  C1  UNL     1     -31.836   7.934   1.470  1.00 20.00    -0.031 C 
HETATM    2  C2  UNL     1     -32.108   6.649   1.205  1.00 20.00    -0.030 C 
HETATM    3  C3  UNL     1     -32.377   8.657   2.667  1.00 20.00     0.027 C 
HETATM    4  C4  UNL     1     -33.007   5.807   2.061  1.00 20.00     0.034 C 
HETATM    5  C5  UNL     1     -32.998   7.720   3.709  1.00 20.00     0.011 C 
HETATM    6  C6  UNL     1     -33.854   6.636   3.044  1.00 20.00     0.018 C 
ENDROOT
BRANCH   6   7
HETATM    7  C10 UNL     1     -34.508   5.734   4.088  1.00 20.00     0.122 C 
BRANCH   7   8
HETATM    8  C9  UNL     1     -34.235   4.256   3.798  1.00 20.00     0.032 C 
BRANCH   8   9
HETATM    9  C8  UNL     1     -33.494   3.574   4.952  1.00 20.00    -0.002 C 
HETATM   10  C7  UNL     1     -33.111   2.145   4.598  1.00 20.00     0.005 C 
ENDBRANCH   8   9
ENDBRANCH   7   8
BRANCH   7  11
HETATM   11  O11 UNL     1     -35.910   5.984   4.088  1.00 20.00    -0.395 OA
HETATM   12  H29 UNL     1     -36.170   6.108   5.014  1.00 20.00     0.210 HD
ENDBRANCH   7  11
ENDBRANCH   6   7
TORSDOF 4
ENDMDL
MODEL 2
REMARK VINA RESULT:      -1.5      2.031      5.125
REMARK  4 active torsions:
REMARK  status: ('A' for Active; 'I' for Inactive)
REMARK    1  A    between atoms: C6_6  and  C10_10 
REMARK    2  A    between atoms: C8_8  and  C9_9 
REMARK    3  A    between atoms: C9_9  and  C10_10 
REMARK    4  A    between atoms: C10_10  and  O11_11 
ROOT
HETATM    1  C1  UNL     1     -35.256   5.163   4.433  1.00 20.00    -0.031 C 
HETATM    2  C2  UNL     1     -35.229   6.495   4.289  1.00 20.00    -0.030 C 
HETATM    3  C3  UNL     1     -34.228   4.252   3.832  1.00 20.00     0.027 C 
HETATM    4  C4  UNL     1     -34.185   7.212   3.485  1.00 20.00     0.034 C 
HETATM    5  C5  UNL     1     -32.991   4.993   3.315  1.00 20.00     0.011 C 
HETATM    6  C6  UNL     1     -33.381   6.274   2.566  1.00 20.00     0.018 C 
ENDROOT
BRANCH   6   7
HETATM    7  C10 UNL     1     -32.148   6.985   2.013  1.00 20.00     0.122 C 
BRANCH   7   8
HETATM    8  C9  UNL     1     -32.432   8.465   1.743  1.00 20.00     0.032 C 
BRANCH   8   9
HETATM    9  C8  UNL     1     -31.852   8.922   0.401  1.00 20.00    -0.002 C 
HETATM   10  C7  UNL     1     -32.550  10.175  -0.105  1.00 20.00     0.005 C 
ENDBRANCH   8   9
ENDBRANCH   7   8
BRANCH   7  11
HETATM   11  O11 UNL     1     -31.750   6.332   0.812  1.00 20.00    -0.395 OA
HETATM   12  H29 UNL     1     -32.061   5.416   0.878  1.00 20.00     0.210 HD
ENDBRANCH   7  11
ENDBRANCH   6   7
TORSDOF 4
ENDMDL
MODEL 3
REMARK VINA RESULT:      -1.2      1.790      4.846
REMARK  4 active torsions:
REMARK  status: ('A' for Active; 'I' for Inactive)
REMARK    1  A    between atoms: C6_6  and  C10_10 
REMARK    2  A    between atoms: C8_8  and  C9_9 
REMARK    3  A    between atoms: C9_9  and  C10_10 
REMARK    4  A    between atoms: C10_10  and  O11_11 
ROOT
HETATM    1  C1  UNL     1     -35.207   5.011   4.630  1.00 20.00    -0.031 C 
HETATM    2  C2  UNL     1     -34.264   4.214   4.109  1.00 20.00    -0.030 C 
HETATM    3  C3  UNL     1     -35.348   6.460   4.268  1.00 20.00     0.027 C 
HETATM    4  C4  UNL     1     -33.233   4.694   3.132  1.00 20.00     0.034 C 
HETATM    5  C5  UNL     1     -34.533   6.856   3.033  1.00 20.00     0.011 C 
HETATM    6  C6  UNL     1     -33.134   6.229   3.064  1.00 20.00     0.018 C 
ENDROOT
BRANCH   6   7
HETATM    7  C10 UNL     1     -32.309   6.665   1.855  1.00 20.00     0.122 C 
BRANCH   7   8
HETATM    8  C9  UNL     1     -32.078   8.178   1.852  1.00 20.00     0.032 C 
BRANCH   8   9
HETATM    9  C8  UNL     1     -31.941   8.733   0.432  1.00 20.00    -0.002 C 
HETATM   10  C7  UNL     1     -32.546  10.124   0.319  1.00 20.00     0.005 C 
ENDBRANCH   8   9
ENDBRANCH   7   8
BRANCH   7  11
HETATM   11  O11 UNL     1     -32.996   6.269   0.672  1.00 20.00    -0.395 OA
HETATM   12  H29 UNL     1     -33.832   6.760   0.659  1.00 20.00     0.210 HD
ENDBRANCH   7  11
ENDBRANCH   6   7
TORSDOF 4
ENDMDL
MODEL 4
REMARK VINA RESULT:      -1.0      2.385      5.315
REMARK  4 active torsions:
REMARK  status: ('A' for Active; 'I' for Inactive)
REMARK    1  A    between atoms: C6_6  and  C10_10 
REMARK    2  A    between atoms: C8_8  and  C9_9 
REMARK    3  A    between atoms: C9_9  and  C10_10 
REMARK    4  A    between atoms: C10_10  and  O11_11 
ROOT
HETATM    1  C1  UNL     1     -34.646   5.693   3.765  1.00 20.00    -0.031 C 
HETATM    2  C2  UNL     1     -34.554   6.943   4.241  1.00 20.00    -0.030 C 
HETATM    3  C3  UNL     1     -33.842   5.198   2.600  1.00 20.00     0.027 C 
HETATM    4  C4  UNL     1     -33.660   7.986   3.639  1.00 20.00     0.034 C 
HETATM    5  C5  UNL     1     -32.696   6.138   2.213  1.00 20.00     0.011 C 
HETATM    6  C6  UNL     1     -33.145   7.604   2.239  1.00 20.00     0.018 C 
ENDROOT
BRANCH   6   7
HETATM    7  C10 UNL     1     -32.014   8.535   1.807  1.00 20.00     0.122 C 
BRANCH   7   8
HETATM    8  C9  UNL     1     -31.889   8.591   0.282  1.00 20.00     0.032 C 
BRANCH   8   9
HETATM    9  C8  UNL     1     -32.631   9.794  -0.308  1.00 20.00    -0.002 C 
HETATM   10  C7  UNL     1     -32.762  10.918   0.709  1.00 20.00     0.005 C 
ENDBRANCH   8   9
ENDBRANCH   7   8
BRANCH   7  11
HETATM   11  O11 UNL     1     -30.799   8.067   2.383  1.00 20.00    -0.395 OA
HETATM   12  H29 UNL     1     -30.223   8.840   2.483  1.00 20.00     0.210 HD
ENDBRANCH   7  11
ENDBRANCH   6   7
TORSDOF 4
ENDMDL
MODEL 5
REMARK VINA RESULT:      -1.0      2.017      4.807
REMARK  4 active torsions:
REMARK  status: ('A' for Active; 'I' for Inactive)
REMARK    1  A    between atoms: C6_6  and  C10_10 
REMARK    2  A    between atoms: C8_8  and  C9_9 
REMARK    3  A    between atoms: C9_9  and  C10_10 
REMARK    4  A    between atoms: C10_10  and  O11_11 
ROOT
HETATM    1  C1  UNL     1     -34.848   4.819   4.075  1.00 20.00    -0.031 C 
HETATM    2  C2  UNL     1     -33.776   4.618   3.296  1.00 20.00    -0.030 C 
HETATM    3  C3  UNL     1     -35.329   6.183   4.473  1.00 20.00     0.027 C 
HETATM    4  C4  UNL     1     -32.927   5.735   2.766  1.00 20.00     0.034 C 
HETATM    5  C5  UNL     1     -34.684   7.311   3.663  1.00 20.00     0.011 C 
HETATM    6  C6  UNL     1     -33.179   7.076   3.479  1.00 20.00     0.018 C 
ENDROOT
BRANCH   6   7
HETATM    7  C10 UNL     1     -32.532   8.227   2.711  1.00 20.00     0.122 C 
BRANCH   7   8
HETATM    8  C9  UNL     1     -31.976   7.756   1.365  1.00 20.00     0.032 C 
BRANCH   8   9
HETATM    9  C8  UNL     1     -31.538   8.929   0.485  1.00 20.00    -0.002 C 
HETATM   10  C7  UNL     1     -32.618   9.997   0.407  1.00 20.00     0.005 C 
ENDBRANCH   8   9
ENDBRANCH   7   8
BRANCH   7  11
HETATM   11  O11 UNL     1     -31.490   8.775   3.511  1.00 20.00    -0.395 OA
HETATM   12  H29 UNL     1     -31.869   8.939   4.388  1.00 20.00     0.210 HD
ENDBRANCH   7  11
ENDBRANCH   6   7
TORSDOF 4
ENDMDL
MODEL 6
REMARK VINA RESULT:      -0.4      1.285      1.648
REMARK  4 active torsions:
REMARK  status: ('A' for Active; 'I' for Inactive)
REMARK    1  A    between atoms: C6_6  and  C10_10 
REMARK    2  A    between atoms: C8_8  and  C9_9 
REMARK    3  A    between atoms: C9_9  and  C10_10 
REMARK    4  A    between atoms: C10_10  and  O11_11 
ROOT
HETATM    1  C1  UNL     1     -31.564   7.624   0.526  1.00 20.00    -0.031 C 
HETATM    2  C2  UNL     1     -31.970   6.379   0.811  1.00 20.00    -0.030 C 
HETATM    3  C3  UNL     1     -31.867   8.806   1.398  1.00 20.00     0.027 C 
HETATM    4  C4  UNL     1     -32.796   6.042   2.016  1.00 20.00     0.034 C 
HETATM    5  C5  UNL     1     -32.401   8.415   2.780  1.00 20.00     0.011 C 
HETATM    6  C6  UNL     1     -33.426   7.279   2.682  1.00 20.00     0.018 C 
ENDROOT
BRANCH   6   7
HETATM    7  C10 UNL     1     -33.989   6.925   4.056  1.00 20.00     0.122 C 
BRANCH   7   8
HETATM    8  C9  UNL     1     -35.319   6.176   3.938  1.00 20.00     0.032 C 
BRANCH   8   9
HETATM    9  C8  UNL     1     -35.291   4.840   4.685  1.00 20.00    -0.002 C 
HETATM   10  C7  UNL     1     -34.069   4.018   4.306  1.00 20.00     0.005 C 
ENDBRANCH   8   9
ENDBRANCH   7   8
BRANCH   7  11
HETATM   11  O11 UNL     1     -34.165   8.128   4.797  1.00 20.00    -0.395 OA
HETATM   12  H29 UNL     1     -33.324   8.303   5.247  1.00 20.00     0.210 HD
ENDBRANCH   7  11
ENDBRANCH   6   7
TORSDOF 4
ENDMDL
MODEL 7
REMARK VINA RESULT:      -0.1      1.841      3.034
REMARK  4 active torsions:
REMARK  status: ('A' for Active; 'I' for Inactive)
REMARK    1  A    between atoms: C6_6  and  C10_10 
REMARK    2  A    between atoms: C8_8  and  C9_9 
REMARK    3  A    between atoms: C9_9  and  C10_10 
REMARK    4  A    between atoms: C10_10  and  O11_11 
ROOT
HETATM    1  C1  UNL     1     -31.913   9.441  -0.028  1.00 20.00    -0.031 C 
HETATM    2  C2  UNL     1     -32.797  10.042   0.780  1.00 20.00    -0.030 C 
HETATM    3  C3  UNL     1     -31.304   8.104   0.273  1.00 20.00     0.027 C 
HETATM    4  C4  UNL     1     -33.247   9.456   2.085  1.00 20.00     0.034 C 
HETATM    5  C5  UNL     1     -32.012   7.360   1.410  1.00 20.00     0.011 C 
HETATM    6  C6  UNL     1     -32.348   8.304   2.570  1.00 20.00     0.018 C 
ENDROOT
BRANCH   6   7
HETATM    7  C10 UNL     1     -33.012   7.548   3.720  1.00 20.00     0.122 C 
BRANCH   7   8
HETATM    8  C9  UNL     1     -34.530   7.474   3.536  1.00 20.00     0.032 C 
BRANCH   8   9
HETATM    9  C8  UNL     1     -35.114   6.184   4.118  1.00 20.00    -0.002 C 
HETATM   10  C7  UNL     1     -34.240   4.983   3.791  1.00 20.00     0.005 C 
ENDBRANCH   8   9
ENDBRANCH   7   8
BRANCH   7  11
HETATM   11  O11 UNL     1     -32.694   8.210   4.939  1.00 20.00    -0.395 OA
HETATM   12  H29 UNL     1     -33.374   8.890   5.072  1.00 20.00     0.210 HD
ENDBRANCH   7  11
ENDBRANCH   6   7
TORSDOF 4
ENDMDL
MODEL 8
REMARK VINA RESULT:       0.1      1.563      2.163
REMARK  4 active torsions:
REMARK  status: ('A' for Active; 'I' for Inactive)
REMARK    1  A    between atoms: C6_6  and  C10_10 
REMARK    2  A    between atoms: C8_8  and  C9_9 
REMARK    3  A    between atoms: C9_9  and  C10_10 
REMARK    4  A    between atoms: C10_10  and  O11_11 
ROOT
HETATM    1  C1  UNL     1     -31.734   9.033   0.235  1.00 20.00    -0.031 C 
HETATM    2  C2  UNL     1     -31.350   7.796   0.577  1.00 20.00    -0.030 C 
HETATM    3  C3  UNL     1     -32.746   9.822   1.012  1.00 20.00     0.027 C 
HETATM    4  C4  UNL     1     -31.913   7.058   1.755  1.00 20.00     0.034 C 
HETATM    5  C5  UNL     1     -33.057   9.219   2.385  1.00 20.00     0.011 C 
HETATM    6  C6  UNL     1     -33.203   7.695   2.305  1.00 20.00     0.018 C 
ENDROOT
BRANCH   6   7
HETATM    7  C10 UNL     1     -33.558   7.103   3.668  1.00 20.00     0.122 C 
BRANCH   7   8
HETATM    8  C9  UNL     1     -35.025   6.666   3.721  1.00 20.00     0.032 C 
BRANCH   8   9
HETATM    9  C8  UNL     1     -35.188   5.290   4.371  1.00 20.00    -0.002 C 
HETATM   10  C7  UNL     1     -34.063   4.349   3.967  1.00 20.00     0.005 C 
ENDBRANCH   8   9
ENDBRANCH   7   8
BRANCH   7  11
HETATM   11  O11 UNL     1     -33.300   8.083   4.668  1.00 20.00    -0.395 OA
HETATM   12  H29 UNL     1     -32.553   7.755   5.192  1.00 20.00     0.210 HD
ENDBRANCH   7  11
ENDBRANCH   6   7
TORSDOF 4
ENDMDL
MODEL 9
REMARK VINA RESULT:       0.3      2.297      3.092
REMARK  4 active torsions:
REMARK  status: ('A' for Active; 'I' for Inactive)
REMARK    1  A    between atoms: C6_6  and  C10_10 
REMARK    2  A    between atoms: C8_8  and  C9_9 
REMARK    3  A    between atoms: C9_9  and  C10_10 
REMARK    4  A    between atoms: C10_10  and  O11_11 
ROOT
HETATM    1  C1  UNL     1     -31.938   9.514  -0.324  1.00 20.00    -0.031 C 
HETATM    2  C2  UNL     1     -31.337   8.364   0.010  1.00 20.00    -0.030 C 
HETATM    3  C3  UNL     1     -32.856  10.258   0.600  1.00 20.00     0.027 C 
HETATM    4  C4  UNL     1     -31.542   7.684   1.331  1.00 20.00     0.034 C 
HETATM    5  C5  UNL     1     -32.792   9.758   2.047  1.00 20.00     0.011 C 
HETATM    6  C6  UNL     1     -32.758   8.226   2.106  1.00 20.00     0.018 C 
ENDROOT
BRANCH   6   7
HETATM    7  C10 UNL     1     -32.741   7.731   3.551  1.00 20.00     0.122 C 
BRANCH   7   8
HETATM    8  C9  UNL     1     -34.159   7.623   4.120  1.00 20.00     0.032 C 
BRANCH   8   9
HETATM    9  C8  UNL     1     -34.952   6.489   3.465  1.00 20.00    -0.002 C 
HETATM   10  C7  UNL     1     -35.283   5.394   4.467  1.00 20.00     0.005 C 
ENDBRANCH   8   9
ENDBRANCH   7   8
BRANCH   7  11
HETATM   11  O11 UNL     1     -31.965   8.635   4.330  1.00 20.00    -0.395 OA
HETATM   12  H29 UNL     1     -32.528   8.922   5.066  1.00 20.00     0.210 HD
ENDBRANCH   7  11
ENDBRANCH   6   7
TORSDOF 4
ENDMDL
