MODEL 1
REMARK VINA RESULT:      -0.6      0.000      0.000
REMARK  2 active torsions:
REMARK  status: ('A' for Active; 'I' for Inactive)
REMARK    1  A    between atoms: C3_3  and  C8_8 
REMARK    2  A    between atoms: C10_10  and  N11_11 
ROOT
HETATM    1  C1  UNL     1     -32.708  11.042   0.703  1.00 20.00     0.013 C 
HETATM    2  C2  UNL     1     -32.523   9.869   0.526  1.00 20.00    -0.087 C 
HETATM    3  C10 UNL     1     -32.299   8.438   0.305  1.00 20.00     0.364 C 
ENDROOT
BRANCH   3   4
HETATM    4  N11 UNL     1     -31.668   7.828   1.473  1.00 20.00     0.100 N 
HETATM    5  C6  UNL     1     -31.255   6.441   1.222  1.00 20.00     0.273 C 
HETATM    6  C4  UNL     1     -32.414   5.444   1.169  1.00 20.00     0.031 C 
HETATM    7  C5  UNL     1     -33.284   5.537   2.419  1.00 20.00     0.015 C 
HETATM    8  C8  UNL     1     -33.715   6.981   2.677  1.00 20.00     0.083 C 
HETATM    9  C7  UNL     1     -32.505   7.926   2.675  1.00 20.00     0.285 C 
BRANCH   8  10
HETATM   10  C3  UNL     1     -34.429   7.071   3.992  1.00 20.00     0.129 C 
HETATM   11  C9  UNL     1     -35.476   6.026   4.268  1.00 20.00     0.091 C 
HETATM   12  O12 UNL     1     -34.170   7.955   4.808  1.00 20.00    -0.298 OA
ENDBRANCH   8  10
ENDBRANCH   3   4
TORSDOF 2
ENDMDL
MODEL 2
REMARK VINA RESULT:      -0.2      1.369      1.493
REMARK  2 active torsions:
REMARK  status: ('A' for Active; 'I' for Inactive)
REMARK    1  A    between atoms: C3_3  and  C8_8 
REMARK    2  A    between atoms: C10_10  and  N11_11 
ROOT
HETATM    1  C1  UNL     1     -31.969  10.157  -0.390  1.00 20.00     0.013 C 
HETATM    2  C2  UNL     1     -32.546   9.719   0.568  1.00 20.00    -0.087 C 
HETATM    3  C10 UNL     1     -33.254   9.188   1.735  1.00 20.00     0.364 C 
ENDROOT
BRANCH   3   4
HETATM    4  N11 UNL     1     -32.387   8.300   2.505  1.00 20.00     0.100 N 
HETATM    5  C6  UNL     1     -31.532   7.471   1.645  1.00 20.00     0.273 C 
HETATM    6  C4  UNL     1     -32.273   6.338   0.932  1.00 20.00     0.031 C 
HETATM    7  C5  UNL     1     -33.051   5.476   1.921  1.00 20.00     0.015 C 
HETATM    8  C8  UNL     1     -33.943   6.340   2.814  1.00 20.00     0.083 C 
HETATM    9  C7  UNL     1     -33.139   7.477   3.461  1.00 20.00     0.285 C 
BRANCH   8  10
HETATM   10  C3  UNL     1     -34.571   5.491   3.880  1.00 20.00     0.129 C 
HETATM   11  C9  UNL     1     -33.955   4.139   4.120  1.00 20.00     0.091 C 
HETATM   12  O12 UNL     1     -35.540   5.883   4.528  1.00 20.00    -0.298 OA
ENDBRANCH   8  10
ENDBRANCH   3   4
TORSDOF 2
ENDMDL
MODEL 3
REMARK VINA RESULT:       1.8      2.448      3.355
REMARK  2 active torsions:
REMARK  status: ('A' for Active; 'I' for Inactive)
REMARK    1  A    between atoms: C3_3  and  C8_8 
REMARK    2  A    between atoms: C10_10  and  N11_11 
ROOT
HETATM    1  C1  UNL     1     -32.109   9.258   0.721  1.00 20.00     0.013 C 
HETATM    2  C2  UNL     1     -32.221   8.349   1.497  1.00 20.00    -0.087 C 
HETATM    3  C10 UNL     1     -32.354   7.242   2.447  1.00 20.00     0.364 C 
ENDROOT
BRANCH   3   4
HETATM    4  N11 UNL     1     -33.407   6.323   2.025  1.00 20.00     0.100 N 
HETATM    5  C6  UNL     1     -34.749   6.827   2.345  1.00 20.00     0.273 C 
HETATM    6  C4  UNL     1     -35.105   6.754   3.831  1.00 20.00     0.031 C 
HETATM    7  C5  UNL     1     -34.906   5.345   4.382  1.00 20.00     0.015 C 
HETATM    8  C8  UNL     1     -33.508   4.823   4.049  1.00 20.00     0.083 C 
HETATM    9  C7  UNL     1     -33.208   4.966   2.550  1.00 20.00     0.285 C 
BRANCH   8  10
HETATM   10  C3  UNL     1     -33.392   3.384   4.456  1.00 20.00     0.129 C 
HETATM   11  C9  UNL     1     -32.733   3.105   5.781  1.00 20.00     0.091 C 
HETATM   12  O12 UNL     1     -33.818   2.476   3.744  1.00 20.00    -0.298 OA
ENDBRANCH   8  10
ENDBRANCH   3   4
TORSDOF 2
ENDMDL
MODEL 4
REMARK VINA RESULT:       2.3      1.716      3.426
REMARK  2 active torsions:
REMARK  status: ('A' for Active; 'I' for Inactive)
REMARK    1  A    between atoms: C3_3  and  C8_8 
REMARK    2  A    between atoms: C10_10  and  N11_11 
ROOT
HETATM    1  C1  UNL     1     -31.041   3.626  -0.385  1.00 20.00     0.013 C 
HETATM    2  C2  UNL     1     -31.207   4.428   0.493  1.00 20.00    -0.087 C 
HETATM    3  C10 UNL     1     -31.405   5.403   1.568  1.00 20.00     0.364 C 
ENDROOT
BRANCH   3   4
HETATM    4  N11 UNL     1     -32.448   6.361   1.210  1.00 20.00     0.100 N 
HETATM    5  C6  UNL     1     -32.053   7.747   1.493  1.00 20.00     0.273 C 
HETATM    6  C4  UNL     1     -32.055   8.107   2.980  1.00 20.00     0.031 C 
HETATM    7  C5  UNL     1     -33.396   7.779   3.628  1.00 20.00     0.015 C 
HETATM    8  C8  UNL     1     -33.805   6.335   3.335  1.00 20.00     0.083 C 
HETATM    9  C7  UNL     1     -33.739   6.038   1.830  1.00 20.00     0.285 C 
BRANCH   8  10
HETATM   10  C3  UNL     1     -35.194   6.086   3.842  1.00 20.00     0.129 C 
HETATM   11  C9  UNL     1     -35.370   4.940   4.803  1.00 20.00     0.091 C 
HETATM   12  O12 UNL     1     -36.144   6.787   3.494  1.00 20.00    -0.298 OA
ENDBRANCH   8  10
ENDBRANCH   3   4
TORSDOF 2
ENDMDL
