MODEL 1
REMARK VINA RESULT:      -1.1      0.000      0.000
REMARK  2 active torsions:
REMARK  status: ('A' for Active; 'I' for Inactive)
REMARK    1  A    between atoms: C6_6  and  C8_8 
REMARK    2  A    between atoms: C8_8  and  N9_9 
ROOT
HETATM    1  C1  UNL     1     -33.464   3.359   4.642  1.00 20.00     0.332 C 
HETATM    2  N9  UNL     1     -34.160   3.943   3.893  1.00 20.00    -0.247 NA
HETATM    3  O10 UNL     1     -32.768   2.772   5.387  1.00 20.00    -0.260 OA
ENDROOT
BRANCH   2   4
HETATM    4  C8  UNL     1     -34.878   5.066   4.479  1.00 20.00     0.162 C 
BRANCH   4   5
HETATM    5  C6  UNL     1     -34.561   6.318   3.659  1.00 20.00    -0.026 C 
HETATM    6  C4  UNL     1     -33.535   6.025   2.556  1.00 20.00     0.011 C 
HETATM    7  C2  UNL     1     -32.901   7.377   2.236  1.00 20.00     0.001 C 
HETATM    8  C3  UNL     1     -33.086   8.241   3.483  1.00 20.00     0.001 C 
HETATM    9  C5  UNL     1     -33.825   7.372   4.498  1.00 20.00     0.011 C 
HETATM   10  C7  UNL     1     -35.866   6.883   3.073  1.00 20.00     0.017 C 
ENDBRANCH   4   5
ENDBRANCH   2   4
TORSDOF 2
ENDMDL
MODEL 2
REMARK VINA RESULT:      -0.9      3.358      4.549
REMARK  2 active torsions:
REMARK  status: ('A' for Active; 'I' for Inactive)
REMARK    1  A    between atoms: C6_6  and  C8_8 
REMARK    2  A    between atoms: C8_8  and  N9_9 
ROOT
HETATM    1  C1  UNL     1     -32.251   8.951   0.979  1.00 20.00     0.332 C 
HETATM    2  N9  UNL     1     -32.146   8.177   1.860  1.00 20.00    -0.247 NA
HETATM    3  O10 UNL     1     -32.352   9.727   0.101  1.00 20.00    -0.260 OA
ENDROOT
BRANCH   2   4
HETATM    4  C8  UNL     1     -32.946   6.970   1.709  1.00 20.00     0.162 C 
BRANCH   4   5
HETATM    5  C6  UNL     1     -33.578   6.643   3.063  1.00 20.00    -0.026 C 
HETATM    6  C4  UNL     1     -33.443   5.153   3.404  1.00 20.00     0.011 C 
HETATM    7  C2  UNL     1     -34.560   4.872   4.407  1.00 20.00     0.001 C 
HETATM    8  C3  UNL     1     -35.627   5.941   4.166  1.00 20.00     0.001 C 
HETATM    9  C5  UNL     1     -35.104   6.818   3.031  1.00 20.00     0.011 C 
HETATM   10  C7  UNL     1     -32.939   7.525   4.147  1.00 20.00     0.017 C 
ENDBRANCH   4   5
ENDBRANCH   2   4
TORSDOF 2
ENDMDL
MODEL 3
REMARK VINA RESULT:      -0.6      3.447      4.660
REMARK  2 active torsions:
REMARK  status: ('A' for Active; 'I' for Inactive)
REMARK    1  A    between atoms: C6_6  and  C8_8 
REMARK    2  A    between atoms: C8_8  and  N9_9 
ROOT
HETATM    1  C1  UNL     1     -32.204   9.042   0.918  1.00 20.00     0.332 C 
HETATM    2  N9  UNL     1     -32.142   8.464   1.941  1.00 20.00    -0.247 NA
HETATM    3  O10 UNL     1     -32.268   9.623  -0.104  1.00 20.00    -0.260 OA
ENDROOT
BRANCH   2   4
HETATM    4  C8  UNL     1     -31.937   7.028   1.819  1.00 20.00     0.162 C 
BRANCH   4   5
HETATM    5  C6  UNL     1     -33.239   6.325   2.211  1.00 20.00    -0.026 C 
HETATM    6  C4  UNL     1     -34.088   7.191   3.152  1.00 20.00     0.011 C 
HETATM    7  C2  UNL     1     -34.989   6.206   3.892  1.00 20.00     0.001 C 
HETATM    8  C3  UNL     1     -34.272   4.856   3.848  1.00 20.00     0.001 C 
HETATM    9  C5  UNL     1     -32.972   5.088   3.081  1.00 20.00     0.011 C 
HETATM   10  C7  UNL     1     -34.017   5.954   0.938  1.00 20.00     0.017 C 
ENDBRANCH   4   5
ENDBRANCH   2   4
TORSDOF 2
ENDMDL
MODEL 4
REMARK VINA RESULT:       0.0      2.537      3.815
REMARK  2 active torsions:
REMARK  status: ('A' for Active; 'I' for Inactive)
REMARK    1  A    between atoms: C6_6  and  C8_8 
REMARK    2  A    between atoms: C8_8  and  N9_9 
ROOT
HETATM    1  C1  UNL     1     -34.718   6.579   3.948  1.00 20.00     0.332 C 
HETATM    2  N9  UNL     1     -33.863   7.315   3.613  1.00 20.00    -0.247 NA
HETATM    3  O10 UNL     1     -35.574   5.846   4.286  1.00 20.00    -0.260 OA
ENDROOT
BRANCH   2   4
HETATM    4  C8  UNL     1     -33.114   6.886   2.441  1.00 20.00     0.162 C 
BRANCH   4   5
HETATM    5  C6  UNL     1     -32.294   8.075   1.935  1.00 20.00    -0.026 C 
HETATM    6  C4  UNL     1     -33.195   9.182   1.370  1.00 20.00     0.011 C 
HETATM    7  C2  UNL     1     -32.300   9.974   0.419  1.00 20.00     0.001 C 
HETATM    8  C3  UNL     1     -31.183   9.022  -0.008  1.00 20.00     0.001 C 
HETATM    9  C5  UNL     1     -31.454   7.699   0.706  1.00 20.00     0.011 C 
HETATM   10  C7  UNL     1     -31.408   8.602   3.076  1.00 20.00     0.017 C 
ENDBRANCH   4   5
ENDBRANCH   2   4
TORSDOF 2
ENDMDL
MODEL 5
REMARK VINA RESULT:       0.2      3.532      4.603
REMARK  2 active torsions:
REMARK  status: ('A' for Active; 'I' for Inactive)
REMARK    1  A    between atoms: C6_6  and  C8_8 
REMARK    2  A    between atoms: C8_8  and  N9_9 
ROOT
HETATM    1  C1  UNL     1     -32.279   9.133   0.698  1.00 20.00     0.332 C 
HETATM    2  N9  UNL     1     -32.028   8.375   1.563  1.00 20.00    -0.247 NA
HETATM    3  O10 UNL     1     -32.528   9.894  -0.164  1.00 20.00    -0.260 OA
ENDROOT
BRANCH   2   4
HETATM    4  C8  UNL     1     -32.512   7.020   1.345  1.00 20.00     0.162 C 
BRANCH   4   5
HETATM    5  C6  UNL     1     -33.248   6.566   2.607  1.00 20.00    -0.026 C 
HETATM    6  C4  UNL     1     -34.771   6.613   2.420  1.00 20.00     0.011 C 
HETATM    7  C2  UNL     1     -35.340   6.715   3.833  1.00 20.00     0.001 C 
HETATM    8  C3  UNL     1     -34.233   7.320   4.696  1.00 20.00     0.001 C 
HETATM    9  C5  UNL     1     -33.045   7.553   3.765  1.00 20.00     0.011 C 
HETATM   10  C7  UNL     1     -32.774   5.154   2.989  1.00 20.00     0.017 C 
ENDBRANCH   4   5
ENDBRANCH   2   4
TORSDOF 2
ENDMDL
MODEL 6
REMARK VINA RESULT:       0.3      2.184      3.170
REMARK  2 active torsions:
REMARK  status: ('A' for Active; 'I' for Inactive)
REMARK    1  A    between atoms: C6_6  and  C8_8 
REMARK    2  A    between atoms: C8_8  and  N9_9 
ROOT
HETATM    1  C1  UNL     1     -34.982   6.204   4.077  1.00 20.00     0.332 C 
HETATM    2  N9  UNL     1     -34.571   7.249   3.722  1.00 20.00    -0.247 NA
HETATM    3  O10 UNL     1     -35.396   5.161   4.431  1.00 20.00    -0.260 OA
ENDROOT
BRANCH   2   4
HETATM    4  C8  UNL     1     -33.120   7.351   3.683  1.00 20.00     0.162 C 
BRANCH   4   5
HETATM    5  C6  UNL     1     -32.697   7.603   2.234  1.00 20.00    -0.026 C 
HETATM    6  C4  UNL     1     -31.227   8.035   2.141  1.00 20.00     0.011 C 
HETATM    7  C2  UNL     1     -31.117   8.785   0.815  1.00 20.00     0.001 C 
HETATM    8  C3  UNL     1     -32.524   9.292   0.494  1.00 20.00     0.001 C 
HETATM    9  C5  UNL     1     -33.418   8.823   1.640  1.00 20.00     0.011 C 
HETATM   10  C7  UNL     1     -32.963   6.339   1.401  1.00 20.00     0.017 C 
ENDBRANCH   4   5
ENDBRANCH   2   4
TORSDOF 2
ENDMDL
MODEL 7
REMARK VINA RESULT:       0.3      4.149      5.373
REMARK  2 active torsions:
REMARK  status: ('A' for Active; 'I' for Inactive)
REMARK    1  A    between atoms: C6_6  and  C8_8 
REMARK    2  A    between atoms: C8_8  and  N9_9 
ROOT
HETATM    1  C1  UNL     1     -32.681  10.110  -0.159  1.00 20.00     0.332 C 
HETATM    2  N9  UNL     1     -32.316   9.587   0.831  1.00 20.00    -0.247 NA
HETATM    3  O10 UNL     1     -33.045  10.636  -1.146  1.00 20.00    -0.260 OA
ENDROOT
BRANCH   2   4
HETATM    4  C8  UNL     1     -32.286   8.133   0.777  1.00 20.00     0.162 C 
BRANCH   4   5
HETATM    5  C6  UNL     1     -32.592   7.596   2.176  1.00 20.00    -0.026 C 
HETATM    6  C4  UNL     1     -32.852   6.083   2.156  1.00 20.00     0.011 C 
HETATM    7  C2  UNL     1     -33.680   5.806   3.409  1.00 20.00     0.001 C 
HETATM    8  C3  UNL     1     -34.371   7.123   3.763  1.00 20.00     0.001 C 
HETATM    9  C5  UNL     1     -33.928   8.135   2.709  1.00 20.00     0.011 C 
HETATM   10  C7  UNL     1     -31.432   7.951   3.120  1.00 20.00     0.017 C 
ENDBRANCH   4   5
ENDBRANCH   2   4
TORSDOF 2
ENDMDL
MODEL 8
REMARK VINA RESULT:       0.6      3.186      4.399
REMARK  2 active torsions:
REMARK  status: ('A' for Active; 'I' for Inactive)
REMARK    1  A    between atoms: C6_6  and  C8_8 
REMARK    2  A    between atoms: C8_8  and  N9_9 
ROOT
HETATM    1  C1  UNL     1     -32.156   8.554   1.155  1.00 20.00     0.332 C 
HETATM    2  N9  UNL     1     -32.131   7.756   2.020  1.00 20.00    -0.247 NA
HETATM    3  O10 UNL     1     -32.178   9.349   0.288  1.00 20.00    -0.260 OA
ENDROOT
BRANCH   2   4
HETATM    4  C8  UNL     1     -33.220   7.865   2.981  1.00 20.00     0.162 C 
BRANCH   4   5
HETATM    5  C6  UNL     1     -33.975   6.534   3.001  1.00 20.00    -0.026 C 
HETATM    6  C4  UNL     1     -35.095   6.536   4.050  1.00 20.00     0.011 C 
HETATM    7  C2  UNL     1     -35.346   5.063   4.365  1.00 20.00     0.001 C 
HETATM    8  C3  UNL     1     -34.055   4.325   4.011  1.00 20.00     0.001 C 
HETATM    9  C5  UNL     1     -33.084   5.386   3.498  1.00 20.00     0.011 C 
HETATM   10  C7  UNL     1     -34.526   6.243   1.595  1.00 20.00     0.017 C 
ENDBRANCH   4   5
ENDBRANCH   2   4
TORSDOF 2
ENDMDL
MODEL 9
REMARK VINA RESULT:       0.6      1.265      1.804
REMARK  2 active torsions:
REMARK  status: ('A' for Active; 'I' for Inactive)
REMARK    1  A    between atoms: C6_6  and  C8_8 
REMARK    2  A    between atoms: C8_8  and  N9_9 
ROOT
HETATM    1  C1  UNL     1     -33.495   3.533   4.399  1.00 20.00     0.332 C 
HETATM    2  N9  UNL     1     -33.847   4.376   3.656  1.00 20.00    -0.247 NA
HETATM    3  O10 UNL     1     -33.148   2.691   5.143  1.00 20.00    -0.260 OA
ENDROOT
BRANCH   2   4
HETATM    4  C8  UNL     1     -33.061   4.480   2.436  1.00 20.00     0.162 C 
BRANCH   4   5
HETATM    5  C6  UNL     1     -33.115   5.931   1.953  1.00 20.00    -0.026 C 
HETATM    6  C4  UNL     1     -31.711   6.495   1.698  1.00 20.00     0.011 C 
HETATM    7  C2  UNL     1     -31.866   8.010   1.804  1.00 20.00     0.001 C 
HETATM    8  C3  UNL     1     -33.100   8.252   2.674  1.00 20.00     0.001 C 
HETATM    9  C5  UNL     1     -33.634   6.872   3.051  1.00 20.00     0.011 C 
HETATM   10  C7  UNL     1     -33.989   6.012   0.691  1.00 20.00     0.017 C 
ENDBRANCH   4   5
ENDBRANCH   2   4
TORSDOF 2
ENDMDL
