MODEL 1
REMARK VINA RESULT:      -0.6      0.000      0.000
REMARK  3 active torsions:
REMARK  status: ('A' for Active; 'I' for Inactive)
REMARK    1  A    between atoms: C1_1  and  C6_6 
REMARK    2  A    between atoms: C6_6  and  C7_7 
REMARK    3  A    between atoms: C7_7  and  C8_8 
ROOT
HETATM    1  C2  UNL     1     -32.969   5.681   1.610  1.00 20.00     0.011 C 
HETATM    2  C7  UNL     1     -33.322   7.084   2.139  1.00 20.00    -0.003 C 
ENDROOT
BRANCH   2   3
HETATM    3  C6  UNL     1     -33.714   6.970   3.632  1.00 20.00     0.101 C 
BRANCH   3   4
HETATM    4  C1  UNL     1     -34.942   6.099   3.871  1.00 20.00     0.219 C 
HETATM    5  O9  UNL     1     -36.086   6.485   3.652  1.00 20.00    -0.280 OA
HETATM    6 CL10 UNL     1     -34.505   4.505   4.423  1.00 20.00    -0.044 Cl
ENDBRANCH   3   4
ENDBRANCH   2   3
BRANCH   2   7
HETATM    7  C8  UNL     1     -32.191   8.151   1.881  1.00 20.00    -0.048 C 
HETATM    8  C3  UNL     1     -30.977   7.502   1.181  1.00 20.00     0.015 C 
HETATM    9  C4  UNL     1     -31.683   8.723   3.224  1.00 20.00     0.015 C 
HETATM   10  C5  UNL     1     -32.679   9.324   1.010  1.00 20.00     0.015 C 
ENDBRANCH   2   7
TORSDOF 3
ENDMDL
MODEL 2
REMARK VINA RESULT:      -0.6      0.071      1.388
REMARK  3 active torsions:
REMARK  status: ('A' for Active; 'I' for Inactive)
REMARK    1  A    between atoms: C1_1  and  C6_6 
REMARK    2  A    between atoms: C6_6  and  C7_7 
REMARK    3  A    between atoms: C7_7  and  C8_8 
ROOT
HETATM    1  C2  UNL     1     -32.944   5.686   1.583  1.00 20.00     0.011 C 
HETATM    2  C7  UNL     1     -33.305   7.090   2.104  1.00 20.00    -0.003 C 
ENDROOT
BRANCH   2   3
HETATM    3  C6  UNL     1     -33.709   6.981   3.594  1.00 20.00     0.101 C 
BRANCH   3   4
HETATM    4  C1  UNL     1     -34.939   6.112   3.827  1.00 20.00     0.219 C 
HETATM    5  O9  UNL     1     -36.081   6.496   3.592  1.00 20.00    -0.280 OA
HETATM    6 CL10 UNL     1     -34.509   4.522   4.398  1.00 20.00    -0.044 Cl
ENDBRANCH   3   4
ENDBRANCH   2   3
BRANCH   2   7
HETATM    7  C8  UNL     1     -32.176   8.160   1.850  1.00 20.00    -0.048 C 
HETATM    8  C3  UNL     1     -32.722   9.342   1.019  1.00 20.00     0.015 C 
HETATM    9  C4  UNL     1     -31.022   7.533   1.036  1.00 20.00     0.015 C 
HETATM   10  C5  UNL     1     -31.595   8.721   3.161  1.00 20.00     0.015 C 
ENDBRANCH   2   7
TORSDOF 3
ENDMDL
MODEL 3
REMARK VINA RESULT:      -0.6      1.304      2.097
REMARK  3 active torsions:
REMARK  status: ('A' for Active; 'I' for Inactive)
REMARK    1  A    between atoms: C1_1  and  C6_6 
REMARK    2  A    between atoms: C6_6  and  C7_7 
REMARK    3  A    between atoms: C7_7  and  C8_8 
ROOT
HETATM    1  C2  UNL     1     -33.338   8.014   3.900  1.00 20.00     0.011 C 
HETATM    2  C7  UNL     1     -33.322   6.608   3.272  1.00 20.00    -0.003 C 
ENDROOT
BRANCH   2   3
HETATM    3  C6  UNL     1     -34.752   6.019   3.330  1.00 20.00     0.101 C 
BRANCH   3   4
HETATM    4  C1  UNL     1     -34.894   4.868   4.319  1.00 20.00     0.219 C 
HETATM    5  O9  UNL     1     -35.810   4.797   5.132  1.00 20.00    -0.280 OA
HETATM    6 CL10 UNL     1     -33.646   3.671   4.100  1.00 20.00    -0.044 Cl
ENDBRANCH   3   4
ENDBRANCH   2   3
BRANCH   2   7
HETATM    7  C8  UNL     1     -32.704   6.578   1.822  1.00 20.00    -0.048 C 
HETATM    8  C3  UNL     1     -31.692   5.419   1.685  1.00 20.00     0.015 C 
HETATM    9  C4  UNL     1     -31.929   7.887   1.548  1.00 20.00     0.015 C 
HETATM   10  C5  UNL     1     -33.777   6.413   0.731  1.00 20.00     0.015 C 
ENDBRANCH   2   7
TORSDOF 3
ENDMDL
MODEL 4
REMARK VINA RESULT:      -0.6      1.296      2.429
REMARK  3 active torsions:
REMARK  status: ('A' for Active; 'I' for Inactive)
REMARK    1  A    between atoms: C1_1  and  C6_6 
REMARK    2  A    between atoms: C6_6  and  C7_7 
REMARK    3  A    between atoms: C7_7  and  C8_8 
ROOT
HETATM    1  C2  UNL     1     -33.364   8.015   3.932  1.00 20.00     0.011 C 
HETATM    2  C7  UNL     1     -33.326   6.612   3.298  1.00 20.00    -0.003 C 
ENDROOT
BRANCH   2   3
HETATM    3  C6  UNL     1     -34.751   6.010   3.329  1.00 20.00     0.101 C 
BRANCH   3   4
HETATM    4  C1  UNL     1     -34.902   4.861   4.319  1.00 20.00     0.219 C 
HETATM    5  O9  UNL     1     -35.831   4.786   5.117  1.00 20.00    -0.280 OA
HETATM    6 CL10 UNL     1     -33.643   3.672   4.125  1.00 20.00    -0.044 Cl
ENDBRANCH   3   4
ENDBRANCH   2   3
BRANCH   2   7
HETATM    7  C8  UNL     1     -32.683   6.594   1.858  1.00 20.00    -0.048 C 
HETATM    8  C3  UNL     1     -31.938   7.918   1.577  1.00 20.00     0.015 C 
HETATM    9  C4  UNL     1     -33.787   6.462   0.785  1.00 20.00     0.015 C 
HETATM   10  C5  UNL     1     -31.689   5.433   1.675  1.00 20.00     0.015 C 
ENDBRANCH   2   7
TORSDOF 3
ENDMDL
MODEL 5
REMARK VINA RESULT:      -0.5      1.566      2.402
REMARK  3 active torsions:
REMARK  status: ('A' for Active; 'I' for Inactive)
REMARK    1  A    between atoms: C1_1  and  C6_6 
REMARK    2  A    between atoms: C6_6  and  C7_7 
REMARK    3  A    between atoms: C7_7  and  C8_8 
ROOT
HETATM    1  C2  UNL     1     -34.158   7.263   3.630  1.00 20.00     0.011 C 
HETATM    2  C7  UNL     1     -33.253   6.150   3.069  1.00 20.00    -0.003 C 
ENDROOT
BRANCH   2   3
HETATM    3  C6  UNL     1     -34.064   4.834   3.002  1.00 20.00     0.101 C 
BRANCH   3   4
HETATM    4  C1  UNL     1     -34.364   4.236   4.372  1.00 20.00     0.219 C 
HETATM    5  O9  UNL     1     -35.368   4.521   5.017  1.00 20.00    -0.280 OA
HETATM    6 CL10 UNL     1     -33.151   3.082   4.853  1.00 20.00    -0.044 Cl
ENDBRANCH   3   4
ENDBRANCH   2   3
BRANCH   2   7
HETATM    7  C8  UNL     1     -32.578   6.526   1.695  1.00 20.00    -0.048 C 
HETATM    8  C3  UNL     1     -33.624   6.537   0.558  1.00 20.00     0.015 C 
HETATM    9  C4  UNL     1     -31.514   5.470   1.318  1.00 20.00     0.015 C 
HETATM   10  C5  UNL     1     -31.897   7.906   1.735  1.00 20.00     0.015 C 
ENDBRANCH   2   7
TORSDOF 3
ENDMDL
MODEL 6
REMARK VINA RESULT:      -0.5      0.214      1.315
REMARK  3 active torsions:
REMARK  status: ('A' for Active; 'I' for Inactive)
REMARK    1  A    between atoms: C1_1  and  C6_6 
REMARK    2  A    between atoms: C6_6  and  C7_7 
REMARK    3  A    between atoms: C7_7  and  C8_8 
ROOT
HETATM    1  C2  UNL     1     -32.841   5.696   1.493  1.00 20.00     0.011 C 
HETATM    2  C7  UNL     1     -33.233   7.087   2.027  1.00 20.00    -0.003 C 
ENDROOT
BRANCH   2   3
HETATM    3  C6  UNL     1     -33.590   6.962   3.528  1.00 20.00     0.101 C 
BRANCH   3   4
HETATM    4  C1  UNL     1     -34.794   6.066   3.792  1.00 20.00     0.219 C 
HETATM    5  O9  UNL     1     -35.952   6.443   3.637  1.00 20.00    -0.280 OA
HETATM    6 CL10 UNL     1     -34.313   4.461   4.271  1.00 20.00    -0.044 Cl
ENDBRANCH   3   4
ENDBRANCH   2   3
BRANCH   2   7
HETATM    7  C8  UNL     1     -32.148   8.194   1.743  1.00 20.00    -0.048 C 
HETATM    8  C3  UNL     1     -31.514   8.687   3.062  1.00 20.00     0.015 C 
HETATM    9  C4  UNL     1     -32.804   9.422   1.072  1.00 20.00     0.015 C 
HETATM   10  C5  UNL     1     -31.019   7.687   0.826  1.00 20.00     0.015 C 
ENDBRANCH   2   7
TORSDOF 3
ENDMDL
MODEL 7
REMARK VINA RESULT:      -0.3      3.064      4.368
REMARK  3 active torsions:
REMARK  status: ('A' for Active; 'I' for Inactive)
REMARK    1  A    between atoms: C1_1  and  C6_6 
REMARK    2  A    between atoms: C6_6  and  C7_7 
REMARK    3  A    between atoms: C7_7  and  C8_8 
ROOT
HETATM    1  C2  UNL     1     -33.209   5.614   1.530  1.00 20.00     0.011 C 
HETATM    2  C7  UNL     1     -33.221   6.678   2.645  1.00 20.00    -0.003 C 
ENDROOT
BRANCH   2   3
HETATM    3  C6  UNL     1     -33.280   8.081   1.995  1.00 20.00     0.101 C 
BRANCH   3   4
HETATM    4  C1  UNL     1     -32.004   8.457   1.251  1.00 20.00     0.219 C 
HETATM    5  O9  UNL     1     -30.929   7.899   1.446  1.00 20.00    -0.280 OA
HETATM    6 CL10 UNL     1     -32.289   9.712   0.075  1.00 20.00    -0.044 Cl
ENDBRANCH   3   4
ENDBRANCH   2   3
BRANCH   2   7
HETATM    7  C8  UNL     1     -34.355   6.448   3.716  1.00 20.00    -0.048 C 
HETATM    8  C3  UNL     1     -35.744   6.757   3.114  1.00 20.00     0.015 C 
HETATM    9  C4  UNL     1     -34.159   7.407   4.912  1.00 20.00     0.015 C 
HETATM   10  C5  UNL     1     -34.373   5.005   4.251  1.00 20.00     0.015 C 
ENDBRANCH   2   7
TORSDOF 3
ENDMDL
MODEL 8
REMARK VINA RESULT:      -0.3      3.259      4.393
REMARK  3 active torsions:
REMARK  status: ('A' for Active; 'I' for Inactive)
REMARK    1  A    between atoms: C1_1  and  C6_6 
REMARK    2  A    between atoms: C6_6  and  C7_7 
REMARK    3  A    between atoms: C7_7  and  C8_8 
ROOT
HETATM    1  C2  UNL     1     -33.091   7.921   3.524  1.00 20.00     0.011 C 
HETATM    2  C7  UNL     1     -33.067   7.593   2.019  1.00 20.00    -0.003 C 
ENDROOT
BRANCH   2   3
HETATM    3  C6  UNL     1     -31.936   8.409   1.349  1.00 20.00     0.101 C 
BRANCH   3   4
HETATM    4  C1  UNL     1     -32.444   9.444   0.352  1.00 20.00     0.219 C 
HETATM    5  O9  UNL     1     -32.736   9.167  -0.807  1.00 20.00    -0.280 OA
HETATM    6 CL10 UNL     1     -32.608  11.018   1.083  1.00 20.00    -0.044 Cl
ENDBRANCH   3   4
ENDBRANCH   2   3
BRANCH   2   7
HETATM    7  C8  UNL     1     -32.971   6.048   1.717  1.00 20.00    -0.048 C 
HETATM    8  C3  UNL     1     -33.766   5.692   0.441  1.00 20.00     0.015 C 
HETATM    9  C4  UNL     1     -33.595   5.241   2.877  1.00 20.00     0.015 C 
HETATM   10  C5  UNL     1     -31.518   5.577   1.527  1.00 20.00     0.015 C 
ENDBRANCH   2   7
TORSDOF 3
ENDMDL
MODEL 9
REMARK VINA RESULT:      -0.2      2.971      4.245
REMARK  3 active torsions:
REMARK  status: ('A' for Active; 'I' for Inactive)
REMARK    1  A    between atoms: C1_1  and  C6_6 
REMARK    2  A    between atoms: C6_6  and  C7_7 
REMARK    3  A    between atoms: C7_7  and  C8_8 
ROOT
HETATM    1  C2  UNL     1     -33.071   4.997   1.866  1.00 20.00     0.011 C 
HETATM    2  C7  UNL     1     -33.145   6.381   2.538  1.00 20.00    -0.003 C 
ENDROOT
BRANCH   2   3
HETATM    3  C6  UNL     1     -33.236   7.466   1.439  1.00 20.00     0.101 C 
BRANCH   3   4
HETATM    4  C1  UNL     1     -32.112   8.494   1.507  1.00 20.00     0.219 C 
HETATM    5  O9  UNL     1     -31.203   8.433   2.329  1.00 20.00    -0.280 OA
HETATM    6 CL10 UNL     1     -32.259   9.696   0.255  1.00 20.00    -0.044 Cl
ENDBRANCH   3   4
ENDBRANCH   2   3
BRANCH   2   7
HETATM    7  C8  UNL     1     -34.297   6.495   3.609  1.00 20.00    -0.048 C 
HETATM    8  C3  UNL     1     -34.534   5.135   4.301  1.00 20.00     0.015 C 
HETATM    9  C4  UNL     1     -35.624   6.890   2.923  1.00 20.00     0.015 C 
HETATM   10  C5  UNL     1     -33.985   7.540   4.696  1.00 20.00     0.015 C 
ENDBRANCH   2   7
TORSDOF 3
ENDMDL
