MODEL 1
REMARK VINA RESULT:      -0.1      0.000      0.000
REMARK  4 active torsions:
REMARK  status: ('A' for Active; 'I' for Inactive)
REMARK    1  A    between atoms: C1_1  and  C12_12 
REMARK    2  A    between atoms: C6_6  and  C10_10 
REMARK    3  A    between atoms: C7_7  and  C11_11 
REMARK    4  A    between atoms: C11_11  and  C12_12 
ROOT
HETATM    1  C2  UNL     1     -32.315   6.033   0.970  1.00 20.00     0.001 C 
HETATM    2  C3  UNL     1     -31.259   7.136   0.923  1.00 20.00     0.005 C 
HETATM    3  C4  UNL     1     -32.926   5.898   2.361  1.00 20.00     0.005 C 
HETATM    4  C5  UNL     1     -32.426   8.333   2.820  1.00 20.00     0.009 C 
HETATM    5  C6  UNL     1     -31.777   8.487   1.436  1.00 20.00    -0.014 C 
HETATM    6  C7  UNL     1     -33.494   7.230   2.870  1.00 20.00    -0.013 C 
ENDROOT
BRANCH   6   7
HETATM    7  C11 UNL     1     -34.039   7.074   4.289  1.00 20.00     0.015 C 
BRANCH   7   8
HETATM    8  C12 UNL     1     -35.437   6.452   4.312  1.00 20.00     0.043 C 
HETATM    9  C9  UNL     1     -36.167   6.729   3.000  1.00 20.00     0.017 C 
BRANCH   8  10
HETATM   10  C1  UNL     1     -35.416   4.947   4.521  1.00 20.00     0.235 C 
HETATM   11  O13 UNL     1     -34.410   4.247   4.487  1.00 20.00    -0.306 OA
ENDBRANCH   8  10
ENDBRANCH   7   8
ENDBRANCH   6   7
BRANCH   5  12
HETATM   12  C10 UNL     1     -32.728   9.146   0.433  1.00 20.00     0.000 C 
HETATM   13  C8  UNL     1     -32.558  10.629   0.408  1.00 20.00     0.005 C 
ENDBRANCH   5  12
TORSDOF 4
ENDMDL
MODEL 2
REMARK VINA RESULT:       1.2      2.493      4.859
REMARK  4 active torsions:
REMARK  status: ('A' for Active; 'I' for Inactive)
REMARK    1  A    between atoms: C1_1  and  C12_12 
REMARK    2  A    between atoms: C6_6  and  C10_10 
REMARK    3  A    between atoms: C7_7  and  C11_11 
REMARK    4  A    between atoms: C11_11  and  C12_12 
ROOT
HETATM    1  C2  UNL     1     -33.917   5.071   3.508  1.00 20.00     0.001 C 
HETATM    2  C3  UNL     1     -35.009   6.020   3.995  1.00 20.00     0.005 C 
HETATM    3  C4  UNL     1     -33.334   5.521   2.172  1.00 20.00     0.005 C 
HETATM    4  C5  UNL     1     -33.931   7.916   2.715  1.00 20.00     0.009 C 
HETATM    5  C6  UNL     1     -34.552   7.484   4.053  1.00 20.00    -0.014 C 
HETATM    6  C7  UNL     1     -32.826   6.968   2.226  1.00 20.00    -0.013 C 
ENDROOT
BRANCH   6   7
HETATM    7  C11 UNL     1     -32.309   7.407   0.857  1.00 20.00     0.015 C 
BRANCH   7   8
HETATM    8  C12 UNL     1     -31.755   8.834   0.872  1.00 20.00     0.043 C 
HETATM    9  C9  UNL     1     -30.496   8.927   0.014  1.00 20.00     0.017 C 
BRANCH   8  10
HETATM   10  C1  UNL     1     -32.745   9.863   0.355  1.00 20.00     0.235 C 
HETATM   11  O13 UNL     1     -33.061  10.005  -0.822  1.00 20.00    -0.306 OA
ENDBRANCH   8  10
ENDBRANCH   7   8
ENDBRANCH   6   7
BRANCH   5  12
HETATM   12  C10 UNL     1     -33.602   7.734   5.227  1.00 20.00     0.000 C 
HETATM   13  C8  UNL     1     -32.488   8.653   4.848  1.00 20.00     0.005 C 
ENDBRANCH   5  12
TORSDOF 4
ENDMDL
MODEL 3
REMARK VINA RESULT:       1.3      0.901      1.248
REMARK  4 active torsions:
REMARK  status: ('A' for Active; 'I' for Inactive)
REMARK    1  A    between atoms: C1_1  and  C12_12 
REMARK    2  A    between atoms: C6_6  and  C10_10 
REMARK    3  A    between atoms: C7_7  and  C11_11 
REMARK    4  A    between atoms: C11_11  and  C12_12 
ROOT
HETATM    1  C2  UNL     1     -31.921   5.901   1.016  1.00 20.00     0.001 C 
HETATM    2  C3  UNL     1     -31.093   7.094   1.492  1.00 20.00     0.005 C 
HETATM    3  C4  UNL     1     -33.042   5.568   1.996  1.00 20.00     0.005 C 
HETATM    4  C5  UNL     1     -33.095   7.977   2.759  1.00 20.00     0.009 C 
HETATM    5  C6  UNL     1     -31.946   8.332   1.803  1.00 20.00    -0.014 C 
HETATM    6  C7  UNL     1     -33.935   6.783   2.281  1.00 20.00    -0.013 C 
ENDROOT
BRANCH   6   7
HETATM    7  C11 UNL     1     -35.006   6.433   3.312  1.00 20.00     0.015 C 
BRANCH   7   8
HETATM    8  C12 UNL     1     -34.501   5.440   4.362  1.00 20.00     0.043 C 
HETATM    9  C9  UNL     1     -35.623   5.070   5.330  1.00 20.00     0.017 C 
BRANCH   8  10
HETATM   10  C1  UNL     1     -33.969   4.152   3.758  1.00 20.00     0.235 C 
HETATM   11  O13 UNL     1     -33.731   3.126   4.387  1.00 20.00    -0.306 OA
ENDBRANCH   8  10
ENDBRANCH   7   8
ENDBRANCH   6   7
BRANCH   5  12
HETATM   12  C10 UNL     1     -32.456   9.003   0.526  1.00 20.00     0.000 C 
HETATM   13  C8  UNL     1     -32.635  10.474   0.711  1.00 20.00     0.005 C 
ENDBRANCH   5  12
TORSDOF 4
ENDMDL
MODEL 4
REMARK VINA RESULT:       1.3      2.610      4.962
REMARK  4 active torsions:
REMARK  status: ('A' for Active; 'I' for Inactive)
REMARK    1  A    between atoms: C1_1  and  C12_12 
REMARK    2  A    between atoms: C6_6  and  C10_10 
REMARK    3  A    between atoms: C7_7  and  C11_11 
REMARK    4  A    between atoms: C11_11  and  C12_12 
ROOT
HETATM    1  C2  UNL     1     -34.371   6.377   3.366  1.00 20.00     0.001 C 
HETATM    2  C3  UNL     1     -33.707   5.061   2.968  1.00 20.00     0.005 C 
HETATM    3  C4  UNL     1     -33.376   7.534   3.363  1.00 20.00     0.005 C 
HETATM    4  C5  UNL     1     -31.985   6.336   1.625  1.00 20.00     0.009 C 
HETATM    5  C6  UNL     1     -32.957   5.145   1.632  1.00 20.00    -0.014 C 
HETATM    6  C7  UNL     1     -32.651   7.664   2.016  1.00 20.00    -0.013 C 
ENDROOT
BRANCH   6   7
HETATM    7  C11 UNL     1     -31.617   8.787   2.069  1.00 20.00     0.015 C 
BRANCH   7   8
HETATM    8  C12 UNL     1     -31.494   9.530   0.737  1.00 20.00     0.043 C 
HETATM    9  C9  UNL     1     -31.043   8.577  -0.367  1.00 20.00     0.017 C 
BRANCH   8  10
HETATM   10  C1  UNL     1     -32.796  10.173   0.290  1.00 20.00     0.235 C 
HETATM   11  O13 UNL     1     -33.252  10.120  -0.848  1.00 20.00    -0.306 OA
ENDBRANCH   8  10
ENDBRANCH   7   8
ENDBRANCH   6   7
BRANCH   5  12
HETATM   12  C10 UNL     1     -33.921   5.192   0.443  1.00 20.00     0.000 C 
HETATM   13  C8  UNL     1     -33.742   4.015  -0.457  1.00 20.00     0.005 C 
ENDBRANCH   5  12
TORSDOF 4
ENDMDL
MODEL 5
REMARK VINA RESULT:       1.5      2.404      5.296
REMARK  4 active torsions:
REMARK  status: ('A' for Active; 'I' for Inactive)
REMARK    1  A    between atoms: C1_1  and  C12_12 
REMARK    2  A    between atoms: C6_6  and  C10_10 
REMARK    3  A    between atoms: C7_7  and  C11_11 
REMARK    4  A    between atoms: C11_11  and  C12_12 
ROOT
HETATM    1  C2  UNL     1     -36.005   6.182   3.364  1.00 20.00     0.001 C 
HETATM    2  C3  UNL     1     -35.638   5.451   4.653  1.00 20.00     0.005 C 
HETATM    3  C4  UNL     1     -35.091   7.379   3.115  1.00 20.00     0.005 C 
HETATM    4  C5  UNL     1     -33.249   6.246   4.424  1.00 20.00     0.009 C 
HETATM    5  C6  UNL     1     -34.160   5.043   4.714  1.00 20.00    -0.014 C 
HETATM    6  C7  UNL     1     -33.609   6.979   3.123  1.00 20.00    -0.013 C 
ENDROOT
BRANCH   6   7
HETATM    7  C11 UNL     1     -32.721   8.209   2.937  1.00 20.00     0.015 C 
BRANCH   7   8
HETATM    8  C12 UNL     1     -31.871   8.128   1.666  1.00 20.00     0.043 C 
HETATM    9  C9  UNL     1     -31.855   6.700   1.125  1.00 20.00     0.017 C 
BRANCH   8  10
HETATM   10  C1  UNL     1     -32.370   9.038   0.557  1.00 20.00     0.235 C 
HETATM   11  O13 UNL     1     -32.467  10.258   0.639  1.00 20.00    -0.306 OA
ENDBRANCH   8  10
ENDBRANCH   7   8
ENDBRANCH   6   7
BRANCH   5  12
HETATM   12  C10 UNL     1     -33.859   3.865   3.782  1.00 20.00     0.000 C 
HETATM   13  C8  UNL     1     -33.201   2.741   4.512  1.00 20.00     0.005 C 
ENDBRANCH   5  12
TORSDOF 4
ENDMDL
MODEL 6
REMARK VINA RESULT:       1.7      2.462      4.906
REMARK  4 active torsions:
REMARK  status: ('A' for Active; 'I' for Inactive)
REMARK    1  A    between atoms: C1_1  and  C12_12 
REMARK    2  A    between atoms: C6_6  and  C10_10 
REMARK    3  A    between atoms: C7_7  and  C11_11 
REMARK    4  A    between atoms: C11_11  and  C12_12 
ROOT
HETATM    1  C2  UNL     1     -34.201   6.316   3.394  1.00 20.00     0.001 C 
HETATM    2  C3  UNL     1     -33.342   5.139   2.935  1.00 20.00     0.005 C 
HETATM    3  C4  UNL     1     -33.441   7.636   3.305  1.00 20.00     0.005 C 
HETATM    4  C5  UNL     1     -32.012   6.691   1.446  1.00 20.00     0.009 C 
HETATM    5  C6  UNL     1     -32.742   5.341   1.537  1.00 20.00    -0.014 C 
HETATM    6  C7  UNL     1     -32.875   7.878   1.899  1.00 20.00    -0.013 C 
ENDROOT
BRANCH   6   7
HETATM    7  C11 UNL     1     -32.067   9.174   1.862  1.00 20.00     0.015 C 
BRANCH   7   8
HETATM    8  C12 UNL     1     -32.725  10.247   0.991  1.00 20.00     0.043 C 
HETATM    9  C9  UNL     1     -32.212  11.633   1.373  1.00 20.00     0.017 C 
BRANCH   8  10
HETATM   10  C1  UNL     1     -32.468  10.051  -0.493  1.00 20.00     0.235 C 
HETATM   11  O13 UNL     1     -32.863   9.097  -1.155  1.00 20.00    -0.306 OA
ENDBRANCH   8  10
ENDBRANCH   7   8
ENDBRANCH   6   7
BRANCH   5  12
HETATM   12  C10 UNL     1     -33.799   5.192   0.440  1.00 20.00     0.000 C 
HETATM   13  C8  UNL     1     -33.548   3.989  -0.408  1.00 20.00     0.005 C 
ENDBRANCH   5  12
TORSDOF 4
ENDMDL
MODEL 7
REMARK VINA RESULT:       1.8      2.560      4.956
REMARK  4 active torsions:
REMARK  status: ('A' for Active; 'I' for Inactive)
REMARK    1  A    between atoms: C1_1  and  C12_12 
REMARK    2  A    between atoms: C6_6  and  C10_10 
REMARK    3  A    between atoms: C7_7  and  C11_11 
REMARK    4  A    between atoms: C11_11  and  C12_12 
ROOT
HETATM    1  C2  UNL     1     -32.078   5.348   1.441  1.00 20.00     0.001 C 
HETATM    2  C3  UNL     1     -33.595   5.262   1.590  1.00 20.00     0.005 C 
HETATM    3  C4  UNL     1     -31.613   6.786   1.233  1.00 20.00     0.005 C 
HETATM    4  C5  UNL     1     -33.641   7.625   2.487  1.00 20.00     0.009 C 
HETATM    5  C6  UNL     1     -34.146   6.187   2.683  1.00 20.00    -0.014 C 
HETATM    6  C7  UNL     1     -32.114   7.717   2.345  1.00 20.00    -0.013 C 
ENDROOT
BRANCH   6   7
HETATM    7  C11 UNL     1     -31.686   9.158   2.071  1.00 20.00     0.015 C 
BRANCH   7   8
HETATM    8  C12 UNL     1     -32.639   9.878   1.113  1.00 20.00     0.043 C 
HETATM    9  C9  UNL     1     -32.569  11.388   1.325  1.00 20.00     0.017 C 
BRANCH   8  10
HETATM   10  C1  UNL     1     -32.336   9.601  -0.349  1.00 20.00     0.235 C 
HETATM   11  O13 UNL     1     -33.085   9.863  -1.284  1.00 20.00    -0.306 OA
ENDBRANCH   8  10
ENDBRANCH   7   8
ENDBRANCH   6   7
BRANCH   5  12
HETATM   12  C10 UNL     1     -33.828   5.660   4.085  1.00 20.00     0.000 C 
HETATM   13  C8  UNL     1     -34.126   4.202   4.206  1.00 20.00     0.005 C 
ENDBRANCH   5  12
TORSDOF 4
ENDMDL
MODEL 8
REMARK VINA RESULT:       2.0      1.133      2.569
REMARK  4 active torsions:
REMARK  status: ('A' for Active; 'I' for Inactive)
REMARK    1  A    between atoms: C1_1  and  C12_12 
REMARK    2  A    between atoms: C6_6  and  C10_10 
REMARK    3  A    between atoms: C7_7  and  C11_11 
REMARK    4  A    between atoms: C11_11  and  C12_12 
ROOT
HETATM    1  C2  UNL     1     -31.198   8.464   2.184  1.00 20.00     0.001 C 
HETATM    2  C3  UNL     1     -31.657   7.896   0.843  1.00 20.00     0.005 C 
HETATM    3  C4  UNL     1     -32.356   8.590   3.169  1.00 20.00     0.005 C 
HETATM    4  C5  UNL     1     -33.556   6.695   2.002  1.00 20.00     0.009 C 
HETATM    5  C6  UNL     1     -32.416   6.569   0.979  1.00 20.00    -0.014 C 
HETATM    6  C7  UNL     1     -33.096   7.258   3.355  1.00 20.00    -0.013 C 
ENDROOT
BRANCH   6   7
HETATM    7  C11 UNL     1     -34.288   7.434   4.295  1.00 20.00     0.015 C 
BRANCH   7   8
HETATM    8  C12 UNL     1     -35.214   6.215   4.299  1.00 20.00     0.043 C 
HETATM    9  C9  UNL     1     -36.341   6.398   3.285  1.00 20.00     0.017 C 
BRANCH   8  10
HETATM   10  C1  UNL     1     -34.495   4.919   3.963  1.00 20.00     0.235 C 
HETATM   11  O13 UNL     1     -34.505   3.909   4.659  1.00 20.00    -0.306 OA
ENDBRANCH   8  10
ENDBRANCH   7   8
ENDBRANCH   6   7
BRANCH   5  12
HETATM   12  C10 UNL     1     -31.474   5.411   1.318  1.00 20.00     0.000 C 
HETATM   13  C8  UNL     1     -31.544   4.327   0.294  1.00 20.00     0.005 C 
ENDBRANCH   5  12
TORSDOF 4
ENDMDL
MODEL 9
REMARK VINA RESULT:       2.2      1.103      1.441
REMARK  4 active torsions:
REMARK  status: ('A' for Active; 'I' for Inactive)
REMARK    1  A    between atoms: C1_1  and  C12_12 
REMARK    2  A    between atoms: C6_6  and  C10_10 
REMARK    3  A    between atoms: C7_7  and  C11_11 
REMARK    4  A    between atoms: C11_11  and  C12_12 
ROOT
HETATM    1  C2  UNL     1     -32.333   6.694   0.388  1.00 20.00     0.001 C 
HETATM    2  C3  UNL     1     -31.306   7.800   0.626  1.00 20.00     0.005 C 
HETATM    3  C4  UNL     1     -32.800   6.067   1.698  1.00 20.00     0.005 C 
HETATM    4  C5  UNL     1     -32.296   8.226   2.913  1.00 20.00     0.009 C 
HETATM    5  C6  UNL     1     -31.792   8.870   1.612  1.00 20.00    -0.014 C 
HETATM    6  C7  UNL     1     -33.335   7.120   2.678  1.00 20.00    -0.013 C 
ENDROOT
BRANCH   6   7
HETATM    7  C11 UNL     1     -33.732   6.467   4.002  1.00 20.00     0.015 C 
BRANCH   7   8
HETATM    8  C12 UNL     1     -34.480   5.147   3.800  1.00 20.00     0.043 C 
HETATM    9  C9  UNL     1     -33.619   3.971   4.254  1.00 20.00     0.017 C 
BRANCH   8  10
HETATM   10  C1  UNL     1     -35.792   5.082   4.564  1.00 20.00     0.235 C 
HETATM   11  O13 UNL     1     -35.921   4.648   5.704  1.00 20.00    -0.306 OA
ENDBRANCH   8  10
ENDBRANCH   7   8
ENDBRANCH   6   7
BRANCH   5  12
HETATM   12  C10 UNL     1     -32.850   9.781   0.983  1.00 20.00     0.000 C 
HETATM   13  C8  UNL     1     -32.537  10.084  -0.445  1.00 20.00     0.005 C 
ENDBRANCH   5  12
TORSDOF 4
ENDMDL
