MODEL 1
REMARK VINA RESULT:      -2.5      0.000      0.000
REMARK  3 active torsions:
REMARK  status: ('A' for Active; 'I' for Inactive)
REMARK    1  A    between atoms: C3_3  and  C5_5 
REMARK    2  A    between atoms: C5_5  and  C7_7 
REMARK    3  A    between atoms: C6_6  and  C7_7 
ROOT
HETATM    1  C5  UNL     1     -32.122   8.228   1.488  1.00 20.00     0.010 C 
ENDROOT
BRANCH   1   2
HETATM    2  C3  UNL     1     -32.797   9.179   0.543  1.00 20.00    -0.014 A 
HETATM    3  C1  UNL     1     -32.706  10.662   0.767  1.00 20.00     0.005 A 
HETATM    4  C2  UNL     1     -31.979  10.032  -0.386  1.00 20.00     0.005 A 
ENDBRANCH   1   2
BRANCH   1   5
HETATM    5  C7  UNL     1     -33.045   7.086   1.958  1.00 20.00    -0.004 C 
HETATM    6  C4  UNL     1     -32.451   5.708   1.647  1.00 20.00     0.011 C 
BRANCH   5   7
HETATM    7  C6  UNL     1     -33.401   7.222   3.448  1.00 20.00     0.119 C 
HETATM    8 CL8  UNL     1     -34.994   6.542   3.866  1.00 20.00    -0.130 Cl
ENDBRANCH   5   7
ENDBRANCH   1   5
TORSDOF 3
ENDMDL
MODEL 2
REMARK VINA RESULT:      -2.2      2.418      4.201
REMARK  3 active torsions:
REMARK  status: ('A' for Active; 'I' for Inactive)
REMARK    1  A    between atoms: C3_3  and  C5_5 
REMARK    2  A    between atoms: C5_5  and  C7_7 
REMARK    3  A    between atoms: C6_6  and  C7_7 
ROOT
HETATM    1  C5  UNL     1     -33.720   7.524   2.692  1.00 20.00     0.010 C 
ENDROOT
BRANCH   1   2
HETATM    2  C3  UNL     1     -34.192   6.838   3.940  1.00 20.00    -0.014 A 
HETATM    3  C1  UNL     1     -35.588   6.285   4.019  1.00 20.00     0.005 A 
HETATM    4  C2  UNL     1     -34.413   5.351   3.949  1.00 20.00     0.005 A 
ENDBRANCH   1   2
BRANCH   1   5
HETATM    5  C7  UNL     1     -32.376   6.976   2.173  1.00 20.00    -0.004 C 
HETATM    6  C4  UNL     1     -32.573   5.823   1.184  1.00 20.00     0.011 C 
BRANCH   5   7
HETATM    7  C6  UNL     1     -31.503   8.090   1.570  1.00 20.00     0.119 C 
HETATM    8 CL8  UNL     1     -32.433   9.328   0.689  1.00 20.00    -0.130 Cl
ENDBRANCH   5   7
ENDBRANCH   1   5
TORSDOF 3
ENDMDL
MODEL 3
REMARK VINA RESULT:      -2.1      3.282      5.640
REMARK  3 active torsions:
REMARK  status: ('A' for Active; 'I' for Inactive)
REMARK    1  A    between atoms: C3_3  and  C5_5 
REMARK    2  A    between atoms: C5_5  and  C7_7 
REMARK    3  A    between atoms: C6_6  and  C7_7 
ROOT
HETATM    1  C5  UNL     1     -34.497   4.804   4.153  1.00 20.00     0.010 C 
ENDROOT
BRANCH   1   2
HETATM    2  C3  UNL     1     -33.316   3.881   4.086  1.00 20.00    -0.014 A 
HETATM    3  C1  UNL     1     -32.723   3.316   5.347  1.00 20.00     0.005 A 
HETATM    4  C2  UNL     1     -33.478   2.421   4.406  1.00 20.00     0.005 A 
ENDBRANCH   1   2
BRANCH   1   5
HETATM    5  C7  UNL     1     -34.323   6.071   3.292  1.00 20.00    -0.004 C 
HETATM    6  C4  UNL     1     -34.172   7.330   4.152  1.00 20.00     0.011 C 
BRANCH   5   7
HETATM    7  C6  UNL     1     -33.158   5.926   2.298  1.00 20.00     0.119 C 
HETATM    8 CL8  UNL     1     -32.366   7.470   1.896  1.00 20.00    -0.130 Cl
ENDBRANCH   5   7
ENDBRANCH   1   5
TORSDOF 3
ENDMDL
MODEL 4
REMARK VINA RESULT:      -2.1      2.059      3.054
REMARK  3 active torsions:
REMARK  status: ('A' for Active; 'I' for Inactive)
REMARK    1  A    between atoms: C3_3  and  C5_5 
REMARK    2  A    between atoms: C5_5  and  C7_7 
REMARK    3  A    between atoms: C6_6  and  C7_7 
ROOT
HETATM    1  C5  UNL     1     -33.330   6.005   2.022  1.00 20.00     0.010 C 
ENDROOT
BRANCH   1   2
HETATM    2  C3  UNL     1     -32.096   6.855   1.934  1.00 20.00    -0.014 A 
HETATM    3  C1  UNL     1     -32.100   8.114   1.114  1.00 20.00     0.005 A 
HETATM    4  C2  UNL     1     -32.050   8.195   2.613  1.00 20.00     0.005 A 
ENDBRANCH   1   2
BRANCH   1   5
HETATM    5  C7  UNL     1     -33.766   5.720   3.472  1.00 20.00    -0.004 C 
HETATM    6  C4  UNL     1     -34.886   6.661   3.927  1.00 20.00     0.011 C 
BRANCH   5   7
HETATM    7  C6  UNL     1     -34.157   4.245   3.668  1.00 20.00     0.119 C 
HETATM    8 CL8  UNL     1     -33.091   3.366   4.792  1.00 20.00    -0.130 Cl
ENDBRANCH   5   7
ENDBRANCH   1   5
TORSDOF 3
ENDMDL
MODEL 5
REMARK VINA RESULT:      -2.0      1.696      2.116
REMARK  3 active torsions:
REMARK  status: ('A' for Active; 'I' for Inactive)
REMARK    1  A    between atoms: C3_3  and  C5_5 
REMARK    2  A    between atoms: C5_5  and  C7_7 
REMARK    3  A    between atoms: C6_6  and  C7_7 
ROOT
HETATM    1  C5  UNL     1     -31.995   8.346   2.114  1.00 20.00     0.010 C 
ENDROOT
BRANCH   1   2
HETATM    2  C3  UNL     1     -32.728   8.906   0.931  1.00 20.00    -0.014 A 
HETATM    3  C1  UNL     1     -32.708  10.383   0.657  1.00 20.00     0.005 A 
HETATM    4  C2  UNL     1     -31.966   9.441  -0.248  1.00 20.00     0.005 A 
ENDBRANCH   1   2
BRANCH   1   5
HETATM    5  C7  UNL     1     -32.717   7.149   2.763  1.00 20.00    -0.004 C 
HETATM    6  C4  UNL     1     -33.895   7.597   3.634  1.00 20.00     0.011 C 
BRANCH   5   7
HETATM    7  C6  UNL     1     -33.157   6.114   1.712  1.00 20.00     0.119 C 
HETATM    8 CL8  UNL     1     -31.809   5.170   1.031  1.00 20.00    -0.130 Cl
ENDBRANCH   5   7
ENDBRANCH   1   5
TORSDOF 3
ENDMDL
MODEL 6
REMARK VINA RESULT:      -1.9      1.492      2.500
REMARK  3 active torsions:
REMARK  status: ('A' for Active; 'I' for Inactive)
REMARK    1  A    between atoms: C3_3  and  C5_5 
REMARK    2  A    between atoms: C5_5  and  C7_7 
REMARK    3  A    between atoms: C6_6  and  C7_7 
ROOT
HETATM    1  C5  UNL     1     -33.130   6.760   2.114  1.00 20.00     0.010 C 
ENDROOT
BRANCH   1   2
HETATM    2  C3  UNL     1     -32.157   7.894   1.976  1.00 20.00    -0.014 A 
HETATM    3  C1  UNL     1     -31.366   8.062   0.709  1.00 20.00     0.005 A 
HETATM    4  C2  UNL     1     -32.456   9.039   1.049  1.00 20.00     0.005 A 
ENDBRANCH   1   2
BRANCH   1   5
HETATM    5  C7  UNL     1     -33.600   6.541   3.566  1.00 20.00    -0.004 C 
HETATM    6  C4  UNL     1     -34.158   7.826   4.186  1.00 20.00     0.011 C 
BRANCH   5   7
HETATM    7  C6  UNL     1     -34.609   5.384   3.667  1.00 20.00     0.119 C 
HETATM    8 CL8  UNL     1     -33.889   3.855   4.230  1.00 20.00    -0.130 Cl
ENDBRANCH   5   7
ENDBRANCH   1   5
TORSDOF 3
ENDMDL
MODEL 7
REMARK VINA RESULT:      -1.7      3.004      5.541
REMARK  3 active torsions:
REMARK  status: ('A' for Active; 'I' for Inactive)
REMARK    1  A    between atoms: C3_3  and  C5_5 
REMARK    2  A    between atoms: C5_5  and  C7_7 
REMARK    3  A    between atoms: C6_6  and  C7_7 
ROOT
HETATM    1  C5  UNL     1     -33.411   4.802   3.269  1.00 20.00     0.010 C 
ENDROOT
BRANCH   1   2
HETATM    2  C3  UNL     1     -33.862   3.824   4.313  1.00 20.00    -0.014 A 
HETATM    3  C1  UNL     1     -33.314   2.424   4.327  1.00 20.00     0.005 A 
HETATM    4  C2  UNL     1     -32.921   3.395   5.404  1.00 20.00     0.005 A 
ENDBRANCH   1   2
BRANCH   1   5
HETATM    5  C7  UNL     1     -34.266   6.084   3.231  1.00 20.00    -0.004 C 
HETATM    6  C4  UNL     1     -35.397   6.046   4.264  1.00 20.00     0.011 C 
BRANCH   5   7
HETATM    7  C6  UNL     1     -33.403   7.348   3.390  1.00 20.00     0.119 C 
HETATM    8 CL8  UNL     1     -33.542   8.112   4.993  1.00 20.00    -0.130 Cl
ENDBRANCH   5   7
ENDBRANCH   1   5
TORSDOF 3
ENDMDL
MODEL 8
REMARK VINA RESULT:      -1.6      2.491      4.520
REMARK  3 active torsions:
REMARK  status: ('A' for Active; 'I' for Inactive)
REMARK    1  A    between atoms: C3_3  and  C5_5 
REMARK    2  A    between atoms: C5_5  and  C7_7 
REMARK    3  A    between atoms: C6_6  and  C7_7 
ROOT
HETATM    1  C5  UNL     1     -33.299   6.723   2.367  1.00 20.00     0.010 C 
ENDROOT
BRANCH   1   2
HETATM    2  C3  UNL     1     -33.919   6.441   3.704  1.00 20.00    -0.014 A 
HETATM    3  C1  UNL     1     -35.409   6.293   3.832  1.00 20.00     0.005 A 
HETATM    4  C2  UNL     1     -34.519   5.094   3.991  1.00 20.00     0.005 A 
ENDBRANCH   1   2
BRANCH   1   5
HETATM    5  C7  UNL     1     -32.701   8.140   2.264  1.00 20.00    -0.004 C 
HETATM    6  C4  UNL     1     -31.872   8.501   3.501  1.00 20.00     0.011 C 
BRANCH   5   7
HETATM    7  C6  UNL     1     -31.888   8.321   0.970  1.00 20.00     0.119 C 
HETATM    8 CL8  UNL     1     -32.370   9.747   0.017  1.00 20.00    -0.130 Cl
ENDBRANCH   5   7
ENDBRANCH   1   5
TORSDOF 3
ENDMDL
MODEL 9
REMARK VINA RESULT:      -1.6      2.205      4.473
REMARK  3 active torsions:
REMARK  status: ('A' for Active; 'I' for Inactive)
REMARK    1  A    between atoms: C3_3  and  C5_5 
REMARK    2  A    between atoms: C5_5  and  C7_7 
REMARK    3  A    between atoms: C6_6  and  C7_7 
ROOT
HETATM    1  C5  UNL     1     -33.423   7.080   3.189  1.00 20.00     0.010 C 
ENDROOT
BRANCH   1   2
HETATM    2  C3  UNL     1     -34.538   6.077   3.227  1.00 20.00    -0.014 A 
HETATM    3  C1  UNL     1     -34.465   4.899   4.158  1.00 20.00     0.005 A 
HETATM    4  C2  UNL     1     -35.449   6.003   4.420  1.00 20.00     0.005 A 
ENDBRANCH   1   2
BRANCH   1   5
HETATM    5  C7  UNL     1     -32.691   7.119   1.833  1.00 20.00    -0.004 C 
HETATM    6  C4  UNL     1     -31.732   8.310   1.736  1.00 20.00     0.011 C 
BRANCH   5   7
HETATM    7  C6  UNL     1     -31.970   5.792   1.539  1.00 20.00     0.119 C 
HETATM    8 CL8  UNL     1     -32.841   4.744   0.392  1.00 20.00    -0.130 Cl
ENDBRANCH   5   7
ENDBRANCH   1   5
TORSDOF 3
ENDMDL
