MODEL 1
REMARK VINA RESULT:      -1.1      0.000      0.000
REMARK  2 active torsions:
REMARK  status: ('A' for Active; 'I' for Inactive)
REMARK    1  A    between atoms: C1_1  and  C5_5 
REMARK    2  A    between atoms: C1_1  and  C6_6 
ROOT
HETATM    1  C2  UNL     1     -33.352   5.751   1.805  1.00 20.00     0.023 C 
HETATM    2  C3  UNL     1     -32.044   6.310   1.273  1.00 20.00     0.075 C 
HETATM    3  C4  UNL     1     -33.257   7.764   3.180  1.00 20.00     0.086 C 
HETATM    4  C5  UNL     1     -33.494   6.262   3.233  1.00 20.00     0.066 C 
HETATM    5  S8  UNL     1     -31.953   7.995   1.939  1.00 20.00    -0.168 SA
ENDROOT
BRANCH   4   6
HETATM    6  C1  UNL     1     -34.858   5.952   3.764  1.00 20.00     0.145 C 
HETATM    7  O7  UNL     1     -35.817   6.669   3.482  1.00 20.00    -0.296 OA
BRANCH   6   8
HETATM    8  C6  UNL     1     -34.956   4.731   4.648  1.00 20.00     0.193 C 
HETATM    9 CL9  UNL     1     -33.690   3.562   4.245  1.00 20.00    -0.123 Cl
ENDBRANCH   6   8
ENDBRANCH   4   6
TORSDOF 2
ENDMDL
MODEL 2
REMARK VINA RESULT:      -1.1      1.229      1.914
REMARK  2 active torsions:
REMARK  status: ('A' for Active; 'I' for Inactive)
REMARK    1  A    between atoms: C1_1  and  C5_5 
REMARK    2  A    between atoms: C1_1  and  C6_6 
ROOT
HETATM    1  C2  UNL     1     -33.624   7.206   4.034  1.00 20.00     0.023 C 
HETATM    2  C3  UNL     1     -33.061   8.297   3.138  1.00 20.00     0.075 C 
HETATM    3  C4  UNL     1     -32.990   5.803   2.142  1.00 20.00     0.086 C 
HETATM    4  C5  UNL     1     -34.124   6.102   3.111  1.00 20.00     0.066 C 
HETATM    5  S8  UNL     1     -32.224   7.412   1.795  1.00 20.00    -0.168 SA
ENDROOT
BRANCH   4   6
HETATM    6  C1  UNL     1     -34.489   4.887   3.903  1.00 20.00     0.145 C 
HETATM    7  O7  UNL     1     -35.451   4.905   4.670  1.00 20.00    -0.296 OA
BRANCH   6   8
HETATM    8  C6  UNL     1     -33.608   3.678   3.692  1.00 20.00     0.193 C 
HETATM    9 CL9  UNL     1     -33.070   3.017   5.244  1.00 20.00    -0.123 Cl
ENDBRANCH   6   8
ENDBRANCH   4   6
TORSDOF 2
ENDMDL
MODEL 3
REMARK VINA RESULT:      -0.6      1.565      1.939
REMARK  2 active torsions:
REMARK  status: ('A' for Active; 'I' for Inactive)
REMARK    1  A    between atoms: C1_1  and  C5_5 
REMARK    2  A    between atoms: C1_1  and  C6_6 
ROOT
HETATM    1  C2  UNL     1     -32.375   7.965   2.642  1.00 20.00     0.023 C 
HETATM    2  C3  UNL     1     -31.648   7.710   1.334  1.00 20.00     0.075 C 
HETATM    3  C4  UNL     1     -33.225   5.719   2.211  1.00 20.00     0.086 C 
HETATM    4  C5  UNL     1     -33.647   7.127   2.602  1.00 20.00     0.066 C 
HETATM    5  S8  UNL     1     -31.887   5.943   1.004  1.00 20.00    -0.168 SA
ENDROOT
BRANCH   4   6
HETATM    6  C1  UNL     1     -34.318   7.135   3.939  1.00 20.00     0.145 C 
HETATM    7  O7  UNL     1     -33.933   7.892   4.829  1.00 20.00    -0.296 OA
BRANCH   6   8
HETATM    8  C6  UNL     1     -35.467   6.168   4.102  1.00 20.00     0.193 C 
HETATM    9 CL9  UNL     1     -34.879   4.575   4.603  1.00 20.00    -0.123 Cl
ENDBRANCH   6   8
ENDBRANCH   4   6
TORSDOF 2
ENDMDL
MODEL 4
REMARK VINA RESULT:      -0.5      3.600      4.382
REMARK  2 active torsions:
REMARK  status: ('A' for Active; 'I' for Inactive)
REMARK    1  A    between atoms: C1_1  and  C5_5 
REMARK    2  A    between atoms: C1_1  and  C6_6 
ROOT
HETATM    1  C2  UNL     1     -32.784   5.883   2.304  1.00 20.00     0.023 C 
HETATM    2  C3  UNL     1     -33.983   5.120   2.841  1.00 20.00     0.075 C 
HETATM    3  C4  UNL     1     -33.824   7.708   3.546  1.00 20.00     0.086 C 
HETATM    4  C5  UNL     1     -33.209   7.342   2.203  1.00 20.00     0.066 C 
HETATM    5  S8  UNL     1     -34.723   6.222   4.076  1.00 20.00    -0.168 SA
ENDROOT
BRANCH   4   6
HETATM    6  C1  UNL     1     -32.029   8.209   1.899  1.00 20.00     0.145 C 
HETATM    7  O7  UNL     1     -31.189   8.449   2.766  1.00 20.00    -0.296 OA
BRANCH   6   8
HETATM    8  C6  UNL     1     -31.956   8.749   0.490  1.00 20.00     0.193 C 
HETATM    9 CL9  UNL     1     -32.628  10.384   0.411  1.00 20.00    -0.123 Cl
ENDBRANCH   6   8
ENDBRANCH   4   6
TORSDOF 2
ENDMDL
MODEL 5
REMARK VINA RESULT:      -0.3      3.704      4.682
REMARK  2 active torsions:
REMARK  status: ('A' for Active; 'I' for Inactive)
REMARK    1  A    between atoms: C1_1  and  C5_5 
REMARK    2  A    between atoms: C1_1  and  C6_6 
ROOT
HETATM    1  C2  UNL     1     -33.716   8.213   3.311  1.00 20.00     0.023 C 
HETATM    2  C3  UNL     1     -34.357   7.243   4.289  1.00 20.00     0.075 C 
HETATM    3  C4  UNL     1     -33.151   6.139   2.156  1.00 20.00     0.086 C 
HETATM    4  C5  UNL     1     -32.574   7.462   2.640  1.00 20.00     0.066 C 
HETATM    5  S8  UNL     1     -34.336   5.641   3.438  1.00 20.00    -0.168 SA
ENDROOT
BRANCH   4   6
HETATM    6  C1  UNL     1     -32.026   8.258   1.499  1.00 20.00     0.145 C 
HETATM    7  O7  UNL     1     -31.083   7.831   0.833  1.00 20.00    -0.296 OA
BRANCH   6   8
HETATM    8  C6  UNL     1     -32.701   9.585   1.240  1.00 20.00     0.193 C 
HETATM    9 CL9  UNL     1     -32.717   9.952  -0.492  1.00 20.00    -0.123 Cl
ENDBRANCH   6   8
ENDBRANCH   4   6
TORSDOF 2
ENDMDL
MODEL 6
REMARK VINA RESULT:      -0.3      3.281      4.065
REMARK  2 active torsions:
REMARK  status: ('A' for Active; 'I' for Inactive)
REMARK    1  A    between atoms: C1_1  and  C5_5 
REMARK    2  A    between atoms: C1_1  and  C6_6 
ROOT
HETATM    1  C2  UNL     1     -33.282   4.874   3.291  1.00 20.00     0.023 C 
HETATM    2  C3  UNL     1     -34.559   4.600   4.066  1.00 20.00     0.075 C 
HETATM    3  C4  UNL     1     -34.180   7.143   3.284  1.00 20.00     0.086 C 
HETATM    4  C5  UNL     1     -33.568   6.071   2.393  1.00 20.00     0.066 C 
HETATM    5  S8  UNL     1     -35.224   6.240   4.462  1.00 20.00    -0.168 SA
ENDROOT
BRANCH   4   6
HETATM    6  C1  UNL     1     -32.305   6.559   1.757  1.00 20.00     0.145 C 
HETATM    7  O7  UNL     1     -31.625   5.808   1.058  1.00 20.00    -0.296 OA
BRANCH   6   8
HETATM    8  C6  UNL     1     -31.943   7.999   2.036  1.00 20.00     0.193 C 
HETATM    9 CL9  UNL     1     -32.272   9.012   0.623  1.00 20.00    -0.123 Cl
ENDBRANCH   6   8
ENDBRANCH   4   6
TORSDOF 2
ENDMDL
MODEL 7
REMARK VINA RESULT:      -0.1      3.298      4.235
REMARK  2 active torsions:
REMARK  status: ('A' for Active; 'I' for Inactive)
REMARK    1  A    between atoms: C1_1  and  C5_5 
REMARK    2  A    between atoms: C1_1  and  C6_6 
ROOT
HETATM    1  C2  UNL     1     -34.739   6.906   3.137  1.00 20.00     0.023 C 
HETATM    2  C3  UNL     1     -35.398   6.264   4.346  1.00 20.00     0.075 C 
HETATM    3  C4  UNL     1     -33.338   4.913   3.274  1.00 20.00     0.086 C 
HETATM    4  C5  UNL     1     -33.293   6.427   3.126  1.00 20.00     0.066 C 
HETATM    5  S8  UNL     1     -34.709   4.588   4.418  1.00 20.00    -0.168 SA
ENDROOT
BRANCH   4   6
HETATM    6  C1  UNL     1     -32.623   6.823   1.849  1.00 20.00     0.145 C 
HETATM    7  O7  UNL     1     -32.705   6.107   0.851  1.00 20.00    -0.296 OA
BRANCH   6   8
HETATM    8  C6  UNL     1     -31.861   8.127   1.884  1.00 20.00     0.193 C 
HETATM    9 CL9  UNL     1     -32.345   9.171   0.539  1.00 20.00    -0.123 Cl
ENDBRANCH   6   8
ENDBRANCH   4   6
TORSDOF 2
ENDMDL
MODEL 8
REMARK VINA RESULT:       0.3      1.843      1.888
REMARK  2 active torsions:
REMARK  status: ('A' for Active; 'I' for Inactive)
REMARK    1  A    between atoms: C1_1  and  C5_5 
REMARK    2  A    between atoms: C1_1  and  C6_6 
ROOT
HETATM    1  C2  UNL     1     -33.133   5.588   1.700  1.00 20.00     0.023 C 
HETATM    2  C3  UNL     1     -32.035   6.418   1.057  1.00 20.00     0.075 C 
HETATM    3  C4  UNL     1     -33.174   7.471   3.251  1.00 20.00     0.086 C 
HETATM    4  C5  UNL     1     -33.141   5.952   3.180  1.00 20.00     0.066 C 
HETATM    5  S8  UNL     1     -32.133   8.034   1.875  1.00 20.00    -0.168 SA
ENDROOT
BRANCH   4   6
HETATM    6  C1  UNL     1     -34.335   5.356   3.856  1.00 20.00     0.145 C 
HETATM    7  O7  UNL     1     -34.410   4.141   4.037  1.00 20.00    -0.296 OA
BRANCH   6   8
HETATM    8  C6  UNL     1     -35.404   6.335   4.282  1.00 20.00     0.193 C 
HETATM    9 CL9  UNL     1     -36.506   6.681   2.940  1.00 20.00    -0.123 Cl
ENDBRANCH   6   8
ENDBRANCH   4   6
TORSDOF 2
ENDMDL
MODEL 9
REMARK VINA RESULT:       0.4      2.040      2.504
REMARK  2 active torsions:
REMARK  status: ('A' for Active; 'I' for Inactive)
REMARK    1  A    between atoms: C1_1  and  C5_5 
REMARK    2  A    between atoms: C1_1  and  C6_6 
ROOT
HETATM    1  C2  UNL     1     -32.000   7.384   1.505  1.00 20.00     0.023 C 
HETATM    2  C3  UNL     1     -31.357   8.224   0.415  1.00 20.00     0.075 C 
HETATM    3  C4  UNL     1     -33.180   9.475   1.941  1.00 20.00     0.086 C 
HETATM    4  C5  UNL     1     -32.408   8.348   2.612  1.00 20.00     0.066 C 
HETATM    5  S8  UNL     1     -32.345   9.743   0.352  1.00 20.00    -0.168 SA
ENDROOT
BRANCH   4   6
HETATM    6  C1  UNL     1     -33.253   7.648   3.628  1.00 20.00     0.145 C 
HETATM    7  O7  UNL     1     -33.356   8.094   4.770  1.00 20.00    -0.296 OA
BRANCH   6   8
HETATM    8  C6  UNL     1     -33.944   6.392   3.153  1.00 20.00     0.193 C 
HETATM    9 CL9  UNL     1     -35.436   6.115   4.065  1.00 20.00    -0.123 Cl
ENDBRANCH   6   8
ENDBRANCH   4   6
TORSDOF 2
ENDMDL
