MODEL 1
REMARK VINA RESULT:      -2.2      0.000      0.000
REMARK  0 active torsions:
REMARK  status: ('A' for Active; 'I' for Inactive)
ROOT
HETATM    1  C1  UNL     1     -34.112   6.459   3.496  1.00 20.00    -0.066 C 
HETATM    2  C2  UNL     1     -35.370   6.325   3.939  1.00 20.00     0.016 C 
HETATM    3  C3  UNL     1     -33.406   5.385   2.713  1.00 20.00     0.037 C 
HETATM    4  C4  UNL     1     -33.298   7.703   3.717  1.00 20.00     0.201 C 
HETATM    5  C5  UNL     1     -32.778   5.988   1.458  1.00 20.00     0.030 C 
HETATM    6  C6  UNL     1     -31.977   7.243   1.796  1.00 20.00     0.168 C 
HETATM    7  O7  UNL     1     -32.803   8.196   2.467  1.00 20.00    -0.387 OA
ENDROOT
TORSDOF 0
ENDMDL
MODEL 2
REMARK VINA RESULT:      -1.8      1.334      3.188
REMARK  0 active torsions:
REMARK  status: ('A' for Active; 'I' for Inactive)
ROOT
HETATM    1  C1  UNL     1     -32.317   7.813   1.997  1.00 20.00    -0.066 C 
HETATM    2  C2  UNL     1     -32.005   8.768   1.110  1.00 20.00     0.016 C 
HETATM    3  C3  UNL     1     -32.818   8.121   3.382  1.00 20.00     0.037 C 
HETATM    4  C4  UNL     1     -32.219   6.347   1.683  1.00 20.00     0.201 C 
HETATM    5  C5  UNL     1     -34.078   7.304   3.669  1.00 20.00     0.030 C 
HETATM    6  C6  UNL     1     -33.868   5.834   3.316  1.00 20.00     0.168 C 
HETATM    7  O7  UNL     1     -33.468   5.701   1.950  1.00 20.00    -0.387 OA
ENDROOT
TORSDOF 0
ENDMDL
MODEL 3
REMARK VINA RESULT:      -1.7      1.125      2.063
REMARK  0 active torsions:
REMARK  status: ('A' for Active; 'I' for Inactive)
ROOT
HETATM    1  C1  UNL     1     -33.825   5.823   3.098  1.00 20.00    -0.066 C 
HETATM    2  C2  UNL     1     -34.119   4.725   3.808  1.00 20.00     0.016 C 
HETATM    3  C3  UNL     1     -34.083   7.215   3.608  1.00 20.00     0.037 C 
HETATM    4  C4  UNL     1     -33.186   5.767   1.739  1.00 20.00     0.201 C 
HETATM    5  C5  UNL     1     -32.827   8.069   3.438  1.00 20.00     0.030 C 
HETATM    6  C6  UNL     1     -32.263   7.938   2.026  1.00 20.00     0.168 C 
HETATM    7  O7  UNL     1     -31.999   6.568   1.719  1.00 20.00    -0.387 OA
ENDROOT
TORSDOF 0
ENDMDL
MODEL 4
REMARK VINA RESULT:      -1.5      1.344      2.189
REMARK  0 active torsions:
REMARK  status: ('A' for Active; 'I' for Inactive)
ROOT
HETATM    1  C1  UNL     1     -33.553   7.528   3.657  1.00 20.00    -0.066 C 
HETATM    2  C2  UNL     1     -33.517   8.092   4.872  1.00 20.00     0.016 C 
HETATM    3  C3  UNL     1     -32.834   8.109   2.470  1.00 20.00     0.037 C 
HETATM    4  C4  UNL     1     -34.292   6.251   3.372  1.00 20.00     0.201 C 
HETATM    5  C5  UNL     1     -32.016   7.019   1.777  1.00 20.00     0.030 C 
HETATM    6  C6  UNL     1     -32.861   5.771   1.536  1.00 20.00     0.168 C 
HETATM    7  O7  UNL     1     -33.412   5.297   2.767  1.00 20.00    -0.387 OA
ENDROOT
TORSDOF 0
ENDMDL
MODEL 5
REMARK VINA RESULT:      -1.2      0.771      2.585
REMARK  0 active torsions:
REMARK  status: ('A' for Active; 'I' for Inactive)
ROOT
HETATM    1  C1  UNL     1     -32.697   6.250   1.798  1.00 20.00    -0.066 C 
HETATM    2  C2  UNL     1     -31.846   5.406   1.199  1.00 20.00     0.016 C 
HETATM    3  C3  UNL     1     -34.038   5.817   2.326  1.00 20.00     0.037 C 
HETATM    4  C4  UNL     1     -32.382   7.703   2.021  1.00 20.00     0.201 C 
HETATM    5  C5  UNL     1     -34.213   6.313   3.762  1.00 20.00     0.030 C 
HETATM    6  C6  UNL     1     -33.867   7.795   3.874  1.00 20.00     0.168 C 
HETATM    7  O7  UNL     1     -32.538   8.034   3.405  1.00 20.00    -0.387 OA
ENDROOT
TORSDOF 0
ENDMDL
MODEL 6
REMARK VINA RESULT:      -1.2      1.935      3.520
REMARK  0 active torsions:
REMARK  status: ('A' for Active; 'I' for Inactive)
ROOT
HETATM    1  C1  UNL     1     -33.329   5.797   2.769  1.00 20.00    -0.066 C 
HETATM    2  C2  UNL     1     -32.771   5.899   1.555  1.00 20.00     0.016 C 
HETATM    3  C3  UNL     1     -34.096   6.922   3.409  1.00 20.00     0.037 C 
HETATM    4  C4  UNL     1     -33.263   4.542   3.593  1.00 20.00     0.201 C 
HETATM    5  C5  UNL     1     -35.439   6.405   3.924  1.00 20.00     0.030 C 
HETATM    6  C6  UNL     1     -35.256   5.131   4.746  1.00 20.00     0.168 C 
HETATM    7  O7  UNL     1     -34.581   4.134   3.976  1.00 20.00    -0.387 OA
ENDROOT
TORSDOF 0
ENDMDL
MODEL 7
REMARK VINA RESULT:      -1.1      1.095      2.675
REMARK  0 active torsions:
REMARK  status: ('A' for Active; 'I' for Inactive)
ROOT
HETATM    1  C1  UNL     1     -32.731   7.353   2.179  1.00 20.00    -0.066 C 
HETATM    2  C2  UNL     1     -31.540   7.832   1.794  1.00 20.00     0.016 C 
HETATM    3  C3  UNL     1     -33.178   5.948   1.877  1.00 20.00     0.037 C 
HETATM    4  C4  UNL     1     -33.719   8.163   2.969  1.00 20.00     0.201 C 
HETATM    5  C5  UNL     1     -33.697   5.286   3.153  1.00 20.00     0.030 C 
HETATM    6  C6  UNL     1     -34.691   6.193   3.875  1.00 20.00     0.168 C 
HETATM    7  O7  UNL     1     -34.094   7.460   4.159  1.00 20.00    -0.387 OA
ENDROOT
TORSDOF 0
ENDMDL
MODEL 8
REMARK VINA RESULT:      -1.0      1.380      2.800
REMARK  0 active torsions:
REMARK  status: ('A' for Active; 'I' for Inactive)
ROOT
HETATM    1  C1  UNL     1     -32.802   5.863   1.772  1.00 20.00    -0.066 C 
HETATM    2  C2  UNL     1     -32.846   5.189   0.614  1.00 20.00     0.016 C 
HETATM    3  C3  UNL     1     -32.039   7.149   1.936  1.00 20.00     0.037 C 
HETATM    4  C4  UNL     1     -33.532   5.412   3.006  1.00 20.00     0.201 C 
HETATM    5  C5  UNL     1     -32.933   8.202   2.590  1.00 20.00     0.030 C 
HETATM    6  C6  UNL     1     -33.623   7.639   3.830  1.00 20.00     0.168 C 
HETATM    7  O7  UNL     1     -34.368   6.465   3.497  1.00 20.00    -0.387 OA
ENDROOT
TORSDOF 0
ENDMDL
MODEL 9
REMARK VINA RESULT:      -0.6      2.063      2.902
REMARK  0 active torsions:
REMARK  status: ('A' for Active; 'I' for Inactive)
ROOT
HETATM    1  C1  UNL     1     -34.312   6.766   3.693  1.00 20.00    -0.066 C 
HETATM    2  C2  UNL     1     -34.156   8.027   4.117  1.00 20.00     0.016 C 
HETATM    3  C3  UNL     1     -33.379   6.117   2.708  1.00 20.00     0.037 C 
HETATM    4  C4  UNL     1     -35.418   5.873   4.182  1.00 20.00     0.201 C 
HETATM    5  C5  UNL     1     -32.934   4.754   3.236  1.00 20.00     0.030 C 
HETATM    6  C6  UNL     1     -34.133   3.932   3.704  1.00 20.00     0.168 C 
HETATM    7  O7  UNL     1     -34.875   4.650   4.692  1.00 20.00    -0.387 OA
ENDROOT
TORSDOF 0
ENDMDL
