MODEL 1
REMARK VINA RESULT:      -1.8      0.000      0.000
REMARK  4 active torsions:
REMARK  status: ('A' for Active; 'I' for Inactive)
REMARK    1  A    between atoms: C1_1  and  C5_5 
REMARK    2  A    between atoms: C2_2  and  C6_6 
REMARK    3  A    between atoms: C5_5  and  N8_8 
REMARK    4  A    between atoms: C7_7  and  N8_8 
ROOT
HETATM    1  C5  UNL     1     -32.939   8.145   2.678  1.00 20.00     0.299 C 
ENDROOT
BRANCH   1   2
HETATM    2  C1  UNL     1     -33.479   6.915   3.332  1.00 20.00     0.000 C 
HETATM    3  C2  UNL     1     -34.757   6.780   3.719  1.00 20.00    -0.014 C 
BRANCH   3   4
HETATM    4  C6  UNL     1     -35.302   5.544   4.355  1.00 20.00     0.141 C 
HETATM    5 CL9  UNL     1     -34.157   4.201   4.145  1.00 20.00    -0.126 Cl
ENDBRANCH   3   4
ENDBRANCH   1   2
BRANCH   1   6
HETATM    6  N8  UNL     1     -31.900   7.769   1.761  1.00 20.00     0.087 N 
HETATM    7  C4  UNL     1     -32.008   6.352   1.377  1.00 20.00     0.310 C 
BRANCH   6   8
HETATM    8  C7  UNL     1     -31.922   8.607   0.551  1.00 20.00     0.268 C 
HETATM    9  C3  UNL     1     -32.593   9.913   0.813  1.00 20.00     0.037 C 
ENDBRANCH   6   8
ENDBRANCH   1   6
TORSDOF 4
ENDMDL
MODEL 2
REMARK VINA RESULT:      -1.6      3.055      5.082
REMARK  4 active torsions:
REMARK  status: ('A' for Active; 'I' for Inactive)
REMARK    1  A    between atoms: C1_1  and  C5_5 
REMARK    2  A    between atoms: C2_2  and  C6_6 
REMARK    3  A    between atoms: C5_5  and  N8_8 
REMARK    4  A    between atoms: C7_7  and  N8_8 
ROOT
HETATM    1  C5  UNL     1     -33.193   5.772   2.424  1.00 20.00     0.299 C 
ENDROOT
BRANCH   1   2
HETATM    2  C1  UNL     1     -32.906   7.231   2.273  1.00 20.00     0.000 C 
HETATM    3  C2  UNL     1     -32.178   7.745   1.269  1.00 20.00    -0.014 C 
BRANCH   3   4
HETATM    4  C6  UNL     1     -31.908   9.204   1.108  1.00 20.00     0.141 C 
HETATM    5 CL9  UNL     1     -32.670   9.799  -0.383  1.00 20.00    -0.126 Cl
ENDBRANCH   3   4
ENDBRANCH   1   2
BRANCH   1   6
HETATM    6  N8  UNL     1     -33.796   5.544   3.706  1.00 20.00     0.087 N 
HETATM    7  C4  UNL     1     -34.938   6.446   3.931  1.00 20.00     0.310 C 
BRANCH   6   8
HETATM    8  C7  UNL     1     -34.239   4.148   3.851  1.00 20.00     0.268 C 
HETATM    9  C3  UNL     1     -33.295   3.371   4.704  1.00 20.00     0.037 C 
ENDBRANCH   6   8
ENDBRANCH   1   6
TORSDOF 4
ENDMDL
MODEL 3
REMARK VINA RESULT:      -1.5      0.893      1.317
REMARK  4 active torsions:
REMARK  status: ('A' for Active; 'I' for Inactive)
REMARK    1  A    between atoms: C1_1  and  C5_5 
REMARK    2  A    between atoms: C2_2  and  C6_6 
REMARK    3  A    between atoms: C5_5  and  N8_8 
REMARK    4  A    between atoms: C7_7  and  N8_8 
ROOT
HETATM    1  C5  UNL     1     -32.224   6.764   1.546  1.00 20.00     0.299 C 
ENDROOT
BRANCH   1   2
HETATM    2  C1  UNL     1     -33.392   6.191   2.282  1.00 20.00     0.000 C 
HETATM    3  C2  UNL     1     -34.011   6.817   3.295  1.00 20.00    -0.014 C 
BRANCH   3   4
HETATM    4  C6  UNL     1     -35.190   6.253   4.017  1.00 20.00     0.141 C 
HETATM    5 CL9  UNL     1     -34.847   4.587   4.528  1.00 20.00    -0.126 Cl
ENDBRANCH   3   4
ENDBRANCH   1   2
BRANCH   1   6
HETATM    6  N8  UNL     1     -32.215   8.188   1.719  1.00 20.00     0.087 N 
HETATM    7  C4  UNL     1     -31.257   8.597   2.760  1.00 20.00     0.310 C 
BRANCH   6   8
HETATM    8  C7  UNL     1     -31.894   8.881   0.461  1.00 20.00     0.268 C 
HETATM    9  C3  UNL     1     -32.614  10.184   0.366  1.00 20.00     0.037 C 
ENDBRANCH   6   8
ENDBRANCH   1   6
TORSDOF 4
ENDMDL
MODEL 4
REMARK VINA RESULT:      -1.3      0.554      1.887
REMARK  4 active torsions:
REMARK  status: ('A' for Active; 'I' for Inactive)
REMARK    1  A    between atoms: C1_1  and  C5_5 
REMARK    2  A    between atoms: C2_2  and  C6_6 
REMARK    3  A    between atoms: C5_5  and  N8_8 
REMARK    4  A    between atoms: C7_7  and  N8_8 
ROOT
HETATM    1  C5  UNL     1     -32.826   8.319   3.065  1.00 20.00     0.299 C 
ENDROOT
BRANCH   1   2
HETATM    2  C1  UNL     1     -33.457   7.183   3.803  1.00 20.00     0.000 C 
HETATM    3  C2  UNL     1     -34.730   6.798   3.626  1.00 20.00    -0.014 C 
BRANCH   3   4
HETATM    4  C6  UNL     1     -35.355   5.652   4.350  1.00 20.00     0.141 C 
HETATM    5 CL9  UNL     1     -34.277   4.240   4.292  1.00 20.00    -0.126 Cl
ENDBRANCH   3   4
ENDBRANCH   1   2
BRANCH   1   6
HETATM    6  N8  UNL     1     -32.635   7.937   1.694  1.00 20.00     0.087 N 
HETATM    7  C4  UNL     1     -32.149   9.066   0.884  1.00 20.00     0.310 C 
BRANCH   6   8
HETATM    8  C7  UNL     1     -31.696   6.810   1.575  1.00 20.00     0.268 C 
HETATM    9  C3  UNL     1     -32.395   5.574   1.120  1.00 20.00     0.037 C 
ENDBRANCH   6   8
ENDBRANCH   1   6
TORSDOF 4
ENDMDL
MODEL 5
REMARK VINA RESULT:      -1.2      2.967      4.665
REMARK  4 active torsions:
REMARK  status: ('A' for Active; 'I' for Inactive)
REMARK    1  A    between atoms: C1_1  and  C5_5 
REMARK    2  A    between atoms: C2_2  and  C6_6 
REMARK    3  A    between atoms: C5_5  and  N8_8 
REMARK    4  A    between atoms: C7_7  and  N8_8 
ROOT
HETATM    1  C5  UNL     1     -32.456   5.924   1.958  1.00 20.00     0.299 C 
ENDROOT
BRANCH   1   2
HETATM    2  C1  UNL     1     -32.330   7.412   1.931  1.00 20.00     0.000 C 
HETATM    3  C2  UNL     1     -32.132   8.121   0.809  1.00 20.00    -0.014 C 
BRANCH   3   4
HETATM    4  C6  UNL     1     -32.025   9.610   0.780  1.00 20.00     0.141 C 
HETATM    5 CL9  UNL     1     -32.893  10.251  -0.631  1.00 20.00    -0.126 Cl
ENDBRANCH   3   4
ENDBRANCH   1   2
BRANCH   1   6
HETATM    6  N8  UNL     1     -33.662   5.570   2.650  1.00 20.00     0.087 N 
HETATM    7  C4  UNL     1     -33.460   4.398   3.519  1.00 20.00     0.310 C 
BRANCH   6   8
HETATM    8  C7  UNL     1     -34.170   6.693   3.456  1.00 20.00     0.268 C 
HETATM    9  C3  UNL     1     -35.452   6.334   4.129  1.00 20.00     0.037 C 
ENDBRANCH   6   8
ENDBRANCH   1   6
TORSDOF 4
ENDMDL
MODEL 6
REMARK VINA RESULT:      -1.1      2.835      4.518
REMARK  4 active torsions:
REMARK  status: ('A' for Active; 'I' for Inactive)
REMARK    1  A    between atoms: C1_1  and  C5_5 
REMARK    2  A    between atoms: C2_2  and  C6_6 
REMARK    3  A    between atoms: C5_5  and  N8_8 
REMARK    4  A    between atoms: C7_7  and  N8_8 
ROOT
HETATM    1  C5  UNL     1     -32.866   6.048   2.902  1.00 20.00     0.299 C 
ENDROOT
BRANCH   1   2
HETATM    2  C1  UNL     1     -32.765   6.890   1.672  1.00 20.00     0.000 C 
HETATM    3  C2  UNL     1     -31.988   7.980   1.579  1.00 20.00    -0.014 C 
BRANCH   3   4
HETATM    4  C6  UNL     1     -31.872   8.809   0.343  1.00 20.00     0.141 C 
HETATM    5 CL9  UNL     1     -32.705  10.361   0.576  1.00 20.00    -0.126 Cl
ENDBRANCH   3   4
ENDBRANCH   1   2
BRANCH   1   6
HETATM    6  N8  UNL     1     -34.251   5.827   3.205  1.00 20.00     0.087 N 
HETATM    7  C4  UNL     1     -34.430   4.659   4.083  1.00 20.00     0.310 C 
BRANCH   6   8
HETATM    8  C7  UNL     1     -34.860   7.010   3.835  1.00 20.00     0.268 C 
HETATM    9  C3  UNL     1     -33.878   7.723   4.701  1.00 20.00     0.037 C 
ENDBRANCH   6   8
ENDBRANCH   1   6
TORSDOF 4
ENDMDL
MODEL 7
REMARK VINA RESULT:      -1.0      2.917      4.640
REMARK  4 active torsions:
REMARK  status: ('A' for Active; 'I' for Inactive)
REMARK    1  A    between atoms: C1_1  and  C5_5 
REMARK    2  A    between atoms: C2_2  and  C6_6 
REMARK    3  A    between atoms: C5_5  and  N8_8 
REMARK    4  A    between atoms: C7_7  and  N8_8 
ROOT
HETATM    1  C5  UNL     1     -31.943   7.197   2.076  1.00 20.00     0.299 C 
ENDROOT
BRANCH   1   2
HETATM    2  C1  UNL     1     -32.304   8.533   1.514  1.00 20.00     0.000 C 
HETATM    3  C2  UNL     1     -32.154   8.861   0.222  1.00 20.00    -0.014 C 
BRANCH   3   4
HETATM    4  C6  UNL     1     -32.532  10.189  -0.344  1.00 20.00     0.141 C 
HETATM    5 CL9  UNL     1     -32.577  11.407   0.949  1.00 20.00    -0.126 Cl
ENDBRANCH   3   4
ENDBRANCH   1   2
BRANCH   1   6
HETATM    6  N8  UNL     1     -33.041   6.294   1.880  1.00 20.00     0.087 N 
HETATM    7  C4  UNL     1     -32.644   5.133   1.068  1.00 20.00     0.310 C 
BRANCH   6   8
HETATM    8  C7  UNL     1     -33.591   5.828   3.163  1.00 20.00     0.268 C 
HETATM    9  C3  UNL     1     -34.608   6.782   3.690  1.00 20.00     0.037 C 
ENDBRANCH   6   8
ENDBRANCH   1   6
TORSDOF 4
ENDMDL
MODEL 8
REMARK VINA RESULT:      -0.9      1.942      2.641
REMARK  4 active torsions:
REMARK  status: ('A' for Active; 'I' for Inactive)
REMARK    1  A    between atoms: C1_1  and  C5_5 
REMARK    2  A    between atoms: C2_2  and  C6_6 
REMARK    3  A    between atoms: C5_5  and  N8_8 
REMARK    4  A    between atoms: C7_7  and  N8_8 
ROOT
HETATM    1  C5  UNL     1     -34.680   6.543   3.533  1.00 20.00     0.299 C 
ENDROOT
BRANCH   1   2
HETATM    2  C1  UNL     1     -33.912   5.265   3.625  1.00 20.00     0.000 C 
HETATM    3  C2  UNL     1     -34.267   4.240   4.415  1.00 20.00    -0.014 C 
BRANCH   3   4
HETATM    4  C6  UNL     1     -33.511   2.955   4.493  1.00 20.00     0.141 C 
HETATM    5 CL9  UNL     1     -32.469   2.952   5.932  1.00 20.00    -0.126 Cl
ENDBRANCH   3   4
ENDBRANCH   1   2
BRANCH   1   6
HETATM    6  N8  UNL     1     -33.772   7.613   3.232  1.00 20.00     0.087 N 
HETATM    7  C4  UNL     1     -33.134   8.137   4.451  1.00 20.00     0.310 C 
BRANCH   6   8
HETATM    8  C7  UNL     1     -32.732   7.185   2.282  1.00 20.00     0.268 C 
HETATM    9  C3  UNL     1     -32.040   8.359   1.677  1.00 20.00     0.037 C 
ENDBRANCH   6   8
ENDBRANCH   1   6
TORSDOF 4
ENDMDL
MODEL 9
REMARK VINA RESULT:      -0.9      2.927      4.538
REMARK  4 active torsions:
REMARK  status: ('A' for Active; 'I' for Inactive)
REMARK    1  A    between atoms: C1_1  and  C5_5 
REMARK    2  A    between atoms: C2_2  and  C6_6 
REMARK    3  A    between atoms: C5_5  and  N8_8 
REMARK    4  A    between atoms: C7_7  and  N8_8 
ROOT
HETATM    1  C5  UNL     1     -32.064   7.379   2.317  1.00 20.00     0.299 C 
ENDROOT
BRANCH   1   2
HETATM    2  C1  UNL     1     -32.022   8.452   1.278  1.00 20.00     0.000 C 
HETATM    3  C2  UNL     1     -32.601   9.653   1.426  1.00 20.00    -0.014 C 
BRANCH   3   4
HETATM    4  C6  UNL     1     -32.543  10.732   0.395  1.00 20.00     0.141 C 
HETATM    5 CL9  UNL     1     -32.788  10.038  -1.222  1.00 20.00    -0.126 Cl
ENDBRANCH   3   4
ENDBRANCH   1   2
BRANCH   1   6
HETATM    6  N8  UNL     1     -33.145   6.483   2.021  1.00 20.00     0.087 N 
HETATM    7  C4  UNL     1     -32.665   5.265   1.348  1.00 20.00     0.310 C 
BRANCH   6   8
HETATM    8  C7  UNL     1     -33.883   6.110   3.239  1.00 20.00     0.268 C 
HETATM    9  C3  UNL     1     -34.284   7.318   4.015  1.00 20.00     0.037 C 
ENDBRANCH   6   8
ENDBRANCH   1   6
TORSDOF 4
ENDMDL
