MODEL 1
REMARK VINA RESULT:      -0.5      0.000      0.000
REMARK  1 active torsions:
REMARK  status: ('A' for Active; 'I' for Inactive)
REMARK    1  A    between atoms: C6_6  and  C9_9 
ROOT
HETATM    1  C1  UNL     1     -33.550   7.203   3.297  1.00 20.00    -0.085 C 
HETATM    2  C2  UNL     1     -34.726   7.552   3.834  1.00 20.00     0.014 C 
HETATM    3  C3  UNL     1     -33.289   5.853   2.688  1.00 20.00     0.059 C 
HETATM    4  C4  UNL     1     -32.370   8.133   3.219  1.00 20.00     0.065 C 
HETATM    5  C5  UNL     1     -32.736   6.029   1.278  1.00 20.00     0.172 C 
HETATM    6  C6  UNL     1     -31.823   8.198   1.788  1.00 20.00     0.128 C 
HETATM    7  O10 UNL     1     -31.586   6.880   1.270  1.00 20.00    -0.385 OA
ENDROOT
BRANCH   6   8
HETATM    8  C9  UNL     1     -32.693   9.027   0.844  1.00 20.00     0.007 C 
HETATM    9  C7  UNL     1     -32.809  10.468   1.340  1.00 20.00     0.012 C 
HETATM   10  C8  UNL     1     -32.130   8.996  -0.578  1.00 20.00     0.012 C 
ENDBRANCH   6   8
TORSDOF 1
ENDMDL
MODEL 2
REMARK VINA RESULT:       1.3      2.142      3.670
REMARK  1 active torsions:
REMARK  status: ('A' for Active; 'I' for Inactive)
REMARK    1  A    between atoms: C6_6  and  C9_9 
ROOT
HETATM    1  C1  UNL     1     -33.895   4.293   3.960  1.00 20.00    -0.085 C 
HETATM    2  C2  UNL     1     -32.996   3.536   4.601  1.00 20.00     0.014 C 
HETATM    3  C3  UNL     1     -35.216   4.689   4.559  1.00 20.00     0.059 C 
HETATM    4  C4  UNL     1     -33.671   4.852   2.581  1.00 20.00     0.065 C 
HETATM    5  C5  UNL     1     -35.380   6.203   4.475  1.00 20.00     0.172 C 
HETATM    6  C6  UNL     1     -33.929   6.363   2.560  1.00 20.00     0.128 C 
HETATM    7  O10 UNL     1     -35.208   6.674   3.135  1.00 20.00    -0.385 OA
ENDROOT
BRANCH   6   8
HETATM    8  C9  UNL     1     -32.809   7.179   3.205  1.00 20.00     0.007 C 
HETATM    9  C7  UNL     1     -32.014   7.940   2.144  1.00 20.00     0.012 C 
HETATM   10  C8  UNL     1     -33.373   8.147   4.245  1.00 20.00     0.012 C 
ENDBRANCH   6   8
TORSDOF 1
ENDMDL
MODEL 3
REMARK VINA RESULT:       1.4      1.864      3.208
REMARK  1 active torsions:
REMARK  status: ('A' for Active; 'I' for Inactive)
REMARK    1  A    between atoms: C6_6  and  C9_9 
ROOT
HETATM    1  C1  UNL     1     -34.272   5.131   3.693  1.00 20.00    -0.085 C 
HETATM    2  C2  UNL     1     -33.818   3.970   4.183  1.00 20.00     0.014 C 
HETATM    3  C3  UNL     1     -34.802   6.240   4.559  1.00 20.00     0.059 C 
HETATM    4  C4  UNL     1     -34.277   5.462   2.226  1.00 20.00     0.065 C 
HETATM    5  C5  UNL     1     -34.079   7.540   4.220  1.00 20.00     0.172 C 
HETATM    6  C6  UNL     1     -33.602   6.816   1.974  1.00 20.00     0.128 C 
HETATM    7  O10 UNL     1     -34.159   7.832   2.822  1.00 20.00    -0.385 OA
ENDROOT
BRANCH   6   8
HETATM    8  C9  UNL     1     -32.079   6.765   2.082  1.00 20.00     0.007 C 
HETATM    9  C7  UNL     1     -31.521   5.567   1.313  1.00 20.00     0.012 C 
HETATM   10  C8  UNL     1     -31.455   8.064   1.571  1.00 20.00     0.012 C 
ENDBRANCH   6   8
TORSDOF 1
ENDMDL
MODEL 4
REMARK VINA RESULT:       1.6      1.715      3.531
REMARK  1 active torsions:
REMARK  status: ('A' for Active; 'I' for Inactive)
REMARK    1  A    between atoms: C6_6  and  C9_9 
ROOT
HETATM    1  C1  UNL     1     -31.853   7.808   1.931  1.00 20.00    -0.085 C 
HETATM    2  C2  UNL     1     -31.012   8.611   2.594  1.00 20.00     0.014 C 
HETATM    3  C3  UNL     1     -31.406   6.579   1.188  1.00 20.00     0.059 C 
HETATM    4  C4  UNL     1     -33.340   8.031   1.878  1.00 20.00     0.065 C 
HETATM    5  C5  UNL     1     -32.224   5.379   1.650  1.00 20.00     0.172 C 
HETATM    6  C6  UNL     1     -34.094   6.758   2.282  1.00 20.00     0.128 C 
HETATM    7  O10 UNL     1     -33.628   5.626   1.530  1.00 20.00    -0.385 OA
ENDROOT
BRANCH   6   8
HETATM    8  C9  UNL     1     -34.065   6.486   3.785  1.00 20.00     0.007 C 
HETATM    9  C7  UNL     1     -33.994   7.796   4.571  1.00 20.00     0.012 C 
HETATM   10  C8  UNL     1     -35.288   5.674   4.212  1.00 20.00     0.012 C 
ENDBRANCH   6   8
TORSDOF 1
ENDMDL
MODEL 5
REMARK VINA RESULT:       1.7      1.841      4.101
REMARK  1 active torsions:
REMARK  status: ('A' for Active; 'I' for Inactive)
REMARK    1  A    between atoms: C6_6  and  C9_9 
ROOT
HETATM    1  C1  UNL     1     -33.367   7.808   3.653  1.00 20.00    -0.085 C 
HETATM    2  C2  UNL     1     -33.155   8.436   4.816  1.00 20.00     0.014 C 
HETATM    3  C3  UNL     1     -32.370   7.798   2.528  1.00 20.00     0.059 C 
HETATM    4  C4  UNL     1     -34.615   7.022   3.354  1.00 20.00     0.065 C 
HETATM    5  C5  UNL     1     -32.102   6.360   2.098  1.00 20.00     0.172 C 
HETATM    6  C6  UNL     1     -34.262   5.615   2.855  1.00 20.00     0.128 C 
HETATM    7  O10 UNL     1     -33.316   5.675   1.777  1.00 20.00    -0.385 OA
ENDROOT
BRANCH   6   8
HETATM    8  C9  UNL     1     -33.791   4.678   3.966  1.00 20.00     0.007 C 
HETATM    9  C7  UNL     1     -34.882   4.498   5.022  1.00 20.00     0.012 C 
HETATM   10  C8  UNL     1     -33.377   3.323   3.391  1.00 20.00     0.012 C 
ENDBRANCH   6   8
TORSDOF 1
ENDMDL
MODEL 6
REMARK VINA RESULT:       1.7      1.406      3.644
REMARK  1 active torsions:
REMARK  status: ('A' for Active; 'I' for Inactive)
REMARK    1  A    between atoms: C6_6  and  C9_9 
ROOT
HETATM    1  C1  UNL     1     -32.873   5.947   1.111  1.00 20.00    -0.085 C 
HETATM    2  C2  UNL     1     -33.736   5.335   0.290  1.00 20.00     0.014 C 
HETATM    3  C3  UNL     1     -32.000   7.094   0.682  1.00 20.00     0.059 C 
HETATM    4  C4  UNL     1     -32.701   5.572   2.558  1.00 20.00     0.065 C 
HETATM    5  C5  UNL     1     -32.183   8.261   1.646  1.00 20.00     0.172 C 
HETATM    6  C6  UNL     1     -32.823   6.809   3.456  1.00 20.00     0.128 C 
HETATM    7  O10 UNL     1     -31.958   7.861   3.001  1.00 20.00    -0.385 OA
ENDROOT
BRANCH   6   8
HETATM    8  C9  UNL     1     -34.261   7.296   3.627  1.00 20.00     0.007 C 
HETATM    9  C7  UNL     1     -35.195   6.126   3.938  1.00 20.00     0.012 C 
HETATM   10  C8  UNL     1     -34.347   8.354   4.727  1.00 20.00     0.012 C 
ENDBRANCH   6   8
TORSDOF 1
ENDMDL
MODEL 7
REMARK VINA RESULT:       1.8      1.770      2.810
REMARK  1 active torsions:
REMARK  status: ('A' for Active; 'I' for Inactive)
REMARK    1  A    between atoms: C6_6  and  C9_9 
ROOT
HETATM    1  C1  UNL     1     -35.433   6.490   3.731  1.00 20.00    -0.085 C 
HETATM    2  C2  UNL     1     -36.547   6.955   3.151  1.00 20.00     0.014 C 
HETATM    3  C3  UNL     1     -35.301   5.086   4.254  1.00 20.00     0.059 C 
HETATM    4  C4  UNL     1     -34.184   7.311   3.899  1.00 20.00     0.065 C 
HETATM    5  C5  UNL     1     -34.054   4.438   3.661  1.00 20.00     0.172 C 
HETATM    6  C6  UNL     1     -32.964   6.562   3.350  1.00 20.00     0.128 C 
HETATM    7  O10 UNL     1     -32.889   5.236   3.894  1.00 20.00    -0.385 OA
ENDROOT
BRANCH   6   8
HETATM    8  C9  UNL     1     -32.897   6.549   1.823  1.00 20.00     0.007 C 
HETATM    9  C7  UNL     1     -32.265   7.839   1.298  1.00 20.00     0.012 C 
HETATM   10  C8  UNL     1     -32.116   5.332   1.326  1.00 20.00     0.012 C 
ENDBRANCH   6   8
TORSDOF 1
ENDMDL
MODEL 8
REMARK VINA RESULT:       2.1      1.268      3.869
REMARK  1 active torsions:
REMARK  status: ('A' for Active; 'I' for Inactive)
REMARK    1  A    between atoms: C6_6  and  C9_9 
ROOT
HETATM    1  C1  UNL     1     -32.263   9.382   0.287  1.00 20.00    -0.085 C 
HETATM    2  C2  UNL     1     -32.724   9.528  -0.962  1.00 20.00     0.014 C 
HETATM    3  C3  UNL     1     -32.735  10.222   1.442  1.00 20.00     0.059 C 
HETATM    4  C4  UNL     1     -31.244   8.346   0.676  1.00 20.00     0.065 C 
HETATM    5  C5  UNL     1     -33.186   9.313   2.581  1.00 20.00     0.172 C 
HETATM    6  C6  UNL     1     -31.737   7.525   1.873  1.00 20.00     0.128 C 
HETATM    7  O10 UNL     1     -32.161   8.382   2.944  1.00 20.00    -0.385 OA
ENDROOT
BRANCH   6   8
HETATM    8  C9  UNL     1     -32.814   6.504   1.508  1.00 20.00     0.007 C 
HETATM    9  C7  UNL     1     -32.186   5.244   0.913  1.00 20.00     0.012 C 
HETATM   10  C8  UNL     1     -33.663   6.152   2.730  1.00 20.00     0.012 C 
ENDBRANCH   6   8
TORSDOF 1
ENDMDL
MODEL 9
REMARK VINA RESULT:       2.3      2.266      3.597
REMARK  1 active torsions:
REMARK  status: ('A' for Active; 'I' for Inactive)
REMARK    1  A    between atoms: C6_6  and  C9_9 
ROOT
HETATM    1  C1  UNL     1     -32.945   5.331   1.870  1.00 20.00    -0.085 C 
HETATM    2  C2  UNL     1     -31.747   5.159   1.295  1.00 20.00     0.014 C 
HETATM    3  C3  UNL     1     -33.644   4.256   2.656  1.00 20.00     0.059 C 
HETATM    4  C4  UNL     1     -33.709   6.626   1.815  1.00 20.00     0.065 C 
HETATM    5  C5  UNL     1     -34.032   4.800   4.027  1.00 20.00     0.172 C 
HETATM    6  C6  UNL     1     -34.130   7.067   3.221  1.00 20.00     0.128 C 
HETATM    7  O10 UNL     1     -34.800   6.002   3.914  1.00 20.00    -0.385 OA
ENDROOT
BRANCH   6   8
HETATM    8  C9  UNL     1     -32.980   7.640   4.048  1.00 20.00     0.007 C 
HETATM    9  C7  UNL     1     -32.093   8.542   3.189  1.00 20.00     0.012 C 
HETATM   10  C8  UNL     1     -33.512   8.410   5.256  1.00 20.00     0.012 C 
ENDBRANCH   6   8
TORSDOF 1
ENDMDL
