MODEL 1
REMARK VINA RESULT:      -1.0      0.000      0.000
REMARK  2 active torsions:
REMARK  status: ('A' for Active; 'I' for Inactive)
REMARK    1  A    between atoms: C5_5  and  C7_7 
REMARK    2  A    between atoms: C6_6  and  C7_7 
ROOT
HETATM    1  C3  UNL     1     -33.370   7.724   4.388  1.00 20.00     0.016 C 
HETATM    2  C4  UNL     1     -35.429   6.978   3.200  1.00 20.00     0.016 C 
HETATM    3  C7  UNL     1     -33.908   6.725   3.339  1.00 20.00    -0.032 C 
ENDROOT
BRANCH   3   4
HETATM    4  C5  UNL     1     -33.693   5.301   3.926  1.00 20.00     0.123 C 
HETATM    5 CL8  UNL     1     -35.153   4.581   4.651  1.00 20.00    -0.130 Cl
ENDBRANCH   3   4
BRANCH   3   6
HETATM    6  C6  UNL     1     -33.202   6.912   1.943  1.00 20.00    -0.014 C 
HETATM    7  C1  UNL     1     -32.598   5.620   1.373  1.00 20.00     0.010 C 
HETATM    8  C2  UNL     1     -32.112   7.996   1.935  1.00 20.00     0.010 C 
ENDBRANCH   3   6
TORSDOF 2
ENDMDL
MODEL 2
REMARK VINA RESULT:      -0.8      2.430      3.773
REMARK  2 active torsions:
REMARK  status: ('A' for Active; 'I' for Inactive)
REMARK    1  A    between atoms: C5_5  and  C7_7 
REMARK    2  A    between atoms: C6_6  and  C7_7 
ROOT
HETATM    1  C3  UNL     1     -31.968   5.302   1.831  1.00 20.00     0.016 C 
HETATM    2  C4  UNL     1     -33.587   6.581   0.434  1.00 20.00     0.016 C 
HETATM    3  C7  UNL     1     -32.915   6.524   1.827  1.00 20.00    -0.032 C 
ENDROOT
BRANCH   3   4
HETATM    4  C5  UNL     1     -32.020   7.784   1.998  1.00 20.00     0.123 C 
HETATM    5 CL8  UNL     1     -32.361   9.087   0.832  1.00 20.00    -0.130 Cl
ENDBRANCH   3   4
BRANCH   3   6
HETATM    6  C6  UNL     1     -34.014   6.411   2.951  1.00 20.00    -0.014 C 
HETATM    7  C1  UNL     1     -33.947   7.530   4.000  1.00 20.00     0.010 C 
HETATM    8  C2  UNL     1     -34.018   5.062   3.687  1.00 20.00     0.010 C 
ENDBRANCH   3   6
TORSDOF 2
ENDMDL
MODEL 3
REMARK VINA RESULT:      -0.6      2.725      4.006
REMARK  2 active torsions:
REMARK  status: ('A' for Active; 'I' for Inactive)
REMARK    1  A    between atoms: C5_5  and  C7_7 
REMARK    2  A    between atoms: C6_6  and  C7_7 
ROOT
HETATM    1  C3  UNL     1     -31.282   8.350   2.601  1.00 20.00     0.016 C 
HETATM    2  C4  UNL     1     -32.029   6.177   1.635  1.00 20.00     0.016 C 
HETATM    3  C7  UNL     1     -32.503   7.599   2.022  1.00 20.00    -0.032 C 
ENDROOT
BRANCH   3   4
HETATM    4  C5  UNL     1     -32.918   8.353   0.727  1.00 20.00     0.123 C 
HETATM    5 CL8  UNL     1     -32.433  10.068   0.692  1.00 20.00    -0.130 Cl
ENDBRANCH   3   4
BRANCH   3   6
HETATM    6  C6  UNL     1     -33.679   7.509   3.067  1.00 20.00    -0.014 C 
HETATM    7  C1  UNL     1     -33.350   8.139   4.428  1.00 20.00     0.010 C 
HETATM    8  C2  UNL     1     -34.191   6.080   3.310  1.00 20.00     0.010 C 
ENDBRANCH   3   6
TORSDOF 2
ENDMDL
MODEL 4
REMARK VINA RESULT:      -0.5      2.451      3.586
REMARK  2 active torsions:
REMARK  status: ('A' for Active; 'I' for Inactive)
REMARK    1  A    between atoms: C5_5  and  C7_7 
REMARK    2  A    between atoms: C6_6  and  C7_7 
ROOT
HETATM    1  C3  UNL     1     -31.790   5.325   1.538  1.00 20.00     0.016 C 
HETATM    2  C4  UNL     1     -33.838   6.557   0.836  1.00 20.00     0.016 C 
HETATM    3  C7  UNL     1     -32.775   6.440   1.956  1.00 20.00    -0.032 C 
ENDROOT
BRANCH   3   4
HETATM    4  C5  UNL     1     -31.959   7.763   2.005  1.00 20.00     0.123 C 
HETATM    5 CL8  UNL     1     -32.374   8.927   0.722  1.00 20.00    -0.130 Cl
ENDBRANCH   3   4
BRANCH   3   6
HETATM    6  C6  UNL     1     -33.474   6.114   3.330  1.00 20.00    -0.014 C 
HETATM    7  C1  UNL     1     -33.934   4.655   3.462  1.00 20.00     0.010 C 
HETATM    8  C2  UNL     1     -34.668   7.026   3.656  1.00 20.00     0.010 C 
ENDBRANCH   3   6
TORSDOF 2
ENDMDL
MODEL 5
REMARK VINA RESULT:      -0.4      2.909      4.104
REMARK  2 active torsions:
REMARK  status: ('A' for Active; 'I' for Inactive)
REMARK    1  A    between atoms: C5_5  and  C7_7 
REMARK    2  A    between atoms: C6_6  and  C7_7 
ROOT
HETATM    1  C3  UNL     1     -31.595   8.642   3.334  1.00 20.00     0.016 C 
HETATM    2  C4  UNL     1     -31.218   7.647   1.081  1.00 20.00     0.016 C 
HETATM    3  C7  UNL     1     -32.297   8.246   2.015  1.00 20.00    -0.032 C 
ENDROOT
BRANCH   3   4
HETATM    4  C5  UNL     1     -32.829   9.561   1.380  1.00 20.00     0.123 C 
HETATM    5 CL8  UNL     1     -32.458   9.738  -0.355  1.00 20.00    -0.130 Cl
ENDBRANCH   3   4
BRANCH   3   6
HETATM    6  C6  UNL     1     -33.442   7.192   2.261  1.00 20.00    -0.014 C 
HETATM    7  C1  UNL     1     -33.999   7.201   3.691  1.00 20.00     0.010 C 
HETATM    8  C2  UNL     1     -33.048   5.748   1.907  1.00 20.00     0.010 C 
ENDBRANCH   3   6
TORSDOF 2
ENDMDL
MODEL 6
REMARK VINA RESULT:      -0.3      1.488      2.069
REMARK  2 active torsions:
REMARK  status: ('A' for Active; 'I' for Inactive)
REMARK    1  A    between atoms: C5_5  and  C7_7 
REMARK    2  A    between atoms: C6_6  and  C7_7 
ROOT
HETATM    1  C3  UNL     1     -35.250   6.844   3.361  1.00 20.00     0.016 C 
HETATM    2  C4  UNL     1     -33.697   4.917   3.654  1.00 20.00     0.016 C 
HETATM    3  C7  UNL     1     -33.766   6.417   3.281  1.00 20.00    -0.032 C 
ENDROOT
BRANCH   3   4
HETATM    4  C5  UNL     1     -33.006   7.234   4.364  1.00 20.00     0.123 C 
HETATM    5 CL8  UNL     1     -34.003   8.463   5.185  1.00 20.00    -0.130 Cl
ENDBRANCH   3   4
BRANCH   3   6
HETATM    6  C6  UNL     1     -33.175   6.641   1.837  1.00 20.00    -0.014 C 
HETATM    7  C1  UNL     1     -32.509   5.394   1.238  1.00 20.00     0.010 C 
HETATM    8  C2  UNL     1     -32.180   7.809   1.743  1.00 20.00     0.010 C 
ENDBRANCH   3   6
TORSDOF 2
ENDMDL
MODEL 7
REMARK VINA RESULT:      -0.2      0.492      1.552
REMARK  2 active torsions:
REMARK  status: ('A' for Active; 'I' for Inactive)
REMARK    1  A    between atoms: C5_5  and  C7_7 
REMARK    2  A    between atoms: C6_6  and  C7_7 
ROOT
HETATM    1  C3  UNL     1     -33.141   5.176   3.806  1.00 20.00     0.016 C 
HETATM    2  C4  UNL     1     -33.067   7.617   4.303  1.00 20.00     0.016 C 
HETATM    3  C7  UNL     1     -33.640   6.560   3.329  1.00 20.00    -0.032 C 
ENDROOT
BRANCH   3   4
HETATM    4  C5  UNL     1     -35.189   6.548   3.464  1.00 20.00     0.123 C 
HETATM    5 CL8  UNL     1     -35.816   5.299   4.571  1.00 20.00    -0.130 Cl
ENDBRANCH   3   4
BRANCH   3   6
HETATM    6  C6  UNL     1     -33.168   6.871   1.858  1.00 20.00    -0.014 C 
HETATM    7  C1  UNL     1     -32.641   5.644   1.101  1.00 20.00     0.010 C 
HETATM    8  C2  UNL     1     -32.112   7.984   1.763  1.00 20.00     0.010 C 
ENDBRANCH   3   6
TORSDOF 2
ENDMDL
MODEL 8
REMARK VINA RESULT:      -0.1      2.126      3.577
REMARK  2 active torsions:
REMARK  status: ('A' for Active; 'I' for Inactive)
REMARK    1  A    between atoms: C5_5  and  C7_7 
REMARK    2  A    between atoms: C6_6  and  C7_7 
ROOT
HETATM    1  C3  UNL     1     -33.641   6.310   0.422  1.00 20.00     0.016 C 
HETATM    2  C4  UNL     1     -32.220   7.741   1.885  1.00 20.00     0.016 C 
HETATM    3  C7  UNL     1     -32.983   6.396   1.819  1.00 20.00    -0.032 C 
ENDROOT
BRANCH   3   4
HETATM    4  C5  UNL     1     -31.952   5.235   1.899  1.00 20.00     0.123 C 
HETATM    5 CL8  UNL     1     -31.599   4.461   0.332  1.00 20.00    -0.130 Cl
ENDBRANCH   3   4
BRANCH   3   6
HETATM    6  C6  UNL     1     -34.055   6.327   2.971  1.00 20.00    -0.014 C 
HETATM    7  C1  UNL     1     -33.958   7.480   3.980  1.00 20.00     0.010 C 
HETATM    8  C2  UNL     1     -34.048   5.003   3.753  1.00 20.00     0.010 C 
ENDBRANCH   3   6
TORSDOF 2
ENDMDL
MODEL 9
REMARK VINA RESULT:      -0.0      1.801      2.741
REMARK  2 active torsions:
REMARK  status: ('A' for Active; 'I' for Inactive)
REMARK    1  A    between atoms: C5_5  and  C7_7 
REMARK    2  A    between atoms: C6_6  and  C7_7 
ROOT
HETATM    1  C3  UNL     1     -33.590   4.784   3.859  1.00 20.00     0.016 C 
HETATM    2  C4  UNL     1     -35.400   6.462   3.518  1.00 20.00     0.016 C 
HETATM    3  C7  UNL     1     -33.916   6.150   3.212  1.00 20.00    -0.032 C 
ENDROOT
BRANCH   3   4
HETATM    4  C5  UNL     1     -33.753   5.967   1.676  1.00 20.00     0.123 C 
HETATM    5 CL8  UNL     1     -32.223   5.194   1.190  1.00 20.00    -0.130 Cl
ENDBRANCH   3   4
BRANCH   3   6
HETATM    6  C6  UNL     1     -32.996   7.295   3.781  1.00 20.00    -0.014 C 
HETATM    7  C1  UNL     1     -33.685   8.185   4.826  1.00 20.00     0.010 C 
HETATM    8  C2  UNL     1     -32.390   8.206   2.700  1.00 20.00     0.010 C 
ENDBRANCH   3   6
TORSDOF 2
ENDMDL
