MODEL 1
REMARK VINA RESULT:      -3.0      0.000      0.000
REMARK  4 active torsions:
REMARK  status: ('A' for Active; 'I' for Inactive)
REMARK    1  A    between atoms: C2_2  and  C5_5 
REMARK    2  A    between atoms: C5_5  and  C6_6 
REMARK    3  A    between atoms: C6_6  and  C8_8 
REMARK    4  A    between atoms: C7_7  and  C8_8 
ROOT
HETATM    1  C1  UNL     1     -32.315   9.122   0.792  1.00 20.00    -0.111 C 
HETATM    2  C2  UNL     1     -32.154   8.032   1.268  1.00 20.00    -0.107 C 
HETATM    3  C3  UNL     1     -32.511  10.452   0.216  1.00 20.00     0.112 C 
ENDROOT
BRANCH   2   4
HETATM    4  C5  UNL     1     -31.960   6.696   1.847  1.00 20.00     0.094 C 
BRANCH   4   5
HETATM    5  C6  UNL     1     -33.286   5.982   2.124  1.00 20.00     0.017 C 
BRANCH   5   6
HETATM    6  C8  UNL     1     -33.728   5.951   3.604  1.00 20.00    -0.004 C 
HETATM    7  C4  UNL     1     -34.508   7.230   3.936  1.00 20.00     0.011 C 
BRANCH   6   8
HETATM    8  C7  UNL     1     -34.519   4.694   4.006  1.00 20.00     0.119 C 
HETATM    9 CL9  UNL     1     -33.485   3.327   4.490  1.00 20.00    -0.130 Cl
ENDBRANCH   6   8
ENDBRANCH   5   6
ENDBRANCH   4   5
ENDBRANCH   2   4
TORSDOF 4
ENDMDL
MODEL 2
REMARK VINA RESULT:      -2.7      2.705      5.204
REMARK  4 active torsions:
REMARK  status: ('A' for Active; 'I' for Inactive)
REMARK    1  A    between atoms: C2_2  and  C5_5 
REMARK    2  A    between atoms: C5_5  and  C6_6 
REMARK    3  A    between atoms: C6_6  and  C8_8 
REMARK    4  A    between atoms: C7_7  and  C8_8 
ROOT
HETATM    1  C1  UNL     1     -33.882   3.953   4.374  1.00 20.00    -0.111 C 
HETATM    2  C2  UNL     1     -34.412   4.995   4.101  1.00 20.00    -0.107 C 
HETATM    3  C3  UNL     1     -33.236   2.684   4.710  1.00 20.00     0.112 C 
ENDROOT
BRANCH   2   4
HETATM    4  C5  UNL     1     -35.058   6.270   3.763  1.00 20.00     0.094 C 
BRANCH   4   5
HETATM    5  C6  UNL     1     -34.044   7.386   3.497  1.00 20.00     0.017 C 
BRANCH   5   6
HETATM    6  C8  UNL     1     -32.801   6.973   2.677  1.00 20.00    -0.004 C 
HETATM    7  C4  UNL     1     -33.242   6.192   1.432  1.00 20.00     0.011 C 
BRANCH   6   8
HETATM    8  C7  UNL     1     -31.868   8.138   2.305  1.00 20.00     0.119 C 
HETATM    9 CL9  UNL     1     -32.387   9.031   0.854  1.00 20.00    -0.130 Cl
ENDBRANCH   6   8
ENDBRANCH   5   6
ENDBRANCH   4   5
ENDBRANCH   2   4
TORSDOF 4
ENDMDL
MODEL 3
REMARK VINA RESULT:      -2.5      2.020      4.803
REMARK  4 active torsions:
REMARK  status: ('A' for Active; 'I' for Inactive)
REMARK    1  A    between atoms: C2_2  and  C5_5 
REMARK    2  A    between atoms: C5_5  and  C6_6 
REMARK    3  A    between atoms: C6_6  and  C8_8 
REMARK    4  A    between atoms: C7_7  and  C8_8 
ROOT
HETATM    1  C1  UNL     1     -33.870   3.858   4.380  1.00 20.00    -0.111 C 
HETATM    2  C2  UNL     1     -34.358   4.929   4.147  1.00 20.00    -0.107 C 
HETATM    3  C3  UNL     1     -33.277   2.552   4.666  1.00 20.00     0.112 C 
ENDROOT
BRANCH   2   4
HETATM    4  C5  UNL     1     -34.951   6.243   3.862  1.00 20.00     0.094 C 
BRANCH   4   5
HETATM    5  C6  UNL     1     -33.893   7.330   3.658  1.00 20.00     0.017 C 
BRANCH   5   6
HETATM    6  C8  UNL     1     -33.298   7.419   2.234  1.00 20.00    -0.004 C 
HETATM    7  C4  UNL     1     -31.912   8.074   2.295  1.00 20.00     0.011 C 
BRANCH   6   8
HETATM    8  C7  UNL     1     -33.251   6.081   1.479  1.00 20.00     0.119 C 
HETATM    9 CL9  UNL     1     -31.628   5.353   1.418  1.00 20.00    -0.130 Cl
ENDBRANCH   6   8
ENDBRANCH   5   6
ENDBRANCH   4   5
ENDBRANCH   2   4
TORSDOF 4
ENDMDL
MODEL 4
REMARK VINA RESULT:      -2.3      2.278      4.875
REMARK  4 active torsions:
REMARK  status: ('A' for Active; 'I' for Inactive)
REMARK    1  A    between atoms: C2_2  and  C5_5 
REMARK    2  A    between atoms: C5_5  and  C6_6 
REMARK    3  A    between atoms: C6_6  and  C8_8 
REMARK    4  A    between atoms: C7_7  and  C8_8 
ROOT
HETATM    1  C1  UNL     1     -33.837   3.655   4.456  1.00 20.00    -0.111 C 
HETATM    2  C2  UNL     1     -34.504   4.652   4.413  1.00 20.00    -0.107 C 
HETATM    3  C3  UNL     1     -33.025   2.439   4.509  1.00 20.00     0.112 C 
ENDROOT
BRANCH   2   4
HETATM    4  C5  UNL     1     -35.318   5.874   4.363  1.00 20.00     0.094 C 
BRANCH   4   5
HETATM    5  C6  UNL     1     -34.992   6.744   3.147  1.00 20.00     0.017 C 
BRANCH   5   6
HETATM    6  C8  UNL     1     -33.854   7.770   3.350  1.00 20.00    -0.004 C 
HETATM    7  C4  UNL     1     -33.545   7.906   4.847  1.00 20.00     0.011 C 
BRANCH   6   8
HETATM    8  C7  UNL     1     -32.580   7.477   2.540  1.00 20.00     0.119 C 
HETATM    9 CL9  UNL     1     -32.691   6.002   1.549  1.00 20.00    -0.130 Cl
ENDBRANCH   6   8
ENDBRANCH   5   6
ENDBRANCH   4   5
ENDBRANCH   2   4
TORSDOF 4
ENDMDL
MODEL 5
REMARK VINA RESULT:      -2.1      0.950      1.438
REMARK  4 active torsions:
REMARK  status: ('A' for Active; 'I' for Inactive)
REMARK    1  A    between atoms: C2_2  and  C5_5 
REMARK    2  A    between atoms: C5_5  and  C6_6 
REMARK    3  A    between atoms: C6_6  and  C8_8 
REMARK    4  A    between atoms: C7_7  and  C8_8 
ROOT
HETATM    1  C1  UNL     1     -32.464   9.481   0.445  1.00 20.00    -0.111 C 
HETATM    2  C2  UNL     1     -32.237   8.777   1.390  1.00 20.00    -0.107 C 
HETATM    3  C3  UNL     1     -32.738  10.343  -0.705  1.00 20.00     0.112 C 
ENDROOT
BRANCH   2   4
HETATM    4  C5  UNL     1     -31.964   7.913   2.547  1.00 20.00     0.094 C 
BRANCH   4   5
HETATM    5  C6  UNL     1     -33.225   7.613   3.362  1.00 20.00     0.017 C 
BRANCH   5   6
HETATM    6  C8  UNL     1     -34.021   6.364   2.919  1.00 20.00    -0.004 C 
HETATM    7  C4  UNL     1     -33.148   5.493   2.006  1.00 20.00     0.011 C 
BRANCH   6   8
HETATM    8  C7  UNL     1     -34.613   5.543   4.077  1.00 20.00     0.119 C 
HETATM    9 CL9  UNL     1     -33.959   3.891   4.185  1.00 20.00    -0.130 Cl
ENDBRANCH   6   8
ENDBRANCH   5   6
ENDBRANCH   4   5
ENDBRANCH   2   4
TORSDOF 4
ENDMDL
MODEL 6
REMARK VINA RESULT:      -1.8      1.418      1.867
REMARK  4 active torsions:
REMARK  status: ('A' for Active; 'I' for Inactive)
REMARK    1  A    between atoms: C2_2  and  C5_5 
REMARK    2  A    between atoms: C5_5  and  C6_6 
REMARK    3  A    between atoms: C6_6  and  C8_8 
REMARK    4  A    between atoms: C7_7  and  C8_8 
ROOT
HETATM    1  C1  UNL     1     -32.417   9.481   0.485  1.00 20.00    -0.111 C 
HETATM    2  C2  UNL     1     -32.117   8.565   1.201  1.00 20.00    -0.107 C 
HETATM    3  C3  UNL     1     -32.780  10.596  -0.390  1.00 20.00     0.112 C 
ENDROOT
BRANCH   2   4
HETATM    4  C5  UNL     1     -31.749   7.448   2.080  1.00 20.00     0.094 C 
BRANCH   4   5
HETATM    5  C6  UNL     1     -32.382   6.125   1.639  1.00 20.00     0.017 C 
BRANCH   5   6
HETATM    6  C8  UNL     1     -33.609   5.668   2.461  1.00 20.00    -0.004 C 
HETATM    7  C4  UNL     1     -33.259   4.398   3.246  1.00 20.00     0.011 C 
BRANCH   6   8
HETATM    8  C7  UNL     1     -34.197   6.751   3.381  1.00 20.00     0.119 C 
HETATM    9 CL9  UNL     1     -35.561   6.180   4.372  1.00 20.00    -0.130 Cl
ENDBRANCH   6   8
ENDBRANCH   5   6
ENDBRANCH   4   5
ENDBRANCH   2   4
TORSDOF 4
ENDMDL
MODEL 7
REMARK VINA RESULT:      -1.7      1.570      1.966
REMARK  4 active torsions:
REMARK  status: ('A' for Active; 'I' for Inactive)
REMARK    1  A    between atoms: C2_2  and  C5_5 
REMARK    2  A    between atoms: C5_5  and  C6_6 
REMARK    3  A    between atoms: C6_6  and  C8_8 
REMARK    4  A    between atoms: C7_7  and  C8_8 
ROOT
HETATM    1  C1  UNL     1     -32.367   9.373   0.623  1.00 20.00    -0.111 C 
HETATM    2  C2  UNL     1     -32.177   8.380   1.270  1.00 20.00    -0.107 C 
HETATM    3  C3  UNL     1     -32.596  10.582  -0.167  1.00 20.00     0.112 C 
ENDROOT
BRANCH   2   4
HETATM    4  C5  UNL     1     -31.943   7.167   2.065  1.00 20.00     0.094 C 
BRANCH   4   5
HETATM    5  C6  UNL     1     -33.058   6.131   1.891  1.00 20.00     0.017 C 
BRANCH   5   6
HETATM    6  C8  UNL     1     -34.173   6.169   2.960  1.00 20.00    -0.004 C 
HETATM    7  C4  UNL     1     -33.938   5.057   3.990  1.00 20.00     0.011 C 
BRANCH   6   8
HETATM    8  C7  UNL     1     -34.353   7.535   3.643  1.00 20.00     0.119 C 
HETATM    9 CL9  UNL     1     -33.301   7.767   5.061  1.00 20.00    -0.130 Cl
ENDBRANCH   6   8
ENDBRANCH   5   6
ENDBRANCH   4   5
ENDBRANCH   2   4
TORSDOF 4
ENDMDL
MODEL 8
REMARK VINA RESULT:      -1.7      1.638      1.911
REMARK  4 active torsions:
REMARK  status: ('A' for Active; 'I' for Inactive)
REMARK    1  A    between atoms: C2_2  and  C5_5 
REMARK    2  A    between atoms: C5_5  and  C6_6 
REMARK    3  A    between atoms: C6_6  and  C8_8 
REMARK    4  A    between atoms: C7_7  and  C8_8 
ROOT
HETATM    1  C1  UNL     1     -32.494   9.649   0.353  1.00 20.00    -0.111 C 
HETATM    2  C2  UNL     1     -32.219   8.941   1.283  1.00 20.00    -0.107 C 
HETATM    3  C3  UNL     1     -32.829  10.514  -0.777  1.00 20.00     0.112 C 
ENDROOT
BRANCH   2   4
HETATM    4  C5  UNL     1     -31.887   8.072   2.420  1.00 20.00     0.094 C 
BRANCH   4   5
HETATM    5  C6  UNL     1     -33.099   7.784   3.309  1.00 20.00     0.017 C 
BRANCH   5   6
HETATM    6  C8  UNL     1     -33.642   6.339   3.246  1.00 20.00    -0.004 C 
HETATM    7  C4  UNL     1     -35.063   6.297   3.825  1.00 20.00     0.011 C 
BRANCH   6   8
HETATM    8  C7  UNL     1     -33.589   5.700   1.849  1.00 20.00     0.119 C 
HETATM    9 CL9  UNL     1     -31.957   5.179   1.366  1.00 20.00    -0.130 Cl
ENDBRANCH   6   8
ENDBRANCH   5   6
ENDBRANCH   4   5
ENDBRANCH   2   4
TORSDOF 4
ENDMDL
MODEL 9
REMARK VINA RESULT:      -1.6      2.955      4.862
REMARK  4 active torsions:
REMARK  status: ('A' for Active; 'I' for Inactive)
REMARK    1  A    between atoms: C2_2  and  C5_5 
REMARK    2  A    between atoms: C5_5  and  C6_6 
REMARK    3  A    between atoms: C6_6  and  C8_8 
REMARK    4  A    between atoms: C7_7  and  C8_8 
ROOT
HETATM    1  C1  UNL     1     -34.405   5.945   3.335  1.00 20.00    -0.111 C 
HETATM    2  C2  UNL     1     -33.585   5.790   2.473  1.00 20.00    -0.107 C 
HETATM    3  C3  UNL     1     -35.402   6.133   4.389  1.00 20.00     0.112 C 
ENDROOT
BRANCH   2   4
HETATM    4  C5  UNL     1     -32.584   5.598   1.414  1.00 20.00     0.094 C 
BRANCH   4   5
HETATM    5  C6  UNL     1     -31.581   6.752   1.343  1.00 20.00     0.017 C 
BRANCH   5   6
HETATM    6  C8  UNL     1     -32.176   8.164   1.547  1.00 20.00    -0.004 C 
HETATM    7  C4  UNL     1     -31.655   8.757   2.862  1.00 20.00     0.011 C 
BRANCH   6   8
HETATM    8  C7  UNL     1     -31.947   9.126   0.369  1.00 20.00     0.119 C 
HETATM    9 CL9  UNL     1     -32.744  10.705   0.574  1.00 20.00    -0.130 Cl
ENDBRANCH   6   8
ENDBRANCH   5   6
ENDBRANCH   4   5
ENDBRANCH   2   4
TORSDOF 4
ENDMDL
