MODEL 1
REMARK VINA RESULT:      -1.4      0.000      0.000
REMARK  3 active torsions:
REMARK  status: ('A' for Active; 'I' for Inactive)
REMARK    1  A    between atoms: C1_1  and  C5_5 
REMARK    2  A    between atoms: C1_1  and  C7_7 
REMARK    3  A    between atoms: C6_6  and  C7_7 
ROOT
HETATM    1  C3  UNL     1     -35.809   6.962   3.078  1.00 20.00     0.023 C 
HETATM    2  C4  UNL     1     -33.872   7.450   4.556  1.00 20.00     0.023 C 
HETATM    3  C7  UNL     1     -34.397   6.489   3.474  1.00 20.00     0.014 C 
ENDROOT
BRANCH   3   4
HETATM    4  C1  UNL     1     -34.474   5.056   4.052  1.00 20.00     0.148 C 
HETATM    5  O8  UNL     1     -35.418   4.711   4.766  1.00 20.00    -0.296 OA
BRANCH   4   6
HETATM    6  C5  UNL     1     -33.344   4.099   3.714  1.00 20.00     0.193 C 
HETATM    7 CL9  UNL     1     -33.165   2.881   4.990  1.00 20.00    -0.123 Cl
ENDBRANCH   4   6
ENDBRANCH   3   4
BRANCH   3   8
HETATM    8  C6  UNL     1     -33.446   6.534   2.253  1.00 20.00     0.012 C 
HETATM    9  C2  UNL     1     -32.453   7.691   2.248  1.00 20.00     0.006 C 
ENDBRANCH   3   8
TORSDOF 3
ENDMDL
MODEL 2
REMARK VINA RESULT:      -0.9      2.400      3.595
REMARK  3 active torsions:
REMARK  status: ('A' for Active; 'I' for Inactive)
REMARK    1  A    between atoms: C1_1  and  C5_5 
REMARK    2  A    between atoms: C1_1  and  C7_7 
REMARK    3  A    between atoms: C6_6  and  C7_7 
ROOT
HETATM    1  C3  UNL     1     -31.462   8.697   3.295  1.00 20.00     0.023 C 
HETATM    2  C4  UNL     1     -31.230   7.465   1.149  1.00 20.00     0.023 C 
HETATM    3  C7  UNL     1     -32.247   8.121   2.101  1.00 20.00     0.014 C 
ENDROOT
BRANCH   3   4
HETATM    4  C1  UNL     1     -33.245   7.051   2.605  1.00 20.00     0.148 C 
HETATM    5  O8  UNL     1     -33.349   5.964   2.033  1.00 20.00    -0.296 OA
BRANCH   4   6
HETATM    6  C5  UNL     1     -34.091   7.393   3.819  1.00 20.00     0.193 C 
HETATM    7 CL9  UNL     1     -35.390   6.202   4.020  1.00 20.00    -0.123 Cl
ENDBRANCH   4   6
ENDBRANCH   3   4
BRANCH   3   8
HETATM    8  C6  UNL     1     -32.993   9.247   1.345  1.00 20.00     0.012 C 
HETATM    9  C2  UNL     1     -32.311   9.733   0.070  1.00 20.00     0.006 C 
ENDBRANCH   3   8
TORSDOF 3
ENDMDL
MODEL 3
REMARK VINA RESULT:      -0.8      2.978      3.999
REMARK  3 active torsions:
REMARK  status: ('A' for Active; 'I' for Inactive)
REMARK    1  A    between atoms: C1_1  and  C5_5 
REMARK    2  A    between atoms: C1_1  and  C7_7 
REMARK    3  A    between atoms: C6_6  and  C7_7 
ROOT
HETATM    1  C3  UNL     1     -33.502   7.791   4.513  1.00 20.00     0.023 C 
HETATM    2  C4  UNL     1     -35.361   7.143   2.996  1.00 20.00     0.023 C 
HETATM    3  C7  UNL     1     -33.933   6.773   3.439  1.00 20.00     0.014 C 
ENDROOT
BRANCH   3   4
HETATM    4  C1  UNL     1     -32.979   6.864   2.225  1.00 20.00     0.148 C 
HETATM    5  O8  UNL     1     -32.988   5.999   1.347  1.00 20.00    -0.296 OA
BRANCH   4   6
HETATM    6  C5  UNL     1     -32.030   8.048   2.163  1.00 20.00     0.193 C 
HETATM    7 CL9  UNL     1     -32.422   9.081   0.775  1.00 20.00    -0.123 Cl
ENDBRANCH   4   6
ENDBRANCH   3   4
BRANCH   3   8
HETATM    8  C6  UNL     1     -33.941   5.338   4.020  1.00 20.00     0.012 C 
HETATM    9  C2  UNL     1     -35.273   4.883   4.606  1.00 20.00     0.006 C 
ENDBRANCH   3   8
TORSDOF 3
ENDMDL
MODEL 4
REMARK VINA RESULT:      -0.8      3.575      4.630
REMARK  3 active torsions:
REMARK  status: ('A' for Active; 'I' for Inactive)
REMARK    1  A    between atoms: C1_1  and  C5_5 
REMARK    2  A    between atoms: C1_1  and  C7_7 
REMARK    3  A    between atoms: C6_6  and  C7_7 
ROOT
HETATM    1  C3  UNL     1     -33.888   6.391   0.711  1.00 20.00     0.023 C 
HETATM    2  C4  UNL     1     -31.749   5.361   1.447  1.00 20.00     0.023 C 
HETATM    3  C7  UNL     1     -32.812   6.412   1.815  1.00 20.00     0.014 C 
ENDROOT
BRANCH   3   4
HETATM    4  C1  UNL     1     -32.155   7.811   1.871  1.00 20.00     0.148 C 
HETATM    5  O8  UNL     1     -31.877   8.336   2.952  1.00 20.00    -0.296 OA
BRANCH   4   6
HETATM    6  C5  UNL     1     -31.874   8.511   0.553  1.00 20.00     0.193 C 
HETATM    7 CL9  UNL     1     -32.626  10.117   0.536  1.00 20.00    -0.123 Cl
ENDBRANCH   4   6
ENDBRANCH   3   4
BRANCH   3   8
HETATM    8  C6  UNL     1     -33.432   6.045   3.186  1.00 20.00     0.012 C 
HETATM    9  C2  UNL     1     -34.707   6.801   3.544  1.00 20.00     0.006 C 
ENDBRANCH   3   8
TORSDOF 3
ENDMDL
MODEL 5
REMARK VINA RESULT:      -0.7      2.048      3.013
REMARK  3 active torsions:
REMARK  status: ('A' for Active; 'I' for Inactive)
REMARK    1  A    between atoms: C1_1  and  C5_5 
REMARK    2  A    between atoms: C1_1  and  C7_7 
REMARK    3  A    between atoms: C6_6  and  C7_7 
ROOT
HETATM    1  C3  UNL     1     -31.767   5.409   1.675  1.00 20.00     0.023 C 
HETATM    2  C4  UNL     1     -33.620   6.622   0.547  1.00 20.00     0.023 C 
HETATM    3  C7  UNL     1     -32.688   6.641   1.773  1.00 20.00     0.014 C 
ENDROOT
BRANCH   3   4
HETATM    4  C1  UNL     1     -33.534   6.553   3.065  1.00 20.00     0.148 C 
HETATM    5  O8  UNL     1     -33.766   7.560   3.739  1.00 20.00    -0.296 OA
BRANCH   4   6
HETATM    6  C5  UNL     1     -34.059   5.188   3.472  1.00 20.00     0.193 C 
HETATM    7 CL9  UNL     1     -35.501   5.360   4.491  1.00 20.00    -0.123 Cl
ENDBRANCH   4   6
ENDBRANCH   3   4
BRANCH   3   8
HETATM    8  C6  UNL     1     -31.855   7.946   1.754  1.00 20.00     0.012 C 
HETATM    9  C2  UNL     1     -32.324   9.000   0.757  1.00 20.00     0.006 C 
ENDBRANCH   3   8
TORSDOF 3
ENDMDL
MODEL 6
REMARK VINA RESULT:      -0.7      0.534      1.674
REMARK  3 active torsions:
REMARK  status: ('A' for Active; 'I' for Inactive)
REMARK    1  A    between atoms: C1_1  and  C5_5 
REMARK    2  A    between atoms: C1_1  and  C7_7 
REMARK    3  A    between atoms: C6_6  and  C7_7 
ROOT
HETATM    1  C3  UNL     1     -33.477   6.542   2.413  1.00 20.00     0.023 C 
HETATM    2  C4  UNL     1     -35.857   6.906   3.029  1.00 20.00     0.023 C 
HETATM    3  C7  UNL     1     -34.484   6.476   3.577  1.00 20.00     0.014 C 
ENDROOT
BRANCH   3   4
HETATM    4  C1  UNL     1     -34.573   5.025   4.106  1.00 20.00     0.148 C 
HETATM    5  O8  UNL     1     -35.496   4.676   4.844  1.00 20.00    -0.296 OA
BRANCH   4   6
HETATM    6  C5  UNL     1     -33.481   4.056   3.689  1.00 20.00     0.193 C 
HETATM    7 CL9  UNL     1     -33.136   2.914   5.001  1.00 20.00    -0.123 Cl
ENDBRANCH   4   6
ENDBRANCH   3   4
BRANCH   3   8
HETATM    8  C6  UNL     1     -34.068   7.445   4.711  1.00 20.00     0.012 C 
HETATM    9  C2  UNL     1     -32.802   8.251   4.443  1.00 20.00     0.006 C 
ENDBRANCH   3   8
TORSDOF 3
ENDMDL
MODEL 7
REMARK VINA RESULT:      -0.5      1.316      1.341
REMARK  3 active torsions:
REMARK  status: ('A' for Active; 'I' for Inactive)
REMARK    1  A    between atoms: C1_1  and  C5_5 
REMARK    2  A    between atoms: C1_1  and  C7_7 
REMARK    3  A    between atoms: C6_6  and  C7_7 
ROOT
HETATM    1  C3  UNL     1     -35.542   6.834   3.365  1.00 20.00     0.023 C 
HETATM    2  C4  UNL     1     -33.423   7.419   4.526  1.00 20.00     0.023 C 
HETATM    3  C7  UNL     1     -34.008   6.705   3.293  1.00 20.00     0.014 C 
ENDROOT
BRANCH   3   4
HETATM    4  C1  UNL     1     -33.611   5.210   3.328  1.00 20.00     0.148 C 
HETATM    5  O8  UNL     1     -32.813   4.748   2.510  1.00 20.00    -0.296 OA
BRANCH   4   6
HETATM    6  C5  UNL     1     -34.245   4.338   4.398  1.00 20.00     0.193 C 
HETATM    7 CL9  UNL     1     -33.171   2.987   4.808  1.00 20.00    -0.123 Cl
ENDBRANCH   4   6
ENDBRANCH   3   4
BRANCH   3   8
HETATM    8  C6  UNL     1     -33.464   7.384   2.012  1.00 20.00     0.012 C 
HETATM    9  C2  UNL     1     -32.077   8.002   2.145  1.00 20.00     0.006 C 
ENDBRANCH   3   8
TORSDOF 3
ENDMDL
MODEL 8
REMARK VINA RESULT:      -0.3      1.194      1.372
REMARK  3 active torsions:
REMARK  status: ('A' for Active; 'I' for Inactive)
REMARK    1  A    between atoms: C1_1  and  C5_5 
REMARK    2  A    between atoms: C1_1  and  C7_7 
REMARK    3  A    between atoms: C6_6  and  C7_7 
ROOT
HETATM    1  C3  UNL     1     -34.586   8.657   3.076  1.00 20.00     0.023 C 
HETATM    2  C4  UNL     1     -33.104   7.982   4.954  1.00 20.00     0.023 C 
HETATM    3  C7  UNL     1     -33.617   7.562   3.564  1.00 20.00     0.014 C 
ENDROOT
BRANCH   3   4
HETATM    4  C1  UNL     1     -34.370   6.216   3.678  1.00 20.00     0.148 C 
HETATM    5  O8  UNL     1     -35.503   6.164   4.161  1.00 20.00    -0.296 OA
BRANCH   4   6
HETATM    6  C5  UNL     1     -33.660   4.968   3.184  1.00 20.00     0.193 C 
HETATM    7 CL9  UNL     1     -33.835   3.652   4.361  1.00 20.00    -0.123 Cl
ENDBRANCH   4   6
ENDBRANCH   3   4
BRANCH   3   8
HETATM    8  C6  UNL     1     -32.412   7.433   2.600  1.00 20.00     0.012 C 
HETATM    9  C2  UNL     1     -32.331   8.502   1.516  1.00 20.00     0.006 C 
ENDBRANCH   3   8
TORSDOF 3
ENDMDL
MODEL 9
REMARK VINA RESULT:      -0.2      2.422      3.429
REMARK  3 active torsions:
REMARK  status: ('A' for Active; 'I' for Inactive)
REMARK    1  A    between atoms: C1_1  and  C5_5 
REMARK    2  A    between atoms: C1_1  and  C7_7 
REMARK    3  A    between atoms: C6_6  and  C7_7 
ROOT
HETATM    1  C3  UNL     1     -33.555   7.843   4.645  1.00 20.00     0.023 C 
HETATM    2  C4  UNL     1     -35.427   7.182   3.150  1.00 20.00     0.023 C 
HETATM    3  C7  UNL     1     -33.976   6.850   3.545  1.00 20.00     0.014 C 
ENDROOT
BRANCH   3   4
HETATM    4  C1  UNL     1     -33.056   7.020   2.313  1.00 20.00     0.148 C 
HETATM    5  O8  UNL     1     -32.342   8.018   2.189  1.00 20.00    -0.296 OA
BRANCH   4   6
HETATM    6  C5  UNL     1     -33.074   5.922   1.264  1.00 20.00     0.193 C 
HETATM    7 CL9  UNL     1     -31.533   5.044   1.264  1.00 20.00    -0.123 Cl
ENDBRANCH   4   6
ENDBRANCH   3   4
BRANCH   3   8
HETATM    8  C6  UNL     1     -33.916   5.396   4.073  1.00 20.00     0.012 C 
HETATM    9  C2  UNL     1     -35.241   4.834   4.577  1.00 20.00     0.006 C 
ENDBRANCH   3   8
TORSDOF 3
ENDMDL
