MODEL 1
REMARK VINA RESULT:       0.2      0.000      0.000
REMARK  0 active torsions:
REMARK  status: ('A' for Active; 'I' for Inactive)
ROOT
HETATM    1  C1  UNL     1     -33.918   6.528   3.346  1.00 20.00    -0.088 C 
HETATM    2  C2  UNL     1     -35.149   6.341   3.845  1.00 20.00     0.014 C 
HETATM    3  C3  UNL     1     -33.314   7.896   3.174  1.00 20.00     0.037 C 
HETATM    4  C4  UNL     1     -33.041   5.385   2.902  1.00 20.00     0.042 C 
HETATM    5  C5  UNL     1     -31.931   6.966   1.257  1.00 20.00     0.013 C 
HETATM    6  C6  UNL     1     -32.850   8.112   1.724  1.00 20.00    -0.014 C 
HETATM    7  C7  UNL     1     -32.555   5.558   1.443  1.00 20.00    -0.044 C 
HETATM    8  C8  UNL     1     -32.137   9.458   1.588  1.00 20.00     0.010 C 
HETATM    9  C9  UNL     1     -33.722   5.348   0.457  1.00 20.00     0.015 C 
HETATM   10  C10 UNL     1     -31.483   4.494   1.142  1.00 20.00     0.015 C 
ENDROOT
TORSDOF 0
ENDMDL
MODEL 2
REMARK VINA RESULT:       0.4      0.861      3.404
REMARK  0 active torsions:
REMARK  status: ('A' for Active; 'I' for Inactive)
ROOT
HETATM    1  C1  UNL     1     -32.689   5.539   1.505  1.00 20.00    -0.088 C 
HETATM    2  C2  UNL     1     -32.764   4.895   0.331  1.00 20.00     0.014 C 
HETATM    3  C3  UNL     1     -33.688   5.324   2.612  1.00 20.00     0.037 C 
HETATM    4  C4  UNL     1     -31.608   6.543   1.812  1.00 20.00     0.042 C 
HETATM    5  C5  UNL     1     -33.219   7.692   3.398  1.00 20.00     0.013 C 
HETATM    6  C6  UNL     1     -34.309   6.657   3.057  1.00 20.00    -0.014 C 
HETATM    7  C7  UNL     1     -32.190   7.906   2.259  1.00 20.00    -0.044 C 
HETATM    8  C8  UNL     1     -35.235   6.440   4.254  1.00 20.00     0.010 C 
HETATM    9  C9  UNL     1     -32.845   8.631   1.065  1.00 20.00     0.015 C 
HETATM   10  C10 UNL     1     -31.044   8.793   2.782  1.00 20.00     0.015 C 
ENDROOT
TORSDOF 0
ENDMDL
MODEL 3
REMARK VINA RESULT:       0.7      0.986      3.232
REMARK  0 active torsions:
REMARK  status: ('A' for Active; 'I' for Inactive)
ROOT
HETATM    1  C1  UNL     1     -33.858   7.131   3.160  1.00 20.00    -0.088 C 
HETATM    2  C2  UNL     1     -34.218   7.167   4.451  1.00 20.00     0.014 C 
HETATM    3  C3  UNL     1     -33.628   5.840   2.420  1.00 20.00     0.037 C 
HETATM    4  C4  UNL     1     -33.639   8.379   2.344  1.00 20.00     0.042 C 
HETATM    5  C5  UNL     1     -31.996   7.076   0.917  1.00 20.00     0.013 C 
HETATM    6  C6  UNL     1     -32.232   5.818   1.776  1.00 20.00    -0.014 C 
HETATM    7  C7  UNL     1     -32.240   8.402   1.681  1.00 20.00    -0.044 C 
HETATM    8  C8  UNL     1     -32.053   4.554   0.935  1.00 20.00     0.010 C 
HETATM    9  C9  UNL     1     -31.144   8.627   2.742  1.00 20.00     0.015 C 
HETATM   10  C10 UNL     1     -32.180   9.573   0.681  1.00 20.00     0.015 C 
ENDROOT
TORSDOF 0
ENDMDL
MODEL 4
REMARK VINA RESULT:       1.1      1.048      3.765
REMARK  0 active torsions:
REMARK  status: ('A' for Active; 'I' for Inactive)
ROOT
HETATM    1  C1  UNL     1     -32.220   8.473   1.516  1.00 20.00    -0.088 C 
HETATM    2  C2  UNL     1     -32.369   9.497   0.662  1.00 20.00     0.014 C 
HETATM    3  C3  UNL     1     -31.814   7.095   1.064  1.00 20.00     0.037 C 
HETATM    4  C4  UNL     1     -32.463   8.611   2.997  1.00 20.00     0.042 C 
HETATM    5  C5  UNL     1     -33.071   6.149   3.057  1.00 20.00     0.013 C 
HETATM    6  C6  UNL     1     -32.826   6.041   1.539  1.00 20.00    -0.014 C 
HETATM    7  C7  UNL     1     -33.484   7.570   3.518  1.00 20.00    -0.044 C 
HETATM    8  C8  UNL     1     -32.345   4.637   1.173  1.00 20.00     0.010 C 
HETATM    9  C9  UNL     1     -34.903   7.911   3.021  1.00 20.00     0.015 C 
HETATM   10  C10 UNL     1     -33.498   7.611   5.058  1.00 20.00     0.015 C 
ENDROOT
TORSDOF 0
ENDMDL
MODEL 5
REMARK VINA RESULT:       1.2      1.500      4.227
REMARK  0 active torsions:
REMARK  status: ('A' for Active; 'I' for Inactive)
ROOT
HETATM    1  C1  UNL     1     -33.077   5.645   1.790  1.00 20.00    -0.088 C 
HETATM    2  C2  UNL     1     -33.231   5.630   0.457  1.00 20.00     0.014 C 
HETATM    3  C3  UNL     1     -32.785   4.400   2.585  1.00 20.00     0.037 C 
HETATM    4  C4  UNL     1     -33.198   6.907   2.605  1.00 20.00     0.042 C 
HETATM    5  C5  UNL     1     -33.940   5.485   4.570  1.00 20.00     0.013 C 
HETATM    6  C6  UNL     1     -33.818   4.213   3.708  1.00 20.00    -0.014 C 
HETATM    7  C7  UNL     1     -34.234   6.765   3.746  1.00 20.00    -0.044 C 
HETATM    8  C8  UNL     1     -33.447   3.011   4.578  1.00 20.00     0.010 C 
HETATM    9  C9  UNL     1     -35.666   6.724   3.174  1.00 20.00     0.015 C 
HETATM   10  C10 UNL     1     -34.129   7.990   4.674  1.00 20.00     0.015 C 
ENDROOT
TORSDOF 0
ENDMDL
MODEL 6
REMARK VINA RESULT:       1.4      0.882      2.947
REMARK  0 active torsions:
REMARK  status: ('A' for Active; 'I' for Inactive)
ROOT
HETATM    1  C1  UNL     1     -32.327   7.874   2.407  1.00 20.00    -0.088 C 
HETATM    2  C2  UNL     1     -31.286   8.634   2.776  1.00 20.00     0.014 C 
HETATM    3  C3  UNL     1     -33.591   7.780   3.221  1.00 20.00     0.037 C 
HETATM    4  C4  UNL     1     -32.316   7.037   1.153  1.00 20.00     0.042 C 
HETATM    5  C5  UNL     1     -33.938   5.447   2.281  1.00 20.00     0.013 C 
HETATM    6  C6  UNL     1     -33.921   6.316   3.553  1.00 20.00    -0.014 C 
HETATM    7  C7  UNL     1     -32.638   5.551   1.443  1.00 20.00    -0.044 C 
HETATM    8  C8  UNL     1     -35.263   6.226   4.282  1.00 20.00     0.010 C 
HETATM    9  C9  UNL     1     -31.463   4.877   2.180  1.00 20.00     0.015 C 
HETATM   10  C10 UNL     1     -32.846   4.813   0.106  1.00 20.00     0.015 C 
ENDROOT
TORSDOF 0
ENDMDL
MODEL 7
REMARK VINA RESULT:       1.6      1.155      3.152
REMARK  0 active torsions:
REMARK  status: ('A' for Active; 'I' for Inactive)
ROOT
HETATM    1  C1  UNL     1     -32.691   6.088   1.445  1.00 20.00    -0.088 C 
HETATM    2  C2  UNL     1     -32.019   5.126   0.796  1.00 20.00     0.014 C 
HETATM    3  C3  UNL     1     -32.067   7.413   1.799  1.00 20.00     0.037 C 
HETATM    4  C4  UNL     1     -34.121   5.920   1.889  1.00 20.00     0.042 C 
HETATM    5  C5  UNL     1     -33.656   7.552   3.775  1.00 20.00     0.013 C 
HETATM    6  C6  UNL     1     -32.195   7.695   3.305  1.00 20.00    -0.014 C 
HETATM    7  C7  UNL     1     -34.295   6.189   3.404  1.00 20.00    -0.044 C 
HETATM    8  C8  UNL     1     -31.661   9.090   3.633  1.00 20.00     0.010 C 
HETATM    9  C9  UNL     1     -33.664   5.050   4.230  1.00 20.00     0.015 C 
HETATM   10  C10 UNL     1     -35.800   6.237   3.734  1.00 20.00     0.015 C 
ENDROOT
TORSDOF 0
ENDMDL
MODEL 8
REMARK VINA RESULT:       1.6      0.702      3.444
REMARK  0 active torsions:
REMARK  status: ('A' for Active; 'I' for Inactive)
ROOT
HETATM    1  C1  UNL     1     -32.522   8.113   2.196  1.00 20.00    -0.088 C 
HETATM    2  C2  UNL     1     -32.544   9.343   1.662  1.00 20.00     0.014 C 
HETATM    3  C3  UNL     1     -31.819   6.956   1.536  1.00 20.00     0.037 C 
HETATM    4  C4  UNL     1     -33.210   7.780   3.495  1.00 20.00     0.042 C 
HETATM    5  C5  UNL     1     -33.475   5.398   2.665  1.00 20.00     0.013 C 
HETATM    6  C6  UNL     1     -32.777   5.770   1.343  1.00 20.00    -0.014 C 
HETATM    7  C7  UNL     1     -34.192   6.593   3.344  1.00 20.00    -0.044 C 
HETATM    8  C8  UNL     1     -32.026   4.565   0.776  1.00 20.00     0.010 C 
HETATM    9  C9  UNL     1     -35.431   7.016   2.530  1.00 20.00     0.015 C 
HETATM   10  C10 UNL     1     -34.670   6.158   4.743  1.00 20.00     0.015 C 
ENDROOT
TORSDOF 0
ENDMDL
MODEL 9
REMARK VINA RESULT:       1.8      1.585      3.324
REMARK  0 active torsions:
REMARK  status: ('A' for Active; 'I' for Inactive)
ROOT
HETATM    1  C1  UNL     1     -34.372   6.658   3.686  1.00 20.00    -0.088 C 
HETATM    2  C2  UNL     1     -34.325   7.824   4.347  1.00 20.00     0.014 C 
HETATM    3  C3  UNL     1     -34.459   5.330   4.390  1.00 20.00     0.037 C 
HETATM    4  C4  UNL     1     -34.327   6.578   2.181  1.00 20.00     0.042 C 
HETATM    5  C5  UNL     1     -33.276   4.280   2.404  1.00 20.00     0.013 C 
HETATM    6  C6  UNL     1     -33.326   4.395   3.940  1.00 20.00    -0.014 C 
HETATM    7  C7  UNL     1     -33.192   5.649   1.683  1.00 20.00    -0.044 C 
HETATM    8  C8  UNL     1     -33.490   3.014   4.576  1.00 20.00     0.010 C 
HETATM    9  C9  UNL     1     -31.816   6.303   1.919  1.00 20.00     0.015 C 
HETATM   10  C10 UNL     1     -33.358   5.426   0.167  1.00 20.00     0.015 C 
ENDROOT
TORSDOF 0
ENDMDL
