MODEL 1
REMARK VINA RESULT:      -2.3      0.000      0.000
REMARK  1 active torsions:
REMARK  status: ('A' for Active; 'I' for Inactive)
REMARK    1  A    between atoms: C2_2  and  C6_6 
ROOT
HETATM    1  C1  UNL     1     -35.532   6.170   3.670  1.00 20.00     0.015 A 
HETATM    2  C2  UNL     1     -34.447   5.365   4.332  1.00 20.00     0.008 A 
HETATM    3  C3  UNL     1     -34.109   6.684   3.658  1.00 20.00    -0.043 A 
HETATM    4  C4  UNL     1     -33.773   7.847   4.555  1.00 20.00     0.015 C 
HETATM    5  C5  UNL     1     -33.371   6.693   2.346  1.00 20.00     0.015 C 
ENDROOT
BRANCH   2   6
HETATM    6  C6  UNL     1     -34.038   4.045   3.772  1.00 20.00     0.120 C 
HETATM    7 CL7  UNL     1     -33.098   3.101   4.960  1.00 20.00    -0.130 Cl
ENDBRANCH   2   6
TORSDOF 1
ENDMDL
MODEL 2
REMARK VINA RESULT:      -1.6      2.851      3.691
REMARK  1 active torsions:
REMARK  status: ('A' for Active; 'I' for Inactive)
REMARK    1  A    between atoms: C2_2  and  C6_6 
ROOT
HETATM    1  C1  UNL     1     -33.374   7.539   4.351  1.00 20.00     0.015 A 
HETATM    2  C2  UNL     1     -33.534   7.670   2.860  1.00 20.00     0.008 A 
HETATM    3  C3  UNL     1     -34.142   6.482   3.587  1.00 20.00    -0.043 A 
HETATM    4  C4  UNL     1     -35.642   6.461   3.731  1.00 20.00     0.015 C 
HETATM    5  C5  UNL     1     -33.523   5.117   3.451  1.00 20.00     0.015 C 
ENDROOT
BRANCH   2   6
HETATM    6  C6  UNL     1     -32.351   7.545   1.961  1.00 20.00     0.120 C 
HETATM    7 CL7  UNL     1     -32.176   8.985   0.919  1.00 20.00    -0.130 Cl
ENDBRANCH   2   6
TORSDOF 1
ENDMDL
MODEL 3
REMARK VINA RESULT:      -1.6      3.856      4.910
REMARK  1 active torsions:
REMARK  status: ('A' for Active; 'I' for Inactive)
REMARK    1  A    between atoms: C2_2  and  C6_6 
ROOT
HETATM    1  C1  UNL     1     -31.476   8.006   2.688  1.00 20.00     0.015 A 
HETATM    2  C2  UNL     1     -32.437   8.649   1.725  1.00 20.00     0.008 A 
HETATM    3  C3  UNL     1     -32.766   7.297   2.336  1.00 20.00    -0.043 A 
HETATM    4  C4  UNL     1     -33.856   7.261   3.375  1.00 20.00     0.015 C 
HETATM    5  C5  UNL     1     -32.682   6.050   1.497  1.00 20.00     0.015 C 
ENDROOT
BRANCH   2   6
HETATM    6  C6  UNL     1     -32.067   8.817   0.291  1.00 20.00     0.120 C 
HETATM    7 CL7  UNL     1     -32.831  10.272  -0.408  1.00 20.00    -0.130 Cl
ENDBRANCH   2   6
TORSDOF 1
ENDMDL
MODEL 4
REMARK VINA RESULT:      -1.5      2.382      3.501
REMARK  1 active torsions:
REMARK  status: ('A' for Active; 'I' for Inactive)
REMARK    1  A    between atoms: C2_2  and  C6_6 
ROOT
HETATM    1  C1  UNL     1     -32.398   6.586   1.733  1.00 20.00     0.015 A 
HETATM    2  C2  UNL     1     -33.476   7.445   2.338  1.00 20.00     0.008 A 
HETATM    3  C3  UNL     1     -32.165   8.073   1.894  1.00 20.00    -0.043 A 
HETATM    4  C4  UNL     1     -32.200   8.929   0.655  1.00 20.00     0.015 C 
HETATM    5  C5  UNL     1     -31.159   8.524   2.919  1.00 20.00     0.015 C 
ENDROOT
BRANCH   2   6
HETATM    6  C6  UNL     1     -33.848   7.287   3.773  1.00 20.00     0.120 C 
HETATM    7 CL7  UNL     1     -35.311   6.280   3.954  1.00 20.00    -0.130 Cl
ENDBRANCH   2   6
TORSDOF 1
ENDMDL
MODEL 5
REMARK VINA RESULT:      -1.2      2.980      3.993
REMARK  1 active torsions:
REMARK  status: ('A' for Active; 'I' for Inactive)
REMARK    1  A    between atoms: C2_2  and  C6_6 
ROOT
HETATM    1  C1  UNL     1     -33.689   6.435   1.378  1.00 20.00     0.015 A 
HETATM    2  C2  UNL     1     -32.355   6.651   2.040  1.00 20.00     0.008 A 
HETATM    3  C3  UNL     1     -33.567   6.284   2.879  1.00 20.00    -0.043 A 
HETATM    4  C4  UNL     1     -33.609   4.892   3.453  1.00 20.00     0.015 C 
HETATM    5  C5  UNL     1     -34.225   7.322   3.749  1.00 20.00     0.015 C 
ENDROOT
BRANCH   2   6
HETATM    6  C6  UNL     1     -31.738   8.008   2.065  1.00 20.00     0.120 C 
HETATM    7 CL7  UNL     1     -32.341   9.018   0.723  1.00 20.00    -0.130 Cl
ENDBRANCH   2   6
TORSDOF 1
ENDMDL
MODEL 6
REMARK VINA RESULT:      -1.0      1.909      2.980
REMARK  1 active torsions:
REMARK  status: ('A' for Active; 'I' for Inactive)
REMARK    1  A    between atoms: C2_2  and  C6_6 
ROOT
HETATM    1  C1  UNL     1     -33.632   7.527   4.176  1.00 20.00     0.015 A 
HETATM    2  C2  UNL     1     -33.620   7.228   2.701  1.00 20.00     0.008 A 
HETATM    3  C3  UNL     1     -34.398   6.332   3.650  1.00 20.00    -0.043 A 
HETATM    4  C4  UNL     1     -35.901   6.425   3.604  1.00 20.00     0.015 C 
HETATM    5  C5  UNL     1     -33.882   4.958   3.984  1.00 20.00     0.015 C 
ENDROOT
BRANCH   2   6
HETATM    6  C6  UNL     1     -32.362   6.792   2.031  1.00 20.00     0.120 C 
HETATM    7 CL7  UNL     1     -32.673   5.478   0.863  1.00 20.00    -0.130 Cl
ENDBRANCH   2   6
TORSDOF 1
ENDMDL
MODEL 7
REMARK VINA RESULT:      -0.8      2.250      3.371
REMARK  1 active torsions:
REMARK  status: ('A' for Active; 'I' for Inactive)
REMARK    1  A    between atoms: C2_2  and  C6_6 
ROOT
HETATM    1  C1  UNL     1     -32.187   7.702   1.850  1.00 20.00     0.015 A 
HETATM    2  C2  UNL     1     -32.892   6.952   2.948  1.00 20.00     0.008 A 
HETATM    3  C3  UNL     1     -32.700   6.303   1.587  1.00 20.00    -0.043 A 
HETATM    4  C4  UNL     1     -31.691   5.189   1.494  1.00 20.00     0.015 C 
HETATM    5  C5  UNL     1     -33.872   6.143   0.656  1.00 20.00     0.015 C 
ENDROOT
BRANCH   2   6
HETATM    6  C6  UNL     1     -34.221   7.411   3.442  1.00 20.00     0.120 C 
HETATM    7 CL7  UNL     1     -35.177   6.048   4.088  1.00 20.00    -0.130 Cl
ENDBRANCH   2   6
TORSDOF 1
ENDMDL
MODEL 8
REMARK VINA RESULT:      -0.3      3.492      4.538
REMARK  1 active torsions:
REMARK  status: ('A' for Active; 'I' for Inactive)
REMARK    1  A    between atoms: C2_2  and  C6_6 
ROOT
HETATM    1  C1  UNL     1     -33.369   6.138   2.688  1.00 20.00     0.015 A 
HETATM    2  C2  UNL     1     -33.078   7.161   1.624  1.00 20.00     0.008 A 
HETATM    3  C3  UNL     1     -32.822   5.688   1.351  1.00 20.00    -0.043 A 
HETATM    4  C4  UNL     1     -33.763   4.991   0.403  1.00 20.00     0.015 C 
HETATM    5  C5  UNL     1     -31.411   5.164   1.304  1.00 20.00     0.015 C 
ENDROOT
BRANCH   2   6
HETATM    6  C6  UNL     1     -31.978   8.150   1.808  1.00 20.00     0.120 C 
HETATM    7 CL7  UNL     1     -32.117   9.497   0.645  1.00 20.00    -0.130 Cl
ENDBRANCH   2   6
TORSDOF 1
ENDMDL
MODEL 9
REMARK VINA RESULT:      -0.3      2.175      3.310
REMARK  1 active torsions:
REMARK  status: ('A' for Active; 'I' for Inactive)
REMARK    1  A    between atoms: C2_2  and  C6_6 
ROOT
HETATM    1  C1  UNL     1     -33.736   5.777   2.039  1.00 20.00     0.015 A 
HETATM    2  C2  UNL     1     -33.004   6.433   3.179  1.00 20.00     0.008 A 
HETATM    3  C3  UNL     1     -34.208   5.549   3.459  1.00 20.00    -0.043 A 
HETATM    4  C4  UNL     1     -33.942   4.203   4.082  1.00 20.00     0.015 C 
HETATM    5  C5  UNL     1     -35.516   6.166   3.876  1.00 20.00     0.015 C 
ENDROOT
BRANCH   2   6
HETATM    6  C6  UNL     1     -33.037   7.914   3.342  1.00 20.00     0.120 C 
HETATM    7 CL7  UNL     1     -32.978   8.376   5.066  1.00 20.00    -0.130 Cl
ENDBRANCH   2   6
TORSDOF 1
ENDMDL
