MODEL 1
REMARK VINA RESULT:       0.0      0.000      0.000
REMARK  4 active torsions:
REMARK  status: ('A' for Active; 'I' for Inactive)
REMARK    1  A    between atoms: C1_1  and  C6_6 
REMARK    2  A    between atoms: C2_2  and  C7_7 
REMARK    3  A    between atoms: C6_6  and  S9_9 
REMARK    4  A    between atoms: C8_8  and  S9_9 
ROOT
HETATM    1  C6  UNL     1     -31.969   7.105   2.182  1.00 20.00     0.101 C 
ENDROOT
BRANCH   1   2
HETATM    2  C1  UNL     1     -32.000   8.455   1.537  1.00 20.00    -0.020 C 
HETATM    3  C2  UNL     1     -32.446   8.673   0.290  1.00 20.00    -0.015 C 
BRANCH   3   4
HETATM    4  C7  UNL     1     -32.483  10.020  -0.351  1.00 20.00     0.141 C 
HETATM    5 CL10 UNL     1     -32.619  11.280   0.895  1.00 20.00    -0.126 Cl
ENDBRANCH   3   4
ENDBRANCH   1   2
BRANCH   1   6
HETATM    6  S9  UNL     1     -33.480   6.197   1.798  1.00 20.00    -0.156 SA
BRANCH   6   7
HETATM    7  C8  UNL     1     -34.248   6.278   3.463  1.00 20.00    -0.003 C 
HETATM    8  C3  UNL     1     -35.735   6.607   3.302  1.00 20.00     0.026 C 
HETATM    9  C4  UNL     1     -34.075   4.915   4.140  1.00 20.00     0.026 C 
HETATM   10  C5  UNL     1     -33.543   7.368   4.275  1.00 20.00     0.026 C 
ENDBRANCH   6   7
ENDBRANCH   1   6
TORSDOF 4
ENDMDL
MODEL 2
REMARK VINA RESULT:       0.0      0.011      1.378
REMARK  4 active torsions:
REMARK  status: ('A' for Active; 'I' for Inactive)
REMARK    1  A    between atoms: C1_1  and  C6_6 
REMARK    2  A    between atoms: C2_2  and  C7_7 
REMARK    3  A    between atoms: C6_6  and  S9_9 
REMARK    4  A    between atoms: C8_8  and  S9_9 
ROOT
HETATM    1  C6  UNL     1     -31.965   7.094   2.175  1.00 20.00     0.101 C 
ENDROOT
BRANCH   1   2
HETATM    2  C1  UNL     1     -31.994   8.446   1.536  1.00 20.00    -0.020 C 
HETATM    3  C2  UNL     1     -32.440   8.671   0.291  1.00 20.00    -0.015 C 
BRANCH   3   4
HETATM    4  C7  UNL     1     -32.474  10.022  -0.344  1.00 20.00     0.141 C 
HETATM    5 CL10 UNL     1     -32.618  11.276   0.907  1.00 20.00    -0.126 Cl
ENDBRANCH   3   4
ENDBRANCH   1   2
BRANCH   1   6
HETATM    6  S9  UNL     1     -33.482   6.194   1.793  1.00 20.00    -0.156 SA
BRANCH   6   7
HETATM    7  C8  UNL     1     -34.242   6.270   3.461  1.00 20.00    -0.003 C 
HETATM    8  C3  UNL     1     -34.065   4.910   4.143  1.00 20.00     0.026 C 
HETATM    9  C4  UNL     1     -33.533   7.365   4.265  1.00 20.00     0.026 C 
HETATM   10  C5  UNL     1     -35.729   6.602   3.308  1.00 20.00     0.026 C 
ENDBRANCH   6   7
ENDBRANCH   1   6
TORSDOF 4
ENDMDL
MODEL 3
REMARK VINA RESULT:       0.0      0.008      1.378
REMARK  4 active torsions:
REMARK  status: ('A' for Active; 'I' for Inactive)
REMARK    1  A    between atoms: C1_1  and  C6_6 
REMARK    2  A    between atoms: C2_2  and  C7_7 
REMARK    3  A    between atoms: C6_6  and  S9_9 
REMARK    4  A    between atoms: C8_8  and  S9_9 
ROOT
HETATM    1  C6  UNL     1     -31.971   7.105   2.182  1.00 20.00     0.101 C 
ENDROOT
BRANCH   1   2
HETATM    2  C1  UNL     1     -32.004   8.456   1.541  1.00 20.00    -0.020 C 
HETATM    3  C2  UNL     1     -32.434   8.674   0.288  1.00 20.00    -0.015 C 
BRANCH   3   4
HETATM    4  C7  UNL     1     -32.473  10.023  -0.350  1.00 20.00     0.141 C 
HETATM    5 CL10 UNL     1     -32.617  11.279   0.899  1.00 20.00    -0.126 Cl
ENDBRANCH   3   4
ENDBRANCH   1   2
BRANCH   1   6
HETATM    6  S9  UNL     1     -33.481   6.196   1.796  1.00 20.00    -0.156 SA
BRANCH   6   7
HETATM    7  C8  UNL     1     -34.246   6.268   3.463  1.00 20.00    -0.003 C 
HETATM    8  C3  UNL     1     -33.546   7.359   4.277  1.00 20.00     0.026 C 
HETATM    9  C4  UNL     1     -35.733   6.599   3.297  1.00 20.00     0.026 C 
HETATM   10  C5  UNL     1     -34.077   4.904   4.139  1.00 20.00     0.026 C 
ENDBRANCH   6   7
ENDBRANCH   1   6
TORSDOF 4
ENDMDL
MODEL 4
REMARK VINA RESULT:       0.4      3.382      5.479
REMARK  4 active torsions:
REMARK  status: ('A' for Active; 'I' for Inactive)
REMARK    1  A    between atoms: C1_1  and  C6_6 
REMARK    2  A    between atoms: C2_2  and  C7_7 
REMARK    3  A    between atoms: C6_6  and  S9_9 
REMARK    4  A    between atoms: C8_8  and  S9_9 
ROOT
HETATM    1  C6  UNL     1     -34.782   6.195   3.498  1.00 20.00     0.101 C 
ENDROOT
BRANCH   1   2
HETATM    2  C1  UNL     1     -34.558   4.931   4.267  1.00 20.00    -0.020 C 
HETATM    3  C2  UNL     1     -33.656   4.000   3.920  1.00 20.00    -0.015 C 
BRANCH   3   4
HETATM    4  C7  UNL     1     -33.428   2.742   4.691  1.00 20.00     0.141 C 
HETATM    5 CL10 UNL     1     -32.476   3.090   6.150  1.00 20.00    -0.126 Cl
ENDBRANCH   3   4
ENDBRANCH   1   2
BRANCH   1   6
HETATM    6  S9  UNL     1     -33.302   7.225   3.551  1.00 20.00    -0.156 SA
BRANCH   6   7
HETATM    7  C8  UNL     1     -32.730   6.924   1.833  1.00 20.00    -0.003 C 
HETATM    8  C3  UNL     1     -31.705   5.787   1.850  1.00 20.00     0.026 C 
HETATM    9  C4  UNL     1     -33.942   6.536   0.982  1.00 20.00     0.026 C 
HETATM   10  C5  UNL     1     -32.094   8.209   1.296  1.00 20.00     0.026 C 
ENDBRANCH   6   7
ENDBRANCH   1   6
TORSDOF 4
ENDMDL
MODEL 5
REMARK VINA RESULT:       0.4      3.377      5.478
REMARK  4 active torsions:
REMARK  status: ('A' for Active; 'I' for Inactive)
REMARK    1  A    between atoms: C1_1  and  C6_6 
REMARK    2  A    between atoms: C2_2  and  C7_7 
REMARK    3  A    between atoms: C6_6  and  S9_9 
REMARK    4  A    between atoms: C8_8  and  S9_9 
ROOT
HETATM    1  C6  UNL     1     -34.791   6.182   3.484  1.00 20.00     0.101 C 
ENDROOT
BRANCH   1   2
HETATM    2  C1  UNL     1     -34.553   4.932   4.270  1.00 20.00    -0.020 C 
HETATM    3  C2  UNL     1     -33.688   3.975   3.900  1.00 20.00    -0.015 C 
BRANCH   3   4
HETATM    4  C7  UNL     1     -33.445   2.730   4.688  1.00 20.00     0.141 C 
HETATM    5 CL10 UNL     1     -32.484   3.106   6.134  1.00 20.00    -0.126 Cl
ENDBRANCH   3   4
ENDBRANCH   1   2
BRANCH   1   6
HETATM    6  S9  UNL     1     -33.324   7.233   3.528  1.00 20.00    -0.156 SA
BRANCH   6   7
HETATM    7  C8  UNL     1     -32.739   6.913   1.818  1.00 20.00    -0.003 C 
HETATM    8  C3  UNL     1     -33.942   6.523   0.953  1.00 20.00     0.026 C 
HETATM    9  C4  UNL     1     -32.091   8.193   1.282  1.00 20.00     0.026 C 
HETATM   10  C5  UNL     1     -31.716   5.774   1.855  1.00 20.00     0.026 C 
ENDBRANCH   6   7
ENDBRANCH   1   6
TORSDOF 4
ENDMDL
MODEL 6
REMARK VINA RESULT:       0.4      3.364      5.453
REMARK  4 active torsions:
REMARK  status: ('A' for Active; 'I' for Inactive)
REMARK    1  A    between atoms: C1_1  and  C6_6 
REMARK    2  A    between atoms: C2_2  and  C7_7 
REMARK    3  A    between atoms: C6_6  and  S9_9 
REMARK    4  A    between atoms: C8_8  and  S9_9 
ROOT
HETATM    1  C6  UNL     1     -34.753   6.303   3.534  1.00 20.00     0.101 C 
ENDROOT
BRANCH   1   2
HETATM    2  C1  UNL     1     -34.551   5.024   4.282  1.00 20.00    -0.020 C 
HETATM    3  C2  UNL     1     -33.694   4.065   3.896  1.00 20.00    -0.015 C 
BRANCH   3   4
HETATM    4  C7  UNL     1     -33.486   2.791   4.645  1.00 20.00     0.141 C 
HETATM    5 CL10 UNL     1     -32.476   3.088   6.076  1.00 20.00    -0.126 Cl
ENDBRANCH   3   4
ENDBRANCH   1   2
BRANCH   1   6
HETATM    6  S9  UNL     1     -33.236   7.280   3.549  1.00 20.00    -0.156 SA
BRANCH   6   7
HETATM    7  C8  UNL     1     -32.713   6.952   1.821  1.00 20.00    -0.003 C 
HETATM    8  C3  UNL     1     -32.094   8.228   1.245  1.00 20.00     0.026 C 
HETATM    9  C4  UNL     1     -31.681   5.820   1.835  1.00 20.00     0.026 C 
HETATM   10  C5  UNL     1     -33.943   6.539   1.007  1.00 20.00     0.026 C 
ENDBRANCH   6   7
ENDBRANCH   1   6
TORSDOF 4
ENDMDL
MODEL 7
REMARK VINA RESULT:       0.7      3.204      5.341
REMARK  4 active torsions:
REMARK  status: ('A' for Active; 'I' for Inactive)
REMARK    1  A    between atoms: C1_1  and  C6_6 
REMARK    2  A    between atoms: C2_2  and  C7_7 
REMARK    3  A    between atoms: C6_6  and  S9_9 
REMARK    4  A    between atoms: C8_8  and  S9_9 
ROOT
HETATM    1  C6  UNL     1     -34.314   6.780   3.303  1.00 20.00     0.101 C 
ENDROOT
BRANCH   1   2
HETATM    2  C1  UNL     1     -34.404   5.469   4.017  1.00 20.00    -0.020 C 
HETATM    3  C2  UNL     1     -33.605   4.423   3.753  1.00 20.00    -0.015 C 
BRANCH   3   4
HETATM    4  C7  UNL     1     -33.690   3.116   4.470  1.00 20.00     0.141 C 
HETATM    5 CL10 UNL     1     -32.492   3.066   5.782  1.00 20.00    -0.126 Cl
ENDBRANCH   3   4
ENDBRANCH   1   2
BRANCH   1   6
HETATM    6  S9  UNL     1     -33.428   6.580   1.743  1.00 20.00    -0.156 SA
BRANCH   6   7
HETATM    7  C8  UNL     1     -32.261   7.982   1.940  1.00 20.00    -0.003 C 
HETATM    8  C3  UNL     1     -32.330   8.479   3.387  1.00 20.00     0.026 C 
HETATM    9  C4  UNL     1     -30.849   7.484   1.616  1.00 20.00     0.026 C 
HETATM   10  C5  UNL     1     -32.666   9.097   0.971  1.00 20.00     0.026 C 
ENDBRANCH   6   7
ENDBRANCH   1   6
TORSDOF 4
ENDMDL
MODEL 8
REMARK VINA RESULT:       0.7      2.851      5.140
REMARK  4 active torsions:
REMARK  status: ('A' for Active; 'I' for Inactive)
REMARK    1  A    between atoms: C1_1  and  C6_6 
REMARK    2  A    between atoms: C2_2  and  C7_7 
REMARK    3  A    between atoms: C6_6  and  S9_9 
REMARK    4  A    between atoms: C8_8  and  S9_9 
ROOT
HETATM    1  C6  UNL     1     -32.275   6.728   1.542  1.00 20.00     0.101 C 
ENDROOT
BRANCH   1   2
HETATM    2  C1  UNL     1     -33.383   6.130   2.349  1.00 20.00    -0.020 C 
HETATM    3  C2  UNL     1     -34.061   6.802   3.293  1.00 20.00    -0.015 C 
BRANCH   3   4
HETATM    4  C7  UNL     1     -35.171   6.208   4.095  1.00 20.00     0.141 C 
HETATM    5 CL10 UNL     1     -34.785   4.524   4.510  1.00 20.00    -0.126 Cl
ENDBRANCH   3   4
ENDBRANCH   1   2
BRANCH   1   6
HETATM    6  S9  UNL     1     -31.957   8.421   2.079  1.00 20.00    -0.156 SA
BRANCH   6   7
HETATM    7  C8  UNL     1     -32.101   9.232   0.439  1.00 20.00    -0.003 C 
HETATM    8  C3  UNL     1     -32.657  10.645   0.637  1.00 20.00     0.026 C 
HETATM    9  C4  UNL     1     -30.707   9.292  -0.194  1.00 20.00     0.026 C 
HETATM   10  C5  UNL     1     -33.046   8.404  -0.436  1.00 20.00     0.026 C 
ENDBRANCH   6   7
ENDBRANCH   1   6
TORSDOF 4
ENDMDL
MODEL 9
REMARK VINA RESULT:       0.9      0.977      1.362
REMARK  4 active torsions:
REMARK  status: ('A' for Active; 'I' for Inactive)
REMARK    1  A    between atoms: C1_1  and  C6_6 
REMARK    2  A    between atoms: C2_2  and  C7_7 
REMARK    3  A    between atoms: C6_6  and  S9_9 
REMARK    4  A    between atoms: C8_8  and  S9_9 
ROOT
HETATM    1  C6  UNL     1     -32.025   7.417   2.406  1.00 20.00     0.101 C 
ENDROOT
BRANCH   1   2
HETATM    2  C1  UNL     1     -32.181   8.713   1.675  1.00 20.00    -0.020 C 
HETATM    3  C2  UNL     1     -32.325   8.804   0.344  1.00 20.00    -0.015 C 
BRANCH   3   4
HETATM    4  C7  UNL     1     -32.486  10.097  -0.384  1.00 20.00     0.141 C 
HETATM    5 CL10 UNL     1     -32.547  11.442   0.776  1.00 20.00    -0.126 Cl
ENDBRANCH   3   4
ENDBRANCH   1   2
BRANCH   1   6
HETATM    6  S9  UNL     1     -33.099   7.388   3.856  1.00 20.00    -0.156 SA
BRANCH   6   7
HETATM    7  C8  UNL     1     -34.170   5.988   3.343  1.00 20.00    -0.003 C 
HETATM    8  C3  UNL     1     -35.632   6.434   3.422  1.00 20.00     0.026 C 
HETATM    9  C4  UNL     1     -33.808   5.606   1.904  1.00 20.00     0.026 C 
HETATM   10  C5  UNL     1     -33.919   4.808   4.285  1.00 20.00     0.026 C 
ENDBRANCH   6   7
ENDBRANCH   1   6
TORSDOF 4
ENDMDL
