MODEL 1
REMARK VINA RESULT:      -0.1      0.000      0.000
REMARK  1 active torsions:
REMARK  status: ('A' for Active; 'I' for Inactive)
REMARK    1  A    between atoms: C6_6  and  N8_8 
ROOT
HETATM    1  C1  UNL     1     -32.123   8.209   1.474  1.00 20.00     0.158 C 
HETATM    2  N8  UNL     1     -32.014   7.249   2.137  1.00 20.00    -0.265 NA
HETATM    3  S9  UNL     1     -32.235   9.519   0.575  1.00 20.00    -0.055 SA
ENDROOT
BRANCH   2   4
HETATM    4  C6  UNL     1     -33.263   6.522   2.369  1.00 20.00     0.051 C 
HETATM    5  C4  UNL     1     -34.193   7.334   3.268  1.00 20.00     0.033 C 
HETATM    6  C2  UNL     1     -35.100   6.296   3.926  1.00 20.00     0.002 C 
HETATM    7  C3  UNL     1     -34.337   4.972   3.884  1.00 20.00     0.002 C 
HETATM    8  C5  UNL     1     -33.003   5.270   3.204  1.00 20.00     0.033 C 
HETATM    9  C7  UNL     1     -33.889   6.203   1.012  1.00 20.00     0.041 C 
ENDBRANCH   2   4
TORSDOF 1
ENDMDL
MODEL 2
REMARK VINA RESULT:      -0.1      3.135      4.081
REMARK  1 active torsions:
REMARK  status: ('A' for Active; 'I' for Inactive)
REMARK    1  A    between atoms: C6_6  and  N8_8 
ROOT
HETATM    1  C1  UNL     1     -34.279   4.197   4.499  1.00 20.00     0.158 C 
HETATM    2  N8  UNL     1     -35.102   5.031   4.466  1.00 20.00    -0.265 NA
HETATM    3  S9  UNL     1     -33.184   3.043   4.563  1.00 20.00    -0.055 SA
ENDROOT
BRANCH   2   4
HETATM    4  C6  UNL     1     -34.745   6.210   3.676  1.00 20.00     0.051 C 
HETATM    5  C4  UNL     1     -33.673   5.858   2.647  1.00 20.00     0.033 C 
HETATM    6  C2  UNL     1     -32.963   7.178   2.357  1.00 20.00     0.002 C 
HETATM    7  C3  UNL     1     -33.200   8.069   3.578  1.00 20.00     0.002 C 
HETATM    8  C5  UNL     1     -34.039   7.245   4.550  1.00 20.00     0.033 C 
HETATM    9  C7  UNL     1     -36.018   6.757   3.032  1.00 20.00     0.041 C 
ENDBRANCH   2   4
TORSDOF 1
ENDMDL
MODEL 3
REMARK VINA RESULT:       0.7      0.916      1.871
REMARK  1 active torsions:
REMARK  status: ('A' for Active; 'I' for Inactive)
REMARK    1  A    between atoms: C6_6  and  N8_8 
ROOT
HETATM    1  C1  UNL     1     -32.449   8.106   1.454  1.00 20.00     0.158 C 
HETATM    2  N8  UNL     1     -32.477   7.025   1.906  1.00 20.00    -0.265 NA
HETATM    3  S9  UNL     1     -32.389   9.563   0.813  1.00 20.00    -0.055 SA
ENDROOT
BRANCH   2   4
HETATM    4  C6  UNL     1     -33.332   6.878   3.085  1.00 20.00     0.051 C 
HETATM    5  C4  UNL     1     -33.409   5.412   3.508  1.00 20.00     0.033 C 
HETATM    6  C2  UNL     1     -34.730   5.295   4.265  1.00 20.00     0.002 C 
HETATM    7  C3  UNL     1     -35.612   6.442   3.768  1.00 20.00     0.002 C 
HETATM    8  C5  UNL     1     -34.784   7.198   2.733  1.00 20.00     0.033 C 
HETATM    9  C7  UNL     1     -32.784   7.780   4.190  1.00 20.00     0.041 C 
ENDBRANCH   2   4
TORSDOF 1
ENDMDL
MODEL 4
REMARK VINA RESULT:       0.9      1.243      2.277
REMARK  1 active torsions:
REMARK  status: ('A' for Active; 'I' for Inactive)
REMARK    1  A    between atoms: C6_6  and  N8_8 
ROOT
HETATM    1  C1  UNL     1     -32.420   9.335   0.532  1.00 20.00     0.158 C 
HETATM    2  N8  UNL     1     -32.204   8.191   0.662  1.00 20.00    -0.265 NA
HETATM    3  S9  UNL     1     -32.705  10.888   0.319  1.00 20.00    -0.055 SA
ENDROOT
BRANCH   2   4
HETATM    4  C6  UNL     1     -32.442   7.674   2.011  1.00 20.00     0.051 C 
HETATM    5  C4  UNL     1     -32.738   6.176   1.964  1.00 20.00     0.033 C 
HETATM    6  C2  UNL     1     -33.550   5.901   3.227  1.00 20.00     0.002 C 
HETATM    7  C3  UNL     1     -34.191   7.232   3.623  1.00 20.00     0.002 C 
HETATM    8  C5  UNL     1     -33.737   8.250   2.581  1.00 20.00     0.033 C 
HETATM    9  C7  UNL     1     -31.224   8.005   2.872  1.00 20.00     0.041 C 
ENDBRANCH   2   4
TORSDOF 1
ENDMDL
MODEL 5
REMARK VINA RESULT:       0.9      2.314      4.054
REMARK  1 active torsions:
REMARK  status: ('A' for Active; 'I' for Inactive)
REMARK    1  A    between atoms: C6_6  and  N8_8 
ROOT
HETATM    1  C1  UNL     1     -33.879   7.080   3.670  1.00 20.00     0.158 C 
HETATM    2  N8  UNL     1     -32.901   7.686   3.444  1.00 20.00    -0.265 NA
HETATM    3  S9  UNL     1     -35.203   6.264   4.011  1.00 20.00    -0.055 SA
ENDROOT
BRANCH   2   4
HETATM    4  C6  UNL     1     -32.569   7.803   2.023  1.00 20.00     0.051 C 
HETATM    5  C4  UNL     1     -31.085   8.119   1.847  1.00 20.00     0.033 C 
HETATM    6  C2  UNL     1     -30.994   8.813   0.490  1.00 20.00     0.002 C 
HETATM    7  C3  UNL     1     -32.379   9.399   0.215  1.00 20.00     0.002 C 
HETATM    8  C5  UNL     1     -33.244   9.033   1.419  1.00 20.00     0.033 C 
HETATM    9  C7  UNL     1     -32.980   6.507   1.327  1.00 20.00     0.041 C 
ENDBRANCH   2   4
TORSDOF 1
ENDMDL
MODEL 6
REMARK VINA RESULT:       1.3      2.184      4.165
REMARK  1 active torsions:
REMARK  status: ('A' for Active; 'I' for Inactive)
REMARK    1  A    between atoms: C6_6  and  N8_8 
ROOT
HETATM    1  C1  UNL     1     -33.486   6.751   2.738  1.00 20.00     0.158 C 
HETATM    2  N8  UNL     1     -32.683   6.804   1.885  1.00 20.00    -0.265 NA
HETATM    3  S9  UNL     1     -34.579   6.642   3.891  1.00 20.00    -0.055 SA
ENDROOT
BRANCH   2   4
HETATM    4  C6  UNL     1     -32.152   8.144   1.629  1.00 20.00     0.051 C 
HETATM    5  C4  UNL     1     -33.290   9.158   1.528  1.00 20.00     0.033 C 
HETATM    6  C2  UNL     1     -32.724  10.294   0.679  1.00 20.00     0.002 C 
HETATM    7  C3  UNL     1     -31.589   9.686  -0.147  1.00 20.00     0.002 C 
HETATM    8  C5  UNL     1     -31.523   8.211   0.239  1.00 20.00     0.033 C 
HETATM    9  C7  UNL     1     -31.159   8.484   2.740  1.00 20.00     0.041 C 
ENDBRANCH   2   4
TORSDOF 1
ENDMDL
MODEL 7
REMARK VINA RESULT:       1.4      1.236      2.586
REMARK  1 active torsions:
REMARK  status: ('A' for Active; 'I' for Inactive)
REMARK    1  A    between atoms: C6_6  and  N8_8 
ROOT
HETATM    1  C1  UNL     1     -32.307   8.865   1.199  1.00 20.00     0.158 C 
HETATM    2  N8  UNL     1     -32.175   8.155   2.123  1.00 20.00    -0.265 NA
HETATM    3  S9  UNL     1     -32.468   9.856  -0.037  1.00 20.00    -0.055 SA
ENDROOT
BRANCH   2   4
HETATM    4  C6  UNL     1     -32.753   6.821   1.954  1.00 20.00     0.051 C 
HETATM    5  C4  UNL     1     -31.650   5.783   1.755  1.00 20.00     0.033 C 
HETATM    6  C2  UNL     1     -32.323   4.642   0.996  1.00 20.00     0.002 C 
HETATM    7  C3  UNL     1     -33.529   5.254   0.282  1.00 20.00     0.002 C 
HETATM    8  C5  UNL     1     -33.528   6.738   0.641  1.00 20.00     0.033 C 
HETATM    9  C7  UNL     1     -33.627   6.521   3.171  1.00 20.00     0.041 C 
ENDBRANCH   2   4
TORSDOF 1
ENDMDL
MODEL 8
REMARK VINA RESULT:       1.6      2.671      3.898
REMARK  1 active torsions:
REMARK  status: ('A' for Active; 'I' for Inactive)
REMARK    1  A    between atoms: C6_6  and  N8_8 
ROOT
HETATM    1  C1  UNL     1     -34.430   5.779   3.790  1.00 20.00     0.158 C 
HETATM    2  N8  UNL     1     -34.558   6.884   3.418  1.00 20.00    -0.265 NA
HETATM    3  S9  UNL     1     -34.292   4.277   4.299  1.00 20.00    -0.055 SA
ENDROOT
BRANCH   2   4
HETATM    4  C6  UNL     1     -33.309   7.553   3.050  1.00 20.00     0.051 C 
HETATM    5  C4  UNL     1     -33.584   8.695   2.073  1.00 20.00     0.033 C 
HETATM    6  C2  UNL     1     -32.274   8.878   1.311  1.00 20.00     0.002 C 
HETATM    7  C3  UNL     1     -31.530   7.545   1.411  1.00 20.00     0.002 C 
HETATM    8  C5  UNL     1     -32.426   6.617   2.227  1.00 20.00     0.033 C 
HETATM    9  C7  UNL     1     -32.626   8.029   4.331  1.00 20.00     0.041 C 
ENDBRANCH   2   4
TORSDOF 1
ENDMDL
MODEL 9
REMARK VINA RESULT:       1.7      2.340      3.305
REMARK  1 active torsions:
REMARK  status: ('A' for Active; 'I' for Inactive)
REMARK    1  A    between atoms: C6_6  and  N8_8 
ROOT
HETATM    1  C1  UNL     1     -34.107   6.881   3.626  1.00 20.00     0.158 C 
HETATM    2  N8  UNL     1     -33.212   7.483   3.167  1.00 20.00    -0.265 NA
HETATM    3  S9  UNL     1     -35.325   6.088   4.277  1.00 20.00    -0.055 SA
ENDROOT
BRANCH   2   4
HETATM    4  C6  UNL     1     -32.683   6.932   1.918  1.00 20.00     0.051 C 
HETATM    5  C4  UNL     1     -33.814   6.357   1.068  1.00 20.00     0.033 C 
HETATM    6  C2  UNL     1     -33.141   5.312   0.180  1.00 20.00     0.002 C 
HETATM    7  C3  UNL     1     -31.861   4.894   0.906  1.00 20.00     0.002 C 
HETATM    8  C5  UNL     1     -31.822   5.702   2.200  1.00 20.00     0.033 C 
HETATM    9  C7  UNL     1     -31.911   8.036   1.197  1.00 20.00     0.041 C 
ENDBRANCH   2   4
TORSDOF 1
ENDMDL
