MODEL 1
REMARK VINA RESULT:      -3.3      0.000      0.000
REMARK  4 active torsions:
REMARK  status: ('A' for Active; 'I' for Inactive)
REMARK    1  A    between atoms: C4_4  and  C5_5 
REMARK    2  A    between atoms: C5_5  and  C6_6 
REMARK    3  A    between atoms: C6_6  and  C8_8 
REMARK    4  A    between atoms: C7_7  and  C8_8 
ROOT
HETATM    1  C1  UNL     1     -33.540   3.420   4.291  1.00 20.00     0.012 C 
HETATM    2  C2  UNL     1     -34.333   4.316   4.386  1.00 20.00    -0.117 C 
HETATM    3  C4  UNL     1     -35.304   5.412   4.507  1.00 20.00     0.093 C 
ENDROOT
BRANCH   3   4
HETATM    4  C5  UNL     1     -35.015   6.554   3.530  1.00 20.00     0.012 C 
BRANCH   4   5
HETATM    5  C6  UNL     1     -33.521   6.893   3.440  1.00 20.00     0.006 C 
BRANCH   5   6
HETATM    6  C8  UNL     1     -33.011   7.044   1.991  1.00 20.00    -0.005 C 
HETATM    7  C3  UNL     1     -32.557   5.680   1.458  1.00 20.00     0.011 C 
BRANCH   6   8
HETATM    8  C7  UNL     1     -31.917   8.108   1.805  1.00 20.00     0.119 C 
HETATM    9 CL9  UNL     1     -32.341   9.366   0.619  1.00 20.00    -0.130 Cl
ENDBRANCH   6   8
ENDBRANCH   5   6
ENDBRANCH   4   5
ENDBRANCH   3   4
TORSDOF 4
ENDMDL
MODEL 2
REMARK VINA RESULT:      -3.1      2.555      5.105
REMARK  4 active torsions:
REMARK  status: ('A' for Active; 'I' for Inactive)
REMARK    1  A    between atoms: C4_4  and  C5_5 
REMARK    2  A    between atoms: C5_5  and  C6_6 
REMARK    3  A    between atoms: C6_6  and  C8_8 
REMARK    4  A    between atoms: C7_7  and  C8_8 
ROOT
HETATM    1  C1  UNL     1     -32.584  10.323   0.266  1.00 20.00     0.012 C 
HETATM    2  C2  UNL     1     -32.264   9.242   0.676  1.00 20.00    -0.117 C 
HETATM    3  C4  UNL     1     -31.868   7.917   1.175  1.00 20.00     0.093 C 
ENDROOT
BRANCH   3   4
HETATM    4  C5  UNL     1     -32.434   7.629   2.568  1.00 20.00     0.012 C 
BRANCH   4   5
HETATM    5  C6  UNL     1     -33.416   6.450   2.577  1.00 20.00     0.006 C 
BRANCH   5   6
HETATM    6  C8  UNL     1     -34.595   6.640   3.555  1.00 20.00    -0.005 C 
HETATM    7  C3  UNL     1     -34.264   7.754   4.555  1.00 20.00     0.011 C 
BRANCH   6   8
HETATM    8  C7  UNL     1     -35.041   5.358   4.275  1.00 20.00     0.119 C 
HETATM    9 CL9  UNL     1     -33.914   3.996   4.068  1.00 20.00    -0.130 Cl
ENDBRANCH   6   8
ENDBRANCH   5   6
ENDBRANCH   4   5
ENDBRANCH   3   4
TORSDOF 4
ENDMDL
MODEL 3
REMARK VINA RESULT:      -2.7      1.951      4.572
REMARK  4 active torsions:
REMARK  status: ('A' for Active; 'I' for Inactive)
REMARK    1  A    between atoms: C4_4  and  C5_5 
REMARK    2  A    between atoms: C5_5  and  C6_6 
REMARK    3  A    between atoms: C6_6  and  C8_8 
REMARK    4  A    between atoms: C7_7  and  C8_8 
ROOT
HETATM    1  C1  UNL     1     -32.393   9.769   0.005  1.00 20.00     0.012 C 
HETATM    2  C2  UNL     1     -32.220   8.965   0.879  1.00 20.00    -0.117 C 
HETATM    3  C4  UNL     1     -32.010   7.984   1.954  1.00 20.00     0.093 C 
ENDROOT
BRANCH   3   4
HETATM    4  C5  UNL     1     -32.047   6.543   1.438  1.00 20.00     0.012 C 
BRANCH   4   5
HETATM    5  C6  UNL     1     -33.349   5.817   1.800  1.00 20.00     0.006 C 
BRANCH   5   6
HETATM    6  C8  UNL     1     -33.609   5.743   3.320  1.00 20.00    -0.005 C 
HETATM    7  C3  UNL     1     -33.944   4.300   3.717  1.00 20.00     0.011 C 
BRANCH   6   8
HETATM    8  C7  UNL     1     -34.673   6.725   3.835  1.00 20.00     0.119 C 
HETATM    9 CL9  UNL     1     -34.006   8.036   4.838  1.00 20.00    -0.130 Cl
ENDBRANCH   6   8
ENDBRANCH   5   6
ENDBRANCH   4   5
ENDBRANCH   3   4
TORSDOF 4
ENDMDL
MODEL 4
REMARK VINA RESULT:      -2.6      1.552      1.958
REMARK  4 active torsions:
REMARK  status: ('A' for Active; 'I' for Inactive)
REMARK    1  A    between atoms: C4_4  and  C5_5 
REMARK    2  A    between atoms: C5_5  and  C6_6 
REMARK    3  A    between atoms: C6_6  and  C8_8 
REMARK    4  A    between atoms: C7_7  and  C8_8 
ROOT
HETATM    1  C1  UNL     1     -33.598   3.441   4.303  1.00 20.00     0.012 C 
HETATM    2  C2  UNL     1     -34.353   4.370   4.380  1.00 20.00    -0.117 C 
HETATM    3  C4  UNL     1     -35.280   5.508   4.478  1.00 20.00     0.093 C 
ENDROOT
BRANCH   3   4
HETATM    4  C5  UNL     1     -34.999   6.577   3.420  1.00 20.00     0.012 C 
BRANCH   4   5
HETATM    5  C6  UNL     1     -33.670   7.308   3.653  1.00 20.00     0.006 C 
BRANCH   5   6
HETATM    6  C8  UNL     1     -32.623   7.048   2.548  1.00 20.00    -0.005 C 
HETATM    7  C3  UNL     1     -32.233   8.373   1.884  1.00 20.00     0.011 C 
BRANCH   6   8
HETATM    8  C7  UNL     1     -33.042   6.002   1.504  1.00 20.00     0.119 C 
HETATM    9 CL9  UNL     1     -31.723   4.906   1.024  1.00 20.00    -0.130 Cl
ENDBRANCH   6   8
ENDBRANCH   5   6
ENDBRANCH   4   5
ENDBRANCH   3   4
TORSDOF 4
ENDMDL
MODEL 5
REMARK VINA RESULT:      -2.5      2.628      4.942
REMARK  4 active torsions:
REMARK  status: ('A' for Active; 'I' for Inactive)
REMARK    1  A    between atoms: C4_4  and  C5_5 
REMARK    2  A    between atoms: C5_5  and  C6_6 
REMARK    3  A    between atoms: C6_6  and  C8_8 
REMARK    4  A    between atoms: C7_7  and  C8_8 
ROOT
HETATM    1  C1  UNL     1     -32.566  10.342   0.321  1.00 20.00     0.012 C 
HETATM    2  C2  UNL     1     -32.362   9.257   0.792  1.00 20.00    -0.117 C 
HETATM    3  C4  UNL     1     -32.108   7.927   1.364  1.00 20.00     0.093 C 
ENDROOT
BRANCH   3   4
HETATM    4  C5  UNL     1     -32.131   7.940   2.894  1.00 20.00     0.012 C 
BRANCH   4   5
HETATM    5  C6  UNL     1     -33.547   7.797   3.467  1.00 20.00     0.006 C 
BRANCH   5   6
HETATM    6  C8  UNL     1     -34.195   6.428   3.170  1.00 20.00    -0.005 C 
HETATM    7  C3  UNL     1     -35.423   6.231   4.067  1.00 20.00     0.011 C 
BRANCH   6   8
HETATM    8  C7  UNL     1     -33.236   5.231   3.266  1.00 20.00     0.119 C 
HETATM    9 CL9  UNL     1     -33.891   3.867   4.204  1.00 20.00    -0.130 Cl
ENDBRANCH   6   8
ENDBRANCH   5   6
ENDBRANCH   4   5
ENDBRANCH   3   4
TORSDOF 4
ENDMDL
MODEL 6
REMARK VINA RESULT:      -2.4      0.819      1.543
REMARK  4 active torsions:
REMARK  status: ('A' for Active; 'I' for Inactive)
REMARK    1  A    between atoms: C4_4  and  C5_5 
REMARK    2  A    between atoms: C5_5  and  C6_6 
REMARK    3  A    between atoms: C6_6  and  C8_8 
REMARK    4  A    between atoms: C7_7  and  C8_8 
ROOT
HETATM    1  C1  UNL     1     -33.905   3.799   4.280  1.00 20.00     0.012 C 
HETATM    2  C2  UNL     1     -34.392   4.882   4.103  1.00 20.00    -0.117 C 
HETATM    3  C4  UNL     1     -34.991   6.207   3.890  1.00 20.00     0.093 C 
ENDROOT
BRANCH   3   4
HETATM    4  C5  UNL     1     -33.955   7.251   3.466  1.00 20.00     0.012 C 
BRANCH   4   5
HETATM    5  C6  UNL     1     -33.231   6.873   2.166  1.00 20.00     0.006 C 
BRANCH   5   6
HETATM    6  C8  UNL     1     -31.987   7.741   1.881  1.00 20.00    -0.005 C 
HETATM    7  C3  UNL     1     -31.708   8.655   3.081  1.00 20.00     0.011 C 
BRANCH   6   8
HETATM    8  C7  UNL     1     -32.052   8.543   0.572  1.00 20.00     0.119 C 
HETATM    9 CL9  UNL     1     -32.650  10.206   0.784  1.00 20.00    -0.130 Cl
ENDBRANCH   6   8
ENDBRANCH   5   6
ENDBRANCH   4   5
ENDBRANCH   3   4
TORSDOF 4
ENDMDL
MODEL 7
REMARK VINA RESULT:      -2.4      1.426      2.228
REMARK  4 active torsions:
REMARK  status: ('A' for Active; 'I' for Inactive)
REMARK    1  A    between atoms: C4_4  and  C5_5 
REMARK    2  A    between atoms: C5_5  and  C6_6 
REMARK    3  A    between atoms: C6_6  and  C8_8 
REMARK    4  A    between atoms: C7_7  and  C8_8 
ROOT
HETATM    1  C1  UNL     1     -32.902   2.759   5.262  1.00 20.00     0.012 C 
HETATM    2  C2  UNL     1     -33.489   3.480   4.504  1.00 20.00    -0.117 C 
HETATM    3  C4  UNL     1     -34.208   4.360   3.571  1.00 20.00     0.093 C 
ENDROOT
BRANCH   3   4
HETATM    4  C5  UNL     1     -35.140   5.336   4.296  1.00 20.00     0.012 C 
BRANCH   4   5
HETATM    5  C6  UNL     1     -34.961   6.786   3.826  1.00 20.00     0.006 C 
BRANCH   5   6
HETATM    6  C8  UNL     1     -33.491   7.255   3.826  1.00 20.00    -0.005 C 
HETATM    7  C3  UNL     1     -33.288   8.317   4.914  1.00 20.00     0.011 C 
BRANCH   6   8
HETATM    8  C7  UNL     1     -32.975   7.746   2.464  1.00 20.00     0.119 C 
HETATM    9 CL9  UNL     1     -32.330   6.444   1.436  1.00 20.00    -0.130 Cl
ENDBRANCH   6   8
ENDBRANCH   5   6
ENDBRANCH   4   5
ENDBRANCH   3   4
TORSDOF 4
ENDMDL
MODEL 8
REMARK VINA RESULT:      -1.8      2.046      4.700
REMARK  4 active torsions:
REMARK  status: ('A' for Active; 'I' for Inactive)
REMARK    1  A    between atoms: C4_4  and  C5_5 
REMARK    2  A    between atoms: C5_5  and  C6_6 
REMARK    3  A    between atoms: C6_6  and  C8_8 
REMARK    4  A    between atoms: C7_7  and  C8_8 
ROOT
HETATM    1  C1  UNL     1     -32.503  10.556   0.149  1.00 20.00     0.012 C 
HETATM    2  C2  UNL     1     -32.469   9.475   0.669  1.00 20.00    -0.117 C 
HETATM    3  C4  UNL     1     -32.427   8.149   1.302  1.00 20.00     0.093 C 
ENDROOT
BRANCH   3   4
HETATM    4  C5  UNL     1     -32.115   8.231   2.799  1.00 20.00     0.012 C 
BRANCH   4   5
HETATM    5  C6  UNL     1     -33.302   7.809   3.675  1.00 20.00     0.006 C 
BRANCH   5   6
HETATM    6  C8  UNL     1     -34.080   6.599   3.116  1.00 20.00    -0.005 C 
HETATM    7  C3  UNL     1     -35.337   6.357   3.961  1.00 20.00     0.011 C 
BRANCH   6   8
HETATM    8  C7  UNL     1     -33.248   5.314   2.973  1.00 20.00     0.119 C 
HETATM    9 CL9  UNL     1     -32.588   5.071   1.338  1.00 20.00    -0.130 Cl
ENDBRANCH   6   8
ENDBRANCH   5   6
ENDBRANCH   4   5
ENDBRANCH   3   4
TORSDOF 4
ENDMDL
MODEL 9
REMARK VINA RESULT:      -1.4      1.332      2.511
REMARK  4 active torsions:
REMARK  status: ('A' for Active; 'I' for Inactive)
REMARK    1  A    between atoms: C4_4  and  C5_5 
REMARK    2  A    between atoms: C5_5  and  C6_6 
REMARK    3  A    between atoms: C6_6  and  C8_8 
REMARK    4  A    between atoms: C7_7  and  C8_8 
ROOT
HETATM    1  C1  UNL     1     -35.352   6.509   4.088  1.00 20.00     0.012 C 
HETATM    2  C2  UNL     1     -34.473   5.942   3.501  1.00 20.00    -0.117 C 
HETATM    3  C4  UNL     1     -33.397   5.242   2.785  1.00 20.00     0.093 C 
ENDROOT
BRANCH   3   4
HETATM    4  C5  UNL     1     -33.025   5.938   1.473  1.00 20.00     0.012 C 
BRANCH   4   5
HETATM    5  C6  UNL     1     -31.652   6.621   1.532  1.00 20.00     0.006 C 
BRANCH   5   6
HETATM    6  C8  UNL     1     -31.735   8.157   1.653  1.00 20.00    -0.005 C 
HETATM    7  C3  UNL     1     -32.065   8.546   3.099  1.00 20.00     0.011 C 
BRANCH   6   8
HETATM    8  C7  UNL     1     -32.699   8.826   0.661  1.00 20.00     0.119 C 
HETATM    9 CL9  UNL     1     -32.344  10.546   0.371  1.00 20.00    -0.130 Cl
ENDBRANCH   6   8
ENDBRANCH   5   6
ENDBRANCH   4   5
ENDBRANCH   3   4
TORSDOF 4
ENDMDL
