MODEL 1
REMARK VINA RESULT:      -2.0      0.000      0.000
REMARK  5 active torsions:
REMARK  status: ('A' for Active; 'I' for Inactive)
REMARK    1  A    between atoms: C4_4  and  C5_5 
REMARK    2  A    between atoms: C4_4  and  C6_6 
REMARK    3  A    between atoms: C5_5  and  C8_8 
REMARK    4  A    between atoms: C6_6  and  C9_9 
REMARK    5  A    between atoms: C7_7  and  C9_9 
ROOT
HETATM    1  C4  UNL     1     -32.161   7.941   2.356  1.00 20.00     0.001 C 
ENDROOT
BRANCH   1   2
HETATM    2  C5  UNL     1     -31.946   8.182   0.857  1.00 20.00     0.004 C 
BRANCH   2   3
HETATM    3  C8  UNL     1     -32.059   9.663   0.451  1.00 20.00    -0.023 C 
HETATM    4  C1  UNL     1     -32.880  10.481   1.449  1.00 20.00     0.009 C 
HETATM    5  C2  UNL     1     -32.683   9.772  -0.943  1.00 20.00     0.009 C 
ENDBRANCH   2   3
ENDBRANCH   1   2
BRANCH   1   6
HETATM    6  C6  UNL     1     -33.177   6.819   2.595  1.00 20.00     0.005 C 
BRANCH   6   7
HETATM    7  C9  UNL     1     -34.292   7.199   3.591  1.00 20.00    -0.005 C 
HETATM    8  C3  UNL     1     -33.691   7.959   4.778  1.00 20.00     0.011 C 
BRANCH   7   9
HETATM    9  C7  UNL     1     -35.153   6.016   4.061  1.00 20.00     0.119 C 
HETATM   10 CL10 UNL     1     -34.276   4.468   4.105  1.00 20.00    -0.130 Cl
ENDBRANCH   7   9
ENDBRANCH   6   7
ENDBRANCH   1   6
TORSDOF 5
ENDMDL
MODEL 2
REMARK VINA RESULT:      -1.8      0.283      1.153
REMARK  5 active torsions:
REMARK  status: ('A' for Active; 'I' for Inactive)
REMARK    1  A    between atoms: C4_4  and  C5_5 
REMARK    2  A    between atoms: C4_4  and  C6_6 
REMARK    3  A    between atoms: C5_5  and  C8_8 
REMARK    4  A    between atoms: C6_6  and  C9_9 
REMARK    5  A    between atoms: C7_7  and  C9_9 
ROOT
HETATM    1  C4  UNL     1     -32.115   7.963   2.473  1.00 20.00     0.001 C 
ENDROOT
BRANCH   1   2
HETATM    2  C5  UNL     1     -31.830   8.347   1.017  1.00 20.00     0.004 C 
BRANCH   2   3
HETATM    3  C8  UNL     1     -32.757   9.455   0.482  1.00 20.00    -0.023 C 
HETATM    4  C1  UNL     1     -32.445   9.827  -0.968  1.00 20.00     0.009 C 
HETATM    5  C2  UNL     1     -32.647  10.698   1.369  1.00 20.00     0.009 C 
ENDBRANCH   2   3
ENDBRANCH   1   2
BRANCH   1   6
HETATM    6  C6  UNL     1     -33.228   6.912   2.559  1.00 20.00     0.005 C 
BRANCH   6   7
HETATM    7  C9  UNL     1     -34.311   7.245   3.606  1.00 20.00    -0.005 C 
HETATM    8  C3  UNL     1     -33.672   7.950   4.807  1.00 20.00     0.011 C 
BRANCH   7   9
HETATM    9  C7  UNL     1     -35.157   6.040   4.048  1.00 20.00     0.119 C 
HETATM   10 CL10 UNL     1     -34.259   4.504   4.061  1.00 20.00    -0.130 Cl
ENDBRANCH   7   9
ENDBRANCH   6   7
ENDBRANCH   1   6
TORSDOF 5
ENDMDL
MODEL 3
REMARK VINA RESULT:      -1.8      1.134      1.954
REMARK  5 active torsions:
REMARK  status: ('A' for Active; 'I' for Inactive)
REMARK    1  A    between atoms: C4_4  and  C5_5 
REMARK    2  A    between atoms: C4_4  and  C6_6 
REMARK    3  A    between atoms: C5_5  and  C8_8 
REMARK    4  A    between atoms: C6_6  and  C9_9 
REMARK    5  A    between atoms: C7_7  and  C9_9 
ROOT
HETATM    1  C4  UNL     1     -32.995   5.928   1.350  1.00 20.00     0.001 C 
ENDROOT
BRANCH   1   2
HETATM    2  C5  UNL     1     -31.922   6.987   1.071  1.00 20.00     0.004 C 
BRANCH   2   3
HETATM    3  C8  UNL     1     -32.304   8.394   1.568  1.00 20.00    -0.023 C 
HETATM    4  C1  UNL     1     -32.195   9.451   0.469  1.00 20.00     0.009 C 
HETATM    5  C2  UNL     1     -31.415   8.785   2.751  1.00 20.00     0.009 C 
ENDBRANCH   2   3
ENDBRANCH   1   2
BRANCH   1   6
HETATM    6  C6  UNL     1     -33.044   5.572   2.840  1.00 20.00     0.005 C 
BRANCH   6   7
HETATM    7  C9  UNL     1     -34.433   5.779   3.478  1.00 20.00    -0.005 C 
HETATM    8  C3  UNL     1     -34.512   7.174   4.109  1.00 20.00     0.011 C 
BRANCH   7   9
HETATM    9  C7  UNL     1     -34.840   4.687   4.481  1.00 20.00     0.119 C 
HETATM   10 CL10 UNL     1     -33.674   3.346   4.587  1.00 20.00    -0.130 Cl
ENDBRANCH   7   9
ENDBRANCH   6   7
ENDBRANCH   1   6
TORSDOF 5
ENDMDL
MODEL 4
REMARK VINA RESULT:      -1.5      0.953      1.639
REMARK  5 active torsions:
REMARK  status: ('A' for Active; 'I' for Inactive)
REMARK    1  A    between atoms: C4_4  and  C5_5 
REMARK    2  A    between atoms: C4_4  and  C6_6 
REMARK    3  A    between atoms: C5_5  and  C8_8 
REMARK    4  A    between atoms: C6_6  and  C9_9 
REMARK    5  A    between atoms: C7_7  and  C9_9 
ROOT
HETATM    1  C4  UNL     1     -32.133   7.340   1.828  1.00 20.00     0.001 C 
ENDROOT
BRANCH   1   2
HETATM    2  C5  UNL     1     -31.630   8.718   1.383  1.00 20.00     0.004 C 
BRANCH   2   3
HETATM    3  C8  UNL     1     -32.664   9.514   0.564  1.00 20.00    -0.023 C 
HETATM    4  C1  UNL     1     -32.401   9.436  -0.940  1.00 20.00     0.009 C 
HETATM    5  C2  UNL     1     -32.666  10.977   1.013  1.00 20.00     0.009 C 
ENDBRANCH   2   3
ENDBRANCH   1   2
BRANCH   1   6
HETATM    6  C6  UNL     1     -33.247   7.469   2.872  1.00 20.00     0.005 C 
BRANCH   6   7
HETATM    7  C9  UNL     1     -34.115   6.201   3.009  1.00 20.00    -0.005 C 
HETATM    8  C3  UNL     1     -35.115   6.379   4.158  1.00 20.00     0.011 C 
BRANCH   7   9
HETATM    9  C7  UNL     1     -33.314   4.898   3.159  1.00 20.00     0.119 C 
HETATM   10 CL10 UNL     1     -33.987   3.783   4.373  1.00 20.00    -0.130 Cl
ENDBRANCH   7   9
ENDBRANCH   6   7
ENDBRANCH   1   6
TORSDOF 5
ENDMDL
MODEL 5
REMARK VINA RESULT:      -1.5      2.608      4.751
REMARK  5 active torsions:
REMARK  status: ('A' for Active; 'I' for Inactive)
REMARK    1  A    between atoms: C4_4  and  C5_5 
REMARK    2  A    between atoms: C4_4  and  C6_6 
REMARK    3  A    between atoms: C5_5  and  C8_8 
REMARK    4  A    between atoms: C6_6  and  C9_9 
REMARK    5  A    between atoms: C7_7  and  C9_9 
ROOT
HETATM    1  C4  UNL     1     -33.157   6.096   1.533  1.00 20.00     0.001 C 
ENDROOT
BRANCH   1   2
HETATM    2  C5  UNL     1     -33.525   5.586   2.930  1.00 20.00     0.004 C 
BRANCH   2   3
HETATM    3  C8  UNL     1     -34.702   6.345   3.570  1.00 20.00    -0.023 C 
HETATM    4  C1  UNL     1     -34.251   7.603   4.314  1.00 20.00     0.009 C 
HETATM    5  C2  UNL     1     -35.456   5.421   4.530  1.00 20.00     0.009 C 
ENDBRANCH   2   3
ENDBRANCH   1   2
BRANCH   1   6
HETATM    6  C6  UNL     1     -31.713   6.609   1.495  1.00 20.00     0.005 C 
BRANCH   6   7
HETATM    7  C9  UNL     1     -31.606   8.148   1.480  1.00 20.00    -0.005 C 
HETATM    8  C3  UNL     1     -31.420   8.668   2.910  1.00 20.00     0.011 C 
BRANCH   7   9
HETATM    9  C7  UNL     1     -32.769   8.859   0.771  1.00 20.00     0.119 C 
HETATM   10 CL10 UNL     1     -32.408  10.541   0.318  1.00 20.00    -0.130 Cl
ENDBRANCH   7   9
ENDBRANCH   6   7
ENDBRANCH   1   6
TORSDOF 5
ENDMDL
MODEL 6
REMARK VINA RESULT:      -1.5      0.851      1.241
REMARK  5 active torsions:
REMARK  status: ('A' for Active; 'I' for Inactive)
REMARK    1  A    between atoms: C4_4  and  C5_5 
REMARK    2  A    between atoms: C4_4  and  C6_6 
REMARK    3  A    between atoms: C5_5  and  C8_8 
REMARK    4  A    between atoms: C6_6  and  C9_9 
REMARK    5  A    between atoms: C7_7  and  C9_9 
ROOT
HETATM    1  C4  UNL     1     -32.123   8.009   2.702  1.00 20.00     0.001 C 
ENDROOT
BRANCH   1   2
HETATM    2  C5  UNL     1     -32.654   8.211   1.278  1.00 20.00     0.004 C 
BRANCH   2   3
HETATM    3  C8  UNL     1     -32.134   9.496   0.606  1.00 20.00    -0.023 C 
HETATM    4  C1  UNL     1     -32.855  10.749   1.105  1.00 20.00     0.009 C 
HETATM    5  C2  UNL     1     -32.284   9.384  -0.913  1.00 20.00     0.009 C 
ENDBRANCH   2   3
ENDBRANCH   1   2
BRANCH   1   6
HETATM    6  C6  UNL     1     -33.256   7.643   3.667  1.00 20.00     0.005 C 
BRANCH   6   7
HETATM    7  C9  UNL     1     -34.103   6.442   3.198  1.00 20.00    -0.005 C 
HETATM    8  C3  UNL     1     -35.357   6.319   4.070  1.00 20.00     0.011 C 
BRANCH   7   9
HETATM    9  C7  UNL     1     -33.335   5.112   3.131  1.00 20.00     0.119 C 
HETATM   10 CL10 UNL     1     -33.948   3.877   4.255  1.00 20.00    -0.130 Cl
ENDBRANCH   7   9
ENDBRANCH   6   7
ENDBRANCH   1   6
TORSDOF 5
ENDMDL
MODEL 7
REMARK VINA RESULT:      -1.5      1.666      2.225
REMARK  5 active torsions:
REMARK  status: ('A' for Active; 'I' for Inactive)
REMARK    1  A    between atoms: C4_4  and  C5_5 
REMARK    2  A    between atoms: C4_4  and  C6_6 
REMARK    3  A    between atoms: C5_5  and  C8_8 
REMARK    4  A    between atoms: C6_6  and  C9_9 
REMARK    5  A    between atoms: C7_7  and  C9_9 
ROOT
HETATM    1  C4  UNL     1     -31.991   6.608   1.536  1.00 20.00     0.001 C 
ENDROOT
BRANCH   1   2
HETATM    2  C5  UNL     1     -32.122   8.114   1.788  1.00 20.00     0.004 C 
BRANCH   2   3
HETATM    3  C8  UNL     1     -32.312   8.938   0.501  1.00 20.00    -0.023 C 
HETATM    4  C1  UNL     1     -31.051   8.968  -0.364  1.00 20.00     0.009 C 
HETATM    5  C2  UNL     1     -32.729  10.367   0.855  1.00 20.00     0.009 C 
ENDBRANCH   2   3
ENDBRANCH   1   2
BRANCH   1   6
HETATM    6  C6  UNL     1     -33.302   5.879   1.852  1.00 20.00     0.005 C 
BRANCH   6   7
HETATM    7  C9  UNL     1     -33.603   5.776   3.361  1.00 20.00    -0.005 C 
HETATM    8  C3  UNL     1     -33.993   4.337   3.715  1.00 20.00     0.011 C 
BRANCH   7   9
HETATM    9  C7  UNL     1     -34.648   6.781   3.870  1.00 20.00     0.119 C 
HETATM   10 CL10 UNL     1     -33.956   8.092   4.856  1.00 20.00    -0.130 Cl
ENDBRANCH   7   9
ENDBRANCH   6   7
ENDBRANCH   1   6
TORSDOF 5
ENDMDL
MODEL 8
REMARK VINA RESULT:      -1.2      2.755      5.280
REMARK  5 active torsions:
REMARK  status: ('A' for Active; 'I' for Inactive)
REMARK    1  A    between atoms: C4_4  and  C5_5 
REMARK    2  A    between atoms: C4_4  and  C6_6 
REMARK    3  A    between atoms: C5_5  and  C8_8 
REMARK    4  A    between atoms: C6_6  and  C9_9 
REMARK    5  A    between atoms: C7_7  and  C9_9 
ROOT
HETATM    1  C4  UNL     1     -33.259   5.886   1.897  1.00 20.00     0.001 C 
ENDROOT
BRANCH   1   2
HETATM    2  C5  UNL     1     -32.971   4.604   2.685  1.00 20.00     0.004 C 
BRANCH   2   3
HETATM    3  C8  UNL     1     -34.091   4.225   3.672  1.00 20.00    -0.023 C 
HETATM    4  C1  UNL     1     -34.806   5.451   4.243  1.00 20.00     0.009 C 
HETATM    5  C2  UNL     1     -33.515   3.385   4.814  1.00 20.00     0.009 C 
ENDBRANCH   2   3
ENDBRANCH   1   2
BRANCH   1   6
HETATM    6  C6  UNL     1     -31.971   6.476   1.312  1.00 20.00     0.005 C 
BRANCH   6   7
HETATM    7  C9  UNL     1     -31.791   7.979   1.606  1.00 20.00    -0.005 C 
HETATM    8  C3  UNL     1     -32.703   8.393   2.767  1.00 20.00     0.011 C 
BRANCH   7   9
HETATM    9  C7  UNL     1     -31.987   8.893   0.387  1.00 20.00     0.119 C 
HETATM   10 CL10 UNL     1     -32.722  10.465   0.783  1.00 20.00    -0.130 Cl
ENDBRANCH   7   9
ENDBRANCH   6   7
ENDBRANCH   1   6
TORSDOF 5
ENDMDL
MODEL 9
REMARK VINA RESULT:      -1.2      1.759      2.393
REMARK  5 active torsions:
REMARK  status: ('A' for Active; 'I' for Inactive)
REMARK    1  A    between atoms: C4_4  and  C5_5 
REMARK    2  A    between atoms: C4_4  and  C6_6 
REMARK    3  A    between atoms: C5_5  and  C8_8 
REMARK    4  A    between atoms: C6_6  and  C9_9 
REMARK    5  A    between atoms: C7_7  and  C9_9 
ROOT
HETATM    1  C4  UNL     1     -32.263   5.773   1.607  1.00 20.00     0.001 C 
ENDROOT
BRANCH   1   2
HETATM    2  C5  UNL     1     -32.778   7.113   1.069  1.00 20.00     0.004 C 
BRANCH   2   3
HETATM    3  C8  UNL     1     -31.791   8.277   1.276  1.00 20.00    -0.023 C 
HETATM    4  C1  UNL     1     -31.551   8.584   2.755  1.00 20.00     0.009 C 
HETATM    5  C2  UNL     1     -32.311   9.530   0.567  1.00 20.00     0.009 C 
ENDBRANCH   2   3
ENDBRANCH   1   2
BRANCH   1   6
HETATM    6  C6  UNL     1     -33.417   4.902   2.114  1.00 20.00     0.005 C 
BRANCH   6   7
HETATM    7  C9  UNL     1     -33.685   5.051   3.626  1.00 20.00    -0.005 C 
HETATM    8  C3  UNL     1     -33.791   3.665   4.273  1.00 20.00     0.011 C 
BRANCH   7   9
HETATM    9  C7  UNL     1     -34.901   5.925   3.972  1.00 20.00     0.119 C 
HETATM   10 CL10 UNL     1     -34.503   7.646   4.192  1.00 20.00    -0.130 Cl
ENDBRANCH   7   9
ENDBRANCH   6   7
ENDBRANCH   1   6
TORSDOF 5
ENDMDL
