MODEL 1
REMARK VINA RESULT:      -0.1      0.000      0.000
REMARK  2 active torsions:
REMARK  status: ('A' for Active; 'I' for Inactive)
REMARK    1  A    between atoms: C7_7  and  C8_8 
REMARK    2  A    between atoms: C7_7  and  N9_9 
ROOT
HETATM    1  C1  UNL     1     -33.972   7.466   4.574  1.00 20.00     0.038 C 
HETATM    2  C2  UNL     1     -33.118   8.238   3.589  1.00 20.00     0.235 C 
HETATM    3  C3  UNL     1     -33.529   5.961   2.766  1.00 20.00     0.243 C 
HETATM    4  C4  UNL     1     -34.652   6.394   3.717  1.00 20.00    -0.022 C 
HETATM    5  C5  UNL     1     -35.140   5.223   4.572  1.00 20.00     0.016 C 
HETATM    6  C6  UNL     1     -35.844   6.972   2.935  1.00 20.00     0.016 C 
HETATM    7  N9  UNL     1     -32.623   7.177   2.633  1.00 20.00    -0.069 N 
HETATM    8  H27 UNL     1     -31.688   6.889   2.965  1.00 20.00     0.280 HD
ENDROOT
BRANCH   7   9
HETATM    9  C7  UNL     1     -32.446   7.662   1.229  1.00 20.00     0.250 C 
BRANCH   9  10
HETATM   10  C8  UNL     1     -32.215   9.162   1.222  1.00 20.00     0.142 C 
HETATM   11 CL10 UNL     1     -32.674   9.888  -0.338  1.00 20.00    -0.129 Cl
ENDBRANCH   9  10
ENDBRANCH   7   9
TORSDOF 2
ENDMDL
MODEL 2
REMARK VINA RESULT:       0.5      3.072      4.577
REMARK  2 active torsions:
REMARK  status: ('A' for Active; 'I' for Inactive)
REMARK    1  A    between atoms: C7_7  and  C8_8 
REMARK    2  A    between atoms: C7_7  and  N9_9 
ROOT
HETATM    1  C1  UNL     1     -33.640   8.368   2.934  1.00 20.00     0.038 C 
HETATM    2  C2  UNL     1     -33.866   7.052   3.650  1.00 20.00     0.235 C 
HETATM    3  C3  UNL     1     -32.807   6.670   1.467  1.00 20.00     0.243 C 
HETATM    4  C4  UNL     1     -32.478   8.079   1.979  1.00 20.00    -0.022 C 
HETATM    5  C5  UNL     1     -32.432   9.091   0.834  1.00 20.00     0.016 C 
HETATM    6  C6  UNL     1     -31.128   8.096   2.717  1.00 20.00     0.016 C 
HETATM    7  N9  UNL     1     -33.608   6.013   2.581  1.00 20.00    -0.069 N 
HETATM    8  H27 UNL     1     -34.527   5.763   2.179  1.00 20.00     0.280 HD
ENDROOT
BRANCH   7   9
HETATM    9  C7  UNL     1     -33.012   4.744   3.103  1.00 20.00     0.250 C 
BRANCH   9  10
HETATM   10  C8  UNL     1     -33.955   4.097   4.101  1.00 20.00     0.142 C 
HETATM   11 CL10 UNL     1     -33.151   2.797   5.014  1.00 20.00    -0.129 Cl
ENDBRANCH   9  10
ENDBRANCH   7   9
TORSDOF 2
ENDMDL
MODEL 3
REMARK VINA RESULT:       0.6      2.625      4.478
REMARK  2 active torsions:
REMARK  status: ('A' for Active; 'I' for Inactive)
REMARK    1  A    between atoms: C7_7  and  C8_8 
REMARK    2  A    between atoms: C7_7  and  N9_9 
ROOT
HETATM    1  C1  UNL     1     -31.967   6.470   1.349  1.00 20.00     0.038 C 
HETATM    2  C2  UNL     1     -33.260   5.810   1.785  1.00 20.00     0.235 C 
HETATM    3  C3  UNL     1     -32.692   7.663   3.293  1.00 20.00     0.243 C 
HETATM    4  C4  UNL     1     -32.066   7.891   1.911  1.00 20.00    -0.022 C 
HETATM    5  C5  UNL     1     -30.687   8.543   2.026  1.00 20.00     0.016 C 
HETATM    6  C6  UNL     1     -32.968   8.779   1.037  1.00 20.00     0.016 C 
HETATM    7  N9  UNL     1     -33.514   6.390   3.158  1.00 20.00    -0.069 N 
HETATM    8  H27 UNL     1     -33.132   5.715   3.842  1.00 20.00     0.280 HD
ENDROOT
BRANCH   7   9
HETATM    9  C7  UNL     1     -34.964   6.554   3.486  1.00 20.00     0.250 C 
BRANCH   9  10
HETATM   10  C8  UNL     1     -35.425   5.427   4.391  1.00 20.00     0.142 C 
HETATM   11 CL10 UNL     1     -34.238   4.101   4.441  1.00 20.00    -0.129 Cl
ENDBRANCH   9  10
ENDBRANCH   7   9
TORSDOF 2
ENDMDL
MODEL 4
REMARK VINA RESULT:       0.7      0.979      1.823
REMARK  2 active torsions:
REMARK  status: ('A' for Active; 'I' for Inactive)
REMARK    1  A    between atoms: C7_7  and  C8_8 
REMARK    2  A    between atoms: C7_7  and  N9_9 
ROOT
HETATM    1  C1  UNL     1     -33.403   5.384   3.043  1.00 20.00     0.038 C 
HETATM    2  C2  UNL     1     -32.239   5.827   2.181  1.00 20.00     0.235 C 
HETATM    3  C3  UNL     1     -33.978   7.560   2.229  1.00 20.00     0.243 C 
HETATM    4  C4  UNL     1     -34.053   6.695   3.494  1.00 20.00    -0.022 C 
HETATM    5  C5  UNL     1     -35.502   6.477   3.934  1.00 20.00     0.016 C 
HETATM    6  C6  UNL     1     -33.271   7.341   4.651  1.00 20.00     0.016 C 
HETATM    7  N9  UNL     1     -32.768   7.048   1.462  1.00 20.00    -0.069 N 
HETATM    8  H27 UNL     1     -33.113   6.726   0.543  1.00 20.00     0.280 HD
ENDROOT
BRANCH   7   9
HETATM    9  C7  UNL     1     -31.727   8.086   1.188  1.00 20.00     0.250 C 
BRANCH   9  10
HETATM   10  C8  UNL     1     -32.369   9.459   1.106  1.00 20.00     0.142 C 
HETATM   11 CL10 UNL     1     -32.737   9.909  -0.577  1.00 20.00    -0.129 Cl
ENDBRANCH   9  10
ENDBRANCH   7   9
TORSDOF 2
ENDMDL
MODEL 5
REMARK VINA RESULT:       0.9      3.251      4.612
REMARK  2 active torsions:
REMARK  status: ('A' for Active; 'I' for Inactive)
REMARK    1  A    between atoms: C7_7  and  C8_8 
REMARK    2  A    between atoms: C7_7  and  N9_9 
ROOT
HETATM    1  C1  UNL     1     -34.778   7.766   3.106  1.00 20.00     0.038 C 
HETATM    2  C2  UNL     1     -35.469   6.613   3.806  1.00 20.00     0.235 C 
HETATM    3  C3  UNL     1     -33.218   5.951   3.081  1.00 20.00     0.243 C 
HETATM    4  C4  UNL     1     -33.286   7.470   3.284  1.00 20.00    -0.022 C 
HETATM    5  C5  UNL     1     -32.443   8.210   2.244  1.00 20.00     0.016 C 
HETATM    6  C6  UNL     1     -32.800   7.860   4.691  1.00 20.00     0.016 C 
HETATM    7  N9  UNL     1     -34.581   5.426   3.504  1.00 20.00    -0.069 N 
HETATM    8  H27 UNL     1     -34.987   4.953   2.680  1.00 20.00     0.280 HD
ENDROOT
BRANCH   7   9
HETATM    9  C7  UNL     1     -34.537   4.410   4.600  1.00 20.00     0.250 C 
BRANCH   9  10
HETATM   10  C8  UNL     1     -33.516   3.335   4.275  1.00 20.00     0.142 C 
HETATM   11 CL10 UNL     1     -32.503   2.946   5.686  1.00 20.00    -0.129 Cl
ENDBRANCH   9  10
ENDBRANCH   7   9
TORSDOF 2
ENDMDL
MODEL 6
REMARK VINA RESULT:       1.0      1.469      2.504
REMARK  2 active torsions:
REMARK  status: ('A' for Active; 'I' for Inactive)
REMARK    1  A    between atoms: C7_7  and  C8_8 
REMARK    2  A    between atoms: C7_7  and  N9_9 
ROOT
HETATM    1  C1  UNL     1     -33.289   5.899   2.842  1.00 20.00     0.038 C 
HETATM    2  C2  UNL     1     -33.548   7.375   3.063  1.00 20.00     0.235 C 
HETATM    3  C3  UNL     1     -31.727   7.058   1.446  1.00 20.00     0.243 C 
HETATM    4  C4  UNL     1     -32.656   5.836   1.449  1.00 20.00    -0.022 C 
HETATM    5  C5  UNL     1     -31.870   4.539   1.251  1.00 20.00     0.016 C 
HETATM    6  C6  UNL     1     -33.719   5.951   0.343  1.00 20.00     0.016 C 
HETATM    7  N9  UNL     1     -32.364   8.050   2.407  1.00 20.00    -0.069 N 
HETATM    8  H27 UNL     1     -31.672   8.229   3.153  1.00 20.00     0.280 HD
ENDROOT
BRANCH   7   9
HETATM    9  C7  UNL     1     -32.687   9.378   1.799  1.00 20.00     0.250 C 
BRANCH   9  10
HETATM   10  C8  UNL     1     -32.010   9.510   0.447  1.00 20.00     0.142 C 
HETATM   11 CL10 UNL     1     -33.071  10.303  -0.742  1.00 20.00    -0.129 Cl
ENDBRANCH   9  10
ENDBRANCH   7   9
TORSDOF 2
ENDMDL
MODEL 7
REMARK VINA RESULT:       1.0      2.761      4.267
REMARK  2 active torsions:
REMARK  status: ('A' for Active; 'I' for Inactive)
REMARK    1  A    between atoms: C7_7  and  C8_8 
REMARK    2  A    between atoms: C7_7  and  N9_9 
ROOT
HETATM    1  C1  UNL     1     -32.014   8.490   3.410  1.00 20.00     0.038 C 
HETATM    2  C2  UNL     1     -32.808   7.705   4.435  1.00 20.00     0.235 C 
HETATM    3  C3  UNL     1     -33.980   7.730   2.277  1.00 20.00     0.243 C 
HETATM    4  C4  UNL     1     -32.472   7.919   2.065  1.00 20.00    -0.022 C 
HETATM    5  C5  UNL     1     -32.188   8.892   0.920  1.00 20.00     0.016 C 
HETATM    6  C6  UNL     1     -31.785   6.576   1.762  1.00 20.00     0.016 C 
HETATM    7  N9  UNL     1     -34.153   7.506   3.772  1.00 20.00    -0.069 N 
HETATM    8  H27 UNL     1     -34.769   8.261   4.116  1.00 20.00     0.280 HD
ENDROOT
BRANCH   7   9
HETATM    9  C7  UNL     1     -34.818   6.215   4.129  1.00 20.00     0.250 C 
BRANCH   9  10
HETATM   10  C8  UNL     1     -34.161   5.067   3.387  1.00 20.00     0.142 C 
HETATM   11 CL10 UNL     1     -33.803   3.704   4.475  1.00 20.00    -0.129 Cl
ENDBRANCH   9  10
ENDBRANCH   7   9
TORSDOF 2
ENDMDL
MODEL 8
REMARK VINA RESULT:       1.7      1.584      1.654
REMARK  2 active torsions:
REMARK  status: ('A' for Active; 'I' for Inactive)
REMARK    1  A    between atoms: C7_7  and  C8_8 
REMARK    2  A    between atoms: C7_7  and  N9_9 
ROOT
HETATM    1  C1  UNL     1     -34.393   7.369   4.944  1.00 20.00     0.038 C 
HETATM    2  C2  UNL     1     -33.521   8.313   4.140  1.00 20.00     0.235 C 
HETATM    3  C3  UNL     1     -33.643   6.119   3.046  1.00 20.00     0.243 C 
HETATM    4  C4  UNL     1     -34.887   6.350   3.912  1.00 20.00    -0.022 C 
HETATM    5  C5  UNL     1     -35.347   5.055   4.584  1.00 20.00     0.016 C 
HETATM    6  C6  UNL     1     -36.045   6.918   3.073  1.00 20.00     0.016 C 
HETATM    7  N9  UNL     1     -32.842   7.409   3.136  1.00 20.00    -0.069 N 
HETATM    8  H27 UNL     1     -31.921   7.160   3.533  1.00 20.00     0.280 HD
ENDROOT
BRANCH   7   9
HETATM    9  C7  UNL     1     -32.575   8.063   1.818  1.00 20.00     0.250 C 
BRANCH   9  10
HETATM   10  C8  UNL     1     -31.468   7.327   1.086  1.00 20.00     0.142 C 
HETATM   11 CL10 UNL     1     -31.762   5.572   1.048  1.00 20.00    -0.129 Cl
ENDBRANCH   9  10
ENDBRANCH   7   9
TORSDOF 2
ENDMDL
MODEL 9
REMARK VINA RESULT:       1.8      2.451      4.692
REMARK  2 active torsions:
REMARK  status: ('A' for Active; 'I' for Inactive)
REMARK    1  A    between atoms: C7_7  and  C8_8 
REMARK    2  A    between atoms: C7_7  and  N9_9 
ROOT
HETATM    1  C1  UNL     1     -30.970   8.831   0.717  1.00 20.00     0.038 C 
HETATM    2  C2  UNL     1     -31.327   7.539   1.422  1.00 20.00     0.235 C 
HETATM    3  C3  UNL     1     -33.012   9.263   1.888  1.00 20.00     0.243 C 
HETATM    4  C4  UNL     1     -32.313   9.550   0.553  1.00 20.00    -0.022 C 
HETATM    5  C5  UNL     1     -32.119  11.052   0.337  1.00 20.00     0.016 C 
HETATM    6  C6  UNL     1     -33.117   8.975  -0.626  1.00 20.00     0.016 C 
HETATM    7  N9  UNL     1     -32.435   7.940   2.369  1.00 20.00    -0.069 N 
HETATM    8  H27 UNL     1     -31.992   8.125   3.285  1.00 20.00     0.280 HD
ENDROOT
BRANCH   7   9
HETATM    9  C7  UNL     1     -33.454   6.869   2.596  1.00 20.00     0.250 C 
BRANCH   9  10
HETATM   10  C8  UNL     1     -34.257   7.171   3.848  1.00 20.00     0.142 C 
HETATM   11 CL10 UNL     1     -35.443   5.888   4.190  1.00 20.00    -0.129 Cl
ENDBRANCH   9  10
ENDBRANCH   7   9
TORSDOF 2
ENDMDL
