MODEL 1
REMARK VINA RESULT:       0.1      0.000      0.000
REMARK  5 active torsions:
REMARK  status: ('A' for Active; 'I' for Inactive)
REMARK    1  A    between atoms: C6_6  and  C7_7 
REMARK    2  A    between atoms: C6_6  and  C9_9 
REMARK    3  A    between atoms: C7_7  and  C11_11 
REMARK    4  A    between atoms: C8_8  and  C9_9 
REMARK    5  A    between atoms: C8_8  and  C10_10 
ROOT
HETATM    1  C6  UNL     1     -31.673   7.511   1.546  1.00 20.00     0.005 C 
ENDROOT
BRANCH   1   2
HETATM    2  C7  UNL     1     -32.692   8.640   1.318  1.00 20.00     0.008 C 
BRANCH   2   3
HETATM    3  C11 UNL     1     -32.251   9.756   0.332  1.00 20.00    -0.051 C 
HETATM    4  C3  UNL     1     -32.211  11.129   1.023  1.00 20.00     0.014 C 
HETATM    5  C4  UNL     1     -33.190   9.827  -0.884  1.00 20.00     0.014 C 
HETATM    6  C5  UNL     1     -30.831   9.423  -0.165  1.00 20.00     0.014 C 
ENDBRANCH   2   3
ENDBRANCH   1   2
BRANCH   1   7
HETATM    7  C9  UNL     1     -32.319   6.167   1.953  1.00 20.00    -0.017 C 
HETATM    8  C1  UNL     1     -32.232   5.127   0.829  1.00 20.00     0.010 C 
BRANCH   7   9
HETATM    9  C8  UNL     1     -33.805   6.340   2.352  1.00 20.00     0.024 C 
BRANCH   9  10
HETATM   10  C10 UNL     1     -34.114   6.346   3.858  1.00 20.00     0.078 C 
HETATM   11  C2  UNL     1     -35.558   5.926   4.119  1.00 20.00     0.026 C 
HETATM   12 CL12 UNL     1     -33.849   7.967   4.566  1.00 20.00    -0.125 Cl
ENDBRANCH   9  10
ENDBRANCH   7   9
ENDBRANCH   1   7
TORSDOF 5
ENDMDL
MODEL 2
REMARK VINA RESULT:       0.2      0.044      1.251
REMARK  5 active torsions:
REMARK  status: ('A' for Active; 'I' for Inactive)
REMARK    1  A    between atoms: C6_6  and  C7_7 
REMARK    2  A    between atoms: C6_6  and  C9_9 
REMARK    3  A    between atoms: C7_7  and  C11_11 
REMARK    4  A    between atoms: C8_8  and  C9_9 
REMARK    5  A    between atoms: C8_8  and  C10_10 
ROOT
HETATM    1  C6  UNL     1     -31.647   7.543   1.574  1.00 20.00     0.005 C 
ENDROOT
BRANCH   1   2
HETATM    2  C7  UNL     1     -32.661   8.669   1.318  1.00 20.00     0.008 C 
BRANCH   2   3
HETATM    3  C11 UNL     1     -32.218   9.756   0.300  1.00 20.00    -0.051 C 
HETATM    4  C3  UNL     1     -33.190   9.840  -0.888  1.00 20.00     0.014 C 
HETATM    5  C4  UNL     1     -30.799   9.483  -0.225  1.00 20.00     0.014 C 
HETATM    6  C5  UNL     1     -32.219  11.117   1.024  1.00 20.00     0.014 C 
ENDBRANCH   2   3
ENDBRANCH   1   2
BRANCH   1   7
HETATM    7  C9  UNL     1     -32.300   6.197   1.961  1.00 20.00    -0.017 C 
HETATM    8  C1  UNL     1     -32.209   5.169   0.826  1.00 20.00     0.010 C 
BRANCH   7   9
HETATM    9  C8  UNL     1     -33.789   6.371   2.350  1.00 20.00     0.024 C 
BRANCH   9  10
HETATM   10  C10 UNL     1     -34.108   6.379   3.854  1.00 20.00     0.078 C 
HETATM   11  C2  UNL     1     -35.554   5.964   4.105  1.00 20.00     0.026 C 
HETATM   12 CL12 UNL     1     -33.842   8.000   4.562  1.00 20.00    -0.125 Cl
ENDBRANCH   9  10
ENDBRANCH   7   9
ENDBRANCH   1   7
TORSDOF 5
ENDMDL
MODEL 3
REMARK VINA RESULT:       0.3      0.112      1.248
REMARK  5 active torsions:
REMARK  status: ('A' for Active; 'I' for Inactive)
REMARK    1  A    between atoms: C6_6  and  C7_7 
REMARK    2  A    between atoms: C6_6  and  C9_9 
REMARK    3  A    between atoms: C7_7  and  C11_11 
REMARK    4  A    between atoms: C8_8  and  C9_9 
REMARK    5  A    between atoms: C8_8  and  C10_10 
ROOT
HETATM    1  C6  UNL     1     -31.619   7.490   1.507  1.00 20.00     0.005 C 
ENDROOT
BRANCH   1   2
HETATM    2  C7  UNL     1     -32.548   8.711   1.414  1.00 20.00     0.008 C 
BRANCH   2   3
HETATM    3  C11 UNL     1     -32.177   9.759   0.329  1.00 20.00    -0.051 C 
HETATM    4  C3  UNL     1     -30.789   9.477  -0.271  1.00 20.00     0.014 C 
HETATM    5  C4  UNL     1     -32.200  11.186   0.903  1.00 20.00     0.014 C 
HETATM    6  C5  UNL     1     -33.221   9.668  -0.801  1.00 20.00     0.014 C 
ENDBRANCH   2   3
ENDBRANCH   1   2
BRANCH   1   7
HETATM    7  C9  UNL     1     -32.346   6.189   1.915  1.00 20.00    -0.017 C 
HETATM    8  C1  UNL     1     -32.343   5.152   0.784  1.00 20.00     0.010 C 
BRANCH   7   9
HETATM    9  C8  UNL     1     -33.812   6.456   2.336  1.00 20.00     0.024 C 
BRANCH   9  10
HETATM   10  C10 UNL     1     -34.113   6.405   3.843  1.00 20.00     0.078 C 
HETATM   11  C2  UNL     1     -35.550   5.960   4.095  1.00 20.00     0.026 C 
HETATM   12 CL12 UNL     1     -33.861   8.002   4.607  1.00 20.00    -0.125 Cl
ENDBRANCH   9  10
ENDBRANCH   7   9
ENDBRANCH   1   7
TORSDOF 5
ENDMDL
MODEL 4
REMARK VINA RESULT:       0.3      1.056      1.158
REMARK  5 active torsions:
REMARK  status: ('A' for Active; 'I' for Inactive)
REMARK    1  A    between atoms: C6_6  and  C7_7 
REMARK    2  A    between atoms: C6_6  and  C9_9 
REMARK    3  A    between atoms: C7_7  and  C11_11 
REMARK    4  A    between atoms: C8_8  and  C9_9 
REMARK    5  A    between atoms: C8_8  and  C10_10 
ROOT
HETATM    1  C6  UNL     1     -31.784   7.655   1.765  1.00 20.00     0.005 C 
ENDROOT
BRANCH   1   2
HETATM    2  C7  UNL     1     -32.760   8.777   1.375  1.00 20.00     0.008 C 
BRANCH   2   3
HETATM    3  C11 UNL     1     -32.243   9.777   0.304  1.00 20.00    -0.051 C 
HETATM    4  C3  UNL     1     -32.088  11.191   0.888  1.00 20.00     0.014 C 
HETATM    5  C4  UNL     1     -33.186   9.830  -0.909  1.00 20.00     0.014 C 
HETATM    6  C5  UNL     1     -30.859   9.295  -0.173  1.00 20.00     0.014 C 
ENDBRANCH   2   3
ENDBRANCH   1   2
BRANCH   1   7
HETATM    7  C9  UNL     1     -32.479   6.309   2.071  1.00 20.00    -0.017 C 
HETATM    8  C1  UNL     1     -32.143   5.241   1.023  1.00 20.00     0.010 C 
BRANCH   7   9
HETATM    9  C8  UNL     1     -34.019   6.460   2.145  1.00 20.00     0.024 C 
BRANCH   9  10
HETATM   10  C10 UNL     1     -34.658   6.289   3.533  1.00 20.00     0.078 C 
HETATM   11  C2  UNL     1     -34.155   7.358   4.498  1.00 20.00     0.026 C 
HETATM   12 CL12 UNL     1     -34.294   4.677   4.217  1.00 20.00    -0.125 Cl
ENDBRANCH   9  10
ENDBRANCH   7   9
ENDBRANCH   1   7
TORSDOF 5
ENDMDL
MODEL 5
REMARK VINA RESULT:       0.4      1.831      5.066
REMARK  5 active torsions:
REMARK  status: ('A' for Active; 'I' for Inactive)
REMARK    1  A    between atoms: C6_6  and  C7_7 
REMARK    2  A    between atoms: C6_6  and  C9_9 
REMARK    3  A    between atoms: C7_7  and  C11_11 
REMARK    4  A    between atoms: C8_8  and  C9_9 
REMARK    5  A    between atoms: C8_8  and  C10_10 
ROOT
HETATM    1  C6  UNL     1     -33.176   7.108   1.680  1.00 20.00     0.005 C 
ENDROOT
BRANCH   1   2
HETATM    2  C7  UNL     1     -33.459   6.042   2.751  1.00 20.00     0.008 C 
BRANCH   2   3
HETATM    3  C11 UNL     1     -34.617   6.365   3.734  1.00 20.00    -0.051 C 
HETATM    4  C3  UNL     1     -35.880   6.818   2.982  1.00 20.00     0.014 C 
HETATM    5  C4  UNL     1     -34.207   7.455   4.739  1.00 20.00     0.014 C 
HETATM    6  C5  UNL     1     -34.954   5.080   4.516  1.00 20.00     0.014 C 
ENDBRANCH   2   3
ENDBRANCH   1   2
BRANCH   1   7
HETATM    7  C9  UNL     1     -31.784   7.764   1.811  1.00 20.00    -0.017 C 
HETATM    8  C1  UNL     1     -31.594   8.437   3.177  1.00 20.00     0.010 C 
BRANCH   7   9
HETATM    9  C8  UNL     1     -31.537   8.819   0.703  1.00 20.00     0.024 C 
BRANCH   9  10
HETATM   10  C10 UNL     1     -32.680   9.812   0.437  1.00 20.00     0.078 C 
HETATM   11  C2  UNL     1     -32.856  10.049  -1.060  1.00 20.00     0.026 C 
HETATM   12 CL12 UNL     1     -32.371  11.382   1.236  1.00 20.00    -0.125 Cl
ENDBRANCH   9  10
ENDBRANCH   7   9
ENDBRANCH   1   7
TORSDOF 5
ENDMDL
MODEL 6
REMARK VINA RESULT:       0.5      1.836      5.027
REMARK  5 active torsions:
REMARK  status: ('A' for Active; 'I' for Inactive)
REMARK    1  A    between atoms: C6_6  and  C7_7 
REMARK    2  A    between atoms: C6_6  and  C9_9 
REMARK    3  A    between atoms: C7_7  and  C11_11 
REMARK    4  A    between atoms: C8_8  and  C9_9 
REMARK    5  A    between atoms: C8_8  and  C10_10 
ROOT
HETATM    1  C6  UNL     1     -33.181   7.132   1.709  1.00 20.00     0.005 C 
ENDROOT
BRANCH   1   2
HETATM    2  C7  UNL     1     -33.455   6.057   2.773  1.00 20.00     0.008 C 
BRANCH   2   3
HETATM    3  C11 UNL     1     -34.639   6.346   3.735  1.00 20.00    -0.051 C 
HETATM    4  C3  UNL     1     -35.015   5.098   4.552  1.00 20.00     0.014 C 
HETATM    5  C4  UNL     1     -35.876   6.838   2.964  1.00 20.00     0.014 C 
HETATM    6  C5  UNL     1     -34.201   7.452   4.715  1.00 20.00     0.014 C 
ENDBRANCH   2   3
ENDBRANCH   1   2
BRANCH   1   7
HETATM    7  C9  UNL     1     -31.783   7.780   1.828  1.00 20.00    -0.017 C 
HETATM    8  C1  UNL     1     -31.579   8.454   3.191  1.00 20.00     0.010 C 
BRANCH   7   9
HETATM    9  C8  UNL     1     -31.538   8.829   0.716  1.00 20.00     0.024 C 
BRANCH   9  10
HETATM   10  C10 UNL     1     -32.683   9.820   0.444  1.00 20.00     0.078 C 
HETATM   11  C2  UNL     1     -32.857  10.051  -1.054  1.00 20.00     0.026 C 
HETATM   12 CL12 UNL     1     -32.377  11.393   1.239  1.00 20.00    -0.125 Cl
ENDBRANCH   9  10
ENDBRANCH   7   9
ENDBRANCH   1   7
TORSDOF 5
ENDMDL
MODEL 7
REMARK VINA RESULT:       0.5      1.843      5.041
REMARK  5 active torsions:
REMARK  status: ('A' for Active; 'I' for Inactive)
REMARK    1  A    between atoms: C6_6  and  C7_7 
REMARK    2  A    between atoms: C6_6  and  C9_9 
REMARK    3  A    between atoms: C7_7  and  C11_11 
REMARK    4  A    between atoms: C8_8  and  C9_9 
REMARK    5  A    between atoms: C8_8  and  C10_10 
ROOT
HETATM    1  C6  UNL     1     -33.201   7.153   1.697  1.00 20.00     0.005 C 
ENDROOT
BRANCH   1   2
HETATM    2  C7  UNL     1     -33.475   6.047   2.729  1.00 20.00     0.008 C 
BRANCH   2   3
HETATM    3  C11 UNL     1     -34.606   6.345   3.751  1.00 20.00    -0.051 C 
HETATM    4  C3  UNL     1     -34.198   7.460   4.729  1.00 20.00     0.014 C 
HETATM    5  C4  UNL     1     -34.981   5.084   4.548  1.00 20.00     0.014 C 
HETATM    6  C5  UNL     1     -35.847   6.817   2.968  1.00 20.00     0.014 C 
ENDBRANCH   2   3
ENDBRANCH   1   2
BRANCH   1   7
HETATM    7  C9  UNL     1     -31.798   7.786   1.824  1.00 20.00    -0.017 C 
HETATM    8  C1  UNL     1     -31.590   8.446   3.193  1.00 20.00     0.010 C 
BRANCH   7   9
HETATM    9  C8  UNL     1     -31.541   8.844   0.722  1.00 20.00     0.024 C 
BRANCH   9  10
HETATM   10  C10 UNL     1     -32.683   9.836   0.445  1.00 20.00     0.078 C 
HETATM   11  C2  UNL     1     -32.858  10.058  -1.054  1.00 20.00     0.026 C 
HETATM   12 CL12 UNL     1     -32.373  11.413   1.229  1.00 20.00    -0.125 Cl
ENDBRANCH   9  10
ENDBRANCH   7   9
ENDBRANCH   1   7
TORSDOF 5
ENDMDL
MODEL 8
REMARK VINA RESULT:       0.8      1.651      2.038
REMARK  5 active torsions:
REMARK  status: ('A' for Active; 'I' for Inactive)
REMARK    1  A    between atoms: C6_6  and  C7_7 
REMARK    2  A    between atoms: C6_6  and  C9_9 
REMARK    3  A    between atoms: C7_7  and  C11_11 
REMARK    4  A    between atoms: C8_8  and  C9_9 
REMARK    5  A    between atoms: C8_8  and  C10_10 
ROOT
HETATM    1  C6  UNL     1     -32.364   6.968   1.586  1.00 20.00     0.005 C 
ENDROOT
BRANCH   1   2
HETATM    2  C7  UNL     1     -32.007   8.458   1.715  1.00 20.00     0.008 C 
BRANCH   2   3
HETATM    3  C11 UNL     1     -32.114   9.292   0.409  1.00 20.00    -0.051 C 
HETATM    4  C3  UNL     1     -32.642  10.708   0.691  1.00 20.00     0.014 C 
HETATM    5  C4  UNL     1     -33.031   8.605  -0.617  1.00 20.00     0.014 C 
HETATM    6  C5  UNL     1     -30.703   9.413  -0.200  1.00 20.00     0.014 C 
ENDBRANCH   2   3
ENDBRANCH   1   2
BRANCH   1   7
HETATM    7  C9  UNL     1     -33.574   6.545   2.449  1.00 20.00    -0.017 C 
HETATM    8  C1  UNL     1     -33.664   7.358   3.747  1.00 20.00     0.010 C 
BRANCH   7   9
HETATM    9  C8  UNL     1     -33.524   5.040   2.811  1.00 20.00     0.024 C 
BRANCH   9  10
HETATM   10  C10 UNL     1     -33.867   4.673   4.265  1.00 20.00     0.078 C 
HETATM   11  C2  UNL     1     -33.561   3.204   4.541  1.00 20.00     0.026 C 
HETATM   12 CL12 UNL     1     -35.593   4.979   4.618  1.00 20.00    -0.125 Cl
ENDBRANCH   9  10
ENDBRANCH   7   9
ENDBRANCH   1   7
TORSDOF 5
ENDMDL
MODEL 9
REMARK VINA RESULT:       0.8      2.014      5.026
REMARK  5 active torsions:
REMARK  status: ('A' for Active; 'I' for Inactive)
REMARK    1  A    between atoms: C6_6  and  C7_7 
REMARK    2  A    between atoms: C6_6  and  C9_9 
REMARK    3  A    between atoms: C7_7  and  C11_11 
REMARK    4  A    between atoms: C8_8  and  C9_9 
REMARK    5  A    between atoms: C8_8  and  C10_10 
ROOT
HETATM    1  C6  UNL     1     -32.289   6.335   2.072  1.00 20.00     0.005 C 
ENDROOT
BRANCH   1   2
HETATM    2  C7  UNL     1     -33.825   6.336   2.124  1.00 20.00     0.008 C 
BRANCH   2   3
HETATM    3  C11 UNL     1     -34.451   6.276   3.545  1.00 20.00    -0.051 C 
HETATM    4  C3  UNL     1     -35.982   6.418   3.488  1.00 20.00     0.014 C 
HETATM    5  C4  UNL     1     -33.874   7.374   4.455  1.00 20.00     0.014 C 
HETATM    6  C5  UNL     1     -34.114   4.904   4.159  1.00 20.00     0.014 C 
ENDBRANCH   2   3
ENDBRANCH   1   2
BRANCH   1   7
HETATM    7  C9  UNL     1     -31.682   7.695   1.661  1.00 20.00    -0.017 C 
HETATM    8  C1  UNL     1     -30.946   8.369   2.826  1.00 20.00     0.010 C 
BRANCH   7   9
HETATM    9  C8  UNL     1     -32.763   8.670   1.129  1.00 20.00     0.024 C 
BRANCH   9  10
HETATM   10  C10 UNL     1     -32.254   9.924   0.398  1.00 20.00     0.078 C 
HETATM   11  C2  UNL     1     -32.654  11.190   1.148  1.00 20.00     0.026 C 
HETATM   12 CL12 UNL     1     -32.905  10.009  -1.266  1.00 20.00    -0.125 Cl
ENDBRANCH   9  10
ENDBRANCH   7   9
ENDBRANCH   1   7
TORSDOF 5
ENDMDL
