MODEL 1
REMARK VINA RESULT:      -0.1      0.000      0.000
REMARK  3 active torsions:
REMARK  status: ('A' for Active; 'I' for Inactive)
REMARK    1  A    between atoms: C6_6  and  C7_7 
REMARK    2  A    between atoms: C6_6  and  C8_8 
REMARK    3  A    between atoms: C7_7  and  C9_9 
ROOT
HETATM    1  C1  UNL     1     -33.067   5.980   1.245  1.00 20.00     0.011 C 
HETATM    2  C7  UNL     1     -32.831   6.698   2.585  1.00 20.00    -0.010 C 
ENDROOT
BRANCH   2   3
HETATM    3  C6  UNL     1     -32.326   8.149   2.337  1.00 20.00     0.024 C 
BRANCH   3   4
HETATM    4  C8  UNL     1     -32.421   8.670   0.890  1.00 20.00     0.078 C 
HETATM    5  C2  UNL     1     -31.082   8.527   0.173  1.00 20.00     0.026 C 
HETATM    6 CL10 UNL     1     -32.910  10.391   0.856  1.00 20.00    -0.125 Cl
ENDBRANCH   3   4
ENDBRANCH   2   3
BRANCH   2   7
HETATM    7  C9  UNL     1     -34.085   6.633   3.544  1.00 20.00    -0.048 C 
HETATM    8  C3  UNL     1     -34.287   5.234   4.158  1.00 20.00     0.015 C 
HETATM    9  C4  UNL     1     -33.929   7.647   4.701  1.00 20.00     0.015 C 
HETATM   10  C5  UNL     1     -35.374   7.017   2.784  1.00 20.00     0.015 C 
ENDBRANCH   2   7
TORSDOF 3
ENDMDL
MODEL 2
REMARK VINA RESULT:      -0.1      0.043      1.363
REMARK  3 active torsions:
REMARK  status: ('A' for Active; 'I' for Inactive)
REMARK    1  A    between atoms: C6_6  and  C7_7 
REMARK    2  A    between atoms: C6_6  and  C8_8 
REMARK    3  A    between atoms: C7_7  and  C9_9 
ROOT
HETATM    1  C1  UNL     1     -33.103   5.975   1.250  1.00 20.00     0.011 C 
HETATM    2  C7  UNL     1     -32.846   6.703   2.581  1.00 20.00    -0.010 C 
ENDROOT
BRANCH   2   3
HETATM    3  C6  UNL     1     -32.324   8.144   2.313  1.00 20.00     0.024 C 
BRANCH   3   4
HETATM    4  C8  UNL     1     -32.408   8.646   0.860  1.00 20.00     0.078 C 
HETATM    5  C2  UNL     1     -31.061   8.499   0.156  1.00 20.00     0.026 C 
HETATM    6 CL10 UNL     1     -32.903  10.364   0.797  1.00 20.00    -0.125 Cl
ENDBRANCH   3   4
ENDBRANCH   2   3
BRANCH   2   7
HETATM    7  C9  UNL     1     -34.092   6.664   3.552  1.00 20.00    -0.048 C 
HETATM    8  C3  UNL     1     -35.410   7.011   2.832  1.00 20.00     0.015 C 
HETATM    9  C4  UNL     1     -34.242   5.259   4.177  1.00 20.00     0.015 C 
HETATM   10  C5  UNL     1     -33.905   7.656   4.721  1.00 20.00     0.015 C 
ENDBRANCH   2   7
TORSDOF 3
ENDMDL
MODEL 3
REMARK VINA RESULT:      -0.1      2.588      4.472
REMARK  3 active torsions:
REMARK  status: ('A' for Active; 'I' for Inactive)
REMARK    1  A    between atoms: C6_6  and  C7_7 
REMARK    2  A    between atoms: C6_6  and  C8_8 
REMARK    3  A    between atoms: C7_7  and  C9_9 
ROOT
HETATM    1  C1  UNL     1     -32.687   5.623   1.133  1.00 20.00     0.011 C 
HETATM    2  C7  UNL     1     -33.166   6.854   1.922  1.00 20.00    -0.010 C 
ENDROOT
BRANCH   2   3
HETATM    3  C6  UNL     1     -33.519   6.452   3.383  1.00 20.00     0.024 C 
BRANCH   3   4
HETATM    4  C8  UNL     1     -34.517   5.292   3.553  1.00 20.00     0.078 C 
HETATM    5  C2  UNL     1     -35.665   5.694   4.476  1.00 20.00     0.026 C 
HETATM    6 CL10 UNL     1     -33.714   3.845   4.234  1.00 20.00    -0.125 Cl
ENDBRANCH   3   4
ENDBRANCH   2   3
BRANCH   2   7
HETATM    7  C9  UNL     1     -32.156   8.067   1.838  1.00 20.00    -0.048 C 
HETATM    8  C3  UNL     1     -32.645   9.177   0.889  1.00 20.00     0.015 C 
HETATM    9  C4  UNL     1     -31.947   8.688   3.238  1.00 20.00     0.015 C 
HETATM   10  C5  UNL     1     -30.770   7.590   1.349  1.00 20.00     0.015 C 
ENDBRANCH   2   7
TORSDOF 3
ENDMDL
MODEL 4
REMARK VINA RESULT:      -0.1      0.035      1.364
REMARK  3 active torsions:
REMARK  status: ('A' for Active; 'I' for Inactive)
REMARK    1  A    between atoms: C6_6  and  C7_7 
REMARK    2  A    between atoms: C6_6  and  C8_8 
REMARK    3  A    between atoms: C7_7  and  C9_9 
ROOT
HETATM    1  C1  UNL     1     -33.107   5.981   1.244  1.00 20.00     0.011 C 
HETATM    2  C7  UNL     1     -32.832   6.693   2.580  1.00 20.00    -0.010 C 
ENDROOT
BRANCH   2   3
HETATM    3  C6  UNL     1     -32.280   8.125   2.323  1.00 20.00     0.024 C 
BRANCH   3   4
HETATM    4  C8  UNL     1     -32.418   8.667   0.887  1.00 20.00     0.078 C 
HETATM    5  C2  UNL     1     -31.098   8.546   0.132  1.00 20.00     0.026 C 
HETATM    6 CL10 UNL     1     -32.922  10.384   0.892  1.00 20.00    -0.125 Cl
ENDBRANCH   3   4
ENDBRANCH   2   3
BRANCH   2   7
HETATM    7  C9  UNL     1     -34.078   6.674   3.552  1.00 20.00    -0.048 C 
HETATM    8  C3  UNL     1     -33.929   7.666   4.721  1.00 20.00     0.015 C 
HETATM    9  C4  UNL     1     -35.367   7.033   2.778  1.00 20.00     0.015 C 
HETATM   10  C5  UNL     1     -34.289   5.261   4.140  1.00 20.00     0.015 C 
ENDBRANCH   2   7
TORSDOF 3
ENDMDL
MODEL 5
REMARK VINA RESULT:      -0.0      2.586      4.428
REMARK  3 active torsions:
REMARK  status: ('A' for Active; 'I' for Inactive)
REMARK    1  A    between atoms: C6_6  and  C7_7 
REMARK    2  A    between atoms: C6_6  and  C8_8 
REMARK    3  A    between atoms: C7_7  and  C9_9 
ROOT
HETATM    1  C1  UNL     1     -32.695   5.633   1.143  1.00 20.00     0.011 C 
HETATM    2  C7  UNL     1     -33.166   6.860   1.943  1.00 20.00    -0.010 C 
ENDROOT
BRANCH   2   3
HETATM    3  C6  UNL     1     -33.526   6.447   3.399  1.00 20.00     0.024 C 
BRANCH   3   4
HETATM    4  C8  UNL     1     -34.520   5.281   3.556  1.00 20.00     0.078 C 
HETATM    5  C2  UNL     1     -35.669   5.668   4.483  1.00 20.00     0.026 C 
HETATM    6 CL10 UNL     1     -33.711   3.829   4.220  1.00 20.00    -0.125 Cl
ENDBRANCH   3   4
ENDBRANCH   2   3
BRANCH   2   7
HETATM    7  C9  UNL     1     -32.145   8.065   1.874  1.00 20.00    -0.048 C 
HETATM    8  C3  UNL     1     -31.892   8.703   3.253  1.00 20.00     0.015 C 
HETATM    9  C4  UNL     1     -30.788   7.586   1.310  1.00 20.00     0.015 C 
HETATM   10  C5  UNL     1     -32.662   9.165   0.920  1.00 20.00     0.015 C 
ENDBRANCH   2   7
TORSDOF 3
ENDMDL
MODEL 6
REMARK VINA RESULT:       0.0      2.581      4.467
REMARK  3 active torsions:
REMARK  status: ('A' for Active; 'I' for Inactive)
REMARK    1  A    between atoms: C6_6  and  C7_7 
REMARK    2  A    between atoms: C6_6  and  C8_8 
REMARK    3  A    between atoms: C7_7  and  C9_9 
ROOT
HETATM    1  C1  UNL     1     -32.694   5.616   1.154  1.00 20.00     0.011 C 
HETATM    2  C7  UNL     1     -33.163   6.855   1.936  1.00 20.00    -0.010 C 
ENDROOT
BRANCH   2   3
HETATM    3  C6  UNL     1     -33.536   6.462   3.395  1.00 20.00     0.024 C 
BRANCH   3   4
HETATM    4  C8  UNL     1     -34.522   5.290   3.559  1.00 20.00     0.078 C 
HETATM    5  C2  UNL     1     -35.672   5.675   4.486  1.00 20.00     0.026 C 
HETATM    6 CL10 UNL     1     -33.704   3.847   4.229  1.00 20.00    -0.125 Cl
ENDBRANCH   3   4
ENDBRANCH   2   3
BRANCH   2   7
HETATM    7  C9  UNL     1     -32.136   8.053   1.859  1.00 20.00    -0.048 C 
HETATM    8  C3  UNL     1     -30.757   7.614   1.328  1.00 20.00     0.015 C 
HETATM    9  C4  UNL     1     -32.676   9.165   0.932  1.00 20.00     0.015 C 
HETATM   10  C5  UNL     1     -31.936   8.691   3.253  1.00 20.00     0.015 C 
ENDBRANCH   2   7
TORSDOF 3
ENDMDL
MODEL 7
REMARK VINA RESULT:       0.1      1.006      2.361
REMARK  3 active torsions:
REMARK  status: ('A' for Active; 'I' for Inactive)
REMARK    1  A    between atoms: C6_6  and  C7_7 
REMARK    2  A    between atoms: C6_6  and  C8_8 
REMARK    3  A    between atoms: C7_7  and  C9_9 
ROOT
HETATM    1  C1  UNL     1     -33.705   7.480   3.737  1.00 20.00     0.011 C 
HETATM    2  C7  UNL     1     -33.342   7.303   2.252  1.00 20.00    -0.010 C 
ENDROOT
BRANCH   2   3
HETATM    3  C6  UNL     1     -32.180   8.262   1.865  1.00 20.00     0.024 C 
BRANCH   3   4
HETATM    4  C8  UNL     1     -32.335   9.029   0.538  1.00 20.00     0.078 C 
HETATM    5  C2  UNL     1     -31.053   8.954  -0.286  1.00 20.00     0.026 C 
HETATM    6 CL10 UNL     1     -32.730  10.750   0.829  1.00 20.00    -0.125 Cl
ENDBRANCH   3   4
ENDBRANCH   2   3
BRANCH   2   7
HETATM    7  C9  UNL     1     -33.059   5.797   1.865  1.00 20.00    -0.048 C 
HETATM    8  C3  UNL     1     -33.760   5.382   0.558  1.00 20.00     0.015 C 
HETATM    9  C4  UNL     1     -31.541   5.564   1.692  1.00 20.00     0.015 C 
HETATM   10  C5  UNL     1     -33.531   4.847   2.989  1.00 20.00     0.015 C 
ENDBRANCH   2   7
TORSDOF 3
ENDMDL
MODEL 8
REMARK VINA RESULT:       0.1      1.914      4.124
REMARK  3 active torsions:
REMARK  status: ('A' for Active; 'I' for Inactive)
REMARK    1  A    between atoms: C6_6  and  C7_7 
REMARK    2  A    between atoms: C6_6  and  C8_8 
REMARK    3  A    between atoms: C7_7  and  C9_9 
ROOT
HETATM    1  C1  UNL     1     -33.116   5.690   1.683  1.00 20.00     0.011 C 
HETATM    2  C7  UNL     1     -33.367   7.106   2.231  1.00 20.00    -0.010 C 
ENDROOT
BRANCH   2   3
HETATM    3  C6  UNL     1     -33.681   7.045   3.754  1.00 20.00     0.024 C 
BRANCH   3   4
HETATM    4  C8  UNL     1     -35.062   6.490   4.150  1.00 20.00     0.078 C 
HETATM    5  C2  UNL     1     -34.993   4.985   4.390  1.00 20.00     0.026 C 
HETATM    6 CL10 UNL     1     -36.276   6.813   2.875  1.00 20.00    -0.125 Cl
ENDBRANCH   3   4
ENDBRANCH   2   3
BRANCH   2   7
HETATM    7  C9  UNL     1     -32.205   8.116   1.876  1.00 20.00    -0.048 C 
HETATM    8  C3  UNL     1     -32.667   9.237   0.926  1.00 20.00     0.015 C 
HETATM    9  C4  UNL     1     -31.653   8.772   3.162  1.00 20.00     0.015 C 
HETATM   10  C5  UNL     1     -31.023   7.375   1.210  1.00 20.00     0.015 C 
ENDBRANCH   2   7
TORSDOF 3
ENDMDL
MODEL 9
REMARK VINA RESULT:       0.2      0.990      2.393
REMARK  3 active torsions:
REMARK  status: ('A' for Active; 'I' for Inactive)
REMARK    1  A    between atoms: C6_6  and  C7_7 
REMARK    2  A    between atoms: C6_6  and  C8_8 
REMARK    3  A    between atoms: C7_7  and  C9_9 
ROOT
HETATM    1  C1  UNL     1     -33.752   7.455   3.758  1.00 20.00     0.011 C 
HETATM    2  C7  UNL     1     -33.366   7.277   2.279  1.00 20.00    -0.010 C 
ENDROOT
BRANCH   2   3
HETATM    3  C6  UNL     1     -32.210   8.248   1.904  1.00 20.00     0.024 C 
BRANCH   3   4
HETATM    4  C8  UNL     1     -32.354   9.007   0.571  1.00 20.00     0.078 C 
HETATM    5  C2  UNL     1     -31.070   8.914  -0.248  1.00 20.00     0.026 C 
HETATM    6 CL10 UNL     1     -32.735  10.733   0.849  1.00 20.00    -0.125 Cl
ENDBRANCH   3   4
ENDBRANCH   2   3
BRANCH   2   7
HETATM    7  C9  UNL     1     -33.060   5.773   1.902  1.00 20.00    -0.048 C 
HETATM    8  C3  UNL     1     -33.524   4.787   2.992  1.00 20.00     0.015 C 
HETATM    9  C4  UNL     1     -33.768   5.396   0.581  1.00 20.00     0.015 C 
HETATM   10  C5  UNL     1     -31.546   5.564   1.674  1.00 20.00     0.015 C 
ENDBRANCH   2   7
TORSDOF 3
ENDMDL
