MODEL 1
REMARK VINA RESULT:       0.6      0.000      0.000
REMARK  2 active torsions:
REMARK  status: ('A' for Active; 'I' for Inactive)
REMARK    1  A    between atoms: C5_5  and  C7_7 
REMARK    2  A    between atoms: C6_6  and  S11_11 
ROOT
HETATM    1  C1  UNL     1     -34.466   7.261   4.602  1.00 20.00     0.002 C 
HETATM    2  C2  UNL     1     -35.378   6.218   3.959  1.00 20.00     0.013 C 
HETATM    3  C3  UNL     1     -33.544   7.915   3.574  1.00 20.00     0.015 C 
HETATM    4  C4  UNL     1     -33.658   5.830   2.144  1.00 20.00     0.028 C 
HETATM    5  C5  UNL     1     -34.611   5.162   3.151  1.00 20.00     0.094 C 
HETATM    6  C6  UNL     1     -32.740   6.867   2.799  1.00 20.00     0.045 C 
ENDROOT
BRANCH   5   7
HETATM    7  C7  UNL     1     -33.873   4.176   4.061  1.00 20.00     0.391 C 
HETATM    8  F8  UNL     1     -32.606   4.575   4.239  1.00 20.00    -0.171 F 
HETATM    9  F9  UNL     1     -34.482   4.111   5.254  1.00 20.00    -0.171 F 
HETATM   10  F10 UNL     1     -33.872   2.954   3.507  1.00 20.00    -0.171 F 
ENDBRANCH   5   7
BRANCH   6  11
HETATM   11  S11 UNL     1     -31.724   7.685   1.521  1.00 20.00    -0.177 SA
HETATM   12  H22 UNL     1     -31.405   6.558   0.874  1.00 20.00     0.102 HD
ENDBRANCH   6  11
TORSDOF 2
ENDMDL
MODEL 2
REMARK VINA RESULT:       0.6      0.003      1.140
REMARK  2 active torsions:
REMARK  status: ('A' for Active; 'I' for Inactive)
REMARK    1  A    between atoms: C5_5  and  C7_7 
REMARK    2  A    between atoms: C6_6  and  S11_11 
ROOT
HETATM    1  C1  UNL     1     -34.467   7.262   4.601  1.00 20.00     0.002 C 
HETATM    2  C2  UNL     1     -35.379   6.220   3.958  1.00 20.00     0.013 C 
HETATM    3  C3  UNL     1     -33.544   7.915   3.574  1.00 20.00     0.015 C 
HETATM    4  C4  UNL     1     -33.658   5.830   2.144  1.00 20.00     0.028 C 
HETATM    5  C5  UNL     1     -34.612   5.163   3.150  1.00 20.00     0.094 C 
HETATM    6  C6  UNL     1     -32.740   6.867   2.800  1.00 20.00     0.045 C 
ENDROOT
BRANCH   5   7
HETATM    7  C7  UNL     1     -33.877   4.177   4.061  1.00 20.00     0.391 C 
HETATM    8  F8  UNL     1     -33.874   2.956   3.508  1.00 20.00    -0.171 F 
HETATM    9  F9  UNL     1     -32.610   4.577   4.241  1.00 20.00    -0.171 F 
HETATM   10  F10 UNL     1     -34.487   4.113   5.254  1.00 20.00    -0.171 F 
ENDBRANCH   5   7
BRANCH   6  11
HETATM   11  S11 UNL     1     -31.722   7.684   1.523  1.00 20.00    -0.177 SA
HETATM   12  H22 UNL     1     -30.856   6.673   1.386  1.00 20.00     0.102 HD
ENDBRANCH   6  11
TORSDOF 2
ENDMDL
MODEL 3
REMARK VINA RESULT:       0.8      3.803      4.831
REMARK  2 active torsions:
REMARK  status: ('A' for Active; 'I' for Inactive)
REMARK    1  A    between atoms: C5_5  and  C7_7 
REMARK    2  A    between atoms: C6_6  and  S11_11 
ROOT
HETATM    1  C1  UNL     1     -33.767   7.575   3.123  1.00 20.00     0.002 C 
HETATM    2  C2  UNL     1     -32.537   8.479   3.173  1.00 20.00     0.013 C 
HETATM    3  C3  UNL     1     -33.417   6.173   2.625  1.00 20.00     0.015 C 
HETATM    4  C4  UNL     1     -31.461   7.120   1.329  1.00 20.00     0.028 C 
HETATM    5  C5  UNL     1     -31.777   8.537   1.840  1.00 20.00     0.094 C 
HETATM    6  C6  UNL     1     -32.703   6.223   1.272  1.00 20.00     0.045 C 
ENDROOT
BRANCH   5   7
HETATM    7  C7  UNL     1     -32.528   9.364   0.794  1.00 20.00     0.391 C 
HETATM    8  F8  UNL     1     -33.128   8.552  -0.088  1.00 20.00    -0.171 F 
HETATM    9  F9  UNL     1     -33.459  10.122   1.392  1.00 20.00    -0.171 F 
HETATM   10  F10 UNL     1     -31.671  10.162   0.139  1.00 20.00    -0.171 F 
ENDBRANCH   5   7
BRANCH   6  11
HETATM   11  S11 UNL     1     -32.222   4.538   0.761  1.00 20.00    -0.177 SA
HETATM   12  H22 UNL     1     -31.737   4.901  -0.432  1.00 20.00     0.102 HD
ENDBRANCH   6  11
TORSDOF 2
ENDMDL
MODEL 4
REMARK VINA RESULT:       1.0      2.130      3.040
REMARK  2 active torsions:
REMARK  status: ('A' for Active; 'I' for Inactive)
REMARK    1  A    between atoms: C5_5  and  C7_7 
REMARK    2  A    between atoms: C6_6  and  S11_11 
ROOT
HETATM    1  C1  UNL     1     -33.172   5.258   1.580  1.00 20.00     0.002 C 
HETATM    2  C2  UNL     1     -33.056   5.207   3.102  1.00 20.00     0.013 C 
HETATM    3  C3  UNL     1     -32.375   6.421   0.992  1.00 20.00     0.015 C 
HETATM    4  C4  UNL     1     -32.651   7.704   3.156  1.00 20.00     0.028 C 
HETATM    5  C5  UNL     1     -33.430   6.533   3.780  1.00 20.00     0.094 C 
HETATM    6  C6  UNL     1     -32.780   7.753   1.630  1.00 20.00     0.045 C 
ENDROOT
BRANCH   5   7
HETATM    7  C7  UNL     1     -34.941   6.778   3.751  1.00 20.00     0.391 C 
HETATM    8  F8  UNL     1     -35.433   6.471   2.543  1.00 20.00    -0.171 F 
HETATM    9  F9  UNL     1     -35.546   6.018   4.675  1.00 20.00    -0.171 F 
HETATM   10  F10 UNL     1     -35.200   8.068   4.012  1.00 20.00    -0.171 F 
ENDBRANCH   5   7
BRANCH   6  11
HETATM   11  S11 UNL     1     -31.741   9.100   0.966  1.00 20.00    -0.177 SA
HETATM   12  H22 UNL     1     -32.646  10.066   1.166  1.00 20.00     0.102 HD
ENDBRANCH   6  11
TORSDOF 2
ENDMDL
MODEL 5
REMARK VINA RESULT:       1.0      2.825      3.652
REMARK  2 active torsions:
REMARK  status: ('A' for Active; 'I' for Inactive)
REMARK    1  A    between atoms: C5_5  and  C7_7 
REMARK    2  A    between atoms: C6_6  and  S11_11 
ROOT
HETATM    1  C1  UNL     1     -35.421   6.341   3.708  1.00 20.00     0.002 C 
HETATM    2  C2  UNL     1     -34.233   7.298   3.782  1.00 20.00     0.013 C 
HETATM    3  C3  UNL     1     -35.108   5.001   4.372  1.00 20.00     0.015 C 
HETATM    4  C4  UNL     1     -32.648   5.327   3.873  1.00 20.00     0.028 C 
HETATM    5  C5  UNL     1     -32.936   6.693   3.226  1.00 20.00     0.094 C 
HETATM    6  C6  UNL     1     -33.842   4.370   3.786  1.00 20.00     0.045 C 
ENDROOT
BRANCH   5   7
HETATM    7  C7  UNL     1     -32.962   6.603   1.698  1.00 20.00     0.391 C 
HETATM    8  F8  UNL     1     -34.194   6.285   1.277  1.00 20.00    -0.171 F 
HETATM    9  F9  UNL     1     -32.608   7.780   1.163  1.00 20.00    -0.171 F 
HETATM   10  F10 UNL     1     -32.102   5.661   1.280  1.00 20.00    -0.171 F 
ENDBRANCH   5   7
BRANCH   6  11
HETATM   11  S11 UNL     1     -33.455   2.820   4.670  1.00 20.00    -0.177 SA
HETATM   12  H22 UNL     1     -33.598   3.335   5.896  1.00 20.00     0.102 HD
ENDBRANCH   6  11
TORSDOF 2
ENDMDL
MODEL 6
REMARK VINA RESULT:       1.0      3.992      4.861
REMARK  2 active torsions:
REMARK  status: ('A' for Active; 'I' for Inactive)
REMARK    1  A    between atoms: C5_5  and  C7_7 
REMARK    2  A    between atoms: C6_6  and  S11_11 
ROOT
HETATM    1  C1  UNL     1     -31.810   8.911   3.838  1.00 20.00     0.002 C 
HETATM    2  C2  UNL     1     -31.024   8.322   2.669  1.00 20.00     0.013 C 
HETATM    3  C3  UNL     1     -32.894   7.952   4.329  1.00 20.00     0.015 C 
HETATM    4  C4  UNL     1     -33.031   6.924   2.020  1.00 20.00     0.028 C 
HETATM    5  C5  UNL     1     -31.920   7.859   1.511  1.00 20.00     0.094 C 
HETATM    6  C6  UNL     1     -33.821   7.526   3.187  1.00 20.00     0.045 C 
ENDROOT
BRANCH   5   7
HETATM    7  C7  UNL     1     -32.491   9.044   0.728  1.00 20.00     0.391 C 
HETATM    8  F8  UNL     1     -33.331   9.745   1.502  1.00 20.00    -0.171 F 
HETATM    9  F9  UNL     1     -31.497   9.848   0.324  1.00 20.00    -0.171 F 
HETATM   10  F10 UNL     1     -33.157   8.602  -0.349  1.00 20.00    -0.171 F 
ENDBRANCH   5   7
BRANCH   6  11
HETATM   11  S11 UNL     1     -35.041   6.312   3.798  1.00 20.00    -0.177 SA
HETATM   12  H22 UNL     1     -34.195   5.693   4.630  1.00 20.00     0.102 HD
ENDBRANCH   6  11
TORSDOF 2
ENDMDL
MODEL 7
REMARK VINA RESULT:       1.4      1.974      2.747
REMARK  2 active torsions:
REMARK  status: ('A' for Active; 'I' for Inactive)
REMARK    1  A    between atoms: C5_5  and  C7_7 
REMARK    2  A    between atoms: C6_6  and  S11_11 
ROOT
HETATM    1  C1  UNL     1     -31.991   8.117   2.569  1.00 20.00     0.002 C 
HETATM    2  C2  UNL     1     -33.489   8.314   2.342  1.00 20.00     0.013 C 
HETATM    3  C3  UNL     1     -31.409   7.072   1.619  1.00 20.00     0.015 C 
HETATM    4  C4  UNL     1     -33.670   5.943   1.474  1.00 20.00     0.028 C 
HETATM    5  C5  UNL     1     -34.285   7.002   2.405  1.00 20.00     0.094 C 
HETATM    6  C6  UNL     1     -32.169   5.746   1.715  1.00 20.00     0.045 C 
ENDROOT
BRANCH   5   7
HETATM    7  C7  UNL     1     -34.417   6.487   3.841  1.00 20.00     0.391 C 
HETATM    8  F8  UNL     1     -33.801   5.303   3.962  1.00 20.00    -0.171 F 
HETATM    9  F9  UNL     1     -33.858   7.359   4.693  1.00 20.00    -0.171 F 
HETATM   10  F10 UNL     1     -35.712   6.340   4.157  1.00 20.00    -0.171 F 
ENDBRANCH   5   7
BRANCH   6  11
HETATM   11  S11 UNL     1     -31.501   4.558   0.500  1.00 20.00    -0.177 SA
HETATM   12  H22 UNL     1     -30.322   4.399   1.115  1.00 20.00     0.102 HD
ENDBRANCH   6  11
TORSDOF 2
ENDMDL
MODEL 8
REMARK VINA RESULT:       1.4      3.186      4.303
REMARK  2 active torsions:
REMARK  status: ('A' for Active; 'I' for Inactive)
REMARK    1  A    between atoms: C5_5  and  C7_7 
REMARK    2  A    between atoms: C6_6  and  S11_11 
ROOT
HETATM    1  C1  UNL     1     -32.077   4.825   2.219  1.00 20.00     0.002 C 
HETATM    2  C2  UNL     1     -32.425   5.648   0.980  1.00 20.00     0.013 C 
HETATM    3  C3  UNL     1     -33.287   4.643   3.133  1.00 20.00     0.015 C 
HETATM    4  C4  UNL     1     -34.270   6.808   2.266  1.00 20.00     0.028 C 
HETATM    5  C5  UNL     1     -33.076   6.998   1.316  1.00 20.00     0.094 C 
HETATM    6  C6  UNL     1     -33.910   5.990   3.512  1.00 20.00     0.045 C 
ENDROOT
BRANCH   5   7
HETATM    7  C7  UNL     1     -32.057   7.994   1.877  1.00 20.00     0.391 C 
HETATM    8  F8  UNL     1     -30.813   7.526   1.702  1.00 20.00    -0.171 F 
HETATM    9  F9  UNL     1     -32.173   9.172   1.246  1.00 20.00    -0.171 F 
HETATM   10  F10 UNL     1     -32.273   8.180   3.188  1.00 20.00    -0.171 F 
ENDBRANCH   5   7
BRANCH   6  11
HETATM   11  S11 UNL     1     -35.404   5.720   4.526  1.00 20.00    -0.177 SA
HETATM   12  H22 UNL     1     -34.955   6.394   5.592  1.00 20.00     0.102 HD
ENDBRANCH   6  11
TORSDOF 2
ENDMDL
MODEL 9
REMARK VINA RESULT:       1.6      2.815      3.813
REMARK  2 active torsions:
REMARK  status: ('A' for Active; 'I' for Inactive)
REMARK    1  A    between atoms: C5_5  and  C7_7 
REMARK    2  A    between atoms: C6_6  and  S11_11 
ROOT
HETATM    1  C1  UNL     1     -32.736   5.914   1.745  1.00 20.00     0.002 C 
HETATM    2  C2  UNL     1     -34.124   6.551   1.785  1.00 20.00     0.013 C 
HETATM    3  C3  UNL     1     -32.718   4.557   2.447  1.00 20.00     0.015 C 
HETATM    4  C4  UNL     1     -34.642   5.291   3.918  1.00 20.00     0.028 C 
HETATM    5  C5  UNL     1     -34.699   6.653   3.205  1.00 20.00     0.094 C 
HETATM    6  C6  UNL     1     -33.244   4.663   3.881  1.00 20.00     0.045 C 
ENDROOT
BRANCH   5   7
HETATM    7  C7  UNL     1     -34.007   7.749   4.020  1.00 20.00     0.391 C 
HETATM    8  F8  UNL     1     -34.171   7.520   5.330  1.00 20.00    -0.171 F 
HETATM    9  F9  UNL     1     -32.696   7.768   3.741  1.00 20.00    -0.171 F 
HETATM   10  F10 UNL     1     -34.533   8.946   3.718  1.00 20.00    -0.171 F 
ENDBRANCH   5   7
BRANCH   6  11
HETATM   11  S11 UNL     1     -33.291   3.008   4.649  1.00 20.00    -0.177 SA
HETATM   12  H22 UNL     1     -33.685   3.439   5.853  1.00 20.00     0.102 HD
ENDBRANCH   6  11
TORSDOF 2
ENDMDL
