MODEL 1
REMARK VINA RESULT:      -0.9      0.000      0.000
REMARK  0 active torsions:
REMARK  status: ('A' for Active; 'I' for Inactive)
ROOT
HETATM    1  C1  UNL     1     -32.323   9.966   0.375  1.00 20.00     0.088 C 
HETATM    2  C2  UNL     1     -32.121   7.911   1.614  1.00 20.00    -0.070 C 
HETATM    3  C3  UNL     1     -31.911   8.615   0.493  1.00 20.00     0.096 C 
HETATM    4  C4  UNL     1     -32.806   8.511   2.815  1.00 20.00     0.035 C 
HETATM    5  C5  UNL     1     -31.729   6.465   1.745  1.00 20.00     0.039 C 
HETATM    6  C6  UNL     1     -33.387   7.442   3.749  1.00 20.00     0.009 C 
HETATM    7  C7  UNL     1     -32.944   5.570   2.067  1.00 20.00    -0.011 C 
HETATM    8  C8  UNL     1     -34.003   6.279   2.958  1.00 20.00    -0.014 C 
HETATM    9  C9  UNL     1     -33.596   5.054   0.778  1.00 20.00     0.010 C 
HETATM   10  C10 UNL     1     -34.679   5.285   3.906  1.00 20.00     0.010 C 
HETATM   11  N11 UNL     1     -32.658  11.073   0.271  1.00 20.00    -0.192 NA
ENDROOT
TORSDOF 0
ENDMDL
MODEL 2
REMARK VINA RESULT:       2.1      2.472      4.565
REMARK  0 active torsions:
REMARK  status: ('A' for Active; 'I' for Inactive)
ROOT
HETATM    1  C1  UNL     1     -34.944   6.544   4.003  1.00 20.00     0.088 C 
HETATM    2  C2  UNL     1     -32.960   7.609   3.149  1.00 20.00    -0.070 C 
HETATM    3  C3  UNL     1     -34.029   7.625   3.958  1.00 20.00     0.096 C 
HETATM    4  C4  UNL     1     -32.666   6.443   2.241  1.00 20.00     0.035 C 
HETATM    5  C5  UNL     1     -32.000   8.763   3.055  1.00 20.00     0.039 C 
HETATM    6  C6  UNL     1     -31.741   6.826   1.079  1.00 20.00     0.009 C 
HETATM    7  C7  UNL     1     -31.912   9.319   1.618  1.00 20.00    -0.011 C 
HETATM    8  C8  UNL     1     -32.077   8.220   0.529  1.00 20.00    -0.014 C 
HETATM    9  C9  UNL     1     -32.941  10.436   1.404  1.00 20.00     0.010 C 
HETATM   10  C10 UNL     1     -31.222   8.532  -0.701  1.00 20.00     0.010 C 
HETATM   11  N11 UNL     1     -35.697   5.662   4.046  1.00 20.00    -0.192 NA
ENDROOT
TORSDOF 0
ENDMDL
