MODEL 1
REMARK VINA RESULT:      -1.1      0.000      0.000
REMARK  2 active torsions:
REMARK  status: ('A' for Active; 'I' for Inactive)
REMARK    1  A    between atoms: C4_4  and  C9_9 
REMARK    2  A    between atoms: C9_9  and  C10_10 
ROOT
HETATM    1  C1  UNL     1     -32.417   8.157   3.101  1.00 20.00     0.005 C 
HETATM    2  C2  UNL     1     -33.871   8.013   3.530  1.00 20.00     0.005 C 
HETATM    3  C3  UNL     1     -32.903   5.922   1.947  1.00 20.00     0.009 C 
HETATM    4  C4  UNL     1     -32.068   7.217   1.934  1.00 20.00    -0.013 C 
HETATM    5  C5  UNL     1     -34.198   6.589   4.030  1.00 20.00    -0.015 C 
HETATM    6  C6  UNL     1     -33.286   5.515   3.375  1.00 20.00    -0.015 C 
HETATM    7  C7  UNL     1     -35.700   6.339   3.868  1.00 20.00     0.010 C 
HETATM    8  C8  UNL     1     -33.862   4.099   3.403  1.00 20.00     0.010 C 
ENDROOT
BRANCH   4   9
HETATM    9  C9  UNL     1     -32.209   7.923   0.584  1.00 20.00     0.020 C 
BRANCH   9  10
HETATM   10  C10 UNL     1     -32.024   9.430   0.673  1.00 20.00     0.115 C 
HETATM   11 CL11 UNL     1     -32.959  10.295  -0.569  1.00 20.00    -0.130 Cl
ENDBRANCH   9  10
ENDBRANCH   4   9
TORSDOF 2
ENDMDL
MODEL 2
REMARK VINA RESULT:      -0.8      0.987      2.281
REMARK  2 active torsions:
REMARK  status: ('A' for Active; 'I' for Inactive)
REMARK    1  A    between atoms: C4_4  and  C9_9 
REMARK    2  A    between atoms: C9_9  and  C10_10 
ROOT
HETATM    1  C1  UNL     1     -32.863   5.981   1.219  1.00 20.00     0.005 C 
HETATM    2  C2  UNL     1     -32.658   4.827   2.192  1.00 20.00     0.005 C 
HETATM    3  C3  UNL     1     -33.697   7.157   3.336  1.00 20.00     0.009 C 
HETATM    4  C4  UNL     1     -33.045   7.322   1.950  1.00 20.00    -0.013 C 
HETATM    5  C5  UNL     1     -33.867   4.628   3.131  1.00 20.00    -0.015 C 
HETATM    6  C6  UNL     1     -34.646   5.953   3.371  1.00 20.00    -0.015 C 
HETATM    7  C7  UNL     1     -33.395   3.923   4.406  1.00 20.00     0.010 C 
HETATM    8  C8  UNL     1     -35.493   5.961   4.643  1.00 20.00     0.010 C 
ENDROOT
BRANCH   4   9
HETATM    9  C9  UNL     1     -31.720   8.076   2.076  1.00 20.00     0.020 C 
BRANCH   9  10
HETATM   10  C10 UNL     1     -31.362   8.873   0.831  1.00 20.00     0.115 C 
HETATM   11 CL11 UNL     1     -32.616  10.065   0.414  1.00 20.00    -0.130 Cl
ENDBRANCH   9  10
ENDBRANCH   4   9
TORSDOF 2
ENDMDL
MODEL 3
REMARK VINA RESULT:      -0.8      3.163      4.784
REMARK  2 active torsions:
REMARK  status: ('A' for Active; 'I' for Inactive)
REMARK    1  A    between atoms: C4_4  and  C9_9 
REMARK    2  A    between atoms: C9_9  and  C10_10 
ROOT
HETATM    1  C1  UNL     1     -35.199   6.657   3.861  1.00 20.00     0.005 C 
HETATM    2  C2  UNL     1     -34.131   7.682   4.218  1.00 20.00     0.005 C 
HETATM    3  C3  UNL     1     -33.204   5.476   2.772  1.00 20.00     0.009 C 
HETATM    4  C4  UNL     1     -34.584   5.312   3.436  1.00 20.00    -0.013 C 
HETATM    5  C5  UNL     1     -33.205   8.006   3.026  1.00 20.00    -0.015 C 
HETATM    6  C6  UNL     1     -33.091   6.815   2.033  1.00 20.00    -0.015 C 
HETATM    7  C7  UNL     1     -31.867   8.523   3.563  1.00 20.00     0.010 C 
HETATM    8  C8  UNL     1     -31.842   6.849   1.152  1.00 20.00     0.010 C 
ENDROOT
BRANCH   4   9
HETATM    9  C9  UNL     1     -34.491   4.341   4.614  1.00 20.00     0.020 C 
BRANCH   9  10
HETATM   10  C10 UNL     1     -33.466   3.237   4.403  1.00 20.00     0.115 C 
HETATM   11 CL11 UNL     1     -32.454   2.978   5.843  1.00 20.00    -0.130 Cl
ENDBRANCH   9  10
ENDBRANCH   4   9
TORSDOF 2
ENDMDL
MODEL 4
REMARK VINA RESULT:       0.2      2.985      4.675
REMARK  2 active torsions:
REMARK  status: ('A' for Active; 'I' for Inactive)
REMARK    1  A    between atoms: C4_4  and  C9_9 
REMARK    2  A    between atoms: C9_9  and  C10_10 
ROOT
HETATM    1  C1  UNL     1     -34.521   6.457   3.503  1.00 20.00     0.005 C 
HETATM    2  C2  UNL     1     -33.570   7.418   4.204  1.00 20.00     0.005 C 
HETATM    3  C3  UNL     1     -32.608   6.360   1.803  1.00 20.00     0.009 C 
HETATM    4  C4  UNL     1     -33.801   5.618   2.433  1.00 20.00    -0.013 C 
HETATM    5  C5  UNL     1     -32.940   8.437   3.230  1.00 20.00    -0.015 C 
HETATM    6  C6  UNL     1     -32.834   7.876   1.784  1.00 20.00    -0.015 C 
HETATM    7  C7  UNL     1     -31.617   8.936   3.822  1.00 20.00     0.010 C 
HETATM    8  C8  UNL     1     -31.789   8.575   0.914  1.00 20.00     0.010 C 
ENDROOT
BRANCH   4   9
HETATM    9  C9  UNL     1     -33.349   4.268   2.991  1.00 20.00     0.020 C 
BRANCH   9  10
HETATM   10  C10 UNL     1     -33.990   3.925   4.327  1.00 20.00     0.115 C 
HETATM   11 CL11 UNL     1     -32.969   2.844   5.303  1.00 20.00    -0.130 Cl
ENDBRANCH   9  10
ENDBRANCH   4   9
TORSDOF 2
ENDMDL
MODEL 5
REMARK VINA RESULT:       0.9      2.725      4.787
REMARK  2 active torsions:
REMARK  status: ('A' for Active; 'I' for Inactive)
REMARK    1  A    between atoms: C4_4  and  C9_9 
REMARK    2  A    between atoms: C9_9  and  C10_10 
ROOT
HETATM    1  C1  UNL     1     -33.079   5.766   1.937  1.00 20.00     0.005 C 
HETATM    2  C2  UNL     1     -33.063   6.910   0.933  1.00 20.00     0.005 C 
HETATM    3  C3  UNL     1     -33.076   7.703   3.613  1.00 20.00     0.009 C 
HETATM    4  C4  UNL     1     -33.485   6.243   3.343  1.00 20.00    -0.013 C 
HETATM    5  C5  UNL     1     -32.046   8.009   1.309  1.00 20.00    -0.015 C 
HETATM    6  C6  UNL     1     -31.805   8.083   2.843  1.00 20.00    -0.015 C 
HETATM    7  C7  UNL     1     -32.480   9.330   0.665  1.00 20.00     0.010 C 
HETATM    8  C8  UNL     1     -31.252   9.423   3.329  1.00 20.00     0.010 C 
ENDROOT
BRANCH   4   9
HETATM    9  C9  UNL     1     -34.984   6.061   3.585  1.00 20.00     0.020 C 
BRANCH   9  10
HETATM   10  C10 UNL     1     -35.306   4.898   4.511  1.00 20.00     0.115 C 
HETATM   11 CL11 UNL     1     -34.007   3.682   4.537  1.00 20.00    -0.130 Cl
ENDBRANCH   9  10
ENDBRANCH   4   9
TORSDOF 2
ENDMDL
