MODEL 1
REMARK VINA RESULT:      -1.9      0.000      0.000
REMARK  3 active torsions:
REMARK  status: ('A' for Active; 'I' for Inactive)
REMARK    1  A    between atoms: C2_2  and  C3_3 
REMARK    2  A    between atoms: C2_2  and  S8_8 
REMARK    3  A    between atoms: C3_3  and  C4_4 
ROOT
HETATM    1  C3  UNL     1     -33.188   7.178   1.946  1.00 20.00     0.174 C 
HETATM    2 BR9  UNL     1     -34.034   7.221   3.730  1.00 20.00    -0.081 Br
ENDROOT
BRANCH   1   3
HETATM    3  C2  UNL     1     -32.000   8.139   1.979  1.00 20.00     0.098 C 
BRANCH   3   4
HETATM    4  S8  UNL     1     -31.600   8.823   0.343  1.00 20.00    -0.172 SA
HETATM    5  C1  UNL     1     -32.658  10.288   0.407  1.00 20.00     0.089 C 
ENDBRANCH   3   4
ENDBRANCH   1   3
BRANCH   1   6
HETATM    6  C4  UNL     1     -32.836   5.732   1.641  1.00 20.00     0.401 C 
HETATM    7  F5  UNL     1     -31.508   5.567   1.452  1.00 20.00    -0.170 F 
HETATM    8  F6  UNL     1     -33.470   5.298   0.528  1.00 20.00    -0.170 F 
HETATM    9  F7  UNL     1     -33.208   4.909   2.647  1.00 20.00    -0.170 F 
ENDBRANCH   1   6
TORSDOF 3
ENDMDL
MODEL 2
REMARK VINA RESULT:      -1.7      2.899      3.487
REMARK  3 active torsions:
REMARK  status: ('A' for Active; 'I' for Inactive)
REMARK    1  A    between atoms: C2_2  and  C3_3 
REMARK    2  A    between atoms: C2_2  and  S8_8 
REMARK    3  A    between atoms: C3_3  and  C4_4 
ROOT
HETATM    1  C3  UNL     1     -33.720   5.693   3.485  1.00 20.00     0.174 C 
HETATM    2 BR9  UNL     1     -33.772   3.835   4.150  1.00 20.00    -0.081 Br
ENDROOT
BRANCH   1   3
HETATM    3  C2  UNL     1     -33.588   5.632   1.964  1.00 20.00     0.098 C 
BRANCH   3   4
HETATM    4  S8  UNL     1     -31.975   6.227   1.370  1.00 20.00    -0.172 SA
HETATM    5  C1  UNL     1     -32.134   7.955   1.877  1.00 20.00     0.089 C 
ENDBRANCH   3   4
ENDBRANCH   1   3
BRANCH   1   6
HETATM    6  C4  UNL     1     -34.967   6.397   3.994  1.00 20.00     0.401 C 
HETATM    7  F5  UNL     1     -34.667   7.533   4.660  1.00 20.00    -0.170 F 
HETATM    8  F6  UNL     1     -35.673   5.601   4.828  1.00 20.00    -0.170 F 
HETATM    9  F7  UNL     1     -35.795   6.729   2.979  1.00 20.00    -0.170 F 
ENDBRANCH   1   6
TORSDOF 3
ENDMDL
MODEL 3
REMARK VINA RESULT:      -1.7      2.904      3.477
REMARK  3 active torsions:
REMARK  status: ('A' for Active; 'I' for Inactive)
REMARK    1  A    between atoms: C2_2  and  C3_3 
REMARK    2  A    between atoms: C2_2  and  S8_8 
REMARK    3  A    between atoms: C3_3  and  C4_4 
ROOT
HETATM    1  C3  UNL     1     -33.728   5.694   3.484  1.00 20.00     0.174 C 
HETATM    2 BR9  UNL     1     -33.773   3.835   4.148  1.00 20.00    -0.081 Br
ENDROOT
BRANCH   1   3
HETATM    3  C2  UNL     1     -33.589   5.634   1.963  1.00 20.00     0.098 C 
BRANCH   3   4
HETATM    4  S8  UNL     1     -31.969   6.218   1.378  1.00 20.00    -0.172 SA
HETATM    5  C1  UNL     1     -32.129   7.953   1.863  1.00 20.00     0.089 C 
ENDBRANCH   3   4
ENDBRANCH   1   3
BRANCH   1   6
HETATM    6  C4  UNL     1     -34.980   6.391   3.988  1.00 20.00     0.401 C 
HETATM    7  F5  UNL     1     -35.812   6.724   2.977  1.00 20.00    -0.170 F 
HETATM    8  F6  UNL     1     -34.673   7.523   4.661  1.00 20.00    -0.170 F 
HETATM    9  F7  UNL     1     -35.674   5.606   4.842  1.00 20.00    -0.170 F 
ENDBRANCH   1   6
TORSDOF 3
ENDMDL
MODEL 4
REMARK VINA RESULT:      -1.7      2.898      3.451
REMARK  3 active torsions:
REMARK  status: ('A' for Active; 'I' for Inactive)
REMARK    1  A    between atoms: C2_2  and  C3_3 
REMARK    2  A    between atoms: C2_2  and  S8_8 
REMARK    3  A    between atoms: C3_3  and  C4_4 
ROOT
HETATM    1  C3  UNL     1     -33.723   5.690   3.488  1.00 20.00     0.174 C 
HETATM    2 BR9  UNL     1     -33.765   3.831   4.153  1.00 20.00    -0.081 Br
ENDROOT
BRANCH   1   3
HETATM    3  C2  UNL     1     -33.588   5.630   1.967  1.00 20.00     0.098 C 
BRANCH   3   4
HETATM    4  S8  UNL     1     -31.972   6.222   1.378  1.00 20.00    -0.172 SA
HETATM    5  C1  UNL     1     -32.133   7.952   1.876  1.00 20.00     0.089 C 
ENDBRANCH   3   4
ENDBRANCH   1   3
BRANCH   1   6
HETATM    6  C4  UNL     1     -34.975   6.386   3.995  1.00 20.00     0.401 C 
HETATM    7  F5  UNL     1     -35.683   5.600   4.835  1.00 20.00    -0.170 F 
HETATM    8  F6  UNL     1     -35.788   6.736   2.972  1.00 20.00    -0.170 F 
HETATM    9  F7  UNL     1     -34.674   7.523   4.660  1.00 20.00    -0.170 F 
ENDBRANCH   1   6
TORSDOF 3
ENDMDL
MODEL 5
REMARK VINA RESULT:      -1.7      3.119      4.078
REMARK  3 active torsions:
REMARK  status: ('A' for Active; 'I' for Inactive)
REMARK    1  A    between atoms: C2_2  and  C3_3 
REMARK    2  A    between atoms: C2_2  and  S8_8 
REMARK    3  A    between atoms: C3_3  and  C4_4 
ROOT
HETATM    1  C3  UNL     1     -33.214   7.273   2.160  1.00 20.00     0.174 C 
HETATM    2 BR9  UNL     1     -32.773   5.512   1.386  1.00 20.00    -0.081 Br
ENDROOT
BRANCH   1   3
HETATM    3  C2  UNL     1     -33.563   7.052   3.632  1.00 20.00     0.098 C 
BRANCH   3   4
HETATM    4  S8  UNL     1     -35.182   6.258   3.863  1.00 20.00    -0.172 SA
HETATM    5  C1  UNL     1     -34.600   4.628   4.383  1.00 20.00     0.089 C 
ENDBRANCH   3   4
ENDBRANCH   1   3
BRANCH   1   6
HETATM    6  C4  UNL     1     -32.030   8.193   1.912  1.00 20.00     0.401 C 
HETATM    7  F5  UNL     1     -32.382   9.284   1.197  1.00 20.00    -0.170 F 
HETATM    8  F6  UNL     1     -31.048   7.554   1.237  1.00 20.00    -0.170 F 
HETATM    9  F7  UNL     1     -31.488   8.625   3.072  1.00 20.00    -0.170 F 
ENDBRANCH   1   6
TORSDOF 3
ENDMDL
MODEL 6
REMARK VINA RESULT:      -1.7      3.119      4.078
REMARK  3 active torsions:
REMARK  status: ('A' for Active; 'I' for Inactive)
REMARK    1  A    between atoms: C2_2  and  C3_3 
REMARK    2  A    between atoms: C2_2  and  S8_8 
REMARK    3  A    between atoms: C3_3  and  C4_4 
ROOT
HETATM    1  C3  UNL     1     -33.208   7.277   2.167  1.00 20.00     0.174 C 
HETATM    2 BR9  UNL     1     -32.769   5.512   1.399  1.00 20.00    -0.081 Br
ENDROOT
BRANCH   1   3
HETATM    3  C2  UNL     1     -33.565   7.061   3.637  1.00 20.00     0.098 C 
BRANCH   3   4
HETATM    4  S8  UNL     1     -35.190   6.277   3.862  1.00 20.00    -0.172 SA
HETATM    5  C1  UNL     1     -34.620   4.644   4.386  1.00 20.00     0.089 C 
ENDBRANCH   3   4
ENDBRANCH   1   3
BRANCH   1   6
HETATM    6  C4  UNL     1     -32.019   8.192   1.922  1.00 20.00     0.401 C 
HETATM    7  F5  UNL     1     -31.469   8.622   3.079  1.00 20.00    -0.170 F 
HETATM    8  F6  UNL     1     -32.379   9.280   1.204  1.00 20.00    -0.170 F 
HETATM    9  F7  UNL     1     -31.050   7.565   1.220  1.00 20.00    -0.170 F 
ENDBRANCH   1   6
TORSDOF 3
ENDMDL
MODEL 7
REMARK VINA RESULT:      -1.5      2.355      2.771
REMARK  3 active torsions:
REMARK  status: ('A' for Active; 'I' for Inactive)
REMARK    1  A    between atoms: C2_2  and  C3_3 
REMARK    2  A    between atoms: C2_2  and  S8_8 
REMARK    3  A    between atoms: C3_3  and  C4_4 
ROOT
HETATM    1  C3  UNL     1     -33.152   6.821   3.111  1.00 20.00     0.174 C 
HETATM    2 BR9  UNL     1     -33.057   5.632   1.538  1.00 20.00    -0.081 Br
ENDROOT
BRANCH   1   3
HETATM    3  C2  UNL     1     -32.901   8.248   2.622  1.00 20.00     0.098 C 
BRANCH   3   4
HETATM    4  S8  UNL     1     -31.798   8.316   1.178  1.00 20.00    -0.172 SA
HETATM    5  C1  UNL     1     -32.468   9.810   0.411  1.00 20.00     0.089 C 
ENDBRANCH   3   4
ENDBRANCH   1   3
BRANCH   1   6
HETATM    6  C4  UNL     1     -34.500   6.597   3.774  1.00 20.00     0.401 C 
HETATM    7  F5  UNL     1     -34.669   7.393   4.852  1.00 20.00    -0.170 F 
HETATM    8  F6  UNL     1     -34.638   5.314   4.181  1.00 20.00    -0.170 F 
HETATM    9  F7  UNL     1     -35.518   6.846   2.922  1.00 20.00    -0.170 F 
ENDBRANCH   1   6
TORSDOF 3
ENDMDL
MODEL 8
REMARK VINA RESULT:      -1.0      2.269      2.746
REMARK  3 active torsions:
REMARK  status: ('A' for Active; 'I' for Inactive)
REMARK    1  A    between atoms: C2_2  and  C3_3 
REMARK    2  A    between atoms: C2_2  and  S8_8 
REMARK    3  A    between atoms: C3_3  and  C4_4 
ROOT
HETATM    1  C3  UNL     1     -34.067   7.432   3.227  1.00 20.00     0.174 C 
HETATM    2 BR9  UNL     1     -32.965   8.235   4.655  1.00 20.00    -0.081 Br
ENDROOT
BRANCH   1   3
HETATM    3  C2  UNL     1     -33.113   6.854   2.182  1.00 20.00     0.098 C 
BRANCH   3   4
HETATM    4  S8  UNL     1     -31.674   7.922   1.872  1.00 20.00    -0.172 SA
HETATM    5  C1  UNL     1     -32.473   9.123   0.781  1.00 20.00     0.089 C 
ENDBRANCH   3   4
ENDBRANCH   1   3
BRANCH   1   6
HETATM    6  C4  UNL     1     -34.995   6.421   3.878  1.00 20.00     0.401 C 
HETATM    7  F5  UNL     1     -34.485   5.171   3.839  1.00 20.00    -0.170 F 
HETATM    8  F6  UNL     1     -36.200   6.396   3.264  1.00 20.00    -0.170 F 
HETATM    9  F7  UNL     1     -35.226   6.725   5.175  1.00 20.00    -0.170 F 
ENDBRANCH   1   6
TORSDOF 3
ENDMDL
MODEL 9
REMARK VINA RESULT:      -1.0      2.269      2.965
REMARK  3 active torsions:
REMARK  status: ('A' for Active; 'I' for Inactive)
REMARK    1  A    between atoms: C2_2  and  C3_3 
REMARK    2  A    between atoms: C2_2  and  S8_8 
REMARK    3  A    between atoms: C3_3  and  C4_4 
ROOT
HETATM    1  C3  UNL     1     -34.066   7.443   3.228  1.00 20.00     0.174 C 
HETATM    2 BR9  UNL     1     -32.960   8.239   4.657  1.00 20.00    -0.081 Br
ENDROOT
BRANCH   1   3
HETATM    3  C2  UNL     1     -33.114   6.862   2.183  1.00 20.00     0.098 C 
BRANCH   3   4
HETATM    4  S8  UNL     1     -31.673   7.926   1.870  1.00 20.00    -0.172 SA
HETATM    5  C1  UNL     1     -32.471   9.128   0.780  1.00 20.00     0.089 C 
ENDBRANCH   3   4
ENDBRANCH   1   3
BRANCH   1   6
HETATM    6  C4  UNL     1     -34.999   6.435   3.878  1.00 20.00     0.401 C 
HETATM    7  F5  UNL     1     -36.200   6.391   3.261  1.00 20.00    -0.170 F 
HETATM    8  F6  UNL     1     -35.212   6.734   5.180  1.00 20.00    -0.170 F 
HETATM    9  F7  UNL     1     -34.480   5.188   3.845  1.00 20.00    -0.170 F 
ENDBRANCH   1   6
TORSDOF 3
ENDMDL
