MODEL 1
REMARK VINA RESULT:      -0.9      0.000      0.000
REMARK  1 active torsions:
REMARK  status: ('A' for Active; 'I' for Inactive)
REMARK    1  A    between atoms: C7_7  and  C8_8 
ROOT
HETATM    1  C1  UNL     1     -34.665   6.279   3.775  1.00 20.00     0.064 C 
HETATM    2  C2  UNL     1     -33.223   6.422   1.715  1.00 20.00     0.020 C 
HETATM    3  C3  UNL     1     -33.047   8.190   3.509  1.00 20.00     0.020 C 
HETATM    4  C4  UNL     1     -31.891   6.885   1.123  1.00 20.00     0.015 C 
HETATM    5  C5  UNL     1     -31.713   8.657   2.922  1.00 20.00     0.015 C 
HETATM    6  C6  UNL     1     -33.307   6.707   3.219  1.00 20.00     0.093 C 
HETATM    7  C7  UNL     1     -31.578   8.355   1.425  1.00 20.00     0.093 C 
HETATM    8  N9  UNL     1     -35.695   5.956   4.196  1.00 20.00    -0.197 NA
ENDROOT
BRANCH   7   9
HETATM    9  C8  UNL     1     -32.435   9.252   0.625  1.00 20.00     0.391 C 
HETATM   10  F10 UNL     1     -31.683  10.175   0.008  1.00 20.00    -0.171 F 
HETATM   11  F11 UNL     1     -33.103   8.546  -0.298  1.00 20.00    -0.171 F 
HETATM   12  F12 UNL     1     -33.318   9.873   1.421  1.00 20.00    -0.171 F 
ENDBRANCH   7   9
TORSDOF 1
ENDMDL
MODEL 2
REMARK VINA RESULT:      -0.9      0.002      1.092
REMARK  1 active torsions:
REMARK  status: ('A' for Active; 'I' for Inactive)
REMARK    1  A    between atoms: C7_7  and  C8_8 
ROOT
HETATM    1  C1  UNL     1     -34.665   6.280   3.774  1.00 20.00     0.064 C 
HETATM    2  C2  UNL     1     -33.225   6.422   1.713  1.00 20.00     0.020 C 
HETATM    3  C3  UNL     1     -33.045   8.189   3.508  1.00 20.00     0.020 C 
HETATM    4  C4  UNL     1     -31.892   6.884   1.121  1.00 20.00     0.015 C 
HETATM    5  C5  UNL     1     -31.712   8.655   2.920  1.00 20.00     0.015 C 
HETATM    6  C6  UNL     1     -33.307   6.707   3.218  1.00 20.00     0.093 C 
HETATM    7  C7  UNL     1     -31.578   8.354   1.423  1.00 20.00     0.093 C 
HETATM    8  N9  UNL     1     -35.696   5.957   4.195  1.00 20.00    -0.197 NA
ENDROOT
BRANCH   7   9
HETATM    9  C8  UNL     1     -32.434   9.251   0.624  1.00 20.00     0.391 C 
HETATM   10  F10 UNL     1     -33.104   8.546  -0.299  1.00 20.00    -0.171 F 
HETATM   11  F11 UNL     1     -33.315   9.875   1.420  1.00 20.00    -0.171 F 
HETATM   12  F12 UNL     1     -31.681  10.172   0.005  1.00 20.00    -0.171 F 
ENDBRANCH   7   9
TORSDOF 1
ENDMDL
MODEL 3
REMARK VINA RESULT:      -0.5      3.134      4.426
REMARK  1 active torsions:
REMARK  status: ('A' for Active; 'I' for Inactive)
REMARK    1  A    between atoms: C7_7  and  C8_8 
ROOT
HETATM    1  C1  UNL     1     -32.298   9.133   0.654  1.00 20.00     0.064 C 
HETATM    2  C2  UNL     1     -32.647   8.497   3.066  1.00 20.00     0.020 C 
HETATM    3  C3  UNL     1     -33.122   6.825   1.233  1.00 20.00     0.020 C 
HETATM    4  C4  UNL     1     -32.641   7.369   4.098  1.00 20.00     0.015 C 
HETATM    5  C5  UNL     1     -33.117   5.693   2.263  1.00 20.00     0.015 C 
HETATM    6  C6  UNL     1     -32.238   7.997   1.675  1.00 20.00     0.093 C 
HETATM    7  C7  UNL     1     -33.487   6.162   3.674  1.00 20.00     0.093 C 
HETATM    8  N9  UNL     1     -32.344   9.994  -0.121  1.00 20.00    -0.197 NA
ENDROOT
BRANCH   7   9
HETATM    9  C8  UNL     1     -34.927   6.468   3.770  1.00 20.00     0.391 C 
HETATM   10  F10 UNL     1     -35.450   6.610   2.542  1.00 20.00    -0.171 F 
HETATM   11  F11 UNL     1     -35.567   5.473   4.403  1.00 20.00    -0.171 F 
HETATM   12  F12 UNL     1     -35.111   7.607   4.454  1.00 20.00    -0.171 F 
ENDBRANCH   7   9
TORSDOF 1
ENDMDL
MODEL 4
REMARK VINA RESULT:      -0.5      3.133      4.428
REMARK  1 active torsions:
REMARK  status: ('A' for Active; 'I' for Inactive)
REMARK    1  A    between atoms: C7_7  and  C8_8 
ROOT
HETATM    1  C1  UNL     1     -32.302   9.134   0.647  1.00 20.00     0.064 C 
HETATM    2  C2  UNL     1     -32.648   8.497   3.059  1.00 20.00     0.020 C 
HETATM    3  C3  UNL     1     -33.119   6.823   1.227  1.00 20.00     0.020 C 
HETATM    4  C4  UNL     1     -32.638   7.369   4.091  1.00 20.00     0.015 C 
HETATM    5  C5  UNL     1     -33.109   5.691   2.256  1.00 20.00     0.015 C 
HETATM    6  C6  UNL     1     -32.238   7.998   1.668  1.00 20.00     0.093 C 
HETATM    7  C7  UNL     1     -33.480   6.159   3.667  1.00 20.00     0.093 C 
HETATM    8  N9  UNL     1     -32.352   9.995  -0.127  1.00 20.00    -0.197 NA
ENDROOT
BRANCH   7   9
HETATM    9  C8  UNL     1     -34.921   6.459   3.764  1.00 20.00     0.391 C 
HETATM   10  F10 UNL     1     -35.109   7.593   4.455  1.00 20.00    -0.171 F 
HETATM   11  F11 UNL     1     -35.443   6.606   2.537  1.00 20.00    -0.171 F 
HETATM   12  F12 UNL     1     -35.558   5.458   4.390  1.00 20.00    -0.171 F 
ENDBRANCH   7   9
TORSDOF 1
ENDMDL
MODEL 5
REMARK VINA RESULT:      -0.5      2.200      3.041
REMARK  1 active torsions:
REMARK  status: ('A' for Active; 'I' for Inactive)
REMARK    1  A    between atoms: C7_7  and  C8_8 
ROOT
HETATM    1  C1  UNL     1     -33.411   3.687   4.335  1.00 20.00     0.064 C 
HETATM    2  C2  UNL     1     -34.051   6.095   3.969  1.00 20.00     0.020 C 
HETATM    3  C3  UNL     1     -32.827   4.821   2.164  1.00 20.00     0.020 C 
HETATM    4  C4  UNL     1     -34.442   7.167   2.950  1.00 20.00     0.015 C 
HETATM    5  C5  UNL     1     -33.216   5.890   1.142  1.00 20.00     0.015 C 
HETATM    6  C6  UNL     1     -33.847   4.728   3.305  1.00 20.00     0.093 C 
HETATM    7  C7  UNL     1     -33.463   7.265   1.775  1.00 20.00     0.093 C 
HETATM    8  N9  UNL     1     -33.079   2.898   5.117  1.00 20.00    -0.197 NA
ENDROOT
BRANCH   7   9
HETATM    9  C8  UNL     1     -32.194   7.890   2.194  1.00 20.00     0.391 C 
HETATM   10  F10 UNL     1     -32.185   8.062   3.524  1.00 20.00    -0.171 F 
HETATM   11  F11 UNL     1     -31.161   7.108   1.849  1.00 20.00    -0.171 F 
HETATM   12  F12 UNL     1     -32.053   9.085   1.601  1.00 20.00    -0.171 F 
ENDBRANCH   7   9
TORSDOF 1
ENDMDL
MODEL 6
REMARK VINA RESULT:       0.1      2.822      3.909
REMARK  1 active torsions:
REMARK  status: ('A' for Active; 'I' for Inactive)
REMARK    1  A    between atoms: C7_7  and  C8_8 
ROOT
HETATM    1  C1  UNL     1     -33.392   3.106   4.556  1.00 20.00     0.064 C 
HETATM    2  C2  UNL     1     -34.922   5.105   4.585  1.00 20.00     0.020 C 
HETATM    3  C3  UNL     1     -32.974   5.024   2.979  1.00 20.00     0.020 C 
HETATM    4  C4  UNL     1     -35.548   6.241   3.773  1.00 20.00     0.015 C 
HETATM    5  C5  UNL     1     -33.596   6.160   2.164  1.00 20.00     0.015 C 
HETATM    6  C6  UNL     1     -34.041   4.202   3.713  1.00 20.00     0.093 C 
HETATM    7  C7  UNL     1     -34.513   7.064   2.996  1.00 20.00     0.093 C 
HETATM    8  N9  UNL     1     -32.898   2.274   5.196  1.00 20.00    -0.197 NA
ENDROOT
BRANCH   7   9
HETATM    9  C8  UNL     1     -33.729   7.921   3.904  1.00 20.00     0.391 C 
HETATM   10  F10 UNL     1     -33.547   7.300   5.079  1.00 20.00    -0.171 F 
HETATM   11  F11 UNL     1     -32.532   8.190   3.364  1.00 20.00    -0.171 F 
HETATM   12  F12 UNL     1     -34.378   9.076   4.120  1.00 20.00    -0.171 F 
ENDBRANCH   7   9
TORSDOF 1
ENDMDL
MODEL 7
REMARK VINA RESULT:       1.2      3.073      4.419
REMARK  1 active torsions:
REMARK  status: ('A' for Active; 'I' for Inactive)
REMARK    1  A    between atoms: C7_7  and  C8_8 
ROOT
HETATM    1  C1  UNL     1     -32.358   9.500   0.032  1.00 20.00     0.064 C 
HETATM    2  C2  UNL     1     -32.733   9.108   2.491  1.00 20.00     0.020 C 
HETATM    3  C3  UNL     1     -32.470   7.147   0.921  1.00 20.00     0.020 C 
HETATM    4  C4  UNL     1     -32.478   8.188   3.687  1.00 20.00     0.015 C 
HETATM    5  C5  UNL     1     -32.214   6.223   2.114  1.00 20.00     0.015 C 
HETATM    6  C6  UNL     1     -32.048   8.590   1.220  1.00 20.00     0.093 C 
HETATM    7  C7  UNL     1     -32.854   6.727   3.412  1.00 20.00     0.093 C 
HETATM    8  N9  UNL     1     -32.594  10.189  -0.869  1.00 20.00    -0.197 NA
ENDROOT
BRANCH   7   9
HETATM    9  C8  UNL     1     -34.319   6.556   3.381  1.00 20.00     0.391 C 
HETATM   10  F10 UNL     1     -34.665   5.434   4.029  1.00 20.00    -0.171 F 
HETATM   11  F11 UNL     1     -34.916   7.602   3.973  1.00 20.00    -0.171 F 
HETATM   12  F12 UNL     1     -34.745   6.474   2.112  1.00 20.00    -0.171 F 
ENDBRANCH   7   9
TORSDOF 1
ENDMDL
MODEL 8
REMARK VINA RESULT:       1.7      1.841      2.626
REMARK  1 active torsions:
REMARK  status: ('A' for Active; 'I' for Inactive)
REMARK    1  A    between atoms: C7_7  and  C8_8 
ROOT
HETATM    1  C1  UNL     1     -34.590   4.941   4.253  1.00 20.00     0.064 C 
HETATM    2  C2  UNL     1     -33.945   7.325   3.763  1.00 20.00     0.020 C 
HETATM    3  C3  UNL     1     -33.596   5.533   2.017  1.00 20.00     0.020 C 
HETATM    4  C4  UNL     1     -33.781   8.404   2.691  1.00 20.00     0.015 C 
HETATM    5  C5  UNL     1     -33.432   6.610   0.942  1.00 20.00     0.015 C 
HETATM    6  C6  UNL     1     -34.482   6.015   3.172  1.00 20.00     0.093 C 
HETATM    7  C7  UNL     1     -32.930   7.946   1.501  1.00 20.00     0.093 C 
HETATM    8  N9  UNL     1     -34.672   4.125   5.073  1.00 20.00    -0.197 NA
ENDROOT
BRANCH   7   9
HETATM    9  C8  UNL     1     -31.505   7.862   1.871  1.00 20.00     0.391 C 
HETATM   10  F10 UNL     1     -31.153   6.582   2.059  1.00 20.00    -0.171 F 
HETATM   11  F11 UNL     1     -30.746   8.385   0.897  1.00 20.00    -0.171 F 
HETATM   12  F12 UNL     1     -31.285   8.543   3.006  1.00 20.00    -0.171 F 
ENDBRANCH   7   9
TORSDOF 1
ENDMDL
MODEL 9
REMARK VINA RESULT:       1.9      2.978      3.993
REMARK  1 active torsions:
REMARK  status: ('A' for Active; 'I' for Inactive)
REMARK    1  A    between atoms: C7_7  and  C8_8 
ROOT
HETATM    1  C1  UNL     1     -31.981   5.123   1.122  1.00 20.00     0.064 C 
HETATM    2  C2  UNL     1     -33.646   5.674   2.929  1.00 20.00     0.020 C 
HETATM    3  C3  UNL     1     -32.297   7.514   1.845  1.00 20.00     0.020 C 
HETATM    4  C4  UNL     1     -34.618   6.713   3.490  1.00 20.00     0.015 C 
HETATM    5  C5  UNL     1     -33.267   8.557   2.404  1.00 20.00     0.015 C 
HETATM    6  C6  UNL     1     -32.982   6.158   1.634  1.00 20.00     0.093 C 
HETATM    7  C7  UNL     1     -33.978   8.094   3.680  1.00 20.00     0.093 C 
HETATM    8  N9  UNL     1     -31.221   4.338   0.734  1.00 20.00    -0.197 NA
ENDROOT
BRANCH   7   9
HETATM    9  C8  UNL     1     -33.054   8.093   4.830  1.00 20.00     0.391 C 
HETATM   10  F10 UNL     1     -33.615   8.729   5.870  1.00 20.00    -0.171 F 
HETATM   11  F11 UNL     1     -32.770   6.833   5.192  1.00 20.00    -0.171 F 
HETATM   12  F12 UNL     1     -31.914   8.719   4.503  1.00 20.00    -0.171 F 
ENDBRANCH   7   9
TORSDOF 1
ENDMDL
