MODEL 1
REMARK VINA RESULT:       0.2      0.000      0.000
REMARK  3 active torsions:
REMARK  status: ('A' for Active; 'I' for Inactive)
REMARK    1  A    between atoms: C1_1  and  C12_12 
REMARK    2  A    between atoms: C5_5  and  C11_11 
REMARK    3  A    between atoms: C11_11  and  C12_12 
ROOT
HETATM    1  C2  UNL     1     -32.179   6.270   1.189  1.00 20.00     0.005 C 
HETATM    2  C3  UNL     1     -32.543   5.002   1.963  1.00 20.00     0.005 C 
HETATM    3  C4  UNL     1     -33.270   7.776   2.897  1.00 20.00     0.009 C 
HETATM    4  C5  UNL     1     -31.980   7.465   2.118  1.00 20.00    -0.013 C 
HETATM    5  C6  UNL     1     -33.278   5.265   3.294  1.00 20.00    -0.015 C 
HETATM    6  C7  UNL     1     -34.145   6.537   3.188  1.00 20.00    -0.015 C 
HETATM    7  C8  UNL     1     -34.063   4.016   3.699  1.00 20.00     0.010 C 
HETATM    8  C9  UNL     1     -35.007   6.799   4.425  1.00 20.00     0.010 C 
ENDROOT
BRANCH   4   9
HETATM    9  C11 UNL     1     -31.499   8.694   1.349  1.00 20.00     0.015 C 
BRANCH   9  10
HETATM   10  C12 UNL     1     -32.658   9.531   0.803  1.00 20.00     0.043 C 
HETATM   11  C10 UNL     1     -32.543  10.978   1.277  1.00 20.00     0.017 C 
BRANCH  10  12
HETATM   12  C1  UNL     1     -32.720   9.545  -0.715  1.00 20.00     0.235 C 
HETATM   13  O13 UNL     1     -33.088  10.497  -1.396  1.00 20.00    -0.306 OA
ENDBRANCH  10  12
ENDBRANCH   9  10
ENDBRANCH   4   9
TORSDOF 3
ENDMDL
MODEL 2
REMARK VINA RESULT:       0.6      1.196      2.509
REMARK  3 active torsions:
REMARK  status: ('A' for Active; 'I' for Inactive)
REMARK    1  A    between atoms: C1_1  and  C12_12 
REMARK    2  A    between atoms: C5_5  and  C11_11 
REMARK    3  A    between atoms: C11_11  and  C12_12 
ROOT
HETATM    1  C2  UNL     1     -33.865   7.253   3.218  1.00 20.00     0.005 C 
HETATM    2  C3  UNL     1     -35.010   6.672   4.051  1.00 20.00     0.005 C 
HETATM    3  C4  UNL     1     -32.877   4.975   2.759  1.00 20.00     0.009 C 
HETATM    4  C5  UNL     1     -33.400   6.281   2.137  1.00 20.00    -0.013 C 
HETATM    5  C6  UNL     1     -35.008   5.131   4.136  1.00 20.00    -0.015 C 
HETATM    6  C7  UNL     1     -33.563   4.591   4.088  1.00 20.00    -0.015 C 
HETATM    7  C8  UNL     1     -35.790   4.688   5.374  1.00 20.00     0.010 C 
HETATM    8  C9  UNL     1     -33.464   3.078   4.295  1.00 20.00     0.010 C 
ENDROOT
BRANCH   4   9
HETATM    9  C11 UNL     1     -32.343   6.916   1.235  1.00 20.00     0.015 C 
BRANCH   9  10
HETATM   10  C12 UNL     1     -32.180   8.416   1.494  1.00 20.00     0.043 C 
HETATM   11  C10 UNL     1     -31.004   8.672   2.432  1.00 20.00     0.017 C 
BRANCH  10  12
HETATM   12  C1  UNL     1     -31.944   9.218   0.225  1.00 20.00     0.235 C 
HETATM   13  O13 UNL     1     -32.753   9.986  -0.283  1.00 20.00    -0.306 OA
ENDBRANCH  10  12
ENDBRANCH   9  10
ENDBRANCH   4   9
TORSDOF 3
ENDMDL
MODEL 3
REMARK VINA RESULT:       0.9      1.170      2.362
REMARK  3 active torsions:
REMARK  status: ('A' for Active; 'I' for Inactive)
REMARK    1  A    between atoms: C1_1  and  C12_12 
REMARK    2  A    between atoms: C5_5  and  C11_11 
REMARK    3  A    between atoms: C11_11  and  C12_12 
ROOT
HETATM    1  C2  UNL     1     -32.820   8.264   3.421  1.00 20.00     0.005 C 
HETATM    2  C3  UNL     1     -34.086   7.703   4.074  1.00 20.00     0.005 C 
HETATM    3  C4  UNL     1     -32.551   6.248   1.923  1.00 20.00     0.009 C 
HETATM    4  C5  UNL     1     -32.664   7.781   1.981  1.00 20.00    -0.013 C 
HETATM    5  C6  UNL     1     -34.540   6.344   3.504  1.00 20.00    -0.015 C 
HETATM    6  C7  UNL     1     -33.320   5.517   3.045  1.00 20.00    -0.015 C 
HETATM    7  C8  UNL     1     -35.418   5.628   4.532  1.00 20.00     0.010 C 
HETATM    8  C9  UNL     1     -33.674   4.102   2.584  1.00 20.00     0.010 C 
ENDROOT
BRANCH   4   9
HETATM    9  C11 UNL     1     -31.467   8.441   1.300  1.00 20.00     0.015 C 
BRANCH   9  10
HETATM   10  C12 UNL     1     -31.886   9.525   0.303  1.00 20.00     0.043 C 
HETATM   11  C10 UNL     1     -32.604   8.903  -0.892  1.00 20.00     0.017 C 
BRANCH  10  12
HETATM   12  C1  UNL     1     -32.812  10.565   0.909  1.00 20.00     0.235 C 
HETATM   13  O13 UNL     1     -32.469  11.686   1.271  1.00 20.00    -0.306 OA
ENDBRANCH  10  12
ENDBRANCH   9  10
ENDBRANCH   4   9
TORSDOF 3
ENDMDL
MODEL 4
REMARK VINA RESULT:       1.4      1.236      2.244
REMARK  3 active torsions:
REMARK  status: ('A' for Active; 'I' for Inactive)
REMARK    1  A    between atoms: C1_1  and  C12_12 
REMARK    2  A    between atoms: C5_5  and  C11_11 
REMARK    3  A    between atoms: C11_11  and  C12_12 
ROOT
HETATM    1  C2  UNL     1     -33.377   8.104   3.611  1.00 20.00     0.005 C 
HETATM    2  C3  UNL     1     -34.567   7.400   4.268  1.00 20.00     0.005 C 
HETATM    3  C4  UNL     1     -32.755   6.063   2.260  1.00 20.00     0.009 C 
HETATM    4  C5  UNL     1     -33.099   7.562   2.211  1.00 20.00    -0.013 C 
HETATM    5  C6  UNL     1     -34.791   5.955   3.779  1.00 20.00    -0.015 C 
HETATM    6  C7  UNL     1     -33.446   5.296   3.408  1.00 20.00    -0.015 C 
HETATM    7  C8  UNL     1     -35.588   5.179   4.829  1.00 20.00     0.010 C 
HETATM    8  C9  UNL     1     -33.567   3.817   3.034  1.00 20.00     0.010 C 
ENDROOT
BRANCH   4   9
HETATM    9  C11 UNL     1     -31.990   8.352   1.519  1.00 20.00     0.015 C 
BRANCH   9  10
HETATM   10  C12 UNL     1     -32.528   9.272   0.420  1.00 20.00     0.043 C 
HETATM   11  C10 UNL     1     -32.732  10.686   0.958  1.00 20.00     0.017 C 
BRANCH  10  12
HETATM   12  C1  UNL     1     -31.607   9.363  -0.785  1.00 20.00     0.235 C 
HETATM   13  O13 UNL     1     -30.520   8.803  -0.884  1.00 20.00    -0.306 OA
ENDBRANCH  10  12
ENDBRANCH   9  10
ENDBRANCH   4   9
TORSDOF 3
ENDMDL
MODEL 5
REMARK VINA RESULT:       1.5      1.031      1.570
REMARK  3 active torsions:
REMARK  status: ('A' for Active; 'I' for Inactive)
REMARK    1  A    between atoms: C1_1  and  C12_12 
REMARK    2  A    between atoms: C5_5  and  C11_11 
REMARK    3  A    between atoms: C11_11  and  C12_12 
ROOT
HETATM    1  C2  UNL     1     -32.985   6.079   1.701  1.00 20.00     0.005 C 
HETATM    2  C3  UNL     1     -32.694   4.750   2.403  1.00 20.00     0.005 C 
HETATM    3  C4  UNL     1     -34.492   6.875   3.565  1.00 20.00     0.009 C 
HETATM    4  C5  UNL     1     -33.261   7.199   2.700  1.00 20.00    -0.013 C 
HETATM    5  C6  UNL     1     -33.364   4.607   3.785  1.00 20.00    -0.015 C 
HETATM    6  C7  UNL     1     -34.707   5.366   3.813  1.00 20.00    -0.015 C 
HETATM    7  C8  UNL     1     -33.486   3.125   4.141  1.00 20.00     0.010 C 
HETATM    8  C9  UNL     1     -35.498   5.169   5.108  1.00 20.00     0.010 C 
ENDROOT
BRANCH   4   9
HETATM    9  C11 UNL     1     -33.430   8.544   1.996  1.00 20.00     0.015 C 
BRANCH   9  10
HETATM   10  C12 UNL     1     -32.108   9.085   1.446  1.00 20.00     0.043 C 
HETATM   11  C10 UNL     1     -31.204   7.938   1.003  1.00 20.00     0.017 C 
BRANCH  10  12
HETATM   12  C1  UNL     1     -32.292  10.014   0.258  1.00 20.00     0.235 C 
HETATM   13  O13 UNL     1     -32.944   9.750  -0.747  1.00 20.00    -0.306 OA
ENDBRANCH  10  12
ENDBRANCH   9  10
ENDBRANCH   4   9
TORSDOF 3
ENDMDL
MODEL 6
REMARK VINA RESULT:       2.2      3.300      6.173
REMARK  3 active torsions:
REMARK  status: ('A' for Active; 'I' for Inactive)
REMARK    1  A    between atoms: C1_1  and  C12_12 
REMARK    2  A    between atoms: C5_5  and  C11_11 
REMARK    3  A    between atoms: C11_11  and  C12_12 
ROOT
HETATM    1  C2  UNL     1     -34.501   6.613   3.779  1.00 20.00     0.005 C 
HETATM    2  C3  UNL     1     -33.642   7.769   3.260  1.00 20.00     0.005 C 
HETATM    3  C4  UNL     1     -33.146   4.883   2.535  1.00 20.00     0.009 C 
HETATM    4  C5  UNL     1     -33.698   5.321   3.903  1.00 20.00    -0.013 C 
HETATM    5  C6  UNL     1     -32.465   7.327   2.366  1.00 20.00    -0.015 C 
HETATM    6  C7  UNL     1     -32.836   6.054   1.576  1.00 20.00    -0.015 C 
HETATM    7  C8  UNL     1     -32.031   8.496   1.480  1.00 20.00     0.010 C 
HETATM    8  C9  UNL     1     -31.769   5.621   0.569  1.00 20.00     0.010 C 
ENDROOT
BRANCH   4   9
HETATM    9  C11 UNL     1     -34.530   4.207   4.535  1.00 20.00     0.015 C 
BRANCH   9  10
HETATM   10  C12 UNL     1     -33.663   3.157   5.235  1.00 20.00     0.043 C 
HETATM   11  C10 UNL     1     -33.234   2.073   4.248  1.00 20.00     0.017 C 
BRANCH  10  12
HETATM   12  C1  UNL     1     -32.407   3.740   5.858  1.00 20.00     0.235 C 
HETATM   13  O13 UNL     1     -31.973   3.453   6.969  1.00 20.00    -0.306 OA
ENDBRANCH  10  12
ENDBRANCH   9  10
ENDBRANCH   4   9
TORSDOF 3
ENDMDL
MODEL 7
REMARK VINA RESULT:       2.5      1.832      2.283
REMARK  3 active torsions:
REMARK  status: ('A' for Active; 'I' for Inactive)
REMARK    1  A    between atoms: C1_1  and  C12_12 
REMARK    2  A    between atoms: C5_5  and  C11_11 
REMARK    3  A    between atoms: C11_11  and  C12_12 
ROOT
HETATM    1  C2  UNL     1     -32.897   5.569   1.758  1.00 20.00     0.005 C 
HETATM    2  C3  UNL     1     -32.609   4.338   2.621  1.00 20.00     0.005 C 
HETATM    3  C4  UNL     1     -34.512   6.528   3.447  1.00 20.00     0.009 C 
HETATM    4  C5  UNL     1     -33.248   6.788   2.608  1.00 20.00    -0.013 C 
HETATM    5  C6  UNL     1     -33.343   4.335   3.978  1.00 20.00    -0.015 C 
HETATM    6  C7  UNL     1     -34.703   5.052   3.857  1.00 20.00    -0.015 C 
HETATM    7  C8  UNL     1     -33.447   2.899   4.497  1.00 20.00     0.010 C 
HETATM    8  C9  UNL     1     -35.552   4.981   5.129  1.00 20.00     0.010 C 
ENDROOT
BRANCH   4   9
HETATM    9  C11 UNL     1     -33.415   8.038   1.745  1.00 20.00     0.015 C 
BRANCH   9  10
HETATM   10  C12 UNL     1     -32.091   8.507   1.137  1.00 20.00     0.043 C 
HETATM   11  C10 UNL     1     -32.279   9.836   0.408  1.00 20.00     0.017 C 
BRANCH  10  12
HETATM   12  C1  UNL     1     -30.995   8.698   2.171  1.00 20.00     0.235 C 
HETATM   13  O13 UNL     1     -31.178   8.817   3.378  1.00 20.00    -0.306 OA
ENDBRANCH  10  12
ENDBRANCH   9  10
ENDBRANCH   4   9
TORSDOF 3
ENDMDL
MODEL 8
REMARK VINA RESULT:       2.7      2.684      5.101
REMARK  3 active torsions:
REMARK  status: ('A' for Active; 'I' for Inactive)
REMARK    1  A    between atoms: C1_1  and  C12_12 
REMARK    2  A    between atoms: C5_5  and  C11_11 
REMARK    3  A    between atoms: C11_11  and  C12_12 
ROOT
HETATM    1  C2  UNL     1     -31.864   7.347   2.627  1.00 20.00     0.005 C 
HETATM    2  C3  UNL     1     -31.285   7.419   1.213  1.00 20.00     0.005 C 
HETATM    3  C4  UNL     1     -33.467   9.252   2.201  1.00 20.00     0.009 C 
HETATM    4  C5  UNL     1     -33.324   7.792   2.665  1.00 20.00    -0.013 C 
HETATM    5  C6  UNL     1     -31.947   8.483   0.314  1.00 20.00    -0.015 C 
HETATM    6  C7  UNL     1     -32.415   9.687   1.158  1.00 20.00    -0.015 C 
HETATM    7  C8  UNL     1     -30.991   8.860  -0.819  1.00 20.00     0.010 C 
HETATM    8  C9  UNL     1     -32.969  10.845   0.326  1.00 20.00     0.010 C 
ENDROOT
BRANCH   4   9
HETATM    9  C11 UNL     1     -33.928   7.602   4.056  1.00 20.00     0.015 C 
BRANCH   9  10
HETATM   10  C12 UNL     1     -34.863   6.391   4.126  1.00 20.00     0.043 C 
HETATM   11  C10 UNL     1     -36.062   6.588   3.201  1.00 20.00     0.017 C 
BRANCH  10  12
HETATM   12  C1  UNL     1     -34.184   5.091   3.734  1.00 20.00     0.235 C 
HETATM   13  O13 UNL     1     -34.356   4.011   4.291  1.00 20.00    -0.306 OA
ENDBRANCH  10  12
ENDBRANCH   9  10
ENDBRANCH   4   9
TORSDOF 3
ENDMDL
