MODEL 1
REMARK VINA RESULT:      -1.6      0.000      0.000
REMARK  0 active torsions:
REMARK  status: ('A' for Active; 'I' for Inactive)
ROOT
HETATM    1  C1  UNL     1     -32.243   9.628   0.418  1.00 20.00     0.088 C 
HETATM    2  C2  UNL     1     -32.339   7.665   1.810  1.00 20.00    -0.070 C 
HETATM    3  C3  UNL     1     -32.115   8.231   0.615  1.00 20.00     0.096 C 
HETATM    4  C4  UNL     1     -32.738   8.475   3.017  1.00 20.00     0.035 C 
HETATM    5  C5  UNL     1     -32.254   6.183   2.032  1.00 20.00     0.039 C 
HETATM    6  C6  UNL     1     -33.548   7.652   4.028  1.00 20.00     0.009 C 
HETATM    7  C7  UNL     1     -33.601   5.595   2.514  1.00 20.00    -0.011 C 
HETATM    8  C8  UNL     1     -34.446   6.621   3.328  1.00 20.00    -0.014 C 
HETATM    9  C9  UNL     1     -33.326   4.272   3.241  1.00 20.00     0.010 C 
HETATM   10  C10 UNL     1     -35.428   5.993   4.318  1.00 20.00     0.010 C 
HETATM   11  N11 UNL     1     -32.346  10.772   0.249  1.00 20.00    -0.192 NA
ENDROOT
TORSDOF 0
ENDMDL
