MODEL 1
REMARK VINA RESULT:      -2.0      0.000      0.000
REMARK  1 active torsions:
REMARK  status: ('A' for Active; 'I' for Inactive)
REMARK    1  A    between atoms: C6_6  and  C8_8 
ROOT
HETATM    1  C1  UNL     1     -33.584   7.931   3.744  1.00 20.00     0.016 C 
HETATM    2  C2  UNL     1     -33.750   6.061   2.042  1.00 20.00     0.016 C 
HETATM    3  C3  UNL     1     -32.241   8.358   3.148  1.00 20.00     0.041 C 
HETATM    4  C4  UNL     1     -32.408   6.481   1.443  1.00 20.00     0.041 C 
HETATM    5  C5  UNL     1     -32.319   8.953   0.607  1.00 20.00     0.207 A 
HETATM    6  C6  UNL     1     -33.842   6.428   3.534  1.00 20.00     0.093 C 
HETATM    7  C7  UNL     1     -32.159   7.935   1.712  1.00 20.00     0.082 A 
HETATM    8  O9  UNL     1     -31.029   8.472   1.011  1.00 20.00    -0.375 OA
ENDROOT
BRANCH   6   9
HETATM    9  C8  UNL     1     -35.204   6.034   4.102  1.00 20.00     0.391 C 
HETATM   10  F10 UNL     1     -36.175   6.356   3.234  1.00 20.00    -0.171 F 
HETATM   11  F11 UNL     1     -35.243   4.712   4.327  1.00 20.00    -0.171 F 
HETATM   12  F12 UNL     1     -35.423   6.679   5.258  1.00 20.00    -0.171 F 
ENDBRANCH   6   9
TORSDOF 1
ENDMDL
MODEL 2
REMARK VINA RESULT:      -1.4      3.469      4.498
REMARK  1 active torsions:
REMARK  status: ('A' for Active; 'I' for Inactive)
REMARK    1  A    between atoms: C6_6  and  C8_8 
ROOT
HETATM    1  C1  UNL     1     -33.445   7.579   3.663  1.00 20.00     0.016 C 
HETATM    2  C2  UNL     1     -32.719   5.949   1.864  1.00 20.00     0.016 C 
HETATM    3  C3  UNL     1     -34.576   6.632   4.069  1.00 20.00     0.041 C 
HETATM    4  C4  UNL     1     -33.848   4.999   2.264  1.00 20.00     0.041 C 
HETATM    5  C5  UNL     1     -33.794   4.240   4.761  1.00 20.00     0.207 A 
HETATM    6  C6  UNL     1     -33.076   7.413   2.178  1.00 20.00     0.093 C 
HETATM    7  C7  UNL     1     -34.223   5.223   3.698  1.00 20.00     0.082 A 
HETATM    8  O9  UNL     1     -35.125   4.240   4.225  1.00 20.00    -0.375 OA
ENDROOT
BRANCH   6   9
HETATM    9  C8  UNL     1     -31.919   8.340   1.806  1.00 20.00     0.391 C 
HETATM   10  F10 UNL     1     -31.072   7.709   0.980  1.00 20.00    -0.171 F 
HETATM   11  F11 UNL     1     -32.389   9.437   1.193  1.00 20.00    -0.171 F 
HETATM   12  F12 UNL     1     -31.255   8.710   2.912  1.00 20.00    -0.171 F 
ENDBRANCH   6   9
TORSDOF 1
ENDMDL
MODEL 3
REMARK VINA RESULT:      -1.4      3.470      4.497
REMARK  1 active torsions:
REMARK  status: ('A' for Active; 'I' for Inactive)
REMARK    1  A    between atoms: C6_6  and  C8_8 
ROOT
HETATM    1  C1  UNL     1     -33.444   7.579   3.664  1.00 20.00     0.016 C 
HETATM    2  C2  UNL     1     -32.718   5.949   1.864  1.00 20.00     0.016 C 
HETATM    3  C3  UNL     1     -34.575   6.632   4.070  1.00 20.00     0.041 C 
HETATM    4  C4  UNL     1     -33.847   4.999   2.264  1.00 20.00     0.041 C 
HETATM    5  C5  UNL     1     -33.793   4.239   4.762  1.00 20.00     0.207 A 
HETATM    6  C6  UNL     1     -33.075   7.413   2.178  1.00 20.00     0.093 C 
HETATM    7  C7  UNL     1     -34.222   5.223   3.698  1.00 20.00     0.082 A 
HETATM    8  O9  UNL     1     -35.124   4.240   4.225  1.00 20.00    -0.375 OA
ENDROOT
BRANCH   6   9
HETATM    9  C8  UNL     1     -31.919   8.340   1.806  1.00 20.00     0.391 C 
HETATM   10  F10 UNL     1     -32.389   9.437   1.192  1.00 20.00    -0.171 F 
HETATM   11  F11 UNL     1     -31.254   8.711   2.911  1.00 20.00    -0.171 F 
HETATM   12  F12 UNL     1     -31.072   7.708   0.980  1.00 20.00    -0.171 F 
ENDBRANCH   6   9
TORSDOF 1
ENDMDL
MODEL 4
REMARK VINA RESULT:      -1.0      3.538      4.784
REMARK  1 active torsions:
REMARK  status: ('A' for Active; 'I' for Inactive)
REMARK    1  A    between atoms: C6_6  and  C8_8 
ROOT
HETATM    1  C1  UNL     1     -33.029   6.774   1.104  1.00 20.00     0.016 C 
HETATM    2  C2  UNL     1     -32.969   8.604   2.856  1.00 20.00     0.016 C 
HETATM    3  C3  UNL     1     -33.284   5.733   2.195  1.00 20.00     0.041 C 
HETATM    4  C4  UNL     1     -33.222   7.568   3.951  1.00 20.00     0.041 C 
HETATM    5  C5  UNL     1     -35.410   6.176   3.644  1.00 20.00     0.207 A 
HETATM    6  C6  UNL     1     -32.245   7.982   1.648  1.00 20.00     0.093 C 
HETATM    7  C7  UNL     1     -33.936   6.380   3.380  1.00 20.00     0.082 A 
HETATM    8  O9  UNL     1     -34.404   5.451   4.367  1.00 20.00    -0.375 OA
ENDROOT
BRANCH   6   9
HETATM    9  C8  UNL     1     -32.037   9.025   0.551  1.00 20.00     0.391 C 
HETATM   10  F10 UNL     1     -32.939   8.849  -0.427  1.00 20.00    -0.171 F 
HETATM   11  F11 UNL     1     -32.179  10.259   1.058  1.00 20.00    -0.171 F 
HETATM   12  F12 UNL     1     -30.805   8.906   0.034  1.00 20.00    -0.171 F 
ENDBRANCH   6   9
TORSDOF 1
ENDMDL
MODEL 5
REMARK VINA RESULT:      -0.5      1.476      2.288
REMARK  1 active torsions:
REMARK  status: ('A' for Active; 'I' for Inactive)
REMARK    1  A    between atoms: C6_6  and  C8_8 
ROOT
HETATM    1  C1  UNL     1     -32.759   5.164   2.290  1.00 20.00     0.016 C 
HETATM    2  C2  UNL     1     -33.941   6.735   3.890  1.00 20.00     0.016 C 
HETATM    3  C3  UNL     1     -32.594   6.306   1.286  1.00 20.00     0.041 C 
HETATM    4  C4  UNL     1     -33.781   7.880   2.890  1.00 20.00     0.041 C 
HETATM    5  C5  UNL     1     -31.313   8.387   2.205  1.00 20.00     0.207 A 
HETATM    6  C6  UNL     1     -33.998   5.370   3.181  1.00 20.00     0.093 C 
HETATM    7  C7  UNL     1     -32.601   7.624   2.001  1.00 20.00     0.082 A 
HETATM    8  O9  UNL     1     -32.244   8.738   1.171  1.00 20.00    -0.375 OA
ENDROOT
BRANCH   6   9
HETATM    9  C8  UNL     1     -34.119   4.239   4.200  1.00 20.00     0.391 C 
HETATM   10  F10 UNL     1     -35.280   4.341   4.864  1.00 20.00    -0.171 F 
HETATM   11  F11 UNL     1     -34.077   3.052   3.576  1.00 20.00    -0.171 F 
HETATM   12  F12 UNL     1     -33.108   4.304   5.080  1.00 20.00    -0.171 F 
ENDBRANCH   6   9
TORSDOF 1
ENDMDL
MODEL 6
REMARK VINA RESULT:       0.1      2.969      3.868
REMARK  1 active torsions:
REMARK  status: ('A' for Active; 'I' for Inactive)
REMARK    1  A    between atoms: C6_6  and  C8_8 
ROOT
HETATM    1  C1  UNL     1     -32.775   4.837   3.247  1.00 20.00     0.016 C 
HETATM    2  C2  UNL     1     -34.695   4.648   4.890  1.00 20.00     0.016 C 
HETATM    3  C3  UNL     1     -33.450   6.044   2.593  1.00 20.00     0.041 C 
HETATM    4  C4  UNL     1     -35.376   5.852   4.239  1.00 20.00     0.041 C 
HETATM    5  C5  UNL     1     -33.936   8.030   4.216  1.00 20.00     0.207 A 
HETATM    6  C6  UNL     1     -33.807   3.891   3.886  1.00 20.00     0.093 C 
HETATM    7  C7  UNL     1     -34.351   6.725   3.578  1.00 20.00     0.082 A 
HETATM    8  O9  UNL     1     -34.865   7.985   3.123  1.00 20.00    -0.375 OA
ENDROOT
BRANCH   6   9
HETATM    9  C8  UNL     1     -33.108   2.715   4.566  1.00 20.00     0.391 C 
HETATM   10  F10 UNL     1     -33.716   1.566   4.235  1.00 20.00    -0.171 F 
HETATM   11  F11 UNL     1     -31.825   2.657   4.178  1.00 20.00    -0.171 F 
HETATM   12  F12 UNL     1     -33.154   2.863   5.899  1.00 20.00    -0.171 F 
ENDBRANCH   6   9
TORSDOF 1
ENDMDL
