MODEL 1
REMARK VINA RESULT:      -2.4      0.000      0.000
REMARK  4 active torsions:
REMARK  status: ('A' for Active; 'I' for Inactive)
REMARK    1  A    between atoms: C2_2  and  C7_7 
REMARK    2  A    between atoms: C3_3  and  C8_8 
REMARK    3  A    between atoms: C7_7  and  C9_9 
REMARK    4  A    between atoms: C8_8  and  C9_9 
ROOT
HETATM    1  C1  UNL     1     -32.430   9.528   0.416  1.00 20.00    -0.111 C 
HETATM    2  C2  UNL     1     -32.007   8.629   1.091  1.00 20.00    -0.107 C 
HETATM    3  C4  UNL     1     -32.946  10.623  -0.405  1.00 20.00     0.112 C 
ENDROOT
BRANCH   2   4
HETATM    4  C7  UNL     1     -31.487   7.528   1.915  1.00 20.00     0.098 C 
BRANCH   4   5
HETATM    5  C9  UNL     1     -32.495   6.381   2.128  1.00 20.00    -0.001 C 
HETATM    6  C6  UNL     1     -32.441   5.366   0.979  1.00 20.00     0.011 C 
BRANCH   5   7
HETATM    7  C8  UNL     1     -33.924   6.913   2.341  1.00 20.00     0.083 C 
BRANCH   7   8
HETATM    8  C3  UNL     1     -34.352   6.960   3.801  1.00 20.00     0.123 C 
HETATM    9  C5  UNL     1     -35.339   5.908   4.236  1.00 20.00     0.091 C 
HETATM   10  O10 UNL     1     -33.954   7.816   4.589  1.00 20.00    -0.298 OA
ENDBRANCH   7   8
ENDBRANCH   5   7
ENDBRANCH   4   5
ENDBRANCH   2   4
TORSDOF 4
ENDMDL
MODEL 2
REMARK VINA RESULT:      -2.2      1.718      2.235
REMARK  4 active torsions:
REMARK  status: ('A' for Active; 'I' for Inactive)
REMARK    1  A    between atoms: C2_2  and  C7_7 
REMARK    2  A    between atoms: C3_3  and  C8_8 
REMARK    3  A    between atoms: C7_7  and  C9_9 
REMARK    4  A    between atoms: C8_8  and  C9_9 
ROOT
HETATM    1  C1  UNL     1     -32.407   9.292   0.690  1.00 20.00    -0.111 C 
HETATM    2  C2  UNL     1     -32.340   8.363   1.449  1.00 20.00    -0.107 C 
HETATM    3  C4  UNL     1     -32.490  10.421  -0.236  1.00 20.00     0.112 C 
ENDROOT
BRANCH   2   4
HETATM    4  C7  UNL     1     -32.256   7.230   2.382  1.00 20.00     0.098 C 
BRANCH   4   5
HETATM    5  C9  UNL     1     -33.627   6.628   2.753  1.00 20.00    -0.001 C 
HETATM    6  C6  UNL     1     -34.150   7.200   4.077  1.00 20.00     0.011 C 
BRANCH   5   7
HETATM    7  C8  UNL     1     -33.583   5.090   2.784  1.00 20.00     0.083 C 
BRANCH   7   8
HETATM    8  C3  UNL     1     -34.232   4.481   4.020  1.00 20.00     0.123 C 
HETATM    9  C5  UNL     1     -33.478   3.353   4.674  1.00 20.00     0.091 C 
HETATM   10  O10 UNL     1     -35.320   4.851   4.457  1.00 20.00    -0.298 OA
ENDBRANCH   7   8
ENDBRANCH   5   7
ENDBRANCH   4   5
ENDBRANCH   2   4
TORSDOF 4
ENDMDL
MODEL 3
REMARK VINA RESULT:      -2.1      2.248      5.200
REMARK  4 active torsions:
REMARK  status: ('A' for Active; 'I' for Inactive)
REMARK    1  A    between atoms: C2_2  and  C7_7 
REMARK    2  A    between atoms: C3_3  and  C8_8 
REMARK    3  A    between atoms: C7_7  and  C9_9 
REMARK    4  A    between atoms: C8_8  and  C9_9 
ROOT
HETATM    1  C1  UNL     1     -33.797   3.582   4.377  1.00 20.00    -0.111 C 
HETATM    2  C2  UNL     1     -34.238   4.682   4.183  1.00 20.00    -0.107 C 
HETATM    3  C4  UNL     1     -33.261   2.242   4.616  1.00 20.00     0.112 C 
ENDROOT
BRANCH   2   4
HETATM    4  C7  UNL     1     -34.777   6.029   3.942  1.00 20.00     0.098 C 
BRANCH   4   5
HETATM    5  C9  UNL     1     -33.695   7.125   3.859  1.00 20.00    -0.001 C 
HETATM    6  C6  UNL     1     -33.961   8.252   4.866  1.00 20.00     0.011 C 
BRANCH   5   7
HETATM    7  C8  UNL     1     -33.550   7.674   2.428  1.00 20.00     0.083 C 
BRANCH   7   8
HETATM    8  C3  UNL     1     -32.295   7.197   1.710  1.00 20.00     0.123 C 
HETATM    9  C5  UNL     1     -32.282   5.749   1.294  1.00 20.00     0.091 C 
HETATM   10  O10 UNL     1     -31.326   7.923   1.499  1.00 20.00    -0.298 OA
ENDBRANCH   7   8
ENDBRANCH   5   7
ENDBRANCH   4   5
ENDBRANCH   2   4
TORSDOF 4
ENDMDL
MODEL 4
REMARK VINA RESULT:      -2.0      2.090      4.742
REMARK  4 active torsions:
REMARK  status: ('A' for Active; 'I' for Inactive)
REMARK    1  A    between atoms: C2_2  and  C7_7 
REMARK    2  A    between atoms: C3_3  and  C8_8 
REMARK    3  A    between atoms: C7_7  and  C9_9 
REMARK    4  A    between atoms: C8_8  and  C9_9 
ROOT
HETATM    1  C1  UNL     1     -34.663   6.163   4.048  1.00 20.00    -0.111 C 
HETATM    2  C2  UNL     1     -33.881   6.937   3.566  1.00 20.00    -0.107 C 
HETATM    3  C4  UNL     1     -35.615   5.222   4.638  1.00 20.00     0.112 C 
ENDROOT
BRANCH   2   4
HETATM    4  C7  UNL     1     -32.926   7.883   2.972  1.00 20.00     0.098 C 
BRANCH   4   5
HETATM    5  C9  UNL     1     -32.579   7.575   1.501  1.00 20.00    -0.001 C 
HETATM    6  C6  UNL     1     -31.953   6.182   1.353  1.00 20.00     0.011 C 
BRANCH   5   7
HETATM    7  C8  UNL     1     -31.677   8.663   0.889  1.00 20.00     0.083 C 
BRANCH   7   8
HETATM    8  C3  UNL     1     -32.442   9.754   0.153  1.00 20.00     0.123 C 
HETATM    9  C5  UNL     1     -32.638  11.045   0.904  1.00 20.00     0.091 C 
HETATM   10  O10 UNL     1     -32.908   9.602  -0.974  1.00 20.00    -0.298 OA
ENDBRANCH   7   8
ENDBRANCH   5   7
ENDBRANCH   4   5
ENDBRANCH   2   4
TORSDOF 4
ENDMDL
MODEL 5
REMARK VINA RESULT:      -2.0      2.367      5.019
REMARK  4 active torsions:
REMARK  status: ('A' for Active; 'I' for Inactive)
REMARK    1  A    between atoms: C2_2  and  C7_7 
REMARK    2  A    between atoms: C3_3  and  C8_8 
REMARK    3  A    between atoms: C7_7  and  C9_9 
REMARK    4  A    between atoms: C8_8  and  C9_9 
ROOT
HETATM    1  C1  UNL     1     -33.605   4.115   4.101  1.00 20.00    -0.111 C 
HETATM    2  C2  UNL     1     -33.794   5.214   3.652  1.00 20.00    -0.107 C 
HETATM    3  C4  UNL     1     -33.374   2.779   4.649  1.00 20.00     0.112 C 
ENDROOT
BRANCH   2   4
HETATM    4  C7  UNL     1     -34.028   6.556   3.101  1.00 20.00     0.098 C 
BRANCH   4   5
HETATM    5  C9  UNL     1     -33.167   6.879   1.863  1.00 20.00    -0.001 C 
HETATM    6  C6  UNL     1     -32.390   5.646   1.384  1.00 20.00     0.011 C 
BRANCH   5   7
HETATM    7  C8  UNL     1     -32.226   8.071   2.119  1.00 20.00     0.083 C 
BRANCH   7   8
HETATM    8  C3  UNL     1     -31.923   8.894   0.875  1.00 20.00     0.123 C 
HETATM    9  C5  UNL     1     -32.754  10.136   0.686  1.00 20.00     0.091 C 
HETATM   10  O10 UNL     1     -31.078   8.567   0.044  1.00 20.00    -0.298 OA
ENDBRANCH   7   8
ENDBRANCH   5   7
ENDBRANCH   4   5
ENDBRANCH   2   4
TORSDOF 4
ENDMDL
MODEL 6
REMARK VINA RESULT:      -1.5      1.770      2.455
REMARK  4 active torsions:
REMARK  status: ('A' for Active; 'I' for Inactive)
REMARK    1  A    between atoms: C2_2  and  C7_7 
REMARK    2  A    between atoms: C3_3  and  C8_8 
REMARK    3  A    between atoms: C7_7  and  C9_9 
REMARK    4  A    between atoms: C8_8  and  C9_9 
ROOT
HETATM    1  C1  UNL     1     -32.409   9.201   0.740  1.00 20.00    -0.111 C 
HETATM    2  C2  UNL     1     -32.463   8.428   1.658  1.00 20.00    -0.107 C 
HETATM    3  C4  UNL     1     -32.341  10.143  -0.377  1.00 20.00     0.112 C 
ENDROOT
BRANCH   2   4
HETATM    4  C7  UNL     1     -32.532   7.481   2.780  1.00 20.00     0.098 C 
BRANCH   4   5
HETATM    5  C9  UNL     1     -33.783   7.655   3.664  1.00 20.00    -0.001 C 
HETATM    6  C6  UNL     1     -33.412   8.130   5.075  1.00 20.00     0.011 C 
BRANCH   5   7
HETATM    7  C8  UNL     1     -34.630   6.370   3.709  1.00 20.00     0.083 C 
BRANCH   7   8
HETATM    8  C3  UNL     1     -33.867   5.115   3.309  1.00 20.00     0.123 C 
HETATM    9  C5  UNL     1     -33.906   3.975   4.293  1.00 20.00     0.091 C 
HETATM   10  O10 UNL     1     -33.225   5.026   2.264  1.00 20.00    -0.298 OA
ENDBRANCH   7   8
ENDBRANCH   5   7
ENDBRANCH   4   5
ENDBRANCH   2   4
TORSDOF 4
ENDMDL
MODEL 7
REMARK VINA RESULT:      -1.1      1.794      2.927
REMARK  4 active torsions:
REMARK  status: ('A' for Active; 'I' for Inactive)
REMARK    1  A    between atoms: C2_2  and  C7_7 
REMARK    2  A    between atoms: C3_3  and  C8_8 
REMARK    3  A    between atoms: C7_7  and  C9_9 
REMARK    4  A    between atoms: C8_8  and  C9_9 
ROOT
HETATM    1  C1  UNL     1     -32.330   6.974   1.637  1.00 20.00    -0.111 C 
HETATM    2  C2  UNL     1     -32.803   5.924   1.979  1.00 20.00    -0.107 C 
HETATM    3  C4  UNL     1     -31.755   8.253   1.222  1.00 20.00     0.112 C 
ENDROOT
BRANCH   2   4
HETATM    4  C7  UNL     1     -33.380   4.637   2.395  1.00 20.00     0.098 C 
BRANCH   4   5
HETATM    5  C9  UNL     1     -33.563   4.502   3.920  1.00 20.00    -0.001 C 
HETATM    6  C6  UNL     1     -33.319   3.062   4.389  1.00 20.00     0.011 C 
BRANCH   5   7
HETATM    7  C8  UNL     1     -34.941   5.015   4.376  1.00 20.00     0.083 C 
BRANCH   7   8
HETATM    8  C3  UNL     1     -35.237   6.446   3.950  1.00 20.00     0.123 C 
HETATM    9  C5  UNL     1     -34.338   7.508   4.528  1.00 20.00     0.091 C 
HETATM   10  O10 UNL     1     -36.168   6.744   3.204  1.00 20.00    -0.298 OA
ENDBRANCH   7   8
ENDBRANCH   5   7
ENDBRANCH   4   5
ENDBRANCH   2   4
TORSDOF 4
ENDMDL
MODEL 8
REMARK VINA RESULT:      -1.0      2.471      5.288
REMARK  4 active torsions:
REMARK  status: ('A' for Active; 'I' for Inactive)
REMARK    1  A    between atoms: C2_2  and  C7_7 
REMARK    2  A    between atoms: C3_3  and  C8_8 
REMARK    3  A    between atoms: C7_7  and  C9_9 
REMARK    4  A    between atoms: C8_8  and  C9_9 
ROOT
HETATM    1  C1  UNL     1     -33.679   3.447   4.410  1.00 20.00    -0.111 C 
HETATM    2  C2  UNL     1     -34.108   4.524   4.095  1.00 20.00    -0.107 C 
HETATM    3  C4  UNL     1     -33.158   2.135   4.791  1.00 20.00     0.112 C 
ENDROOT
BRANCH   2   4
HETATM    4  C7  UNL     1     -34.631   5.844   3.712  1.00 20.00     0.098 C 
BRANCH   4   5
HETATM    5  C9  UNL     1     -33.541   6.926   3.570  1.00 20.00    -0.001 C 
HETATM    6  C6  UNL     1     -33.930   8.214   4.308  1.00 20.00     0.011 C 
BRANCH   5   7
HETATM    7  C8  UNL     1     -33.206   7.205   2.093  1.00 20.00     0.083 C 
BRANCH   7   8
HETATM    8  C3  UNL     1     -32.847   5.958   1.297  1.00 20.00     0.123 C 
HETATM    9  C5  UNL     1     -31.515   5.331   1.617  1.00 20.00     0.091 C 
HETATM   10  O10 UNL     1     -33.571   5.491   0.420  1.00 20.00    -0.298 OA
ENDBRANCH   7   8
ENDBRANCH   5   7
ENDBRANCH   4   5
ENDBRANCH   2   4
TORSDOF 4
ENDMDL
MODEL 9
REMARK VINA RESULT:      -0.9      2.085      2.981
REMARK  4 active torsions:
REMARK  status: ('A' for Active; 'I' for Inactive)
REMARK    1  A    between atoms: C2_2  and  C7_7 
REMARK    2  A    between atoms: C3_3  and  C8_8 
REMARK    3  A    between atoms: C7_7  and  C9_9 
REMARK    4  A    between atoms: C8_8  and  C9_9 
ROOT
HETATM    1  C1  UNL     1     -32.389   8.359   1.260  1.00 20.00    -0.111 C 
HETATM    2  C2  UNL     1     -32.728   7.396   1.895  1.00 20.00    -0.107 C 
HETATM    3  C4  UNL     1     -31.977   9.532   0.490  1.00 20.00     0.112 C 
ENDROOT
BRANCH   2   4
HETATM    4  C7  UNL     1     -33.141   6.216   2.668  1.00 20.00     0.098 C 
BRANCH   4   5
HETATM    5  C9  UNL     1     -34.359   6.467   3.581  1.00 20.00    -0.001 C 
HETATM    6  C6  UNL     1     -34.095   7.615   4.564  1.00 20.00     0.011 C 
BRANCH   5   7
HETATM    7  C8  UNL     1     -34.791   5.186   4.317  1.00 20.00     0.083 C 
BRANCH   7   8
HETATM    8  C3  UNL     1     -33.904   3.983   4.031  1.00 20.00     0.123 C 
HETATM    9  C5  UNL     1     -33.212   3.373   5.223  1.00 20.00     0.091 C 
HETATM   10  O10 UNL     1     -33.722   3.537   2.899  1.00 20.00    -0.298 OA
ENDBRANCH   7   8
ENDBRANCH   5   7
ENDBRANCH   4   5
ENDBRANCH   2   4
TORSDOF 4
ENDMDL
