MODEL 1
REMARK VINA RESULT:      -1.0      0.000      0.000
REMARK  2 active torsions:
REMARK  status: ('A' for Active; 'I' for Inactive)
REMARK    1  A    between atoms: C1_1  and  C10_10 
REMARK    2  A    between atoms: C5_5  and  C10_10 
ROOT
HETATM    1  C2  UNL     1     -31.764   6.828   1.746  1.00 20.00     0.005 C 
HETATM    2  C3  UNL     1     -32.866   5.862   1.307  1.00 20.00     0.005 C 
HETATM    3  C4  UNL     1     -33.248   7.653   3.627  1.00 20.00     0.009 C 
HETATM    4  C5  UNL     1     -32.304   8.059   2.486  1.00 20.00    -0.008 C 
HETATM    5  C6  UNL     1     -33.785   5.435   2.465  1.00 20.00    -0.015 C 
HETATM    6  C7  UNL     1     -34.356   6.682   3.183  1.00 20.00    -0.015 C 
HETATM    7  C8  UNL     1     -33.062   4.455   3.399  1.00 20.00     0.010 C 
HETATM    8  C9  UNL     1     -35.256   6.324   4.367  1.00 20.00     0.010 C 
ENDROOT
BRANCH   4   9
HETATM    9  C10 UNL     1     -32.971   9.047   1.524  1.00 20.00     0.074 C 
BRANCH   9  10
HETATM   10  C1  UNL     1     -32.092   9.386   0.351  1.00 20.00     0.231 C 
HETATM   11  O11 UNL     1     -32.409  10.116  -0.581  1.00 20.00    -0.307 OA
ENDBRANCH   9  10
ENDBRANCH   4   9
TORSDOF 2
ENDMDL
MODEL 2
REMARK VINA RESULT:       0.3      2.879      4.480
REMARK  2 active torsions:
REMARK  status: ('A' for Active; 'I' for Inactive)
REMARK    1  A    between atoms: C1_1  and  C10_10 
REMARK    2  A    between atoms: C5_5  and  C10_10 
ROOT
HETATM    1  C2  UNL     1     -32.852   5.904   1.190  1.00 20.00     0.005 C 
HETATM    2  C3  UNL     1     -31.718   6.832   1.629  1.00 20.00     0.005 C 
HETATM    3  C4  UNL     1     -34.134   6.488   3.296  1.00 20.00     0.009 C 
HETATM    4  C5  UNL     1     -33.670   5.356   2.367  1.00 20.00    -0.008 C 
HETATM    5  C6  UNL     1     -32.199   7.981   2.531  1.00 20.00    -0.015 C 
HETATM    6  C7  UNL     1     -32.991   7.420   3.737  1.00 20.00    -0.015 C 
HETATM    7  C8  UNL     1     -32.969   9.028   1.714  1.00 20.00     0.010 C 
HETATM    8  C9  UNL     1     -33.525   8.518   4.659  1.00 20.00     0.010 C 
ENDROOT
BRANCH   4   9
HETATM    9  C10 UNL     1     -32.903   4.275   3.133  1.00 20.00     0.074 C 
BRANCH   9  10
HETATM   10  C1  UNL     1     -33.715   3.679   4.250  1.00 20.00     0.231 C 
HETATM   11  O11 UNL     1     -33.315   2.831   5.040  1.00 20.00    -0.307 OA
ENDBRANCH   9  10
ENDBRANCH   4   9
TORSDOF 2
ENDMDL
MODEL 3
REMARK VINA RESULT:       0.6      1.072      2.466
REMARK  2 active torsions:
REMARK  status: ('A' for Active; 'I' for Inactive)
REMARK    1  A    between atoms: C1_1  and  C10_10 
REMARK    2  A    between atoms: C5_5  and  C10_10 
ROOT
HETATM    1  C2  UNL     1     -34.168   7.689   2.511  1.00 20.00     0.005 C 
HETATM    2  C3  UNL     1     -34.060   7.450   4.018  1.00 20.00     0.005 C 
HETATM    3  C4  UNL     1     -33.455   5.295   2.088  1.00 20.00     0.009 C 
HETATM    4  C5  UNL     1     -33.260   6.765   1.689  1.00 20.00    -0.008 C 
HETATM    5  C6  UNL     1     -34.290   5.981   4.410  1.00 20.00    -0.015 C 
HETATM    6  C7  UNL     1     -33.344   5.057   3.604  1.00 20.00    -0.015 C 
HETATM    7  C8  UNL     1     -35.774   5.611   4.286  1.00 20.00     0.010 C 
HETATM    8  C9  UNL     1     -33.546   3.575   3.927  1.00 20.00     0.010 C 
ENDROOT
BRANCH   4   9
HETATM    9  C10 UNL     1     -31.792   7.188   1.784  1.00 20.00     0.074 C 
BRANCH   9  10
HETATM   10  C1  UNL     1     -31.591   8.640   1.446  1.00 20.00     0.231 C 
HETATM   11  O11 UNL     1     -32.021   9.198   0.443  1.00 20.00    -0.307 OA
ENDBRANCH   9  10
ENDBRANCH   4   9
TORSDOF 2
ENDMDL
MODEL 4
REMARK VINA RESULT:       1.3      2.725      4.416
REMARK  2 active torsions:
REMARK  status: ('A' for Active; 'I' for Inactive)
REMARK    1  A    between atoms: C1_1  and  C10_10 
REMARK    2  A    between atoms: C5_5  and  C10_10 
ROOT
HETATM    1  C2  UNL     1     -33.294   8.170   3.779  1.00 20.00     0.005 C 
HETATM    2  C3  UNL     1     -33.339   8.581   2.307  1.00 20.00     0.005 C 
HETATM    3  C4  UNL     1     -32.932   5.760   3.086  1.00 20.00     0.009 C 
HETATM    4  C5  UNL     1     -33.709   6.711   4.008  1.00 20.00    -0.008 C 
HETATM    5  C6  UNL     1     -32.529   7.643   1.397  1.00 20.00    -0.015 C 
HETATM    6  C7  UNL     1     -32.979   6.176   1.605  1.00 20.00    -0.015 C 
HETATM    7  C8  UNL     1     -31.022   7.864   1.589  1.00 20.00     0.010 C 
HETATM    8  C9  UNL     1     -32.188   5.185   0.748  1.00 20.00     0.010 C 
ENDROOT
BRANCH   4   9
HETATM    9  C10 UNL     1     -35.222   6.526   3.866  1.00 20.00     0.074 C 
BRANCH   9  10
HETATM   10  C1  UNL     1     -35.687   5.193   4.385  1.00 20.00     0.231 C 
HETATM   11  O11 UNL     1     -34.954   4.270   4.718  1.00 20.00    -0.307 OA
ENDBRANCH   9  10
ENDBRANCH   4   9
TORSDOF 2
ENDMDL
MODEL 5
REMARK VINA RESULT:       1.8      2.252      3.444
REMARK  2 active torsions:
REMARK  status: ('A' for Active; 'I' for Inactive)
REMARK    1  A    between atoms: C1_1  and  C10_10 
REMARK    2  A    between atoms: C5_5  and  C10_10 
ROOT
HETATM    1  C2  UNL     1     -32.216   7.909   1.734  1.00 20.00     0.005 C 
HETATM    2  C3  UNL     1     -32.121   8.001   3.257  1.00 20.00     0.005 C 
HETATM    3  C4  UNL     1     -34.014   6.138   1.963  1.00 20.00     0.009 C 
HETATM    4  C5  UNL     1     -32.718   6.544   1.245  1.00 20.00    -0.008 C 
HETATM    5  C6  UNL     1     -33.434   7.626   3.965  1.00 20.00    -0.015 C 
HETATM    6  C7  UNL     1     -33.915   6.232   3.495  1.00 20.00    -0.015 C 
HETATM    7  C8  UNL     1     -34.481   8.736   3.792  1.00 20.00     0.010 C 
HETATM    8  C9  UNL     1     -35.238   5.812   4.140  1.00 20.00     0.010 C 
ENDROOT
BRANCH   4   9
HETATM    9  C10 UNL     1     -31.638   5.466   1.375  1.00 20.00     0.074 C 
BRANCH   9  10
HETATM   10  C1  UNL     1     -31.845   4.329   0.412  1.00 20.00     0.231 C 
HETATM   11  O11 UNL     1     -30.970   3.822  -0.280  1.00 20.00    -0.307 OA
ENDBRANCH   9  10
ENDBRANCH   4   9
TORSDOF 2
ENDMDL
MODEL 6
REMARK VINA RESULT:       1.9      2.385      4.011
REMARK  2 active torsions:
REMARK  status: ('A' for Active; 'I' for Inactive)
REMARK    1  A    between atoms: C1_1  and  C10_10 
REMARK    2  A    between atoms: C5_5  and  C10_10 
ROOT
HETATM    1  C2  UNL     1     -33.566   5.308   2.954  1.00 20.00     0.005 C 
HETATM    2  C3  UNL     1     -34.426   6.529   3.282  1.00 20.00     0.005 C 
HETATM    3  C4  UNL     1     -32.048   6.766   1.543  1.00 20.00     0.009 C 
HETATM    4  C5  UNL     1     -32.818   5.439   1.621  1.00 20.00    -0.008 C 
HETATM    5  C6  UNL     1     -33.636   7.849   3.235  1.00 20.00    -0.015 C 
HETATM    6  C7  UNL     1     -32.916   7.993   1.872  1.00 20.00    -0.015 C 
HETATM    7  C8  UNL     1     -32.703   7.968   4.447  1.00 20.00     0.010 C 
HETATM    8  C9  UNL     1     -32.085   9.274   1.772  1.00 20.00     0.010 C 
ENDROOT
BRANCH   4   9
HETATM    9  C10 UNL     1     -33.760   5.261   0.427  1.00 20.00     0.074 C 
BRANCH   9  10
HETATM   10  C1  UNL     1     -33.468   4.007  -0.351  1.00 20.00     0.231 C 
HETATM   11  O11 UNL     1     -34.311   3.294  -0.884  1.00 20.00    -0.307 OA
ENDBRANCH   9  10
ENDBRANCH   4   9
TORSDOF 2
ENDMDL
