MODEL 1
REMARK VINA RESULT:       0.0      0.000      0.000
REMARK  2 active torsions:
REMARK  status: ('A' for Active; 'I' for Inactive)
REMARK    1  A    between atoms: C8_8  and  C11_11 
REMARK    2  A    between atoms: C8_8  and  O12_12 
ROOT
HETATM    1  C1  UNL     1     -32.678  10.647   0.245  1.00 20.00     0.012 C 
HETATM    2  C2  UNL     1     -32.391   9.492   0.405  1.00 20.00    -0.115 C 
HETATM    3  C11 UNL     1     -32.035   8.084   0.583  1.00 20.00     0.131 C 
ENDROOT
BRANCH   3   4
HETATM    4  C8  UNL     1     -32.422   7.596   1.984  1.00 20.00     0.069 C 
HETATM    5  C4  UNL     1     -33.566   8.457   2.551  1.00 20.00     0.043 C 
HETATM    6  C6  UNL     1     -34.156   7.946   3.877  1.00 20.00    -0.015 C 
HETATM    7  C3  UNL     1     -34.494   6.450   3.793  1.00 20.00     0.008 C 
HETATM    8  C9  UNL     1     -33.270   8.261   5.084  1.00 20.00     0.010 C 
HETATM    9  C7  UNL     1     -33.324   5.595   3.291  1.00 20.00    -0.015 C 
HETATM   10  C5  UNL     1     -32.815   6.112   1.936  1.00 20.00     0.043 C 
HETATM   11  C10 UNL     1     -33.745   4.128   3.177  1.00 20.00     0.010 C 
BRANCH   4  12
HETATM   12  O12 UNL     1     -31.263   7.724   2.809  1.00 20.00    -0.389 OA
HETATM   13  H30 UNL     1     -31.443   7.214   3.613  1.00 20.00     0.210 HD
ENDBRANCH   4  12
ENDBRANCH   3   4
TORSDOF 2
ENDMDL
MODEL 2
REMARK VINA RESULT:       1.1      1.407      2.724
REMARK  2 active torsions:
REMARK  status: ('A' for Active; 'I' for Inactive)
REMARK    1  A    between atoms: C8_8  and  C11_11 
REMARK    2  A    between atoms: C8_8  and  O12_12 
ROOT
HETATM    1  C1  UNL     1     -32.655  10.649  -0.110  1.00 20.00     0.012 C 
HETATM    2  C2  UNL     1     -32.220   9.829   0.653  1.00 20.00    -0.115 C 
HETATM    3  C11 UNL     1     -31.678   8.841   1.586  1.00 20.00     0.131 C 
ENDROOT
BRANCH   3   4
HETATM    4  C8  UNL     1     -32.543   7.575   1.604  1.00 20.00     0.069 C 
HETATM    5  C4  UNL     1     -31.652   6.320   1.561  1.00 20.00     0.043 C 
HETATM    6  C6  UNL     1     -32.406   4.992   1.755  1.00 20.00    -0.015 C 
HETATM    7  C3  UNL     1     -33.326   5.052   2.983  1.00 20.00     0.008 C 
HETATM    8  C9  UNL     1     -33.160   4.546   0.500  1.00 20.00     0.010 C 
HETATM    9  C7  UNL     1     -34.257   6.272   2.980  1.00 20.00    -0.015 C 
HETATM   10  C5  UNL     1     -33.448   7.571   2.846  1.00 20.00     0.043 C 
HETATM   11  C10 UNL     1     -35.103   6.300   4.254  1.00 20.00     0.010 C 
BRANCH   4  12
HETATM   12  O12 UNL     1     -33.377   7.619   0.445  1.00 20.00    -0.389 OA
HETATM   13  H30 UNL     1     -33.462   6.706   0.135  1.00 20.00     0.210 HD
ENDBRANCH   4  12
ENDBRANCH   3   4
TORSDOF 2
ENDMDL
MODEL 3
REMARK VINA RESULT:       1.3      1.753      4.349
REMARK  2 active torsions:
REMARK  status: ('A' for Active; 'I' for Inactive)
REMARK    1  A    between atoms: C8_8  and  C11_11 
REMARK    2  A    between atoms: C8_8  and  O12_12 
ROOT
HETATM    1  C1  UNL     1     -33.560   3.135   4.757  1.00 20.00     0.012 C 
HETATM    2  C2  UNL     1     -34.098   4.192   4.567  1.00 20.00    -0.115 C 
HETATM    3  C11 UNL     1     -34.765   5.476   4.348  1.00 20.00     0.131 C 
ENDROOT
BRANCH   3   4
HETATM    4  C8  UNL     1     -34.109   6.241   3.193  1.00 20.00     0.069 C 
HETATM    5  C4  UNL     1     -33.220   7.373   3.739  1.00 20.00     0.043 C 
HETATM    6  C6  UNL     1     -32.372   8.093   2.676  1.00 20.00    -0.015 C 
HETATM    7  C3  UNL     1     -31.617   7.087   1.796  1.00 20.00     0.008 C 
HETATM    8  C9  UNL     1     -33.184   9.084   1.837  1.00 20.00     0.010 C 
HETATM    9  C7  UNL     1     -32.526   6.003   1.202  1.00 20.00    -0.015 C 
HETATM   10  C5  UNL     1     -33.300   5.277   2.313  1.00 20.00     0.043 C 
HETATM   11  C10 UNL     1     -31.702   5.004   0.386  1.00 20.00     0.010 C 
BRANCH   4  12
HETATM   12  O12 UNL     1     -35.163   6.791   2.400  1.00 20.00    -0.389 OA
HETATM   13  H30 UNL     1     -35.742   6.051   2.165  1.00 20.00     0.210 HD
ENDBRANCH   4  12
ENDBRANCH   3   4
TORSDOF 2
ENDMDL
MODEL 4
REMARK VINA RESULT:       1.7      1.195      1.705
REMARK  2 active torsions:
REMARK  status: ('A' for Active; 'I' for Inactive)
REMARK    1  A    between atoms: C8_8  and  C11_11 
REMARK    2  A    between atoms: C8_8  and  O12_12 
ROOT
HETATM    1  C1  UNL     1     -32.777   9.911  -0.812  1.00 20.00     0.012 C 
HETATM    2  C2  UNL     1     -32.430   9.827   0.335  1.00 20.00    -0.115 C 
HETATM    3  C11 UNL     1     -32.000   9.741   1.731  1.00 20.00     0.131 C 
ENDROOT
BRANCH   3   4
HETATM    4  C8  UNL     1     -32.317   8.359   2.315  1.00 20.00     0.069 C 
HETATM    5  C4  UNL     1     -33.835   8.201   2.519  1.00 20.00     0.043 C 
HETATM    6  C6  UNL     1     -34.282   6.788   2.932  1.00 20.00    -0.015 C 
HETATM    7  C3  UNL     1     -33.670   5.722   2.011  1.00 20.00     0.008 C 
HETATM    8  C9  UNL     1     -34.015   6.486   4.408  1.00 20.00     0.010 C 
HETATM    9  C7  UNL     1     -32.148   5.849   1.870  1.00 20.00    -0.015 C 
HETATM   10  C5  UNL     1     -31.763   7.259   1.397  1.00 20.00     0.043 C 
HETATM   11  C10 UNL     1     -31.613   4.796   0.898  1.00 20.00     0.010 C 
BRANCH   4  12
HETATM   12  O12 UNL     1     -31.646   8.270   3.572  1.00 20.00    -0.389 OA
HETATM   13  H30 UNL     1     -31.042   7.516   3.507  1.00 20.00     0.210 HD
ENDBRANCH   4  12
ENDBRANCH   3   4
TORSDOF 2
ENDMDL
MODEL 5
REMARK VINA RESULT:       1.8      2.165      4.480
REMARK  2 active torsions:
REMARK  status: ('A' for Active; 'I' for Inactive)
REMARK    1  A    between atoms: C8_8  and  C11_11 
REMARK    2  A    between atoms: C8_8  and  O12_12 
ROOT
HETATM    1  C1  UNL     1     -32.882   3.039   5.007  1.00 20.00     0.012 C 
HETATM    2  C2  UNL     1     -33.807   3.783   4.821  1.00 20.00    -0.115 C 
HETATM    3  C11 UNL     1     -34.943   4.679   4.604  1.00 20.00     0.131 C 
ENDROOT
BRANCH   3   4
HETATM    4  C8  UNL     1     -34.552   5.846   3.692  1.00 20.00     0.069 C 
HETATM    5  C4  UNL     1     -33.945   6.992   4.522  1.00 20.00     0.043 C 
HETATM    6  C6  UNL     1     -33.351   8.142   3.689  1.00 20.00    -0.015 C 
HETATM    7  C3  UNL     1     -32.413   7.609   2.597  1.00 20.00     0.008 C 
HETATM    8  C9  UNL     1     -34.420   9.074   3.114  1.00 20.00     0.010 C 
HETATM    9  C7  UNL     1     -33.053   6.515   1.733  1.00 20.00    -0.015 C 
HETATM   10  C5  UNL     1     -33.572   5.365   2.610  1.00 20.00     0.043 C 
HETATM   11  C10 UNL     1     -32.048   5.990   0.706  1.00 20.00     0.010 C 
BRANCH   4  12
HETATM   12  O12 UNL     1     -35.744   6.293   3.045  1.00 20.00    -0.389 OA
HETATM   13  H30 UNL     1     -35.808   5.798   2.216  1.00 20.00     0.210 HD
ENDBRANCH   4  12
ENDBRANCH   3   4
TORSDOF 2
ENDMDL
MODEL 6
REMARK VINA RESULT:       2.8      1.203      4.481
REMARK  2 active torsions:
REMARK  status: ('A' for Active; 'I' for Inactive)
REMARK    1  A    between atoms: C8_8  and  C11_11 
REMARK    2  A    between atoms: C8_8  and  O12_12 
ROOT
HETATM    1  C1  UNL     1     -35.596   5.154   4.574  1.00 20.00     0.012 C 
HETATM    2  C2  UNL     1     -35.124   6.238   4.360  1.00 20.00    -0.115 C 
HETATM    3  C11 UNL     1     -34.561   7.566   4.110  1.00 20.00     0.131 C 
ENDROOT
BRANCH   3   4
HETATM    4  C8  UNL     1     -33.396   7.486   3.117  1.00 20.00     0.069 C 
HETATM    5  C4  UNL     1     -33.515   6.216   2.255  1.00 20.00     0.043 C 
HETATM    6  C6  UNL     1     -32.498   6.125   1.104  1.00 20.00    -0.015 C 
HETATM    7  C3  UNL     1     -32.470   7.424   0.286  1.00 20.00     0.008 C 
HETATM    8  C9  UNL     1     -31.100   5.719   1.575  1.00 20.00     0.010 C 
HETATM    9  C7  UNL     1     -32.282   8.677   1.150  1.00 20.00    -0.015 C 
HETATM   10  C5  UNL     1     -33.360   8.749   2.243  1.00 20.00     0.043 C 
HETATM   11  C10 UNL     1     -32.321   9.936   0.281  1.00 20.00     0.010 C 
BRANCH   4  12
HETATM   12  O12 UNL     1     -32.192   7.441   3.884  1.00 20.00    -0.389 OA
HETATM   13  H30 UNL     1     -32.445   7.155   4.774  1.00 20.00     0.210 HD
ENDBRANCH   4  12
ENDBRANCH   3   4
TORSDOF 2
ENDMDL
MODEL 7
REMARK VINA RESULT:       2.9      2.299      2.970
REMARK  2 active torsions:
REMARK  status: ('A' for Active; 'I' for Inactive)
REMARK    1  A    between atoms: C8_8  and  C11_11 
REMARK    2  A    between atoms: C8_8  and  O12_12 
ROOT
HETATM    1  C1  UNL     1     -31.022   3.923   0.034  1.00 20.00     0.012 C 
HETATM    2  C2  UNL     1     -31.908   4.699   0.272  1.00 20.00    -0.115 C 
HETATM    3  C11 UNL     1     -32.989   5.646   0.545  1.00 20.00     0.131 C 
ENDROOT
BRANCH   3   4
HETATM    4  C8  UNL     1     -33.226   5.784   2.053  1.00 20.00     0.069 C 
HETATM    5  C4  UNL     1     -34.577   6.473   2.320  1.00 20.00     0.043 C 
HETATM    6  C6  UNL     1     -35.001   6.502   3.799  1.00 20.00    -0.015 C 
HETATM    7  C3  UNL     1     -34.882   5.110   4.437  1.00 20.00     0.008 C 
HETATM    8  C9  UNL     1     -34.256   7.565   4.611  1.00 20.00     0.010 C 
HETATM    9  C7  UNL     1     -33.508   4.463   4.222  1.00 20.00    -0.015 C 
HETATM   10  C5  UNL     1     -33.164   4.405   2.726  1.00 20.00     0.043 C 
HETATM   11  C10 UNL     1     -33.477   3.061   4.831  1.00 20.00     0.010 C 
BRANCH   4  12
HETATM   12  O12 UNL     1     -32.163   6.582   2.575  1.00 20.00    -0.389 OA
HETATM   13  H30 UNL     1     -32.370   7.499   2.343  1.00 20.00     0.210 HD
ENDBRANCH   4  12
ENDBRANCH   3   4
TORSDOF 2
ENDMDL
