MODEL 1
REMARK VINA RESULT:      -1.6      0.000      0.000
REMARK  4 active torsions:
REMARK  status: ('A' for Active; 'I' for Inactive)
REMARK    1  A    between atoms: C5_5  and  C8_8 
REMARK    2  A    between atoms: C6_6  and  C9_9 
REMARK    3  A    between atoms: C9_9  and  C10_10 
REMARK    4  A    between atoms: C10_10  and  O11_11 
ROOT
HETATM    1  C1  UNL     1     -32.636   8.056   3.520  1.00 20.00     0.005 C 
HETATM    2  C2  UNL     1     -31.988   6.776   1.437  1.00 20.00     0.005 C 
HETATM    3  C3  UNL     1     -33.985   7.337   3.543  1.00 20.00     0.005 C 
HETATM    4  C4  UNL     1     -33.337   6.057   1.459  1.00 20.00     0.005 C 
HETATM    5  C5  UNL     1     -32.027   8.153   2.115  1.00 20.00    -0.015 C 
HETATM    6  C6  UNL     1     -33.947   5.961   2.864  1.00 20.00    -0.013 C 
ENDROOT
BRANCH   6   7
HETATM    7  C9  UNL     1     -33.214   4.928   3.727  1.00 20.00     0.030 C 
BRANCH   7   8
HETATM    8  C10 UNL     1     -34.184   3.960   4.378  1.00 20.00     0.164 C 
BRANCH   8   9
HETATM    9  O11 UNL     1     -35.407   4.641   4.621  1.00 20.00    -0.401 OA
HETATM   10  H31 UNL     1     -35.190   5.433   5.140  1.00 20.00     0.209 HD
ENDBRANCH   8   9
ENDBRANCH   7   8
ENDBRANCH   6   7
BRANCH   5  11
HETATM   11  C8  UNL     1     -32.759   9.185   1.252  1.00 20.00     0.000 C 
HETATM   12  C7  UNL     1     -32.028   9.458  -0.021  1.00 20.00     0.005 C 
ENDBRANCH   5  11
TORSDOF 4
ENDMDL
MODEL 2
REMARK VINA RESULT:      -1.5      2.405      4.750
REMARK  4 active torsions:
REMARK  status: ('A' for Active; 'I' for Inactive)
REMARK    1  A    between atoms: C5_5  and  C8_8 
REMARK    2  A    between atoms: C6_6  and  C9_9 
REMARK    3  A    between atoms: C9_9  and  C10_10 
REMARK    4  A    between atoms: C10_10  and  O11_11 
ROOT
HETATM    1  C1  UNL     1     -34.040   7.194   3.599  1.00 20.00     0.005 C 
HETATM    2  C2  UNL     1     -33.235   6.029   1.503  1.00 20.00     0.005 C 
HETATM    3  C3  UNL     1     -32.737   7.992   3.657  1.00 20.00     0.005 C 
HETATM    4  C4  UNL     1     -31.931   6.827   1.561  1.00 20.00     0.005 C 
HETATM    5  C5  UNL     1     -33.892   5.847   2.879  1.00 20.00    -0.015 C 
HETATM    6  C6  UNL     1     -32.080   8.173   2.282  1.00 20.00    -0.013 C 
ENDROOT
BRANCH   6   7
HETATM    7  C9  UNL     1     -32.839   9.192   1.425  1.00 20.00     0.030 C 
BRANCH   7   8
HETATM    8  C10 UNL     1     -32.058   9.559   0.177  1.00 20.00     0.164 C 
BRANCH   8   9
HETATM    9  O11 UNL     1     -32.981   9.886  -0.853  1.00 20.00    -0.401 OA
HETATM   10  H31 UNL     1     -32.958  10.851  -0.956  1.00 20.00     0.209 HD
ENDBRANCH   8   9
ENDBRANCH   7   8
ENDBRANCH   6   7
BRANCH   5  11
HETATM   11  C8  UNL     1     -33.133   4.830   3.735  1.00 20.00     0.000 C 
HETATM   12  C7  UNL     1     -34.056   3.825   4.344  1.00 20.00     0.005 C 
ENDBRANCH   5  11
TORSDOF 4
ENDMDL
MODEL 3
REMARK VINA RESULT:       1.3      1.180      1.180
REMARK  4 active torsions:
REMARK  status: ('A' for Active; 'I' for Inactive)
REMARK    1  A    between atoms: C5_5  and  C8_8 
REMARK    2  A    between atoms: C6_6  and  C9_9 
REMARK    3  A    between atoms: C9_9  and  C10_10 
REMARK    4  A    between atoms: C10_10  and  O11_11 
ROOT
HETATM    1  C1  UNL     1     -32.512   8.161   3.544  1.00 20.00     0.005 C 
HETATM    2  C2  UNL     1     -32.439   6.430   1.701  1.00 20.00     0.005 C 
HETATM    3  C3  UNL     1     -34.035   8.040   3.598  1.00 20.00     0.005 C 
HETATM    4  C4  UNL     1     -33.963   6.310   1.753  1.00 20.00     0.005 C 
HETATM    5  C5  UNL     1     -31.925   7.798   2.173  1.00 20.00    -0.015 C 
HETATM    6  C6  UNL     1     -34.549   6.674   3.124  1.00 20.00    -0.013 C 
ENDROOT
BRANCH   6   7
HETATM    7  C9  UNL     1     -34.278   5.579   4.162  1.00 20.00     0.030 C 
BRANCH   7   8
HETATM    8  C10 UNL     1     -34.030   4.236   3.501  1.00 20.00     0.164 C 
BRANCH   8   9
HETATM    9  O11 UNL     1     -32.696   3.835   3.782  1.00 20.00    -0.401 OA
HETATM   10  H31 UNL     1     -32.170   4.032   2.989  1.00 20.00     0.209 HD
ENDBRANCH   8   9
ENDBRANCH   7   8
ENDBRANCH   6   7
BRANCH   5  11
HETATM   11  C8  UNL     1     -32.196   8.891   1.136  1.00 20.00     0.000 C 
HETATM   12  C7  UNL     1     -31.642   8.530  -0.203  1.00 20.00     0.005 C 
ENDBRANCH   5  11
TORSDOF 4
ENDMDL
MODEL 4
REMARK VINA RESULT:       1.4      2.534      4.887
REMARK  4 active torsions:
REMARK  status: ('A' for Active; 'I' for Inactive)
REMARK    1  A    between atoms: C5_5  and  C8_8 
REMARK    2  A    between atoms: C6_6  and  C9_9 
REMARK    3  A    between atoms: C9_9  and  C10_10 
REMARK    4  A    between atoms: C10_10  and  O11_11 
ROOT
HETATM    1  C1  UNL     1     -32.178   5.499   2.197  1.00 20.00     0.005 C 
HETATM    2  C2  UNL     1     -33.276   7.149   3.768  1.00 20.00     0.005 C 
HETATM    3  C3  UNL     1     -32.907   6.137   1.015  1.00 20.00     0.005 C 
HETATM    4  C4  UNL     1     -34.007   7.788   2.586  1.00 20.00     0.005 C 
HETATM    5  C5  UNL     1     -32.918   5.675   3.530  1.00 20.00    -0.015 C 
HETATM    6  C6  UNL     1     -33.267   7.610   1.253  1.00 20.00    -0.013 C 
ENDROOT
BRANCH   6   7
HETATM    7  C9  UNL     1     -32.031   8.513   1.169  1.00 20.00     0.030 C 
BRANCH   7   8
HETATM    8  C10 UNL     1     -32.368   9.861   0.561  1.00 20.00     0.164 C 
BRANCH   8   9
HETATM    9  O11 UNL     1     -32.871   9.651  -0.752  1.00 20.00    -0.401 OA
HETATM   10  H31 UNL     1     -32.852  10.512  -1.201  1.00 20.00     0.209 HD
ENDBRANCH   8   9
ENDBRANCH   7   8
ENDBRANCH   6   7
BRANCH   5  11
HETATM   11  C8  UNL     1     -34.152   4.774   3.614  1.00 20.00     0.000 C 
HETATM   12  C7  UNL     1     -33.851   3.490   4.316  1.00 20.00     0.005 C 
ENDBRANCH   5  11
TORSDOF 4
ENDMDL
