MODEL 1
REMARK VINA RESULT:      -2.3      0.000      0.000
REMARK  1 active torsions:
REMARK  status: ('A' for Active; 'I' for Inactive)
REMARK    1  A    between atoms: C5_5  and  C7_7 
ROOT
HETATM    1  C1  UNL     1     -32.138   5.413   1.547  1.00 20.00     0.002 C 
HETATM    2  C2  UNL     1     -33.457   5.291   2.308  1.00 20.00     0.013 C 
HETATM    3  C3  UNL     1     -32.012   6.766   0.852  1.00 20.00     0.020 C 
HETATM    4  C4  UNL     1     -33.520   7.803   2.598  1.00 20.00     0.033 C 
HETATM    5  C5  UNL     1     -33.647   6.444   3.303  1.00 20.00     0.095 C 
HETATM    6  C6  UNL     1     -32.194   7.915   1.844  1.00 20.00     0.083 C 
HETATM    7 CL11 UNL     1     -32.116   9.478   0.982  1.00 20.00    -0.125 Cl
ENDROOT
BRANCH   5   8
HETATM    8  C7  UNL     1     -34.995   6.328   4.011  1.00 20.00     0.391 C 
HETATM    9  F8  UNL     1     -35.986   6.664   3.171  1.00 20.00    -0.171 F 
HETATM   10  F9  UNL     1     -35.188   5.069   4.430  1.00 20.00    -0.171 F 
HETATM   11  F10 UNL     1     -35.029   7.150   5.071  1.00 20.00    -0.171 F 
ENDBRANCH   5   8
TORSDOF 1
ENDMDL
MODEL 2
REMARK VINA RESULT:      -2.3      0.002      1.140
REMARK  1 active torsions:
REMARK  status: ('A' for Active; 'I' for Inactive)
REMARK    1  A    between atoms: C5_5  and  C7_7 
ROOT
HETATM    1  C1  UNL     1     -32.137   5.412   1.549  1.00 20.00     0.002 C 
HETATM    2  C2  UNL     1     -33.456   5.290   2.309  1.00 20.00     0.013 C 
HETATM    3  C3  UNL     1     -32.010   6.766   0.853  1.00 20.00     0.020 C 
HETATM    4  C4  UNL     1     -33.520   7.802   2.599  1.00 20.00     0.033 C 
HETATM    5  C5  UNL     1     -33.647   6.443   3.304  1.00 20.00     0.095 C 
HETATM    6  C6  UNL     1     -32.194   7.914   1.845  1.00 20.00     0.083 C 
HETATM    7 CL11 UNL     1     -32.115   9.477   0.983  1.00 20.00    -0.125 Cl
ENDROOT
BRANCH   5   8
HETATM    8  C7  UNL     1     -34.995   6.328   4.011  1.00 20.00     0.391 C 
HETATM    9  F8  UNL     1     -35.031   7.148   5.071  1.00 20.00    -0.171 F 
HETATM   10  F9  UNL     1     -35.986   6.661   3.170  1.00 20.00    -0.171 F 
HETATM   11  F10 UNL     1     -35.187   5.068   4.431  1.00 20.00    -0.171 F 
ENDBRANCH   5   8
TORSDOF 1
ENDMDL
MODEL 3
REMARK VINA RESULT:      -2.3      1.607      2.192
REMARK  1 active torsions:
REMARK  status: ('A' for Active; 'I' for Inactive)
REMARK    1  A    between atoms: C5_5  and  C7_7 
ROOT
HETATM    1  C1  UNL     1     -32.203   8.283   2.065  1.00 20.00     0.002 C 
HETATM    2  C2  UNL     1     -33.157   7.891   3.192  1.00 20.00     0.013 C 
HETATM    3  C3  UNL     1     -31.429   7.078   1.537  1.00 20.00     0.020 C 
HETATM    4  C4  UNL     1     -33.325   5.556   2.234  1.00 20.00     0.033 C 
HETATM    5  C5  UNL     1     -34.110   6.766   2.764  1.00 20.00     0.095 C 
HETATM    6  C6  UNL     1     -32.378   5.960   1.104  1.00 20.00     0.083 C 
HETATM    7 CL11 UNL     1     -31.436   4.542   0.564  1.00 20.00    -0.125 Cl
ENDROOT
BRANCH   5   8
HETATM    8  C7  UNL     1     -35.015   6.356   3.923  1.00 20.00     0.391 C 
HETATM    9  F8  UNL     1     -36.301   6.435   3.553  1.00 20.00    -0.171 F 
HETATM   10  F9  UNL     1     -34.745   5.095   4.294  1.00 20.00    -0.171 F 
HETATM   11  F10 UNL     1     -34.815   7.169   4.972  1.00 20.00    -0.171 F 
ENDBRANCH   5   8
TORSDOF 1
ENDMDL
MODEL 4
REMARK VINA RESULT:      -1.9      2.693      3.655
REMARK  1 active torsions:
REMARK  status: ('A' for Active; 'I' for Inactive)
REMARK    1  A    between atoms: C5_5  and  C7_7 
ROOT
HETATM    1  C1  UNL     1     -35.468   6.022   4.038  1.00 20.00     0.002 C 
HETATM    2  C2  UNL     1     -34.801   4.850   4.754  1.00 20.00     0.013 C 
HETATM    3  C3  UNL     1     -34.439   6.955   3.405  1.00 20.00     0.020 C 
HETATM    4  C4  UNL     1     -32.822   5.022   3.190  1.00 20.00     0.033 C 
HETATM    5  C5  UNL     1     -33.855   4.079   3.823  1.00 20.00     0.095 C 
HETATM    6  C6  UNL     1     -33.501   6.189   2.472  1.00 20.00     0.083 C 
HETATM    7 CL11 UNL     1     -32.267   7.298   1.810  1.00 20.00    -0.125 Cl
ENDROOT
BRANCH   5   8
HETATM    8  C7  UNL     1     -33.161   2.947   4.576  1.00 20.00     0.391 C 
HETATM    9  F8  UNL     1     -33.333   3.101   5.897  1.00 20.00    -0.171 F 
HETATM   10  F9  UNL     1     -33.675   1.764   4.205  1.00 20.00    -0.171 F 
HETATM   11  F10 UNL     1     -31.847   2.954   4.305  1.00 20.00    -0.171 F 
ENDBRANCH   5   8
TORSDOF 1
ENDMDL
MODEL 5
REMARK VINA RESULT:      -1.1      3.459      4.520
REMARK  1 active torsions:
REMARK  status: ('A' for Active; 'I' for Inactive)
REMARK    1  A    between atoms: C5_5  and  C7_7 
ROOT
HETATM    1  C1  UNL     1     -35.248   6.206   4.327  1.00 20.00     0.002 C 
HETATM    2  C2  UNL     1     -34.644   6.638   2.992  1.00 20.00     0.013 C 
HETATM    3  C3  UNL     1     -35.104   4.702   4.550  1.00 20.00     0.020 C 
HETATM    4  C4  UNL     1     -33.041   4.684   3.087  1.00 20.00     0.033 C 
HETATM    5  C5  UNL     1     -33.179   6.197   2.862  1.00 20.00     0.095 C 
HETATM    6  C6  UNL     1     -33.645   4.264   4.428  1.00 20.00     0.083 C 
HETATM    7 CL11 UNL     1     -33.527   2.492   4.619  1.00 20.00    -0.125 Cl
ENDROOT
BRANCH   5   8
HETATM    8  C7  UNL     1     -32.616   6.594   1.500  1.00 20.00     0.391 C 
HETATM    9  F8  UNL     1     -33.511   6.327   0.537  1.00 20.00    -0.171 F 
HETATM   10  F9  UNL     1     -32.336   7.905   1.481  1.00 20.00    -0.171 F 
HETATM   11  F10 UNL     1     -31.492   5.905   1.250  1.00 20.00    -0.171 F 
ENDBRANCH   5   8
TORSDOF 1
ENDMDL
MODEL 6
REMARK VINA RESULT:      -1.1      3.459      4.510
REMARK  1 active torsions:
REMARK  status: ('A' for Active; 'I' for Inactive)
REMARK    1  A    between atoms: C5_5  and  C7_7 
ROOT
HETATM    1  C1  UNL     1     -35.257   6.190   4.325  1.00 20.00     0.002 C 
HETATM    2  C2  UNL     1     -34.649   6.631   2.995  1.00 20.00     0.013 C 
HETATM    3  C3  UNL     1     -35.107   4.686   4.542  1.00 20.00     0.020 C 
HETATM    4  C4  UNL     1     -33.038   4.684   3.087  1.00 20.00     0.033 C 
HETATM    5  C5  UNL     1     -33.182   6.198   2.869  1.00 20.00     0.095 C 
HETATM    6  C6  UNL     1     -33.645   4.255   4.423  1.00 20.00     0.083 C 
HETATM    7 CL11 UNL     1     -33.520   2.483   4.607  1.00 20.00    -0.125 Cl
ENDROOT
BRANCH   5   8
HETATM    8  C7  UNL     1     -32.615   6.603   1.510  1.00 20.00     0.391 C 
HETATM    9  F8  UNL     1     -32.359   7.919   1.492  1.00 20.00    -0.171 F 
HETATM   10  F9  UNL     1     -31.477   5.935   1.269  1.00 20.00    -0.171 F 
HETATM   11  F10 UNL     1     -33.499   6.319   0.541  1.00 20.00    -0.171 F 
ENDBRANCH   5   8
TORSDOF 1
ENDMDL
MODEL 7
REMARK VINA RESULT:      -0.8      3.313      4.050
REMARK  1 active torsions:
REMARK  status: ('A' for Active; 'I' for Inactive)
REMARK    1  A    between atoms: C5_5  and  C7_7 
ROOT
HETATM    1  C1  UNL     1     -32.864   4.783   1.744  1.00 20.00     0.002 C 
HETATM    2  C2  UNL     1     -31.976   6.015   1.577  1.00 20.00     0.013 C 
HETATM    3  C3  UNL     1     -33.664   4.837   3.043  1.00 20.00     0.020 C 
HETATM    4  C4  UNL     1     -33.586   7.365   2.984  1.00 20.00     0.033 C 
HETATM    5  C5  UNL     1     -32.784   7.316   1.675  1.00 20.00     0.095 C 
HETATM    6  C6  UNL     1     -34.475   6.130   3.137  1.00 20.00     0.083 C 
HETATM    7 CL11 UNL     1     -35.337   6.191   4.701  1.00 20.00    -0.125 Cl
ENDROOT
BRANCH   5   8
HETATM    8  C7  UNL     1     -31.867   8.531   1.560  1.00 20.00     0.391 C 
HETATM    9  F8  UNL     1     -30.956   8.330   0.596  1.00 20.00    -0.171 F 
HETATM   10  F9  UNL     1     -32.584   9.623   1.259  1.00 20.00    -0.171 F 
HETATM   11  F10 UNL     1     -31.229   8.736   2.723  1.00 20.00    -0.171 F 
ENDBRANCH   5   8
TORSDOF 1
ENDMDL
MODEL 8
REMARK VINA RESULT:      -0.4      3.638      4.369
REMARK  1 active torsions:
REMARK  status: ('A' for Active; 'I' for Inactive)
REMARK    1  A    between atoms: C5_5  and  C7_7 
ROOT
HETATM    1  C1  UNL     1     -32.955   5.695   1.729  1.00 20.00     0.002 C 
HETATM    2  C2  UNL     1     -32.219   6.792   0.962  1.00 20.00     0.013 C 
HETATM    3  C3  UNL     1     -33.137   6.061   3.200  1.00 20.00     0.020 C 
HETATM    4  C4  UNL     1     -33.091   8.516   2.594  1.00 20.00     0.033 C 
HETATM    5  C5  UNL     1     -32.912   8.153   1.112  1.00 20.00     0.095 C 
HETATM    6  C6  UNL     1     -33.833   7.413   3.350  1.00 20.00     0.083 C 
HETATM    7 CL11 UNL     1     -33.960   7.842   5.079  1.00 20.00    -0.125 Cl
ENDROOT
BRANCH   5   8
HETATM    8  C7  UNL     1     -32.128   9.240   0.382  1.00 20.00     0.391 C 
HETATM    9  F8  UNL     1     -32.170  10.385   1.079  1.00 20.00    -0.171 F 
HETATM   10  F9  UNL     1     -30.848   8.866   0.237  1.00 20.00    -0.171 F 
HETATM   11  F10 UNL     1     -32.659   9.452  -0.833  1.00 20.00    -0.171 F 
ENDBRANCH   5   8
TORSDOF 1
ENDMDL
MODEL 9
REMARK VINA RESULT:      -0.2      3.639      4.589
REMARK  1 active torsions:
REMARK  status: ('A' for Active; 'I' for Inactive)
REMARK    1  A    between atoms: C5_5  and  C7_7 
ROOT
HETATM    1  C1  UNL     1     -33.507   7.477   3.363  1.00 20.00     0.002 C 
HETATM    2  C2  UNL     1     -33.452   8.631   2.364  1.00 20.00     0.013 C 
HETATM    3  C3  UNL     1     -33.443   6.122   2.663  1.00 20.00     0.020 C 
HETATM    4  C4  UNL     1     -32.161   7.171   0.752  1.00 20.00     0.033 C 
HETATM    5  C5  UNL     1     -32.219   8.536   1.454  1.00 20.00     0.095 C 
HETATM    6  C6  UNL     1     -32.212   6.024   1.762  1.00 20.00     0.083 C 
HETATM    7 CL11 UNL     1     -32.213   4.458   0.904  1.00 20.00    -0.125 Cl
ENDROOT
BRANCH   5   8
HETATM    8  C7  UNL     1     -32.216   9.669   0.430  1.00 20.00     0.391 C 
HETATM    9  F8  UNL     1     -31.021   9.740  -0.174  1.00 20.00    -0.171 F 
HETATM   10  F9  UNL     1     -33.160   9.453  -0.498  1.00 20.00    -0.171 F 
HETATM   11  F10 UNL     1     -32.465  10.839   1.040  1.00 20.00    -0.171 F 
ENDBRANCH   5   8
TORSDOF 1
ENDMDL
