MODEL 1
REMARK VINA RESULT:      -2.4      0.000      0.000
REMARK  4 active torsions:
REMARK  status: ('A' for Active; 'I' for Inactive)
REMARK    1  A    between atoms: C5_5  and  C6_6 
REMARK    2  A    between atoms: C6_6  and  C8_8 
REMARK    3  A    between atoms: C7_7  and  C8_8 
REMARK    4  A    between atoms: C7_7  and  C9_9 
ROOT
HETATM    1  C1  UNL     1     -33.496   3.523   4.173  1.00 20.00     0.012 C 
HETATM    2  C2  UNL     1     -34.340   4.365   4.310  1.00 20.00    -0.117 C 
HETATM    3  C5  UNL     1     -35.374   5.395   4.481  1.00 20.00     0.093 C 
ENDROOT
BRANCH   3   4
HETATM    4  C6  UNL     1     -35.074   6.665   3.680  1.00 20.00     0.016 C 
BRANCH   4   5
HETATM    5  C8  UNL     1     -33.653   7.255   3.856  1.00 20.00    -0.016 C 
HETATM    6  C3  UNL     1     -33.629   8.106   5.131  1.00 20.00     0.010 C 
BRANCH   5   7
HETATM    7  C7  UNL     1     -33.216   8.067   2.615  1.00 20.00     0.024 C 
BRANCH   7   8
HETATM    8  C9  UNL     1     -31.994   7.532   1.851  1.00 20.00     0.078 C 
HETATM    9  C4  UNL     1     -31.716   8.374   0.610  1.00 20.00     0.026 C 
HETATM   10 CL10 UNL     1     -32.242   5.833   1.349  1.00 20.00    -0.125 Cl
ENDBRANCH   7   8
ENDBRANCH   5   7
ENDBRANCH   4   5
ENDBRANCH   3   4
TORSDOF 4
ENDMDL
MODEL 2
REMARK VINA RESULT:      -2.3      2.073      5.093
REMARK  4 active torsions:
REMARK  status: ('A' for Active; 'I' for Inactive)
REMARK    1  A    between atoms: C5_5  and  C6_6 
REMARK    2  A    between atoms: C6_6  and  C8_8 
REMARK    3  A    between atoms: C7_7  and  C8_8 
REMARK    4  A    between atoms: C7_7  and  C9_9 
ROOT
HETATM    1  C1  UNL     1     -32.713  10.261  -0.401  1.00 20.00     0.012 C 
HETATM    2  C2  UNL     1     -32.393   9.579   0.533  1.00 20.00    -0.117 C 
HETATM    3  C5  UNL     1     -32.002   8.747   1.679  1.00 20.00     0.093 C 
ENDROOT
BRANCH   3   4
HETATM    4  C6  UNL     1     -31.561   7.342   1.260  1.00 20.00     0.016 C 
BRANCH   4   5
HETATM    5  C8  UNL     1     -32.371   6.170   1.866  1.00 20.00    -0.016 C 
HETATM    6  C3  UNL     1     -32.448   5.040   0.832  1.00 20.00     0.010 C 
BRANCH   5   7
HETATM    7  C7  UNL     1     -33.776   6.625   2.325  1.00 20.00     0.024 C 
BRANCH   7   8
HETATM    8  C9  UNL     1     -34.081   6.471   3.824  1.00 20.00     0.078 C 
HETATM    9  C4  UNL     1     -35.526   6.032   4.042  1.00 20.00     0.026 C 
HETATM   10 CL10 UNL     1     -33.808   8.007   4.698  1.00 20.00    -0.125 Cl
ENDBRANCH   7   8
ENDBRANCH   5   7
ENDBRANCH   4   5
ENDBRANCH   3   4
TORSDOF 4
ENDMDL
MODEL 3
REMARK VINA RESULT:      -2.1      1.880      4.938
REMARK  4 active torsions:
REMARK  status: ('A' for Active; 'I' for Inactive)
REMARK    1  A    between atoms: C5_5  and  C6_6 
REMARK    2  A    between atoms: C6_6  and  C8_8 
REMARK    3  A    between atoms: C7_7  and  C8_8 
REMARK    4  A    between atoms: C7_7  and  C9_9 
ROOT
HETATM    1  C1  UNL     1     -32.680   9.992  -0.302  1.00 20.00     0.012 C 
HETATM    2  C2  UNL     1     -32.279   9.329   0.614  1.00 20.00    -0.117 C 
HETATM    3  C5  UNL     1     -31.786   8.521   1.738  1.00 20.00     0.093 C 
ENDROOT
BRANCH   3   4
HETATM    4  C6  UNL     1     -32.212   7.053   1.635  1.00 20.00     0.016 C 
BRANCH   4   5
HETATM    5  C8  UNL     1     -33.479   6.659   2.434  1.00 20.00    -0.016 C 
HETATM    6  C3  UNL     1     -33.528   7.495   3.719  1.00 20.00     0.010 C 
BRANCH   5   7
HETATM    7  C7  UNL     1     -33.515   5.143   2.733  1.00 20.00     0.024 C 
BRANCH   7   8
HETATM    8  C9  UNL     1     -33.856   4.746   4.179  1.00 20.00     0.078 C 
HETATM    9  C4  UNL     1     -33.585   3.263   4.413  1.00 20.00     0.026 C 
HETATM   10 CL10 UNL     1     -35.572   5.083   4.551  1.00 20.00    -0.125 Cl
ENDBRANCH   7   8
ENDBRANCH   5   7
ENDBRANCH   4   5
ENDBRANCH   3   4
TORSDOF 4
ENDMDL
MODEL 4
REMARK VINA RESULT:      -2.0      1.880      4.856
REMARK  4 active torsions:
REMARK  status: ('A' for Active; 'I' for Inactive)
REMARK    1  A    between atoms: C5_5  and  C6_6 
REMARK    2  A    between atoms: C6_6  and  C8_8 
REMARK    3  A    between atoms: C7_7  and  C8_8 
REMARK    4  A    between atoms: C7_7  and  C9_9 
ROOT
HETATM    1  C1  UNL     1     -32.600  10.157  -0.040  1.00 20.00     0.012 C 
HETATM    2  C2  UNL     1     -32.320   9.296   0.748  1.00 20.00    -0.117 C 
HETATM    3  C5  UNL     1     -31.975   8.244   1.714  1.00 20.00     0.093 C 
ENDROOT
BRANCH   3   4
HETATM    4  C6  UNL     1     -32.813   6.977   1.525  1.00 20.00     0.016 C 
BRANCH   4   5
HETATM    5  C8  UNL     1     -33.580   6.479   2.775  1.00 20.00    -0.016 C 
HETATM    6  C3  UNL     1     -33.512   7.565   3.856  1.00 20.00     0.010 C 
BRANCH   5   7
HETATM    7  C7  UNL     1     -33.027   5.127   3.282  1.00 20.00     0.024 C 
BRANCH   7   8
HETATM    8  C9  UNL     1     -34.063   4.140   3.844  1.00 20.00     0.078 C 
HETATM    9  C4  UNL     1     -35.137   4.875   4.640  1.00 20.00     0.026 C 
HETATM   10 CL10 UNL     1     -33.286   2.929   4.907  1.00 20.00    -0.125 Cl
ENDBRANCH   7   8
ENDBRANCH   5   7
ENDBRANCH   4   5
ENDBRANCH   3   4
TORSDOF 4
ENDMDL
MODEL 5
REMARK VINA RESULT:      -1.8      1.847      2.421
REMARK  4 active torsions:
REMARK  status: ('A' for Active; 'I' for Inactive)
REMARK    1  A    between atoms: C5_5  and  C6_6 
REMARK    2  A    between atoms: C6_6  and  C8_8 
REMARK    3  A    between atoms: C7_7  and  C8_8 
REMARK    4  A    between atoms: C7_7  and  C9_9 
ROOT
HETATM    1  C1  UNL     1     -33.832   3.515   4.468  1.00 20.00     0.012 C 
HETATM    2  C2  UNL     1     -34.248   4.596   4.153  1.00 20.00    -0.117 C 
HETATM    3  C5  UNL     1     -34.762   5.918   3.769  1.00 20.00     0.093 C 
ENDROOT
BRANCH   3   4
HETATM    4  C6  UNL     1     -33.641   6.929   3.511  1.00 20.00     0.016 C 
BRANCH   4   5
HETATM    5  C8  UNL     1     -33.191   7.077   2.036  1.00 20.00    -0.016 C 
HETATM    6  C3  UNL     1     -32.541   5.762   1.587  1.00 20.00     0.010 C 
BRANCH   5   7
HETATM    7  C7  UNL     1     -32.238   8.281   1.850  1.00 20.00     0.024 C 
BRANCH   7   8
HETATM    8  C9  UNL     1     -32.364   9.044   0.522  1.00 20.00     0.078 C 
HETATM    9  C4  UNL     1     -31.082   8.925  -0.297  1.00 20.00     0.026 C 
HETATM   10 CL10 UNL     1     -32.707  10.776   0.804  1.00 20.00    -0.125 Cl
ENDBRANCH   7   8
ENDBRANCH   5   7
ENDBRANCH   4   5
ENDBRANCH   3   4
TORSDOF 4
ENDMDL
MODEL 6
REMARK VINA RESULT:      -1.8      1.228      1.318
REMARK  4 active torsions:
REMARK  status: ('A' for Active; 'I' for Inactive)
REMARK    1  A    between atoms: C5_5  and  C6_6 
REMARK    2  A    between atoms: C6_6  and  C8_8 
REMARK    3  A    between atoms: C7_7  and  C8_8 
REMARK    4  A    between atoms: C7_7  and  C9_9 
ROOT
HETATM    1  C1  UNL     1     -33.712   3.704   4.219  1.00 20.00     0.012 C 
HETATM    2  C2  UNL     1     -34.453   4.647   4.183  1.00 20.00    -0.117 C 
HETATM    3  C5  UNL     1     -35.363   5.800   4.141  1.00 20.00     0.093 C 
ENDROOT
BRANCH   3   4
HETATM    4  C6  UNL     1     -34.706   7.043   3.534  1.00 20.00     0.016 C 
BRANCH   4   5
HETATM    5  C8  UNL     1     -33.311   7.413   4.095  1.00 20.00    -0.016 C 
HETATM    6  C3  UNL     1     -33.500   8.258   5.361  1.00 20.00     0.010 C 
BRANCH   5   7
HETATM    7  C7  UNL     1     -32.448   8.143   3.040  1.00 20.00     0.024 C 
BRANCH   7   8
HETATM    8  C9  UNL     1     -32.650   7.705   1.581  1.00 20.00     0.078 C 
HETATM    9  C4  UNL     1     -31.955   6.374   1.312  1.00 20.00     0.026 C 
HETATM   10 CL10 UNL     1     -32.005   8.929   0.447  1.00 20.00    -0.125 Cl
ENDBRANCH   7   8
ENDBRANCH   5   7
ENDBRANCH   4   5
ENDBRANCH   3   4
TORSDOF 4
ENDMDL
MODEL 7
REMARK VINA RESULT:      -1.7      2.100      3.121
REMARK  4 active torsions:
REMARK  status: ('A' for Active; 'I' for Inactive)
REMARK    1  A    between atoms: C5_5  and  C6_6 
REMARK    2  A    between atoms: C6_6  and  C8_8 
REMARK    3  A    between atoms: C7_7  and  C8_8 
REMARK    4  A    between atoms: C7_7  and  C9_9 
ROOT
HETATM    1  C1  UNL     1     -35.403   5.470   4.172  1.00 20.00     0.012 C 
HETATM    2  C2  UNL     1     -34.822   6.518   4.106  1.00 20.00    -0.117 C 
HETATM    3  C5  UNL     1     -34.112   7.802   4.027  1.00 20.00     0.093 C 
ENDROOT
BRANCH   3   4
HETATM    4  C6  UNL     1     -32.730   7.669   3.380  1.00 20.00     0.016 C 
BRANCH   4   5
HETATM    5  C8  UNL     1     -32.719   7.479   1.843  1.00 20.00    -0.016 C 
HETATM    6  C3  UNL     1     -32.142   6.094   1.525  1.00 20.00     0.010 C 
BRANCH   5   7
HETATM    7  C7  UNL     1     -31.931   8.606   1.136  1.00 20.00     0.024 C 
BRANCH   7   8
HETATM    8  C9  UNL     1     -32.772   9.732   0.514  1.00 20.00     0.078 C 
HETATM    9  C4  UNL     1     -32.498   9.852  -0.982  1.00 20.00     0.026 C 
HETATM   10 CL10 UNL     1     -32.419  11.303   1.291  1.00 20.00    -0.125 Cl
ENDBRANCH   7   8
ENDBRANCH   5   7
ENDBRANCH   4   5
ENDBRANCH   3   4
TORSDOF 4
ENDMDL
MODEL 8
REMARK VINA RESULT:      -1.3      1.354      1.496
REMARK  4 active torsions:
REMARK  status: ('A' for Active; 'I' for Inactive)
REMARK    1  A    between atoms: C5_5  and  C6_6 
REMARK    2  A    between atoms: C6_6  and  C8_8 
REMARK    3  A    between atoms: C7_7  and  C8_8 
REMARK    4  A    between atoms: C7_7  and  C9_9 
ROOT
HETATM    1  C1  UNL     1     -33.406   3.335   4.394  1.00 20.00     0.012 C 
HETATM    2  C2  UNL     1     -34.303   4.129   4.474  1.00 20.00    -0.117 C 
HETATM    3  C5  UNL     1     -35.402   5.098   4.574  1.00 20.00     0.093 C 
ENDROOT
BRANCH   3   4
HETATM    4  C6  UNL     1     -35.146   6.361   3.746  1.00 20.00     0.016 C 
BRANCH   4   5
HETATM    5  C8  UNL     1     -33.681   6.859   3.707  1.00 20.00    -0.016 C 
HETATM    6  C3  UNL     1     -33.602   8.212   4.423  1.00 20.00     0.010 C 
BRANCH   5   7
HETATM    7  C7  UNL     1     -33.147   6.944   2.258  1.00 20.00     0.024 C 
BRANCH   7   8
HETATM    8  C9  UNL     1     -33.075   5.618   1.484  1.00 20.00     0.078 C 
HETATM    9  C4  UNL     1     -31.635   5.289   1.101  1.00 20.00     0.026 C 
HETATM   10 CL10 UNL     1     -34.064   5.687  -0.004  1.00 20.00    -0.125 Cl
ENDBRANCH   7   8
ENDBRANCH   5   7
ENDBRANCH   4   5
ENDBRANCH   3   4
TORSDOF 4
ENDMDL
MODEL 9
REMARK VINA RESULT:      -1.2      1.505      3.165
REMARK  4 active torsions:
REMARK  status: ('A' for Active; 'I' for Inactive)
REMARK    1  A    between atoms: C5_5  and  C6_6 
REMARK    2  A    between atoms: C6_6  and  C8_8 
REMARK    3  A    between atoms: C7_7  and  C8_8 
REMARK    4  A    between atoms: C7_7  and  C9_9 
ROOT
HETATM    1  C1  UNL     1     -33.486   8.312   4.790  1.00 20.00     0.012 C 
HETATM    2  C2  UNL     1     -34.284   7.517   4.377  1.00 20.00    -0.117 C 
HETATM    3  C5  UNL     1     -35.262   6.546   3.869  1.00 20.00     0.093 C 
ENDROOT
BRANCH   3   4
HETATM    4  C6  UNL     1     -34.997   5.126   4.378  1.00 20.00     0.016 C 
BRANCH   4   5
HETATM    5  C8  UNL     1     -33.962   4.301   3.574  1.00 20.00    -0.016 C 
HETATM    6  C3  UNL     1     -33.487   3.130   4.441  1.00 20.00     0.010 C 
BRANCH   5   7
HETATM    7  C7  UNL     1     -32.782   5.178   3.096  1.00 20.00     0.024 C 
BRANCH   7   8
HETATM    8  C9  UNL     1     -32.881   5.726   1.663  1.00 20.00     0.078 C 
HETATM    9  C4  UNL     1     -32.162   4.808   0.680  1.00 20.00     0.026 C 
HETATM   10 CL10 UNL     1     -32.169   7.362   1.549  1.00 20.00    -0.125 Cl
ENDBRANCH   7   8
ENDBRANCH   5   7
ENDBRANCH   4   5
ENDBRANCH   3   4
TORSDOF 4
ENDMDL
