MODEL 1
REMARK VINA RESULT:      -2.9      0.000      0.000
REMARK  1 active torsions:
REMARK  status: ('A' for Active; 'I' for Inactive)
REMARK    1  A    between atoms: C7_7  and  C8_8 
ROOT
HETATM    1  C1  UNL     1     -32.351   9.001   0.990  1.00 20.00     0.064 C 
HETATM    2  C2  UNL     1     -32.362   5.816   1.035  1.00 20.00     0.002 C 
HETATM    3  C3  UNL     1     -31.261   6.767   1.499  1.00 20.00     0.019 C 
HETATM    4  C4  UNL     1     -33.380   5.548   2.141  1.00 20.00     0.013 C 
HETATM    5  C5  UNL     1     -32.856   7.799   3.168  1.00 20.00     0.032 C 
HETATM    6  C6  UNL     1     -31.805   8.078   2.082  1.00 20.00     0.093 C 
HETATM    7  C7  UNL     1     -33.968   6.847   2.702  1.00 20.00     0.095 C 
HETATM    8  N9  UNL     1     -32.765   9.700   0.161  1.00 20.00    -0.197 NA
ENDROOT
BRANCH   7   9
HETATM    9  C8  UNL     1     -34.885   6.550   3.817  1.00 20.00     0.391 C 
HETATM   10  F10 UNL     1     -34.683   7.419   4.818  1.00 20.00    -0.171 F 
HETATM   11  F11 UNL     1     -36.154   6.648   3.401  1.00 20.00    -0.171 F 
HETATM   12  F12 UNL     1     -34.667   5.306   4.267  1.00 20.00    -0.171 F 
ENDBRANCH   7   9
TORSDOF 1
ENDMDL
MODEL 2
REMARK VINA RESULT:      -0.3      1.842      2.759
REMARK  1 active torsions:
REMARK  status: ('A' for Active; 'I' for Inactive)
REMARK    1  A    between atoms: C7_7  and  C8_8 
ROOT
HETATM    1  C1  UNL     1     -31.756   5.339   1.313  1.00 20.00     0.064 C 
HETATM    2  C2  UNL     1     -32.043   8.040   2.976  1.00 20.00     0.002 C 
HETATM    3  C3  UNL     1     -32.210   7.830   1.473  1.00 20.00     0.019 C 
HETATM    4  C4  UNL     1     -33.345   7.777   3.730  1.00 20.00     0.013 C 
HETATM    5  C5  UNL     1     -34.076   6.181   1.910  1.00 20.00     0.032 C 
HETATM    6  C6  UNL     1     -32.787   6.453   1.118  1.00 20.00     0.093 C 
HETATM    7  C7  UNL     1     -33.910   6.386   3.423  1.00 20.00     0.095 C 
HETATM    8  N9  UNL     1     -30.974   4.495   1.462  1.00 20.00    -0.197 NA
ENDROOT
BRANCH   7   9
HETATM    9  C8  UNL     1     -35.202   6.200   4.107  1.00 20.00     0.391 C 
HETATM   10  F10 UNL     1     -35.351   4.915   4.459  1.00 20.00    -0.171 F 
HETATM   11  F11 UNL     1     -35.251   6.964   5.206  1.00 20.00    -0.171 F 
HETATM   12  F12 UNL     1     -36.205   6.547   3.288  1.00 20.00    -0.171 F 
ENDBRANCH   7   9
TORSDOF 1
ENDMDL
MODEL 3
REMARK VINA RESULT:      -0.2      3.113      4.059
REMARK  1 active torsions:
REMARK  status: ('A' for Active; 'I' for Inactive)
REMARK    1  A    between atoms: C7_7  and  C8_8 
ROOT
HETATM    1  C1  UNL     1     -33.734   7.880   4.805  1.00 20.00     0.064 C 
HETATM    2  C2  UNL     1     -34.454   4.816   4.314  1.00 20.00     0.002 C 
HETATM    3  C3  UNL     1     -35.356   6.038   4.158  1.00 20.00     0.019 C 
HETATM    4  C4  UNL     1     -33.660   4.535   3.041  1.00 20.00     0.013 C 
HETATM    5  C5  UNL     1     -33.773   6.986   2.429  1.00 20.00     0.032 C 
HETATM    6  C6  UNL     1     -34.599   7.288   3.689  1.00 20.00     0.093 C 
HETATM    7  C7  UNL     1     -32.860   5.760   2.584  1.00 20.00     0.095 C 
HETATM    8  N9  UNL     1     -33.079   8.327   5.652  1.00 20.00    -0.197 NA
ENDROOT
BRANCH   7   9
HETATM    9  C8  UNL     1     -32.171   5.474   1.314  1.00 20.00     0.391 C 
HETATM   10  F10 UNL     1     -31.202   4.569   1.514  1.00 20.00    -0.171 F 
HETATM   11  F11 UNL     1     -33.044   4.990   0.421  1.00 20.00    -0.171 F 
HETATM   12  F12 UNL     1     -31.626   6.598   0.828  1.00 20.00    -0.171 F 
ENDBRANCH   7   9
TORSDOF 1
ENDMDL
