MODEL 1
REMARK VINA RESULT:      -2.3      0.000      0.000
REMARK  3 active torsions:
REMARK  status: ('A' for Active; 'I' for Inactive)
REMARK    1  A    between atoms: C5_5  and  C7_7 
REMARK    2  A    between atoms: C6_6  and  C7_7 
REMARK    3  A    between atoms: C6_6  and  C8_8 
ROOT
HETATM    1  C1  UNL     1     -32.381   9.923   0.147  1.00 20.00     0.012 C 
HETATM    2  C2  UNL     1     -32.201   8.985   0.875  1.00 20.00    -0.117 C 
HETATM    3  C5  UNL     1     -31.974   7.836   1.763  1.00 20.00     0.097 C 
ENDROOT
BRANCH   3   4
HETATM    4  C7  UNL     1     -33.228   7.403   2.548  1.00 20.00    -0.006 C 
HETATM    5  C3  UNL     1     -33.226   7.986   3.967  1.00 20.00     0.011 C 
BRANCH   4   6
HETATM    6  C6  UNL     1     -33.440   5.872   2.614  1.00 20.00     0.025 C 
BRANCH   6   7
HETATM    7  C8  UNL     1     -33.929   5.318   3.962  1.00 20.00     0.078 C 
HETATM    8  C4  UNL     1     -33.803   3.798   4.003  1.00 20.00     0.026 C 
HETATM    9 CL9  UNL     1     -35.635   5.763   4.260  1.00 20.00    -0.125 Cl
ENDBRANCH   6   7
ENDBRANCH   4   6
ENDBRANCH   3   4
TORSDOF 3
ENDMDL
MODEL 2
REMARK VINA RESULT:      -2.3      2.450      4.559
REMARK  3 active torsions:
REMARK  status: ('A' for Active; 'I' for Inactive)
REMARK    1  A    between atoms: C5_5  and  C7_7 
REMARK    2  A    between atoms: C6_6  and  C7_7 
REMARK    3  A    between atoms: C6_6  and  C8_8 
ROOT
HETATM    1  C1  UNL     1     -33.162   2.874   4.683  1.00 20.00     0.012 C 
HETATM    2  C2  UNL     1     -33.845   3.830   4.435  1.00 20.00    -0.117 C 
HETATM    3  C5  UNL     1     -34.687   4.996   4.131  1.00 20.00     0.097 C 
ENDROOT
BRANCH   3   4
HETATM    4  C7  UNL     1     -33.905   6.192   3.554  1.00 20.00    -0.006 C 
HETATM    5  C3  UNL     1     -34.357   7.513   4.192  1.00 20.00     0.011 C 
BRANCH   4   6
HETATM    6  C6  UNL     1     -33.968   6.310   2.013  1.00 20.00     0.025 C 
BRANCH   6   7
HETATM    7  C8  UNL     1     -32.616   6.426   1.292  1.00 20.00     0.078 C 
HETATM    8  C4  UNL     1     -31.768   5.179   1.521  1.00 20.00     0.026 C 
HETATM    9 CL9  UNL     1     -31.703   7.855   1.860  1.00 20.00    -0.125 Cl
ENDBRANCH   6   7
ENDBRANCH   4   6
ENDBRANCH   3   4
TORSDOF 3
ENDMDL
MODEL 3
REMARK VINA RESULT:      -2.2      2.182      4.801
REMARK  3 active torsions:
REMARK  status: ('A' for Active; 'I' for Inactive)
REMARK    1  A    between atoms: C5_5  and  C7_7 
REMARK    2  A    between atoms: C6_6  and  C7_7 
REMARK    3  A    between atoms: C6_6  and  C8_8 
ROOT
HETATM    1  C1  UNL     1     -33.138   2.844   4.729  1.00 20.00     0.012 C 
HETATM    2  C2  UNL     1     -33.845   3.780   4.474  1.00 20.00    -0.117 C 
HETATM    3  C5  UNL     1     -34.717   4.922   4.163  1.00 20.00     0.097 C 
ENDROOT
BRANCH   3   4
HETATM    4  C7  UNL     1     -33.949   6.187   3.732  1.00 20.00    -0.006 C 
HETATM    5  C3  UNL     1     -34.694   7.461   4.155  1.00 20.00     0.011 C 
BRANCH   4   6
HETATM    6  C6  UNL     1     -33.624   6.251   2.221  1.00 20.00     0.025 C 
BRANCH   6   7
HETATM    7  C8  UNL     1     -32.138   6.395   1.859  1.00 20.00     0.078 C 
HETATM    8  C4  UNL     1     -31.848   7.780   1.289  1.00 20.00     0.026 C 
HETATM    9 CL9  UNL     1     -31.645   5.165   0.658  1.00 20.00    -0.125 Cl
ENDBRANCH   6   7
ENDBRANCH   4   6
ENDBRANCH   3   4
TORSDOF 3
ENDMDL
MODEL 4
REMARK VINA RESULT:      -2.2      1.793      2.233
REMARK  3 active torsions:
REMARK  status: ('A' for Active; 'I' for Inactive)
REMARK    1  A    between atoms: C5_5  and  C7_7 
REMARK    2  A    between atoms: C6_6  and  C7_7 
REMARK    3  A    between atoms: C6_6  and  C8_8 
ROOT
HETATM    1  C1  UNL     1     -32.769  10.578   0.444  1.00 20.00     0.012 C 
HETATM    2  C2  UNL     1     -32.268   9.487   0.483  1.00 20.00    -0.117 C 
HETATM    3  C5  UNL     1     -31.653   8.153   0.524  1.00 20.00     0.097 C 
ENDROOT
BRANCH   3   4
HETATM    4  C7  UNL     1     -32.028   7.336   1.776  1.00 20.00    -0.006 C 
HETATM    5  C3  UNL     1     -32.184   5.846   1.443  1.00 20.00     0.011 C 
BRANCH   4   6
HETATM    6  C6  UNL     1     -33.292   7.841   2.510  1.00 20.00     0.025 C 
BRANCH   6   7
HETATM    7  C8  UNL     1     -33.658   7.101   3.806  1.00 20.00     0.078 C 
HETATM    8  C4  UNL     1     -35.091   6.582   3.750  1.00 20.00     0.026 C 
HETATM    9 CL9  UNL     1     -33.490   8.171   5.229  1.00 20.00    -0.125 Cl
ENDBRANCH   6   7
ENDBRANCH   4   6
ENDBRANCH   3   4
TORSDOF 3
ENDMDL
MODEL 5
REMARK VINA RESULT:      -2.1      1.478      2.078
REMARK  3 active torsions:
REMARK  status: ('A' for Active; 'I' for Inactive)
REMARK    1  A    between atoms: C5_5  and  C7_7 
REMARK    2  A    between atoms: C6_6  and  C7_7 
REMARK    3  A    between atoms: C6_6  and  C8_8 
ROOT
HETATM    1  C1  UNL     1     -32.578   9.747   0.160  1.00 20.00     0.012 C 
HETATM    2  C2  UNL     1     -32.117   8.925   0.904  1.00 20.00    -0.117 C 
HETATM    3  C5  UNL     1     -31.547   7.921   1.814  1.00 20.00     0.097 C 
ENDROOT
BRANCH   3   4
HETATM    4  C7  UNL     1     -32.521   6.781   2.168  1.00 20.00    -0.006 C 
HETATM    5  C3  UNL     1     -32.451   5.648   1.135  1.00 20.00     0.011 C 
BRANCH   4   6
HETATM    6  C6  UNL     1     -33.991   7.232   2.347  1.00 20.00     0.025 C 
BRANCH   6   7
HETATM    7  C8  UNL     1     -34.586   7.041   3.750  1.00 20.00     0.078 C 
HETATM    8  C4  UNL     1     -33.769   7.794   4.795  1.00 20.00     0.026 C 
HETATM    9 CL9  UNL     1     -34.639   5.310   4.198  1.00 20.00    -0.125 Cl
ENDBRANCH   6   7
ENDBRANCH   4   6
ENDBRANCH   3   4
TORSDOF 3
ENDMDL
MODEL 6
REMARK VINA RESULT:      -2.0      2.579      4.902
REMARK  3 active torsions:
REMARK  status: ('A' for Active; 'I' for Inactive)
REMARK    1  A    between atoms: C5_5  and  C7_7 
REMARK    2  A    between atoms: C6_6  and  C7_7 
REMARK    3  A    between atoms: C6_6  and  C8_8 
ROOT
HETATM    1  C1  UNL     1     -35.410   6.076   4.089  1.00 20.00     0.012 C 
HETATM    2  C2  UNL     1     -34.466   6.758   3.795  1.00 20.00    -0.117 C 
HETATM    3  C5  UNL     1     -33.312   7.597   3.440  1.00 20.00     0.097 C 
ENDROOT
BRANCH   3   4
HETATM    4  C7  UNL     1     -32.904   7.494   1.957  1.00 20.00    -0.006 C 
HETATM    5  C3  UNL     1     -32.676   6.034   1.542  1.00 20.00     0.011 C 
BRANCH   4   6
HETATM    6  C6  UNL     1     -31.669   8.343   1.576  1.00 20.00     0.025 C 
BRANCH   6   7
HETATM    7  C8  UNL     1     -31.921   9.493   0.589  1.00 20.00     0.078 C 
HETATM    8  C4  UNL     1     -32.849  10.540   1.198  1.00 20.00     0.026 C 
HETATM    9 CL9  UNL     1     -32.651   8.892  -0.928  1.00 20.00    -0.125 Cl
ENDBRANCH   6   7
ENDBRANCH   4   6
ENDBRANCH   3   4
TORSDOF 3
ENDMDL
MODEL 7
REMARK VINA RESULT:      -2.0      1.830      4.581
REMARK  3 active torsions:
REMARK  status: ('A' for Active; 'I' for Inactive)
REMARK    1  A    between atoms: C5_5  and  C7_7 
REMARK    2  A    between atoms: C6_6  and  C7_7 
REMARK    3  A    between atoms: C6_6  and  C8_8 
ROOT
HETATM    1  C1  UNL     1     -33.814   3.576   4.382  1.00 20.00     0.012 C 
HETATM    2  C2  UNL     1     -34.201   4.678   4.104  1.00 20.00    -0.117 C 
HETATM    3  C5  UNL     1     -34.681   6.024   3.760  1.00 20.00     0.097 C 
ENDROOT
BRANCH   3   4
HETATM    4  C7  UNL     1     -33.599   7.115   3.872  1.00 20.00    -0.006 C 
HETATM    5  C3  UNL     1     -33.914   8.098   5.008  1.00 20.00     0.011 C 
BRANCH   4   6
HETATM    6  C6  UNL     1     -33.347   7.899   2.562  1.00 20.00     0.025 C 
BRANCH   6   7
HETATM    7  C8  UNL     1     -32.021   7.600   1.844  1.00 20.00     0.078 C 
HETATM    8  C4  UNL     1     -31.823   8.535   0.656  1.00 20.00     0.026 C 
HETATM    9 CL9  UNL     1     -31.971   5.910   1.260  1.00 20.00    -0.125 Cl
ENDBRANCH   6   7
ENDBRANCH   4   6
ENDBRANCH   3   4
TORSDOF 3
ENDMDL
MODEL 8
REMARK VINA RESULT:      -2.0      2.697      4.987
REMARK  3 active torsions:
REMARK  status: ('A' for Active; 'I' for Inactive)
REMARK    1  A    between atoms: C5_5  and  C7_7 
REMARK    2  A    between atoms: C6_6  and  C7_7 
REMARK    3  A    between atoms: C6_6  and  C8_8 
ROOT
HETATM    1  C1  UNL     1     -35.455   6.133   4.043  1.00 20.00     0.012 C 
HETATM    2  C2  UNL     1     -34.445   6.712   3.751  1.00 20.00    -0.117 C 
HETATM    3  C5  UNL     1     -33.208   7.425   3.399  1.00 20.00     0.097 C 
ENDROOT
BRANCH   3   4
HETATM    4  C7  UNL     1     -32.849   7.342   1.903  1.00 20.00    -0.006 C 
HETATM    5  C3  UNL     1     -32.157   6.013   1.569  1.00 20.00     0.011 C 
BRANCH   4   6
HETATM    6  C6  UNL     1     -31.989   8.520   1.388  1.00 20.00     0.025 C 
BRANCH   6   7
HETATM    7  C8  UNL     1     -32.719   9.557   0.521  1.00 20.00     0.078 C 
HETATM    8  C4  UNL     1     -32.238   9.493  -0.925  1.00 20.00     0.026 C 
HETATM    9 CL9  UNL     1     -32.458  11.215   1.141  1.00 20.00    -0.125 Cl
ENDBRANCH   6   7
ENDBRANCH   4   6
ENDBRANCH   3   4
TORSDOF 3
ENDMDL
MODEL 9
REMARK VINA RESULT:      -1.7      1.740      4.825
REMARK  3 active torsions:
REMARK  status: ('A' for Active; 'I' for Inactive)
REMARK    1  A    between atoms: C5_5  and  C7_7 
REMARK    2  A    between atoms: C6_6  and  C7_7 
REMARK    3  A    between atoms: C6_6  and  C8_8 
ROOT
HETATM    1  C1  UNL     1     -32.731   2.787   5.232  1.00 20.00     0.012 C 
HETATM    2  C2  UNL     1     -33.467   3.425   4.531  1.00 20.00    -0.117 C 
HETATM    3  C5  UNL     1     -34.371   4.202   3.670  1.00 20.00     0.097 C 
ENDROOT
BRANCH   3   4
HETATM    4  C7  UNL     1     -34.115   5.721   3.714  1.00 20.00    -0.006 C 
HETATM    5  C3  UNL     1     -35.423   6.500   3.914  1.00 20.00     0.011 C 
BRANCH   4   6
HETATM    6  C6  UNL     1     -33.362   6.275   2.482  1.00 20.00     0.025 C 
BRANCH   6   7
HETATM    7  C8  UNL     1     -32.938   7.750   2.560  1.00 20.00     0.078 C 
HETATM    8  C4  UNL     1     -31.721   8.014   1.678  1.00 20.00     0.026 C 
HETATM    9 CL9  UNL     1     -32.542   8.218   4.240  1.00 20.00    -0.125 Cl
ENDBRANCH   6   7
ENDBRANCH   4   6
ENDBRANCH   3   4
TORSDOF 3
ENDMDL
