MODEL 1
REMARK VINA RESULT:      -2.3      0.000      0.000
REMARK  4 active torsions:
REMARK  status: ('A' for Active; 'I' for Inactive)
REMARK    1  A    between atoms: C2_2  and  C6_6 
REMARK    2  A    between atoms: C6_6  and  C8_8 
REMARK    3  A    between atoms: C7_7  and  C8_8 
REMARK    4  A    between atoms: C7_7  and  C9_9 
ROOT
HETATM    1  C1  UNL     1     -33.932   4.000   4.355  1.00 20.00    -0.111 C 
HETATM    2  C2  UNL     1     -34.478   5.044   4.123  1.00 20.00    -0.107 C 
HETATM    3  C3  UNL     1     -33.266   2.730   4.637  1.00 20.00     0.112 C 
ENDROOT
BRANCH   2   4
HETATM    4  C6  UNL     1     -35.144   6.323   3.833  1.00 20.00     0.098 C 
BRANCH   4   5
HETATM    5  C8  UNL     1     -34.183   7.528   3.814  1.00 20.00    -0.006 C 
HETATM    6  C4  UNL     1     -33.956   8.073   5.232  1.00 20.00     0.011 C 
BRANCH   5   7
HETATM    7  C7  UNL     1     -32.817   7.256   3.139  1.00 20.00     0.020 C 
BRANCH   7   8
HETATM    8  C9  UNL     1     -32.843   7.082   1.616  1.00 20.00     0.054 C 
HETATM    9  C5  UNL     1     -32.222   5.754   1.199  1.00 20.00     0.022 C 
HETATM   10 BR10 UNL     1     -31.825   8.517   0.751  1.00 20.00    -0.092 Br
ENDBRANCH   7   8
ENDBRANCH   5   7
ENDBRANCH   4   5
ENDBRANCH   2   4
TORSDOF 4
ENDMDL
MODEL 2
REMARK VINA RESULT:      -2.1      1.269      1.415
REMARK  4 active torsions:
REMARK  status: ('A' for Active; 'I' for Inactive)
REMARK    1  A    between atoms: C2_2  and  C6_6 
REMARK    2  A    between atoms: C6_6  and  C8_8 
REMARK    3  A    between atoms: C7_7  and  C8_8 
REMARK    4  A    between atoms: C7_7  and  C9_9 
ROOT
HETATM    1  C1  UNL     1     -33.924   3.924   4.418  1.00 20.00    -0.111 C 
HETATM    2  C2  UNL     1     -34.590   4.916   4.299  1.00 20.00    -0.107 C 
HETATM    3  C3  UNL     1     -33.114   2.716   4.564  1.00 20.00     0.112 C 
ENDROOT
BRANCH   2   4
HETATM    4  C6  UNL     1     -35.406   6.132   4.159  1.00 20.00     0.098 C 
BRANCH   4   5
HETATM    5  C8  UNL     1     -34.590   7.382   3.776  1.00 20.00    -0.006 C 
HETATM    6  C4  UNL     1     -33.472   7.644   4.796  1.00 20.00     0.011 C 
BRANCH   5   7
HETATM    7  C7  UNL     1     -33.991   7.351   2.349  1.00 20.00     0.020 C 
BRANCH   7   8
HETATM    8  C9  UNL     1     -32.487   7.075   2.256  1.00 20.00     0.054 C 
HETATM    9  C5  UNL     1     -31.762   8.189   1.510  1.00 20.00     0.022 C 
HETATM   10 BR10 UNL     1     -32.161   5.399   1.293  1.00 20.00    -0.092 Br
ENDBRANCH   7   8
ENDBRANCH   5   7
ENDBRANCH   4   5
ENDBRANCH   2   4
TORSDOF 4
ENDMDL
MODEL 3
REMARK VINA RESULT:      -1.6      2.775      5.441
REMARK  4 active torsions:
REMARK  status: ('A' for Active; 'I' for Inactive)
REMARK    1  A    between atoms: C2_2  and  C6_6 
REMARK    2  A    between atoms: C6_6  and  C8_8 
REMARK    3  A    between atoms: C7_7  and  C8_8 
REMARK    4  A    between atoms: C7_7  and  C9_9 
ROOT
HETATM    1  C1  UNL     1     -32.379   9.668   0.342  1.00 20.00    -0.111 C 
HETATM    2  C2  UNL     1     -32.063   8.706   0.988  1.00 20.00    -0.107 C 
HETATM    3  C3  UNL     1     -32.764  10.839  -0.443  1.00 20.00     0.112 C 
ENDROOT
BRANCH   2   4
HETATM    4  C6  UNL     1     -31.682   7.525   1.777  1.00 20.00     0.098 C 
BRANCH   4   5
HETATM    5  C8  UNL     1     -32.809   6.480   1.907  1.00 20.00    -0.006 C 
HETATM    6  C4  UNL     1     -32.412   5.156   1.238  1.00 20.00     0.011 C 
BRANCH   5   7
HETATM    7  C7  UNL     1     -33.273   6.208   3.359  1.00 20.00     0.020 C 
BRANCH   7   8
HETATM    8  C9  UNL     1     -34.347   5.128   3.530  1.00 20.00     0.054 C 
HETATM    9  C5  UNL     1     -35.534   5.647   4.331  1.00 20.00     0.022 C 
HETATM   10 BR10 UNL     1     -33.610   3.583   4.485  1.00 20.00    -0.092 Br
ENDBRANCH   7   8
ENDBRANCH   5   7
ENDBRANCH   4   5
ENDBRANCH   2   4
TORSDOF 4
ENDMDL
MODEL 4
REMARK VINA RESULT:      -1.0      0.930      1.337
REMARK  4 active torsions:
REMARK  status: ('A' for Active; 'I' for Inactive)
REMARK    1  A    between atoms: C2_2  and  C6_6 
REMARK    2  A    between atoms: C6_6  and  C8_8 
REMARK    3  A    between atoms: C7_7  and  C8_8 
REMARK    4  A    between atoms: C7_7  and  C9_9 
ROOT
HETATM    1  C1  UNL     1     -33.915   3.967   4.330  1.00 20.00    -0.111 C 
HETATM    2  C2  UNL     1     -34.434   5.016   4.056  1.00 20.00    -0.107 C 
HETATM    3  C3  UNL     1     -33.286   2.692   4.665  1.00 20.00     0.112 C 
ENDROOT
BRANCH   2   4
HETATM    4  C6  UNL     1     -35.063   6.303   3.724  1.00 20.00     0.098 C 
BRANCH   4   5
HETATM    5  C8  UNL     1     -34.058   7.387   3.288  1.00 20.00    -0.006 C 
HETATM    6  C4  UNL     1     -33.344   7.997   4.504  1.00 20.00     0.011 C 
BRANCH   5   7
HETATM    7  C7  UNL     1     -33.008   6.917   2.253  1.00 20.00     0.020 C 
BRANCH   7   8
HETATM    8  C9  UNL     1     -31.923   7.935   1.885  1.00 20.00     0.054 C 
HETATM    9  C5  UNL     1     -31.382   8.642   3.122  1.00 20.00     0.022 C 
HETATM   10 BR10 UNL     1     -32.652   9.303   0.685  1.00 20.00    -0.092 Br
ENDBRANCH   7   8
ENDBRANCH   5   7
ENDBRANCH   4   5
ENDBRANCH   2   4
TORSDOF 4
ENDMDL
MODEL 5
REMARK VINA RESULT:      -0.4      1.619      2.532
REMARK  4 active torsions:
REMARK  status: ('A' for Active; 'I' for Inactive)
REMARK    1  A    between atoms: C2_2  and  C6_6 
REMARK    2  A    between atoms: C6_6  and  C8_8 
REMARK    3  A    between atoms: C7_7  and  C8_8 
REMARK    4  A    between atoms: C7_7  and  C9_9 
ROOT
HETATM    1  C1  UNL     1     -33.528   3.564   4.309  1.00 20.00    -0.111 C 
HETATM    2  C2  UNL     1     -33.712   4.562   3.666  1.00 20.00    -0.107 C 
HETATM    3  C3  UNL     1     -33.306   2.350   5.092  1.00 20.00     0.112 C 
ENDROOT
BRANCH   2   4
HETATM    4  C6  UNL     1     -33.935   5.788   2.885  1.00 20.00     0.098 C 
BRANCH   4   5
HETATM    5  C8  UNL     1     -32.776   6.128   1.927  1.00 20.00    -0.006 C 
HETATM    6  C4  UNL     1     -32.465   4.946   0.997  1.00 20.00     0.011 C 
BRANCH   5   7
HETATM    7  C7  UNL     1     -32.990   7.408   1.083  1.00 20.00     0.020 C 
BRANCH   7   8
HETATM    8  C9  UNL     1     -31.895   8.475   1.191  1.00 20.00     0.054 C 
HETATM    9  C5  UNL     1     -31.572   8.796   2.645  1.00 20.00     0.022 C 
HETATM   10 BR10 UNL     1     -32.476  10.136   0.327  1.00 20.00    -0.092 Br
ENDBRANCH   7   8
ENDBRANCH   5   7
ENDBRANCH   4   5
ENDBRANCH   2   4
TORSDOF 4
ENDMDL
MODEL 6
REMARK VINA RESULT:      -0.3      2.000      3.270
REMARK  4 active torsions:
REMARK  status: ('A' for Active; 'I' for Inactive)
REMARK    1  A    between atoms: C2_2  and  C6_6 
REMARK    2  A    between atoms: C6_6  and  C8_8 
REMARK    3  A    between atoms: C7_7  and  C8_8 
REMARK    4  A    between atoms: C7_7  and  C9_9 
ROOT
HETATM    1  C1  UNL     1     -34.616   6.332   3.977  1.00 20.00    -0.111 C 
HETATM    2  C2  UNL     1     -33.844   7.158   3.571  1.00 20.00    -0.107 C 
HETATM    3  C3  UNL     1     -35.556   5.327   4.470  1.00 20.00     0.112 C 
ENDROOT
BRANCH   2   4
HETATM    4  C6  UNL     1     -32.904   8.174   3.075  1.00 20.00     0.098 C 
BRANCH   4   5
HETATM    5  C8  UNL     1     -31.913   7.636   2.023  1.00 20.00    -0.006 C 
HETATM    6  C4  UNL     1     -32.445   6.351   1.372  1.00 20.00     0.011 C 
BRANCH   5   7
HETATM    7  C7  UNL     1     -31.525   8.652   0.922  1.00 20.00     0.020 C 
BRANCH   7   8
HETATM    8  C9  UNL     1     -32.636   9.602   0.461  1.00 20.00     0.054 C 
HETATM    9  C5  UNL     1     -32.660   9.734  -1.057  1.00 20.00     0.022 C 
HETATM   10 BR10 UNL     1     -32.358  11.391   1.213  1.00 20.00    -0.092 Br
ENDBRANCH   7   8
ENDBRANCH   5   7
ENDBRANCH   4   5
ENDBRANCH   2   4
TORSDOF 4
ENDMDL
MODEL 7
REMARK VINA RESULT:      -0.1      1.435      1.455
REMARK  4 active torsions:
REMARK  status: ('A' for Active; 'I' for Inactive)
REMARK    1  A    between atoms: C2_2  and  C6_6 
REMARK    2  A    between atoms: C6_6  and  C8_8 
REMARK    3  A    between atoms: C7_7  and  C8_8 
REMARK    4  A    between atoms: C7_7  and  C9_9 
ROOT
HETATM    1  C1  UNL     1     -33.823   3.615   4.436  1.00 20.00    -0.111 C 
HETATM    2  C2  UNL     1     -34.406   4.645   4.230  1.00 20.00    -0.107 C 
HETATM    3  C3  UNL     1     -33.114   2.362   4.686  1.00 20.00     0.112 C 
ENDROOT
BRANCH   2   4
HETATM    4  C6  UNL     1     -35.119   5.908   3.985  1.00 20.00     0.098 C 
BRANCH   4   5
HETATM    5  C8  UNL     1     -34.231   7.009   3.372  1.00 20.00    -0.006 C 
HETATM    6  C4  UNL     1     -34.045   8.176   4.352  1.00 20.00     0.011 C 
BRANCH   5   7
HETATM    7  C7  UNL     1     -32.847   6.522   2.877  1.00 20.00     0.020 C 
BRANCH   7   8
HETATM    8  C9  UNL     1     -32.705   6.324   1.364  1.00 20.00     0.054 C 
HETATM    9  C5  UNL     1     -34.059   6.095   0.704  1.00 20.00     0.022 C 
HETATM   10 BR10 UNL     1     -31.583   4.762   0.985  1.00 20.00    -0.092 Br
ENDBRANCH   7   8
ENDBRANCH   5   7
ENDBRANCH   4   5
ENDBRANCH   2   4
TORSDOF 4
ENDMDL
MODEL 8
REMARK VINA RESULT:      -0.1      2.655      5.015
REMARK  4 active torsions:
REMARK  status: ('A' for Active; 'I' for Inactive)
REMARK    1  A    between atoms: C2_2  and  C6_6 
REMARK    2  A    between atoms: C6_6  and  C8_8 
REMARK    3  A    between atoms: C7_7  and  C8_8 
REMARK    4  A    between atoms: C7_7  and  C9_9 
ROOT
HETATM    1  C1  UNL     1     -32.428   9.405   0.623  1.00 20.00    -0.111 C 
HETATM    2  C2  UNL     1     -32.130   8.433   1.262  1.00 20.00    -0.107 C 
HETATM    3  C3  UNL     1     -32.788  10.588  -0.156  1.00 20.00     0.112 C 
ENDROOT
BRANCH   2   4
HETATM    4  C6  UNL     1     -31.761   7.245   2.047  1.00 20.00     0.098 C 
BRANCH   4   5
HETATM    5  C8  UNL     1     -32.863   6.783   3.021  1.00 20.00    -0.006 C 
HETATM    6  C4  UNL     1     -33.646   7.981   3.577  1.00 20.00     0.011 C 
BRANCH   5   7
HETATM    7  C7  UNL     1     -33.851   5.746   2.434  1.00 20.00     0.020 C 
BRANCH   7   8
HETATM    8  C9  UNL     1     -34.631   4.908   3.452  1.00 20.00     0.054 C 
HETATM    9  C5  UNL     1     -35.313   5.789   4.491  1.00 20.00     0.022 C 
HETATM   10 BR10 UNL     1     -33.421   3.691   4.400  1.00 20.00    -0.092 Br
ENDBRANCH   7   8
ENDBRANCH   5   7
ENDBRANCH   4   5
ENDBRANCH   2   4
TORSDOF 4
ENDMDL
MODEL 9
REMARK VINA RESULT:       0.3      2.076      4.384
REMARK  4 active torsions:
REMARK  status: ('A' for Active; 'I' for Inactive)
REMARK    1  A    between atoms: C2_2  and  C6_6 
REMARK    2  A    between atoms: C6_6  and  C8_8 
REMARK    3  A    between atoms: C7_7  and  C8_8 
REMARK    4  A    between atoms: C7_7  and  C9_9 
ROOT
HETATM    1  C1  UNL     1     -32.419   9.324   0.731  1.00 20.00    -0.111 C 
HETATM    2  C2  UNL     1     -32.148   8.866   1.808  1.00 20.00    -0.107 C 
HETATM    3  C3  UNL     1     -32.746   9.882  -0.579  1.00 20.00     0.112 C 
ENDROOT
BRANCH   2   4
HETATM    4  C6  UNL     1     -31.818   8.312   3.130  1.00 20.00     0.098 C 
BRANCH   4   5
HETATM    5  C8  UNL     1     -32.955   7.475   3.749  1.00 20.00    -0.006 C 
HETATM    6  C4  UNL     1     -33.697   8.271   4.833  1.00 20.00     0.011 C 
BRANCH   5   7
HETATM    7  C7  UNL     1     -33.975   6.914   2.729  1.00 20.00     0.020 C 
BRANCH   7   8
HETATM    8  C9  UNL     1     -33.825   5.430   2.374  1.00 20.00     0.054 C 
HETATM    9  C5  UNL     1     -33.690   4.571   3.625  1.00 20.00     0.022 C 
HETATM   10 BR10 UNL     1     -32.223   5.151   1.280  1.00 20.00    -0.092 Br
ENDBRANCH   7   8
ENDBRANCH   5   7
ENDBRANCH   4   5
ENDBRANCH   2   4
TORSDOF 4
ENDMDL
