MODEL 1
REMARK VINA RESULT:      -2.3      0.000      0.000
REMARK  4 active torsions:
REMARK  status: ('A' for Active; 'I' for Inactive)
REMARK    1  A    between atoms: C4_4  and  C5_5 
REMARK    2  A    between atoms: C5_5  and  C7_7 
REMARK    3  A    between atoms: C6_6  and  C7_7 
REMARK    4  A    between atoms: C6_6  and  C8_8 
ROOT
HETATM    1  C2  UNL     1     -32.265   5.427   0.993  1.00 20.00     0.010 C 
HETATM    2  C7  UNL     1     -32.281   6.662   1.901  1.00 20.00    -0.017 C 
ENDROOT
BRANCH   2   3
HETATM    3  C5  UNL     1     -31.637   7.845   1.141  1.00 20.00     0.004 C 
BRANCH   3   4
HETATM    4  C4  UNL     1     -32.449   9.141   1.216  1.00 20.00    -0.004 C 
HETATM    5  C1  UNL     1     -32.461   9.864  -0.123  1.00 20.00     0.005 C 
ENDBRANCH   3   4
ENDBRANCH   2   3
BRANCH   2   6
HETATM    6  C6  UNL     1     -33.711   7.004   2.380  1.00 20.00     0.024 C 
BRANCH   6   7
HETATM    7  C8  UNL     1     -34.037   6.656   3.842  1.00 20.00     0.078 C 
HETATM    8  C3  UNL     1     -35.495   6.231   3.987  1.00 20.00     0.026 C 
HETATM    9 CL9  UNL     1     -33.735   8.051   4.919  1.00 20.00    -0.125 Cl
ENDBRANCH   6   7
ENDBRANCH   2   6
TORSDOF 4
ENDMDL
MODEL 2
REMARK VINA RESULT:      -2.2      1.976      4.709
REMARK  4 active torsions:
REMARK  status: ('A' for Active; 'I' for Inactive)
REMARK    1  A    between atoms: C4_4  and  C5_5 
REMARK    2  A    between atoms: C5_5  and  C7_7 
REMARK    3  A    between atoms: C6_6  and  C7_7 
REMARK    4  A    between atoms: C6_6  and  C8_8 
ROOT
HETATM    1  C2  UNL     1     -33.742   8.073   5.085  1.00 20.00     0.010 C 
HETATM    2  C7  UNL     1     -33.747   7.130   3.877  1.00 20.00    -0.017 C 
ENDROOT
BRANCH   2   3
HETATM    3  C5  UNL     1     -35.120   6.423   3.803  1.00 20.00     0.004 C 
BRANCH   3   4
HETATM    4  C4  UNL     1     -35.150   5.057   4.494  1.00 20.00    -0.004 C 
HETATM    5  C1  UNL     1     -33.990   4.183   4.039  1.00 20.00     0.005 C 
ENDBRANCH   3   4
ENDBRANCH   2   3
BRANCH   2   6
HETATM    6  C6  UNL     1     -33.420   7.878   2.564  1.00 20.00     0.024 C 
BRANCH   6   7
HETATM    7  C8  UNL     1     -32.068   7.543   1.910  1.00 20.00     0.078 C 
HETATM    8  C3  UNL     1     -31.773   8.495   0.755  1.00 20.00     0.026 C 
HETATM    9 CL9  UNL     1     -32.048   5.865   1.293  1.00 20.00    -0.125 Cl
ENDBRANCH   6   7
ENDBRANCH   2   6
TORSDOF 4
ENDMDL
MODEL 3
REMARK VINA RESULT:      -2.1      1.379      1.379
REMARK  4 active torsions:
REMARK  status: ('A' for Active; 'I' for Inactive)
REMARK    1  A    between atoms: C4_4  and  C5_5 
REMARK    2  A    between atoms: C5_5  and  C7_7 
REMARK    3  A    between atoms: C6_6  and  C7_7 
REMARK    4  A    between atoms: C6_6  and  C8_8 
ROOT
HETATM    1  C2  UNL     1     -32.749   5.581   0.899  1.00 20.00     0.010 C 
HETATM    2  C7  UNL     1     -32.207   6.515   1.987  1.00 20.00    -0.017 C 
ENDROOT
BRANCH   2   3
HETATM    3  C5  UNL     1     -31.644   7.788   1.315  1.00 20.00     0.004 C 
BRANCH   3   4
HETATM    4  C4  UNL     1     -32.615   8.971   1.321  1.00 20.00    -0.004 C 
HETATM    5  C1  UNL     1     -32.406   9.864   0.106  1.00 20.00     0.005 C 
ENDBRANCH   3   4
ENDBRANCH   2   3
BRANCH   2   6
HETATM    6  C6  UNL     1     -33.287   6.857   3.040  1.00 20.00     0.024 C 
BRANCH   6   7
HETATM    7  C8  UNL     1     -34.383   5.800   3.256  1.00 20.00     0.078 C 
HETATM    8  C3  UNL     1     -35.490   6.341   4.156  1.00 20.00     0.026 C 
HETATM    9 CL9  UNL     1     -33.712   4.318   3.998  1.00 20.00    -0.125 Cl
ENDBRANCH   6   7
ENDBRANCH   2   6
TORSDOF 4
ENDMDL
MODEL 4
REMARK VINA RESULT:      -2.0      2.507      4.716
REMARK  4 active torsions:
REMARK  status: ('A' for Active; 'I' for Inactive)
REMARK    1  A    between atoms: C4_4  and  C5_5 
REMARK    2  A    between atoms: C5_5  and  C7_7 
REMARK    3  A    between atoms: C6_6  and  C7_7 
REMARK    4  A    between atoms: C6_6  and  C8_8 
ROOT
HETATM    1  C2  UNL     1     -34.924   6.717   3.680  1.00 20.00     0.010 C 
HETATM    2  C7  UNL     1     -33.550   6.252   3.184  1.00 20.00    -0.017 C 
ENDROOT
BRANCH   2   3
HETATM    3  C5  UNL     1     -33.539   4.707   3.127  1.00 20.00     0.004 C 
BRANCH   3   4
HETATM    4  C4  UNL     1     -34.037   4.037   4.410  1.00 20.00    -0.004 C 
HETATM    5  C1  UNL     1     -33.143   2.872   4.809  1.00 20.00     0.005 C 
ENDBRANCH   3   4
ENDBRANCH   2   3
BRANCH   2   6
HETATM    6  C6  UNL     1     -33.193   6.875   1.814  1.00 20.00     0.024 C 
BRANCH   6   7
HETATM    7  C8  UNL     1     -32.034   7.885   1.810  1.00 20.00     0.078 C 
HETATM    8  C3  UNL     1     -31.824   8.478   3.199  1.00 20.00     0.026 C 
HETATM    9 CL9  UNL     1     -32.343   9.216   0.656  1.00 20.00    -0.125 Cl
ENDBRANCH   6   7
ENDBRANCH   2   6
TORSDOF 4
ENDMDL
MODEL 5
REMARK VINA RESULT:      -1.8      1.909      4.317
REMARK  4 active torsions:
REMARK  status: ('A' for Active; 'I' for Inactive)
REMARK    1  A    between atoms: C4_4  and  C5_5 
REMARK    2  A    between atoms: C5_5  and  C7_7 
REMARK    3  A    between atoms: C6_6  and  C7_7 
REMARK    4  A    between atoms: C6_6  and  C8_8 
ROOT
HETATM    1  C2  UNL     1     -32.594   5.828   1.577  1.00 20.00     0.010 C 
HETATM    2  C7  UNL     1     -32.985   7.235   2.041  1.00 20.00    -0.017 C 
ENDROOT
BRANCH   2   3
HETATM    3  C5  UNL     1     -33.170   7.219   3.577  1.00 20.00     0.004 C 
BRANCH   3   4
HETATM    4  C4  UNL     1     -34.626   7.368   4.025  1.00 20.00    -0.004 C 
HETATM    5  C1  UNL     1     -35.326   6.019   4.087  1.00 20.00     0.005 C 
ENDBRANCH   3   4
ENDBRANCH   2   3
BRANCH   2   6
HETATM    6  C6  UNL     1     -31.945   8.293   1.604  1.00 20.00     0.024 C 
BRANCH   6   7
HETATM    7  C8  UNL     1     -32.296   9.112   0.350  1.00 20.00     0.078 C 
HETATM    8  C3  UNL     1     -31.114   9.163  -0.613  1.00 20.00     0.026 C 
HETATM    9 CL9  UNL     1     -32.761  10.784   0.781  1.00 20.00    -0.125 Cl
ENDBRANCH   6   7
ENDBRANCH   2   6
TORSDOF 4
ENDMDL
MODEL 6
REMARK VINA RESULT:      -1.8      2.214      4.834
REMARK  4 active torsions:
REMARK  status: ('A' for Active; 'I' for Inactive)
REMARK    1  A    between atoms: C4_4  and  C5_5 
REMARK    2  A    between atoms: C5_5  and  C7_7 
REMARK    3  A    between atoms: C6_6  and  C7_7 
REMARK    4  A    between atoms: C6_6  and  C8_8 
ROOT
HETATM    1  C2  UNL     1     -34.573   7.380   4.127  1.00 20.00     0.010 C 
HETATM    2  C7  UNL     1     -33.871   6.131   3.581  1.00 20.00    -0.017 C 
ENDROOT
BRANCH   2   3
HETATM    3  C5  UNL     1     -34.495   4.881   4.243  1.00 20.00     0.004 C 
BRANCH   3   4
HETATM    4  C4  UNL     1     -33.749   3.581   3.934  1.00 20.00    -0.004 C 
HETATM    5  C1  UNL     1     -33.006   3.065   5.158  1.00 20.00     0.005 C 
ENDBRANCH   3   4
ENDBRANCH   2   3
BRANCH   2   6
HETATM    6  C6  UNL     1     -33.948   6.057   2.039  1.00 20.00     0.024 C 
BRANCH   6   7
HETATM    7  C8  UNL     1     -32.647   6.366   1.279  1.00 20.00     0.078 C 
HETATM    8  C3  UNL     1     -31.678   5.191   1.360  1.00 20.00     0.026 C 
HETATM    9 CL9  UNL     1     -31.845   7.821   1.939  1.00 20.00    -0.125 Cl
ENDBRANCH   6   7
ENDBRANCH   2   6
TORSDOF 4
ENDMDL
MODEL 7
REMARK VINA RESULT:      -1.7      2.193      4.219
REMARK  4 active torsions:
REMARK  status: ('A' for Active; 'I' for Inactive)
REMARK    1  A    between atoms: C4_4  and  C5_5 
REMARK    2  A    between atoms: C5_5  and  C7_7 
REMARK    3  A    between atoms: C6_6  and  C7_7 
REMARK    4  A    between atoms: C6_6  and  C8_8 
ROOT
HETATM    1  C2  UNL     1     -32.660   5.996   1.398  1.00 20.00     0.010 C 
HETATM    2  C7  UNL     1     -32.863   7.420   1.929  1.00 20.00    -0.017 C 
ENDROOT
BRANCH   2   3
HETATM    3  C5  UNL     1     -33.116   7.351   3.453  1.00 20.00     0.004 C 
BRANCH   3   4
HETATM    4  C4  UNL     1     -34.587   7.515   3.843  1.00 20.00    -0.004 C 
HETATM    5  C1  UNL     1     -35.248   6.167   4.088  1.00 20.00     0.005 C 
ENDBRANCH   3   4
ENDBRANCH   2   3
BRANCH   2   6
HETATM    6  C6  UNL     1     -31.663   8.335   1.592  1.00 20.00     0.024 C 
BRANCH   6   7
HETATM    7  C8  UNL     1     -31.949   9.502   0.632  1.00 20.00     0.078 C 
HETATM    8  C3  UNL     1     -32.919  10.498   1.260  1.00 20.00     0.026 C 
HETATM    9 CL9  UNL     1     -32.643   8.915  -0.908  1.00 20.00    -0.125 Cl
ENDBRANCH   6   7
ENDBRANCH   2   6
TORSDOF 4
ENDMDL
MODEL 8
REMARK VINA RESULT:      -1.7      1.884      2.285
REMARK  4 active torsions:
REMARK  status: ('A' for Active; 'I' for Inactive)
REMARK    1  A    between atoms: C4_4  and  C5_5 
REMARK    2  A    between atoms: C5_5  and  C7_7 
REMARK    3  A    between atoms: C6_6  and  C7_7 
REMARK    4  A    between atoms: C6_6  and  C8_8 
ROOT
HETATM    1  C2  UNL     1     -33.456   7.629   3.719  1.00 20.00     0.010 C 
HETATM    2  C7  UNL     1     -33.458   6.824   2.415  1.00 20.00    -0.017 C 
ENDROOT
BRANCH   2   3
HETATM    3  C5  UNL     1     -32.222   7.230   1.578  1.00 20.00     0.004 C 
BRANCH   3   4
HETATM    4  C4  UNL     1     -31.917   8.730   1.617  1.00 20.00    -0.004 C 
HETATM    5  C1  UNL     1     -32.344   9.414   0.326  1.00 20.00     0.005 C 
ENDBRANCH   3   4
ENDBRANCH   2   3
BRANCH   2   6
HETATM    6  C6  UNL     1     -33.489   5.301   2.681  1.00 20.00     0.024 C 
BRANCH   6   7
HETATM    7  C8  UNL     1     -33.865   4.868   4.108  1.00 20.00     0.078 C 
HETATM    8  C3  UNL     1     -33.627   3.374   4.304  1.00 20.00     0.026 C 
HETATM    9 CL9  UNL     1     -35.581   5.229   4.460  1.00 20.00    -0.125 Cl
ENDBRANCH   6   7
ENDBRANCH   2   6
TORSDOF 4
ENDMDL
MODEL 9
REMARK VINA RESULT:      -1.5      1.260      1.302
REMARK  4 active torsions:
REMARK  status: ('A' for Active; 'I' for Inactive)
REMARK    1  A    between atoms: C4_4  and  C5_5 
REMARK    2  A    between atoms: C5_5  and  C7_7 
REMARK    3  A    between atoms: C6_6  and  C7_7 
REMARK    4  A    between atoms: C6_6  and  C8_8 
ROOT
HETATM    1  C2  UNL     1     -32.053   5.255   0.698  1.00 20.00     0.010 C 
HETATM    2  C7  UNL     1     -32.180   6.266   1.843  1.00 20.00    -0.017 C 
ENDROOT
BRANCH   2   3
HETATM    3  C5  UNL     1     -31.541   7.603   1.398  1.00 20.00     0.004 C 
BRANCH   3   4
HETATM    4  C4  UNL     1     -32.521   8.778   1.375  1.00 20.00    -0.004 C 
HETATM    5  C1  UNL     1     -32.354   9.613   0.114  1.00 20.00     0.005 C 
ENDBRANCH   3   4
ENDBRANCH   2   3
BRANCH   2   6
HETATM    6  C6  UNL     1     -33.651   6.457   2.280  1.00 20.00     0.024 C 
BRANCH   6   7
HETATM    7  C8  UNL     1     -34.020   5.917   3.672  1.00 20.00     0.078 C 
HETATM    8  C3  UNL     1     -33.859   4.402   3.728  1.00 20.00     0.026 C 
HETATM    9 CL9  UNL     1     -35.707   6.333   4.098  1.00 20.00    -0.125 Cl
ENDBRANCH   6   7
ENDBRANCH   2   6
TORSDOF 4
ENDMDL
