MODEL 1
REMARK VINA RESULT:      -2.1      0.000      0.000
REMARK  5 active torsions:
REMARK  status: ('A' for Active; 'I' for Inactive)
REMARK    1  A    between atoms: C6_6  and  C7_7 
REMARK    2  A    between atoms: C7_7  and  C10_10 
REMARK    3  A    between atoms: C8_8  and  C9_9 
REMARK    4  A    between atoms: C8_8  and  C10_10 
REMARK    5  A    between atoms: C9_9  and  O11_11 
ROOT
HETATM    1  C1  UNL     1     -32.737  10.530   0.021  1.00 20.00     0.012 C 
HETATM    2  C2  UNL     1     -32.220   9.504   0.368  1.00 20.00    -0.117 C 
HETATM    3  C6  UNL     1     -31.583   8.246   0.792  1.00 20.00     0.093 C 
ENDROOT
BRANCH   3   4
HETATM    4  C7  UNL     1     -32.343   7.620   1.968  1.00 20.00     0.021 C 
BRANCH   4   5
HETATM    5  C10 UNL     1     -32.866   6.171   1.745  1.00 20.00    -0.045 C 
HETATM    6  C4  UNL     1     -31.688   5.213   1.457  1.00 20.00     0.015 C 
HETATM    7  C5  UNL     1     -33.824   6.123   0.542  1.00 20.00     0.015 C 
BRANCH   5   8
HETATM    8  C8  UNL     1     -33.563   5.650   3.046  1.00 20.00     0.040 C 
BRANCH   8   9
HETATM    9  C9  UNL     1     -34.717   6.488   3.618  1.00 20.00     0.114 C 
HETATM   10  C3  UNL     1     -34.185   7.570   4.553  1.00 20.00     0.039 C 
BRANCH   9  11
HETATM   11  O11 UNL     1     -35.598   5.655   4.364  1.00 20.00    -0.396 OA
HETATM   12  H29 UNL     1     -35.043   5.010   4.829  1.00 20.00     0.210 HD
ENDBRANCH   9  11
ENDBRANCH   8   9
ENDBRANCH   5   8
ENDBRANCH   4   5
ENDBRANCH   3   4
TORSDOF 5
ENDMDL
MODEL 2
REMARK VINA RESULT:      -1.8      1.376      2.485
REMARK  5 active torsions:
REMARK  status: ('A' for Active; 'I' for Inactive)
REMARK    1  A    between atoms: C6_6  and  C7_7 
REMARK    2  A    between atoms: C7_7  and  C10_10 
REMARK    3  A    between atoms: C8_8  and  C9_9 
REMARK    4  A    between atoms: C8_8  and  C10_10 
REMARK    5  A    between atoms: C9_9  and  O11_11 
ROOT
HETATM    1  C1  UNL     1     -32.383   9.979  -0.028  1.00 20.00     0.012 C 
HETATM    2  C2  UNL     1     -32.220   9.134   0.810  1.00 20.00    -0.117 C 
HETATM    3  C6  UNL     1     -32.017   8.101   1.839  1.00 20.00     0.093 C 
ENDROOT
BRANCH   3   4
HETATM    4  C7  UNL     1     -33.055   6.980   1.697  1.00 20.00     0.021 C 
BRANCH   4   5
HETATM    5  C10 UNL     1     -33.781   6.556   3.006  1.00 20.00    -0.045 C 
HETATM    6  C4  UNL     1     -35.289   6.884   2.914  1.00 20.00     0.015 C 
HETATM    7  C5  UNL     1     -33.202   7.315   4.213  1.00 20.00     0.015 C 
BRANCH   5   8
HETATM    8  C8  UNL     1     -33.667   5.007   3.202  1.00 20.00     0.040 C 
BRANCH   8   9
HETATM    9  C9  UNL     1     -33.998   4.440   4.591  1.00 20.00     0.114 C 
HETATM   10  C3  UNL     1     -33.471   3.015   4.730  1.00 20.00     0.039 C 
BRANCH   9  11
HETATM   11  O11 UNL     1     -35.409   4.408   4.777  1.00 20.00    -0.396 OA
HETATM   12  H29 UNL     1     -35.569   3.929   5.605  1.00 20.00     0.210 HD
ENDBRANCH   9  11
ENDBRANCH   8   9
ENDBRANCH   5   8
ENDBRANCH   4   5
ENDBRANCH   3   4
TORSDOF 5
ENDMDL
MODEL 3
REMARK VINA RESULT:      -1.4      2.355      5.178
REMARK  5 active torsions:
REMARK  status: ('A' for Active; 'I' for Inactive)
REMARK    1  A    between atoms: C6_6  and  C7_7 
REMARK    2  A    between atoms: C7_7  and  C10_10 
REMARK    3  A    between atoms: C8_8  and  C9_9 
REMARK    4  A    between atoms: C8_8  and  C10_10 
REMARK    5  A    between atoms: C9_9  and  O11_11 
ROOT
HETATM    1  C1  UNL     1     -32.924   2.261   4.886  1.00 20.00     0.012 C 
HETATM    2  C2  UNL     1     -33.551   3.227   4.545  1.00 20.00    -0.117 C 
HETATM    3  C6  UNL     1     -34.322   4.409   4.129  1.00 20.00     0.093 C 
ENDROOT
BRANCH   3   4
HETATM    4  C7  UNL     1     -33.408   5.453   3.475  1.00 20.00     0.021 C 
BRANCH   4   5
HETATM    5  C10 UNL     1     -33.992   6.891   3.361  1.00 20.00    -0.045 C 
HETATM    6  C4  UNL     1     -33.396   7.802   4.458  1.00 20.00     0.015 C 
HETATM    7  C5  UNL     1     -35.520   6.868   3.539  1.00 20.00     0.015 C 
BRANCH   5   8
HETATM    8  C8  UNL     1     -33.591   7.521   1.985  1.00 20.00     0.040 C 
BRANCH   8   9
HETATM    9  C9  UNL     1     -32.252   8.271   1.910  1.00 20.00     0.114 C 
HETATM   10  C3  UNL     1     -32.274   9.301   0.785  1.00 20.00     0.039 C 
BRANCH   9  11
HETATM   11  O11 UNL     1     -31.197   7.353   1.645  1.00 20.00    -0.396 OA
HETATM   12  H29 UNL     1     -30.851   7.573   0.767  1.00 20.00     0.210 HD
ENDBRANCH   9  11
ENDBRANCH   8   9
ENDBRANCH   5   8
ENDBRANCH   4   5
ENDBRANCH   3   4
TORSDOF 5
ENDMDL
MODEL 4
REMARK VINA RESULT:      -1.2      2.414      4.678
REMARK  5 active torsions:
REMARK  status: ('A' for Active; 'I' for Inactive)
REMARK    1  A    between atoms: C6_6  and  C7_7 
REMARK    2  A    between atoms: C7_7  and  C10_10 
REMARK    3  A    between atoms: C8_8  and  C9_9 
REMARK    4  A    between atoms: C8_8  and  C10_10 
REMARK    5  A    between atoms: C9_9  and  O11_11 
ROOT
HETATM    1  C1  UNL     1     -35.343   5.275   4.435  1.00 20.00     0.012 C 
HETATM    2  C2  UNL     1     -34.916   6.341   4.082  1.00 20.00    -0.117 C 
HETATM    3  C6  UNL     1     -34.397   7.648   3.649  1.00 20.00     0.093 C 
ENDROOT
BRANCH   3   4
HETATM    4  C7  UNL     1     -32.872   7.603   3.490  1.00 20.00     0.021 C 
BRANCH   4   5
HETATM    5  C10 UNL     1     -32.341   7.587   2.027  1.00 20.00    -0.045 C 
HETATM    6  C4  UNL     1     -32.521   6.183   1.406  1.00 20.00     0.015 C 
HETATM    7  C5  UNL     1     -30.842   7.934   1.994  1.00 20.00     0.015 C 
BRANCH   5   8
HETATM    8  C8  UNL     1     -33.173   8.579   1.148  1.00 20.00     0.040 C 
BRANCH   8   9
HETATM    9  C9  UNL     1     -32.397   9.611   0.314  1.00 20.00     0.114 C 
HETATM   10  C3  UNL     1     -32.609  11.018   0.867  1.00 20.00     0.039 C 
BRANCH   9  11
HETATM   11  O11 UNL     1     -32.859   9.593  -1.031  1.00 20.00    -0.396 OA
HETATM   12  H29 UNL     1     -32.085   9.755  -1.594  1.00 20.00     0.210 HD
ENDBRANCH   9  11
ENDBRANCH   8   9
ENDBRANCH   5   8
ENDBRANCH   4   5
ENDBRANCH   3   4
TORSDOF 5
ENDMDL
MODEL 5
REMARK VINA RESULT:      -0.8      1.166      1.653
REMARK  5 active torsions:
REMARK  status: ('A' for Active; 'I' for Inactive)
REMARK    1  A    between atoms: C6_6  and  C7_7 
REMARK    2  A    between atoms: C7_7  and  C10_10 
REMARK    3  A    between atoms: C8_8  and  C9_9 
REMARK    4  A    between atoms: C8_8  and  C10_10 
REMARK    5  A    between atoms: C9_9  and  O11_11 
ROOT
HETATM    1  C1  UNL     1     -32.408   9.609   0.208  1.00 20.00     0.012 C 
HETATM    2  C2  UNL     1     -32.201   8.863   1.126  1.00 20.00    -0.117 C 
HETATM    3  C6  UNL     1     -31.945   7.950   2.251  1.00 20.00     0.093 C 
ENDROOT
BRANCH   3   4
HETATM    4  C7  UNL     1     -33.127   6.995   2.458  1.00 20.00     0.021 C 
BRANCH   4   5
HETATM    5  C10 UNL     1     -33.070   5.658   1.663  1.00 20.00    -0.045 C 
HETATM    6  C4  UNL     1     -31.604   5.205   1.481  1.00 20.00     0.015 C 
HETATM    7  C5  UNL     1     -33.691   5.835   0.267  1.00 20.00     0.015 C 
BRANCH   5   8
HETATM    8  C8  UNL     1     -33.795   4.528   2.467  1.00 20.00     0.040 C 
BRANCH   8   9
HETATM    9  C9  UNL     1     -33.903   4.698   3.991  1.00 20.00     0.114 C 
HETATM   10  C3  UNL     1     -33.406   3.445   4.708  1.00 20.00     0.039 C 
BRANCH   9  11
HETATM   11  O11 UNL     1     -35.261   4.907   4.360  1.00 20.00    -0.396 OA
HETATM   12  H29 UNL     1     -35.477   5.822   4.124  1.00 20.00     0.210 HD
ENDBRANCH   9  11
ENDBRANCH   8   9
ENDBRANCH   5   8
ENDBRANCH   4   5
ENDBRANCH   3   4
TORSDOF 5
ENDMDL
MODEL 6
REMARK VINA RESULT:      -0.6      2.173      4.766
REMARK  5 active torsions:
REMARK  status: ('A' for Active; 'I' for Inactive)
REMARK    1  A    between atoms: C6_6  and  C7_7 
REMARK    2  A    between atoms: C7_7  and  C10_10 
REMARK    3  A    between atoms: C8_8  and  C9_9 
REMARK    4  A    between atoms: C8_8  and  C10_10 
REMARK    5  A    between atoms: C9_9  and  O11_11 
ROOT
HETATM    1  C1  UNL     1     -33.849   3.750   4.354  1.00 20.00     0.012 C 
HETATM    2  C2  UNL     1     -34.159   4.845   3.973  1.00 20.00    -0.117 C 
HETATM    3  C6  UNL     1     -34.542   6.187   3.506  1.00 20.00     0.093 C 
ENDROOT
BRANCH   3   4
HETATM    4  C7  UNL     1     -33.300   7.054   3.260  1.00 20.00     0.021 C 
BRANCH   4   5
HETATM    5  C10 UNL     1     -32.665   6.944   1.843  1.00 20.00    -0.045 C 
HETATM    6  C4  UNL     1     -33.764   6.735   0.777  1.00 20.00     0.015 C 
HETATM    7  C5  UNL     1     -31.702   5.747   1.776  1.00 20.00     0.015 C 
BRANCH   5   8
HETATM    8  C8  UNL     1     -31.935   8.281   1.482  1.00 20.00     0.040 C 
BRANCH   8   9
HETATM    9  C9  UNL     1     -32.707   9.306   0.636  1.00 20.00     0.114 C 
HETATM   10  C3  UNL     1     -31.898   9.705  -0.595  1.00 20.00     0.039 C 
BRANCH   9  11
HETATM   11  O11 UNL     1     -32.950  10.480   1.402  1.00 20.00    -0.396 OA
HETATM   12  H29 UNL     1     -32.091  10.911   1.533  1.00 20.00     0.210 HD
ENDBRANCH   9  11
ENDBRANCH   8   9
ENDBRANCH   5   8
ENDBRANCH   4   5
ENDBRANCH   3   4
TORSDOF 5
ENDMDL
MODEL 7
REMARK VINA RESULT:      -0.6      2.411      5.163
REMARK  5 active torsions:
REMARK  status: ('A' for Active; 'I' for Inactive)
REMARK    1  A    between atoms: C6_6  and  C7_7 
REMARK    2  A    between atoms: C7_7  and  C10_10 
REMARK    3  A    between atoms: C8_8  and  C9_9 
REMARK    4  A    between atoms: C8_8  and  C10_10 
REMARK    5  A    between atoms: C9_9  and  O11_11 
ROOT
HETATM    1  C1  UNL     1     -32.771   2.723   5.312  1.00 20.00     0.012 C 
HETATM    2  C2  UNL     1     -33.463   3.393   4.595  1.00 20.00    -0.117 C 
HETATM    3  C6  UNL     1     -34.310   4.212   3.713  1.00 20.00     0.093 C 
ENDROOT
BRANCH   3   4
HETATM    4  C7  UNL     1     -34.814   5.462   4.448  1.00 20.00     0.021 C 
BRANCH   4   5
HETATM    5  C10 UNL     1     -34.325   6.826   3.882  1.00 20.00    -0.045 C 
HETATM    6  C4  UNL     1     -34.133   7.845   5.028  1.00 20.00     0.015 C 
HETATM    7  C5  UNL     1     -35.360   7.404   2.900  1.00 20.00     0.015 C 
BRANCH   5   8
HETATM    8  C8  UNL     1     -32.930   6.649   3.196  1.00 20.00     0.040 C 
BRANCH   8   9
HETATM    9  C9  UNL     1     -32.857   6.843   1.673  1.00 20.00     0.114 C 
HETATM   10  C3  UNL     1     -32.291   5.597   0.999  1.00 20.00     0.039 C 
BRANCH   9  11
HETATM   11  O11 UNL     1     -32.002   7.937   1.364  1.00 20.00    -0.396 OA
HETATM   12  H29 UNL     1     -31.094   7.599   1.396  1.00 20.00     0.210 HD
ENDBRANCH   9  11
ENDBRANCH   8   9
ENDBRANCH   5   8
ENDBRANCH   4   5
ENDBRANCH   3   4
TORSDOF 5
ENDMDL
MODEL 8
REMARK VINA RESULT:      -0.5      2.111      4.735
REMARK  5 active torsions:
REMARK  status: ('A' for Active; 'I' for Inactive)
REMARK    1  A    between atoms: C6_6  and  C7_7 
REMARK    2  A    between atoms: C7_7  and  C10_10 
REMARK    3  A    between atoms: C8_8  and  C9_9 
REMARK    4  A    between atoms: C8_8  and  C10_10 
REMARK    5  A    between atoms: C9_9  and  O11_11 
ROOT
HETATM    1  C1  UNL     1     -33.166   2.890   4.858  1.00 20.00     0.012 C 
HETATM    2  C2  UNL     1     -33.657   3.770   4.205  1.00 20.00    -0.117 C 
HETATM    3  C6  UNL     1     -34.262   4.846   3.404  1.00 20.00     0.093 C 
ENDROOT
BRANCH   3   4
HETATM    4  C7  UNL     1     -33.206   5.883   2.998  1.00 20.00     0.021 C 
BRANCH   4   5
HETATM    5  C10 UNL     1     -32.656   5.761   1.548  1.00 20.00    -0.045 C 
HETATM    6  C4  UNL     1     -33.821   5.627   0.541  1.00 20.00     0.015 C 
HETATM    7  C5  UNL     1     -31.764   4.515   1.413  1.00 20.00     0.015 C 
BRANCH   5   8
HETATM    8  C8  UNL     1     -31.875   7.062   1.163  1.00 20.00     0.040 C 
BRANCH   8   9
HETATM    9  C9  UNL     1     -32.345   8.384   1.791  1.00 20.00     0.114 C 
HETATM   10  C3  UNL     1     -32.306   9.511   0.763  1.00 20.00     0.039 C 
BRANCH   9  11
HETATM   11  O11 UNL     1     -31.486   8.741   2.868  1.00 20.00    -0.396 OA
HETATM   12  H29 UNL     1     -31.246   9.672   2.737  1.00 20.00     0.210 HD
ENDBRANCH   9  11
ENDBRANCH   8   9
ENDBRANCH   5   8
ENDBRANCH   4   5
ENDBRANCH   3   4
TORSDOF 5
ENDMDL
MODEL 9
REMARK VINA RESULT:      -0.1      1.711      4.219
REMARK  5 active torsions:
REMARK  status: ('A' for Active; 'I' for Inactive)
REMARK    1  A    between atoms: C6_6  and  C7_7 
REMARK    2  A    between atoms: C7_7  and  C10_10 
REMARK    3  A    between atoms: C8_8  and  C9_9 
REMARK    4  A    between atoms: C8_8  and  C10_10 
REMARK    5  A    between atoms: C9_9  and  O11_11 
ROOT
HETATM    1  C1  UNL     1     -35.406   5.552   4.321  1.00 20.00     0.012 C 
HETATM    2  C2  UNL     1     -34.685   6.492   4.122  1.00 20.00    -0.117 C 
HETATM    3  C6  UNL     1     -33.803   7.644   3.881  1.00 20.00     0.093 C 
ENDROOT
BRANCH   3   4
HETATM    4  C7  UNL     1     -33.736   7.977   2.384  1.00 20.00     0.021 C 
BRANCH   4   5
HETATM    5  C10 UNL     1     -32.317   8.266   1.815  1.00 20.00    -0.045 C 
HETATM    6  C4  UNL     1     -31.330   8.576   2.963  1.00 20.00     0.015 C 
HETATM    7  C5  UNL     1     -32.352   9.483   0.875  1.00 20.00     0.015 C 
BRANCH   5   8
HETATM    8  C8  UNL     1     -31.770   6.997   1.079  1.00 20.00     0.040 C 
BRANCH   8   9
HETATM    9  C9  UNL     1     -32.435   5.649   1.398  1.00 20.00     0.114 C 
HETATM   10  C3  UNL     1     -31.419   4.514   1.314  1.00 20.00     0.039 C 
BRANCH   9  11
HETATM   11  O11 UNL     1     -33.468   5.384   0.455  1.00 20.00    -0.396 OA
HETATM   12  H29 UNL     1     -33.321   5.981  -0.295  1.00 20.00     0.210 HD
ENDBRANCH   9  11
ENDBRANCH   8   9
ENDBRANCH   5   8
ENDBRANCH   4   5
ENDBRANCH   3   4
TORSDOF 5
ENDMDL
