MODEL 1
REMARK VINA RESULT:      -0.0      0.000      0.000
REMARK  3 active torsions:
REMARK  status: ('A' for Active; 'I' for Inactive)
REMARK    1  A    between atoms: C6_6  and  C7_7 
REMARK    2  A    between atoms: C6_6  and  C8_8 
REMARK    3  A    between atoms: C7_7  and  C9_9 
ROOT
HETATM    1  C1  UNL     1     -33.035   6.044   1.203  1.00 20.00     0.011 C 
HETATM    2  C7  UNL     1     -32.800   6.769   2.541  1.00 20.00    -0.010 C 
ENDROOT
BRANCH   2   3
HETATM    3  C6  UNL     1     -32.308   8.223   2.284  1.00 20.00     0.024 C 
BRANCH   3   4
HETATM    4  C8  UNL     1     -32.434   8.747   0.842  1.00 20.00     0.078 C 
HETATM    5  C2  UNL     1     -32.797  10.230   0.833  1.00 20.00     0.026 C 
HETATM    6 CL10 UNL     1     -30.907   8.525  -0.063  1.00 20.00    -0.125 Cl
ENDBRANCH   3   4
ENDBRANCH   2   3
BRANCH   2   7
HETATM    7  C9  UNL     1     -34.050   6.697   3.505  1.00 20.00    -0.048 C 
HETATM    8  C3  UNL     1     -35.368   7.042   2.787  1.00 20.00     0.015 C 
HETATM    9  C4  UNL     1     -34.185   5.278   4.103  1.00 20.00     0.015 C 
HETATM   10  C5  UNL     1     -33.879   7.669   4.694  1.00 20.00     0.015 C 
ENDBRANCH   2   7
TORSDOF 3
ENDMDL
MODEL 2
REMARK VINA RESULT:      -0.0      0.028      1.363
REMARK  3 active torsions:
REMARK  status: ('A' for Active; 'I' for Inactive)
REMARK    1  A    between atoms: C6_6  and  C7_7 
REMARK    2  A    between atoms: C6_6  and  C8_8 
REMARK    3  A    between atoms: C7_7  and  C9_9 
ROOT
HETATM    1  C1  UNL     1     -33.029   6.033   1.200  1.00 20.00     0.011 C 
HETATM    2  C7  UNL     1     -32.797   6.751   2.543  1.00 20.00    -0.010 C 
ENDROOT
BRANCH   2   3
HETATM    3  C6  UNL     1     -32.317   8.210   2.296  1.00 20.00     0.024 C 
BRANCH   3   4
HETATM    4  C8  UNL     1     -32.440   8.740   0.855  1.00 20.00     0.078 C 
HETATM    5  C2  UNL     1     -32.799  10.223   0.851  1.00 20.00     0.026 C 
HETATM    6 CL10 UNL     1     -30.912   8.517  -0.048  1.00 20.00    -0.125 Cl
ENDBRANCH   3   4
ENDBRANCH   2   3
BRANCH   2   7
HETATM    7  C9  UNL     1     -34.045   6.662   3.508  1.00 20.00    -0.048 C 
HETATM    8  C3  UNL     1     -34.231   5.254   4.103  1.00 20.00     0.015 C 
HETATM    9  C4  UNL     1     -33.890   7.662   4.678  1.00 20.00     0.015 C 
HETATM   10  C5  UNL     1     -35.342   7.046   2.761  1.00 20.00     0.015 C 
ENDBRANCH   2   7
TORSDOF 3
ENDMDL
MODEL 3
REMARK VINA RESULT:       0.0      0.054      1.363
REMARK  3 active torsions:
REMARK  status: ('A' for Active; 'I' for Inactive)
REMARK    1  A    between atoms: C6_6  and  C7_7 
REMARK    2  A    between atoms: C6_6  and  C8_8 
REMARK    3  A    between atoms: C7_7  and  C9_9 
ROOT
HETATM    1  C1  UNL     1     -33.045   6.079   1.233  1.00 20.00     0.011 C 
HETATM    2  C7  UNL     1     -32.783   6.812   2.562  1.00 20.00    -0.010 C 
ENDROOT
BRANCH   2   3
HETATM    3  C6  UNL     1     -32.316   8.270   2.289  1.00 20.00     0.024 C 
BRANCH   3   4
HETATM    4  C8  UNL     1     -32.414   8.762   0.833  1.00 20.00     0.078 C 
HETATM    5  C2  UNL     1     -32.800  10.237   0.782  1.00 20.00     0.026 C 
HETATM    6 CL10 UNL     1     -30.861   8.545  -0.029  1.00 20.00    -0.125 Cl
ENDBRANCH   3   4
ENDBRANCH   2   3
BRANCH   2   7
HETATM    7  C9  UNL     1     -34.007   6.727   3.560  1.00 20.00    -0.048 C 
HETATM    8  C3  UNL     1     -33.874   7.708   4.740  1.00 20.00     0.015 C 
HETATM    9  C4  UNL     1     -35.326   7.044   2.818  1.00 20.00     0.015 C 
HETATM   10  C5  UNL     1     -34.147   5.299   4.132  1.00 20.00     0.015 C 
ENDBRANCH   2   7
TORSDOF 3
ENDMDL
MODEL 4
REMARK VINA RESULT:       0.2      0.989      2.220
REMARK  3 active torsions:
REMARK  status: ('A' for Active; 'I' for Inactive)
REMARK    1  A    between atoms: C6_6  and  C7_7 
REMARK    2  A    between atoms: C6_6  and  C8_8 
REMARK    3  A    between atoms: C7_7  and  C9_9 
ROOT
HETATM    1  C1  UNL     1     -33.673   7.522   3.700  1.00 20.00     0.011 C 
HETATM    2  C7  UNL     1     -33.319   7.326   2.214  1.00 20.00    -0.010 C 
ENDROOT
BRANCH   2   3
HETATM    3  C6  UNL     1     -32.154   8.274   1.810  1.00 20.00     0.024 C 
BRANCH   3   4
HETATM    4  C8  UNL     1     -32.292   8.994   0.455  1.00 20.00     0.078 C 
HETATM    5  C2  UNL     1     -32.653  10.463   0.654  1.00 20.00     0.026 C 
HETATM    6 CL10 UNL     1     -30.773   8.899  -0.485  1.00 20.00    -0.125 Cl
ENDBRANCH   3   4
ENDBRANCH   2   3
BRANCH   2   7
HETATM    7  C9  UNL     1     -33.046   5.814   1.844  1.00 20.00    -0.048 C 
HETATM    8  C3  UNL     1     -33.739   5.393   0.535  1.00 20.00     0.015 C 
HETATM    9  C4  UNL     1     -31.528   5.566   1.686  1.00 20.00     0.015 C 
HETATM   10  C5  UNL     1     -33.536   4.878   2.972  1.00 20.00     0.015 C 
ENDBRANCH   2   7
TORSDOF 3
ENDMDL
MODEL 5
REMARK VINA RESULT:       0.2      2.165      4.125
REMARK  3 active torsions:
REMARK  status: ('A' for Active; 'I' for Inactive)
REMARK    1  A    between atoms: C6_6  and  C7_7 
REMARK    2  A    between atoms: C6_6  and  C8_8 
REMARK    3  A    between atoms: C7_7  and  C9_9 
ROOT
HETATM    1  C1  UNL     1     -32.163   5.633   0.913  1.00 20.00     0.011 C 
HETATM    2  C7  UNL     1     -32.841   6.821   1.621  1.00 20.00    -0.010 C 
ENDROOT
BRANCH   2   3
HETATM    3  C6  UNL     1     -33.172   6.450   3.095  1.00 20.00     0.024 C 
BRANCH   3   4
HETATM    4  C8  UNL     1     -34.396   7.143   3.721  1.00 20.00     0.078 C 
HETATM    5  C2  UNL     1     -35.426   6.116   4.180  1.00 20.00     0.026 C 
HETATM    6 CL10 UNL     1     -33.923   8.148   5.123  1.00 20.00    -0.125 Cl
ENDBRANCH   3   4
ENDBRANCH   2   3
BRANCH   2   7
HETATM    7  C9  UNL     1     -32.017   8.164   1.488  1.00 20.00    -0.048 C 
HETATM    8  C3  UNL     1     -31.175   8.465   2.742  1.00 20.00     0.015 C 
HETATM    9  C4  UNL     1     -31.062   8.090   0.274  1.00 20.00     0.015 C 
HETATM   10  C5  UNL     1     -32.962   9.361   1.242  1.00 20.00     0.015 C 
ENDBRANCH   2   7
TORSDOF 3
ENDMDL
MODEL 6
REMARK VINA RESULT:       0.2      2.165      4.066
REMARK  3 active torsions:
REMARK  status: ('A' for Active; 'I' for Inactive)
REMARK    1  A    between atoms: C6_6  and  C7_7 
REMARK    2  A    between atoms: C6_6  and  C8_8 
REMARK    3  A    between atoms: C7_7  and  C9_9 
ROOT
HETATM    1  C1  UNL     1     -32.202   5.654   0.889  1.00 20.00     0.011 C 
HETATM    2  C7  UNL     1     -32.864   6.845   1.606  1.00 20.00    -0.010 C 
ENDROOT
BRANCH   2   3
HETATM    3  C6  UNL     1     -33.162   6.481   3.089  1.00 20.00     0.024 C 
BRANCH   3   4
HETATM    4  C8  UNL     1     -34.391   7.154   3.728  1.00 20.00     0.078 C 
HETATM    5  C2  UNL     1     -35.406   6.109   4.184  1.00 20.00     0.026 C 
HETATM    6 CL10 UNL     1     -33.923   8.152   5.136  1.00 20.00    -0.125 Cl
ENDBRANCH   3   4
ENDBRANCH   2   3
BRANCH   2   7
HETATM    7  C9  UNL     1     -32.043   8.187   1.449  1.00 20.00    -0.048 C 
HETATM    8  C3  UNL     1     -32.951   9.410   1.221  1.00 20.00     0.015 C 
HETATM    9  C4  UNL     1     -31.195   8.448   2.715  1.00 20.00     0.015 C 
HETATM   10  C5  UNL     1     -31.058   8.089   0.263  1.00 20.00     0.015 C 
ENDBRANCH   2   7
TORSDOF 3
ENDMDL
MODEL 7
REMARK VINA RESULT:       0.2      0.984      2.393
REMARK  3 active torsions:
REMARK  status: ('A' for Active; 'I' for Inactive)
REMARK    1  A    between atoms: C6_6  and  C7_7 
REMARK    2  A    between atoms: C6_6  and  C8_8 
REMARK    3  A    between atoms: C7_7  and  C9_9 
ROOT
HETATM    1  C1  UNL     1     -33.684   7.521   3.709  1.00 20.00     0.011 C 
HETATM    2  C7  UNL     1     -33.318   7.327   2.225  1.00 20.00    -0.010 C 
ENDROOT
BRANCH   2   3
HETATM    3  C6  UNL     1     -32.160   8.287   1.828  1.00 20.00     0.024 C 
BRANCH   3   4
HETATM    4  C8  UNL     1     -32.291   8.996   0.467  1.00 20.00     0.078 C 
HETATM    5  C2  UNL     1     -32.645  10.468   0.654  1.00 20.00     0.026 C 
HETATM    6 CL10 UNL     1     -30.770   8.886  -0.468  1.00 20.00    -0.125 Cl
ENDBRANCH   3   4
ENDBRANCH   2   3
BRANCH   2   7
HETATM    7  C9  UNL     1     -33.027   5.817   1.859  1.00 20.00    -0.048 C 
HETATM    8  C3  UNL     1     -31.524   5.535   1.674  1.00 20.00     0.015 C 
HETATM    9  C4  UNL     1     -33.558   4.883   2.971  1.00 20.00     0.015 C 
HETATM   10  C5  UNL     1     -33.757   5.422   0.556  1.00 20.00     0.015 C 
ENDBRANCH   2   7
TORSDOF 3
ENDMDL
MODEL 8
REMARK VINA RESULT:       0.2      1.010      2.347
REMARK  3 active torsions:
REMARK  status: ('A' for Active; 'I' for Inactive)
REMARK    1  A    between atoms: C6_6  and  C7_7 
REMARK    2  A    between atoms: C6_6  and  C8_8 
REMARK    3  A    between atoms: C7_7  and  C9_9 
ROOT
HETATM    1  C1  UNL     1     -33.604   7.550   3.741  1.00 20.00     0.011 C 
HETATM    2  C7  UNL     1     -33.289   7.339   2.248  1.00 20.00    -0.010 C 
ENDROOT
BRANCH   2   3
HETATM    3  C6  UNL     1     -32.122   8.270   1.810  1.00 20.00     0.024 C 
BRANCH   3   4
HETATM    4  C8  UNL     1     -32.280   8.977   0.451  1.00 20.00     0.078 C 
HETATM    5  C2  UNL     1     -32.654  10.444   0.643  1.00 20.00     0.026 C 
HETATM    6 CL10 UNL     1     -30.769   8.891  -0.503  1.00 20.00    -0.125 Cl
ENDBRANCH   3   4
ENDBRANCH   2   3
BRANCH   2   7
HETATM    7  C9  UNL     1     -33.044   5.821   1.882  1.00 20.00    -0.048 C 
HETATM    8  C3  UNL     1     -33.546   4.862   2.978  1.00 20.00     0.015 C 
HETATM    9  C4  UNL     1     -33.767   5.464   0.563  1.00 20.00     0.015 C 
HETATM   10  C5  UNL     1     -31.540   5.550   1.655  1.00 20.00     0.015 C 
ENDBRANCH   2   7
TORSDOF 3
ENDMDL
MODEL 9
REMARK VINA RESULT:       0.2      2.439      4.141
REMARK  3 active torsions:
REMARK  status: ('A' for Active; 'I' for Inactive)
REMARK    1  A    between atoms: C6_6  and  C7_7 
REMARK    2  A    between atoms: C6_6  and  C8_8 
REMARK    3  A    between atoms: C7_7  and  C9_9 
ROOT
HETATM    1  C1  UNL     1     -33.026   5.680   1.702  1.00 20.00     0.011 C 
HETATM    2  C7  UNL     1     -33.313   7.102   2.219  1.00 20.00    -0.010 C 
ENDROOT
BRANCH   2   3
HETATM    3  C6  UNL     1     -33.625   7.066   3.743  1.00 20.00     0.024 C 
BRANCH   3   4
HETATM    4  C8  UNL     1     -34.998   6.502   4.151  1.00 20.00     0.078 C 
HETATM    5  C2  UNL     1     -36.044   6.788   3.078  1.00 20.00     0.026 C 
HETATM    6 CL10 UNL     1     -34.918   4.734   4.418  1.00 20.00    -0.125 Cl
ENDBRANCH   3   4
ENDBRANCH   2   3
BRANCH   2   7
HETATM    7  C9  UNL     1     -32.177   8.133   1.841  1.00 20.00    -0.048 C 
HETATM    8  C3  UNL     1     -32.684   9.258   0.920  1.00 20.00     0.015 C 
HETATM    9  C4  UNL     1     -31.595   8.782   3.119  1.00 20.00     0.015 C 
HETATM   10  C5  UNL     1     -31.006   7.418   1.131  1.00 20.00     0.015 C 
ENDBRANCH   2   7
TORSDOF 3
ENDMDL
