MODEL 1
REMARK VINA RESULT:      -0.8      0.000      0.000
REMARK  2 active torsions:
REMARK  status: ('A' for Active; 'I' for Inactive)
REMARK    1  A    between atoms: C1_1  and  C5_5 
REMARK    2  A    between atoms: C1_1  and  C11_11 
ROOT
HETATM    1  C2  UNL     1     -32.066   6.255   1.087  1.00 20.00     0.012 C 
HETATM    2  C3  UNL     1     -32.394   5.122   2.053  1.00 20.00     0.005 C 
HETATM    3  C4  UNL     1     -33.302   7.877   2.569  1.00 20.00     0.016 C 
HETATM    4  C5  UNL     1     -32.007   7.599   1.808  1.00 20.00     0.056 C 
HETATM    5  C6  UNL     1     -33.700   5.381   2.825  1.00 20.00    -0.015 C 
HETATM    6  C7  UNL     1     -33.644   6.746   3.554  1.00 20.00    -0.014 C 
HETATM    7  C8  UNL     1     -33.962   4.213   3.781  1.00 20.00     0.010 C 
HETATM    8  C9  UNL     1     -34.954   7.079   4.274  1.00 20.00     0.010 C 
ENDROOT
BRANCH   4   9
HETATM    9  C1  UNL     1     -31.769   8.697   0.818  1.00 20.00     0.130 C 
HETATM   10  O12 UNL     1     -30.878   8.609  -0.026  1.00 20.00    -0.298 OA
BRANCH   9  11
HETATM   11  C11 UNL     1     -32.684   9.904   0.926  1.00 20.00     0.074 C 
HETATM   12  C10 UNL     1     -32.947  10.560  -0.417  1.00 20.00     0.013 C 
ENDBRANCH   9  11
ENDBRANCH   4   9
TORSDOF 2
ENDMDL
MODEL 2
REMARK VINA RESULT:      -0.3      2.502      5.064
REMARK  2 active torsions:
REMARK  status: ('A' for Active; 'I' for Inactive)
REMARK    1  A    between atoms: C1_1  and  C5_5 
REMARK    2  A    between atoms: C1_1  and  C11_11 
ROOT
HETATM    1  C2  UNL     1     -33.310   5.323   1.930  1.00 20.00     0.012 C 
HETATM    2  C3  UNL     1     -32.843   6.483   1.057  1.00 20.00     0.005 C 
HETATM    3  C4  UNL     1     -33.308   6.839   3.944  1.00 20.00     0.016 C 
HETATM    4  C5  UNL     1     -34.107   5.821   3.132  1.00 20.00     0.056 C 
HETATM    5  C6  UNL     1     -32.028   7.516   1.857  1.00 20.00    -0.015 C 
HETATM    6  C7  UNL     1     -32.834   8.020   3.079  1.00 20.00    -0.014 C 
HETATM    7  C8  UNL     1     -31.601   8.654   0.925  1.00 20.00     0.010 C 
HETATM    8  C9  UNL     1     -32.033   8.995   3.947  1.00 20.00     0.010 C 
ENDROOT
BRANCH   4   9
HETATM    9  C1  UNL     1     -34.477   4.667   4.011  1.00 20.00     0.130 C 
HETATM   10  O12 UNL     1     -35.449   4.727   4.763  1.00 20.00    -0.298 OA
BRANCH   9  11
HETATM   11  C11 UNL     1     -33.588   3.440   3.913  1.00 20.00     0.074 C 
HETATM   12  C10 UNL     1     -32.984   3.047   5.248  1.00 20.00     0.013 C 
ENDBRANCH   9  11
ENDBRANCH   4   9
TORSDOF 2
ENDMDL
MODEL 3
REMARK VINA RESULT:       0.1      2.465      5.465
REMARK  2 active torsions:
REMARK  status: ('A' for Active; 'I' for Inactive)
REMARK    1  A    between atoms: C1_1  and  C5_5 
REMARK    2  A    between atoms: C1_1  and  C11_11 
ROOT
HETATM    1  C2  UNL     1     -34.282   6.908   3.746  1.00 20.00     0.012 C 
HETATM    2  C3  UNL     1     -33.410   7.996   3.129  1.00 20.00     0.005 C 
HETATM    3  C4  UNL     1     -33.021   5.157   2.443  1.00 20.00     0.016 C 
HETATM    4  C5  UNL     1     -33.540   5.577   3.817  1.00 20.00     0.056 C 
HETATM    5  C6  UNL     1     -32.884   7.594   1.739  1.00 20.00    -0.015 C 
HETATM    6  C7  UNL     1     -32.133   6.241   1.808  1.00 20.00    -0.014 C 
HETATM    7  C8  UNL     1     -32.010   8.723   1.184  1.00 20.00     0.010 C 
HETATM    8  C9  UNL     1     -31.657   5.765   0.433  1.00 20.00     0.010 C 
ENDROOT
BRANCH   4   9
HETATM    9  C1  UNL     1     -34.452   4.514   4.348  1.00 20.00     0.130 C 
HETATM   10  O12 UNL     1     -35.601   4.779   4.697  1.00 20.00    -0.298 OA
BRANCH   9  11
HETATM   11  C11 UNL     1     -33.872   3.113   4.424  1.00 20.00     0.074 C 
HETATM   12  C10 UNL     1     -32.711   3.013   5.396  1.00 20.00     0.013 C 
ENDBRANCH   9  11
ENDBRANCH   4   9
TORSDOF 2
ENDMDL
MODEL 4
REMARK VINA RESULT:       0.3      1.199      2.364
REMARK  2 active torsions:
REMARK  status: ('A' for Active; 'I' for Inactive)
REMARK    1  A    between atoms: C1_1  and  C5_5 
REMARK    2  A    between atoms: C1_1  and  C11_11 
ROOT
HETATM    1  C2  UNL     1     -33.756   8.006   3.400  1.00 20.00     0.012 C 
HETATM    2  C3  UNL     1     -34.901   7.177   3.971  1.00 20.00     0.005 C 
HETATM    3  C4  UNL     1     -32.710   5.914   2.459  1.00 20.00     0.016 C 
HETATM    4  C5  UNL     1     -33.156   7.344   2.162  1.00 20.00     0.056 C 
HETATM    5  C6  UNL     1     -34.469   5.732   4.283  1.00 20.00    -0.015 C 
HETATM    6  C7  UNL     1     -33.857   5.061   3.029  1.00 20.00    -0.014 C 
HETATM    7  C8  UNL     1     -35.666   4.956   4.840  1.00 20.00     0.010 C 
HETATM    8  C9  UNL     1     -33.343   3.646   3.314  1.00 20.00     0.010 C 
ENDROOT
BRANCH   4   9
HETATM    9  C1  UNL     1     -31.982   8.139   1.679  1.00 20.00     0.130 C 
HETATM   10  O12 UNL     1     -30.990   8.301   2.387  1.00 20.00    -0.298 OA
BRANCH   9  11
HETATM   11  C11 UNL     1     -32.098   8.719   0.281  1.00 20.00     0.074 C 
HETATM   12  C10 UNL     1     -32.501  10.182   0.287  1.00 20.00     0.013 C 
ENDBRANCH   9  11
ENDBRANCH   4   9
TORSDOF 2
ENDMDL
MODEL 5
REMARK VINA RESULT:       0.5      1.050      1.104
REMARK  2 active torsions:
REMARK  status: ('A' for Active; 'I' for Inactive)
REMARK    1  A    between atoms: C1_1  and  C5_5 
REMARK    2  A    between atoms: C1_1  and  C11_11 
ROOT
HETATM    1  C2  UNL     1     -32.120   6.647   1.311  1.00 20.00     0.012 C 
HETATM    2  C3  UNL     1     -32.270   5.343   2.086  1.00 20.00     0.005 C 
HETATM    3  C4  UNL     1     -33.768   7.758   2.862  1.00 20.00     0.016 C 
HETATM    4  C5  UNL     1     -32.394   7.856   2.202  1.00 20.00     0.056 C 
HETATM    5  C6  UNL     1     -33.652   5.223   2.753  1.00 20.00    -0.015 C 
HETATM    6  C7  UNL     1     -33.933   6.450   3.655  1.00 20.00    -0.014 C 
HETATM    7  C8  UNL     1     -33.729   3.900   3.521  1.00 20.00     0.010 C 
HETATM    8  C9  UNL     1     -35.330   6.409   4.281  1.00 20.00     0.010 C 
ENDROOT
BRANCH   4   9
HETATM    9  C1  UNL     1     -32.322   9.113   1.390  1.00 20.00     0.130 C 
HETATM   10  O12 UNL     1     -32.464  10.216   1.915  1.00 20.00    -0.298 OA
BRANCH   9  11
HETATM   11  C11 UNL     1     -32.068   8.935  -0.096  1.00 20.00     0.074 C 
HETATM   12  C10 UNL     1     -32.685  10.041  -0.931  1.00 20.00     0.013 C 
ENDBRANCH   9  11
ENDBRANCH   4   9
TORSDOF 2
ENDMDL
MODEL 6
REMARK VINA RESULT:       1.7      1.944      4.685
REMARK  2 active torsions:
REMARK  status: ('A' for Active; 'I' for Inactive)
REMARK    1  A    between atoms: C1_1  and  C5_5 
REMARK    2  A    between atoms: C1_1  and  C11_11 
ROOT
HETATM    1  C2  UNL     1     -32.314   6.735   2.334  1.00 20.00     0.012 C 
HETATM    2  C3  UNL     1     -31.695   7.006   0.968  1.00 20.00     0.005 C 
HETATM    3  C4  UNL     1     -33.421   8.999   2.282  1.00 20.00     0.016 C 
HETATM    4  C5  UNL     1     -33.621   7.502   2.512  1.00 20.00     0.056 C 
HETATM    5  C6  UNL     1     -31.479   8.510   0.720  1.00 20.00    -0.015 C 
HETATM    6  C7  UNL     1     -32.803   9.291   0.904  1.00 20.00    -0.014 C 
HETATM    7  C8  UNL     1     -30.867   8.710  -0.670  1.00 20.00     0.010 C 
HETATM    8  C9  UNL     1     -32.619  10.802   0.740  1.00 20.00     0.010 C 
ENDROOT
BRANCH   4   9
HETATM    9  C1  UNL     1     -34.157   7.281   3.894  1.00 20.00     0.130 C 
HETATM   10  O12 UNL     1     -33.716   7.911   4.854  1.00 20.00    -0.298 OA
BRANCH   9  11
HETATM   11  C11 UNL     1     -35.260   6.246   4.025  1.00 20.00     0.074 C 
HETATM   12  C10 UNL     1     -34.725   4.851   4.289  1.00 20.00     0.013 C 
ENDBRANCH   9  11
ENDBRANCH   4   9
TORSDOF 2
ENDMDL
MODEL 7
REMARK VINA RESULT:       2.1      2.314      3.860
REMARK  2 active torsions:
REMARK  status: ('A' for Active; 'I' for Inactive)
REMARK    1  A    between atoms: C1_1  and  C5_5 
REMARK    2  A    between atoms: C1_1  and  C11_11 
ROOT
HETATM    1  C2  UNL     1     -31.963   6.726   1.685  1.00 20.00     0.012 C 
HETATM    2  C3  UNL     1     -32.439   7.844   2.606  1.00 20.00     0.005 C 
HETATM    3  C4  UNL     1     -33.923   5.307   2.394  1.00 20.00     0.016 C 
HETATM    4  C5  UNL     1     -33.129   5.863   1.212  1.00 20.00     0.056 C 
HETATM    5  C6  UNL     1     -33.235   7.303   3.807  1.00 20.00    -0.015 C 
HETATM    6  C7  UNL     1     -34.417   6.424   3.330  1.00 20.00    -0.014 C 
HETATM    7  C8  UNL     1     -33.690   8.476   4.681  1.00 20.00     0.010 C 
HETATM    8  C9  UNL     1     -35.192   5.802   4.495  1.00 20.00     0.010 C 
ENDROOT
BRANCH   4   9
HETATM    9  C1  UNL     1     -32.617   4.726   0.381  1.00 20.00     0.130 C 
HETATM   10  O12 UNL     1     -33.363   4.108  -0.376  1.00 20.00    -0.298 OA
BRANCH   9  11
HETATM   11  C11 UNL     1     -31.143   4.397   0.535  1.00 20.00     0.074 C 
HETATM   12  C10 UNL     1     -30.652   3.413  -0.511  1.00 20.00     0.013 C 
ENDBRANCH   9  11
ENDBRANCH   4   9
TORSDOF 2
ENDMDL
