MODEL 1
REMARK VINA RESULT:      -0.4      0.000      0.000
REMARK  0 active torsions:
REMARK  status: ('A' for Active; 'I' for Inactive)
ROOT
HETATM    1  C1  UNL     1     -32.313   9.936   0.473  1.00 20.00     0.088 C 
HETATM    2  C2  UNL     1     -32.049   7.810   1.575  1.00 20.00    -0.070 C 
HETATM    3  C3  UNL     1     -31.885   8.585   0.493  1.00 20.00     0.096 C 
HETATM    4  C4  UNL     1     -32.696   8.310   2.838  1.00 20.00     0.035 C 
HETATM    5  C5  UNL     1     -31.619   6.366   1.611  1.00 20.00     0.039 C 
HETATM    6  C6  UNL     1     -33.850   7.401   3.264  1.00 20.00     0.009 C 
HETATM    7  C7  UNL     1     -32.783   5.435   2.008  1.00 20.00    -0.011 C 
HETATM    8  C8  UNL     1     -33.424   5.922   3.335  1.00 20.00    -0.014 C 
HETATM    9  C9  UNL     1     -33.782   5.290   0.854  1.00 20.00     0.010 C 
HETATM   10  C10 UNL     1     -34.597   5.049   3.785  1.00 20.00     0.010 C 
HETATM   11  N11 UNL     1     -32.660  11.042   0.450  1.00 20.00    -0.192 NA
ENDROOT
TORSDOF 0
ENDMDL
MODEL 2
REMARK VINA RESULT:       2.5      2.471      4.495
REMARK  0 active torsions:
REMARK  status: ('A' for Active; 'I' for Inactive)
ROOT
HETATM    1  C1  UNL     1     -34.941   6.526   4.052  1.00 20.00     0.088 C 
HETATM    2  C2  UNL     1     -32.944   7.587   3.221  1.00 20.00    -0.070 C 
HETATM    3  C3  UNL     1     -34.013   7.597   4.031  1.00 20.00     0.096 C 
HETATM    4  C4  UNL     1     -32.652   6.449   2.281  1.00 20.00     0.035 C 
HETATM    5  C5  UNL     1     -31.957   8.724   3.168  1.00 20.00     0.039 C 
HETATM    6  C6  UNL     1     -32.464   6.952   0.849  1.00 20.00     0.009 C 
HETATM    7  C7  UNL     1     -31.782   9.261   1.733  1.00 20.00    -0.011 C 
HETATM    8  C8  UNL     1     -31.436   8.095   0.768  1.00 20.00    -0.014 C 
HETATM    9  C9  UNL     1     -33.009  10.077   1.305  1.00 20.00     0.010 C 
HETATM   10  C10 UNL     1     -31.260   8.555  -0.681  1.00 20.00     0.010 C 
HETATM   11  N11 UNL     1     -35.704   5.652   4.075  1.00 20.00    -0.192 NA
ENDROOT
TORSDOF 0
ENDMDL
