MODEL 1
REMARK VINA RESULT:      -1.9      0.000      0.000
REMARK  2 active torsions:
REMARK  status: ('A' for Active; 'I' for Inactive)
REMARK    1  A    between atoms: C5_5  and  C6_6 
REMARK    2  A    between atoms: C6_6  and  C7_7 
ROOT
HETATM    1  C1  UNL     1     -32.083   8.364   3.012  1.00 20.00     0.027 C 
HETATM    2  C2  UNL     1     -33.458   7.983   3.552  1.00 20.00     0.009 C 
HETATM    3  C3  UNL     1     -31.906   7.860   1.586  1.00 20.00     0.167 C 
HETATM    4  C4  UNL     1     -33.448   6.089   1.905  1.00 20.00     0.172 C 
HETATM    5  C5  UNL     1     -33.717   6.485   3.359  1.00 20.00     0.010 C 
HETATM    6  O8  UNL     1     -32.121   6.451   1.519  1.00 20.00    -0.391 OA
ENDROOT
BRANCH   5   7
HETATM    7  C6  UNL     1     -35.135   6.112   3.778  1.00 20.00     0.021 C 
BRANCH   7   8
HETATM    8  C7  UNL     1     -35.199   4.865   4.650  1.00 20.00     0.115 C 
HETATM    9 CL9  UNL     1     -33.873   3.733   4.296  1.00 20.00    -0.130 Cl
ENDBRANCH   7   8
ENDBRANCH   5   7
TORSDOF 2
ENDMDL
MODEL 2
REMARK VINA RESULT:      -1.9      2.864      4.215
REMARK  2 active torsions:
REMARK  status: ('A' for Active; 'I' for Inactive)
REMARK    1  A    between atoms: C5_5  and  C6_6 
REMARK    2  A    between atoms: C6_6  and  C7_7 
ROOT
HETATM    1  C1  UNL     1     -34.791   6.524   3.970  1.00 20.00     0.027 C 
HETATM    2  C2  UNL     1     -33.726   7.578   3.686  1.00 20.00     0.009 C 
HETATM    3  C3  UNL     1     -34.248   5.125   3.709  1.00 20.00     0.167 C 
HETATM    4  C4  UNL     1     -32.668   5.916   2.130  1.00 20.00     0.172 C 
HETATM    5  C5  UNL     1     -33.120   7.369   2.293  1.00 20.00     0.010 C 
HETATM    6  O8  UNL     1     -33.752   5.018   2.376  1.00 20.00    -0.391 OA
ENDROOT
BRANCH   5   7
HETATM    7  C6  UNL     1     -31.968   8.336   2.044  1.00 20.00     0.021 C 
BRANCH   7   8
HETATM    8  C7  UNL     1     -31.868   8.794   0.595  1.00 20.00     0.115 C 
HETATM    9 CL9  UNL     1     -32.662  10.365   0.334  1.00 20.00    -0.130 Cl
ENDBRANCH   7   8
ENDBRANCH   5   7
TORSDOF 2
ENDMDL
MODEL 3
REMARK VINA RESULT:      -1.9      3.020      4.511
REMARK  2 active torsions:
REMARK  status: ('A' for Active; 'I' for Inactive)
REMARK    1  A    between atoms: C5_5  and  C6_6 
REMARK    2  A    between atoms: C6_6  and  C7_7 
ROOT
HETATM    1  C1  UNL     1     -33.812   5.401   3.015  1.00 20.00     0.027 C 
HETATM    2  C2  UNL     1     -33.097   6.103   1.864  1.00 20.00     0.009 C 
HETATM    3  C3  UNL     1     -34.692   6.381   3.780  1.00 20.00     0.167 C 
HETATM    4  C4  UNL     1     -33.349   8.235   3.167  1.00 20.00     0.172 C 
HETATM    5  C5  UNL     1     -32.381   7.363   2.364  1.00 20.00     0.010 C 
HETATM    6  O8  UNL     1     -33.926   7.492   4.242  1.00 20.00    -0.391 OA
ENDROOT
BRANCH   5   7
HETATM    7  C6  UNL     1     -31.767   8.143   1.206  1.00 20.00     0.021 C 
BRANCH   7   8
HETATM    8  C7  UNL     1     -32.352   9.539   1.042  1.00 20.00     0.115 C 
HETATM    9 CL9  UNL     1     -32.784   9.889  -0.648  1.00 20.00    -0.130 Cl
ENDBRANCH   7   8
ENDBRANCH   5   7
TORSDOF 2
ENDMDL
MODEL 4
REMARK VINA RESULT:      -1.7      1.342      1.935
REMARK  2 active torsions:
REMARK  status: ('A' for Active; 'I' for Inactive)
REMARK    1  A    between atoms: C5_5  and  C6_6 
REMARK    2  A    between atoms: C6_6  and  C7_7 
ROOT
HETATM    1  C1  UNL     1     -32.409   6.637   1.236  1.00 20.00     0.027 C 
HETATM    2  C2  UNL     1     -32.933   5.557   2.176  1.00 20.00     0.009 C 
HETATM    3  C3  UNL     1     -31.986   7.873   2.018  1.00 20.00     0.167 C 
HETATM    4  C4  UNL     1     -33.487   7.399   3.789  1.00 20.00     0.172 C 
HETATM    5  C5  UNL     1     -34.006   6.130   3.110  1.00 20.00     0.010 C 
HETATM    6  O8  UNL     1     -33.064   8.357   2.817  1.00 20.00    -0.391 OA
ENDROOT
BRANCH   5   7
HETATM    7  C6  UNL     1     -34.450   5.096   4.138  1.00 20.00     0.021 C 
BRANCH   7   8
HETATM    8  C7  UNL     1     -33.898   3.702   3.870  1.00 20.00     0.115 C 
HETATM    9 CL9  UNL     1     -32.986   3.064   5.258  1.00 20.00    -0.130 Cl
ENDBRANCH   7   8
ENDBRANCH   5   7
TORSDOF 2
ENDMDL
MODEL 5
REMARK VINA RESULT:      -1.6      2.721      4.068
REMARK  2 active torsions:
REMARK  status: ('A' for Active; 'I' for Inactive)
REMARK    1  A    between atoms: C5_5  and  C6_6 
REMARK    2  A    between atoms: C6_6  and  C7_7 
ROOT
HETATM    1  C1  UNL     1     -35.353   6.239   4.031  1.00 20.00     0.027 C 
HETATM    2  C2  UNL     1     -34.208   6.936   3.304  1.00 20.00     0.009 C 
HETATM    3  C3  UNL     1     -34.873   4.947   4.679  1.00 20.00     0.167 C 
HETATM    4  C4  UNL     1     -33.120   4.682   3.106  1.00 20.00     0.172 C 
HETATM    5  C5  UNL     1     -33.498   5.962   2.357  1.00 20.00     0.010 C 
HETATM    6  O8  UNL     1     -34.272   4.090   3.709  1.00 20.00    -0.391 OA
ENDROOT
BRANCH   5   7
HETATM    7  C6  UNL     1     -32.274   6.608   1.718  1.00 20.00     0.021 C 
BRANCH   7   8
HETATM    8  C7  UNL     1     -32.103   8.075   2.088  1.00 20.00     0.115 C 
HETATM    9 CL9  UNL     1     -32.210   9.141   0.667  1.00 20.00    -0.130 Cl
ENDBRANCH   7   8
ENDBRANCH   5   7
TORSDOF 2
ENDMDL
MODEL 6
REMARK VINA RESULT:      -1.2      0.950      1.725
REMARK  2 active torsions:
REMARK  status: ('A' for Active; 'I' for Inactive)
REMARK    1  A    between atoms: C5_5  and  C6_6 
REMARK    2  A    between atoms: C6_6  and  C7_7 
ROOT
HETATM    1  C1  UNL     1     -32.469   6.196   1.133  1.00 20.00     0.027 C 
HETATM    2  C2  UNL     1     -33.272   5.724   2.340  1.00 20.00     0.009 C 
HETATM    3  C3  UNL     1     -31.550   7.349   1.514  1.00 20.00     0.167 C 
HETATM    4  C4  UNL     1     -32.958   8.024   3.297  1.00 20.00     0.172 C 
HETATM    5  C5  UNL     1     -33.969   6.908   3.020  1.00 20.00     0.010 C 
HETATM    6  O8  UNL     1     -32.297   8.418   2.093  1.00 20.00    -0.391 OA
ENDROOT
BRANCH   5   7
HETATM    7  C6  UNL     1     -34.673   6.472   4.300  1.00 20.00     0.021 C 
BRANCH   7   8
HETATM    8  C7  UNL     1     -35.220   5.053   4.235  1.00 20.00     0.115 C 
HETATM    9 CL9  UNL     1     -33.960   3.835   4.544  1.00 20.00    -0.130 Cl
ENDBRANCH   7   8
ENDBRANCH   5   7
TORSDOF 2
ENDMDL
MODEL 7
REMARK VINA RESULT:      -0.1      1.543      1.580
REMARK  2 active torsions:
REMARK  status: ('A' for Active; 'I' for Inactive)
REMARK    1  A    between atoms: C5_5  and  C6_6 
REMARK    2  A    between atoms: C6_6  and  C7_7 
ROOT
HETATM    1  C1  UNL     1     -32.269   8.370   2.893  1.00 20.00     0.027 C 
HETATM    2  C2  UNL     1     -33.408   7.535   3.469  1.00 20.00     0.009 C 
HETATM    3  C3  UNL     1     -32.037   8.028   1.428  1.00 20.00     0.167 C 
HETATM    4  C4  UNL     1     -32.901   5.837   1.691  1.00 20.00     0.172 C 
HETATM    5  C5  UNL     1     -33.183   6.046   3.180  1.00 20.00     0.010 C 
HETATM    6  O8  UNL     1     -31.791   6.632   1.270  1.00 20.00    -0.391 OA
ENDROOT
BRANCH   5   7
HETATM    7  C6  UNL     1     -34.373   5.211   3.638  1.00 20.00     0.021 C 
BRANCH   7   8
HETATM    8  C7  UNL     1     -35.492   6.040   4.253  1.00 20.00     0.115 C 
HETATM    9 CL9  UNL     1     -36.546   6.766   3.016  1.00 20.00    -0.130 Cl
ENDBRANCH   7   8
ENDBRANCH   5   7
TORSDOF 2
ENDMDL
MODEL 8
REMARK VINA RESULT:       0.1      2.034      3.726
REMARK  2 active torsions:
REMARK  status: ('A' for Active; 'I' for Inactive)
REMARK    1  A    between atoms: C5_5  and  C6_6 
REMARK    2  A    between atoms: C6_6  and  C7_7 
ROOT
HETATM    1  C1  UNL     1     -35.644   5.975   4.258  1.00 20.00     0.027 C 
HETATM    2  C2  UNL     1     -34.657   7.086   3.913  1.00 20.00     0.009 C 
HETATM    3  C3  UNL     1     -34.906   4.695   4.628  1.00 20.00     0.167 C 
HETATM    4  C4  UNL     1     -33.015   5.280   3.326  1.00 20.00     0.172 C 
HETATM    5  C5  UNL     1     -33.642   6.601   2.872  1.00 20.00     0.010 C 
HETATM    6  O8  UNL     1     -34.024   4.301   3.578  1.00 20.00    -0.391 OA
ENDROOT
BRANCH   5   7
HETATM    7  C6  UNL     1     -32.575   7.657   2.610  1.00 20.00     0.021 C 
BRANCH   7   8
HETATM    8  C7  UNL     1     -31.723   7.363   1.382  1.00 20.00     0.115 C 
HETATM    9 CL9  UNL     1     -31.824   5.656   0.891  1.00 20.00    -0.130 Cl
ENDBRANCH   7   8
ENDBRANCH   5   7
TORSDOF 2
ENDMDL
MODEL 9
REMARK VINA RESULT:       0.1      1.803      2.481
REMARK  2 active torsions:
REMARK  status: ('A' for Active; 'I' for Inactive)
REMARK    1  A    between atoms: C5_5  and  C6_6 
REMARK    2  A    between atoms: C6_6  and  C7_7 
ROOT
HETATM    1  C1  UNL     1     -32.520  10.210   0.711  1.00 20.00     0.027 C 
HETATM    2  C2  UNL     1     -33.298   9.611   1.879  1.00 20.00     0.009 C 
HETATM    3  C3  UNL     1     -32.012   9.113  -0.216  1.00 20.00     0.167 C 
HETATM    4  C4  UNL     1     -31.972   7.508   1.526  1.00 20.00     0.172 C 
HETATM    5  C5  UNL     1     -32.477   8.512   2.565  1.00 20.00     0.010 C 
HETATM    6  O8  UNL     1     -31.223   8.169   0.506  1.00 20.00    -0.391 OA
ENDROOT
BRANCH   5   7
HETATM    7  C6  UNL     1     -33.288   7.818   3.654  1.00 20.00     0.021 C 
BRANCH   7   8
HETATM    8  C7  UNL     1     -33.885   6.490   3.208  1.00 20.00     0.115 C 
HETATM    9 CL9  UNL     1     -35.396   6.113   4.070  1.00 20.00    -0.130 Cl
ENDBRANCH   7   8
ENDBRANCH   5   7
TORSDOF 2
ENDMDL
