MODEL 1
REMARK VINA RESULT:      -1.5      0.000      0.000
REMARK  4 active torsions:
REMARK  status: ('A' for Active; 'I' for Inactive)
REMARK    1  A    between atoms: C1_1  and  C8_8 
REMARK    2  A    between atoms: C1_1  and  C9_9 
REMARK    3  A    between atoms: C4_4  and  C8_8 
REMARK    4  A    between atoms: C9_9  and  C10_10 
ROOT
HETATM    1  C1  UNL     1     -32.366   6.672   1.648  1.00 20.00     0.128 C 
HETATM    2  O11 UNL     1     -31.646   5.682   1.516  1.00 20.00    -0.298 OA
ENDROOT
BRANCH   1   3
HETATM    3  C8  UNL     1     -31.831   8.086   1.522  1.00 20.00     0.082 C 
BRANCH   3   4
HETATM    4  C4  UNL     1     -32.784   9.033   0.865  1.00 20.00    -0.008 A 
HETATM    5  C2  UNL     1     -32.427  10.487   0.718  1.00 20.00     0.005 A 
HETATM    6  C3  UNL     1     -32.473   9.598  -0.494  1.00 20.00     0.005 A 
ENDBRANCH   3   4
ENDBRANCH   1   3
BRANCH   1   7
HETATM    7  C9  UNL     1     -33.847   6.529   1.967  1.00 20.00     0.086 C 
BRANCH   7   8
HETATM    8  C10 UNL     1     -34.180   6.353   3.466  1.00 20.00    -0.045 C 
HETATM    9  C5  UNL     1     -33.498   7.433   4.322  1.00 20.00     0.015 C 
HETATM   10  C6  UNL     1     -33.759   4.963   3.971  1.00 20.00     0.015 C 
HETATM   11  C7  UNL     1     -35.706   6.493   3.635  1.00 20.00     0.015 C 
ENDBRANCH   7   8
ENDBRANCH   1   7
TORSDOF 4
ENDMDL
MODEL 2
REMARK VINA RESULT:      -1.4      0.036      1.311
REMARK  4 active torsions:
REMARK  status: ('A' for Active; 'I' for Inactive)
REMARK    1  A    between atoms: C1_1  and  C8_8 
REMARK    2  A    between atoms: C1_1  and  C9_9 
REMARK    3  A    between atoms: C4_4  and  C8_8 
REMARK    4  A    between atoms: C9_9  and  C10_10 
ROOT
HETATM    1  C1  UNL     1     -32.359   6.670   1.653  1.00 20.00     0.128 C 
HETATM    2  O11 UNL     1     -31.630   5.688   1.515  1.00 20.00    -0.298 OA
ENDROOT
BRANCH   1   3
HETATM    3  C8  UNL     1     -31.835   8.090   1.550  1.00 20.00     0.082 C 
BRANCH   3   4
HETATM    4  C4  UNL     1     -32.784   9.035   0.883  1.00 20.00    -0.008 A 
HETATM    5  C2  UNL     1     -32.438  10.492   0.755  1.00 20.00     0.005 A 
HETATM    6  C3  UNL     1     -32.454   9.614  -0.465  1.00 20.00     0.005 A 
ENDBRANCH   3   4
ENDBRANCH   1   3
BRANCH   1   7
HETATM    7  C9  UNL     1     -33.841   6.511   1.956  1.00 20.00     0.086 C 
BRANCH   7   8
HETATM    8  C10 UNL     1     -34.192   6.374   3.456  1.00 20.00    -0.045 C 
HETATM    9  C5  UNL     1     -35.709   6.469   3.687  1.00 20.00     0.015 C 
HETATM   10  C6  UNL     1     -33.482   7.449   4.294  1.00 20.00     0.015 C 
HETATM   11  C7  UNL     1     -33.715   4.987   3.932  1.00 20.00     0.015 C 
ENDBRANCH   7   8
ENDBRANCH   1   7
TORSDOF 4
ENDMDL
MODEL 3
REMARK VINA RESULT:      -1.4      0.048      1.306
REMARK  4 active torsions:
REMARK  status: ('A' for Active; 'I' for Inactive)
REMARK    1  A    between atoms: C1_1  and  C8_8 
REMARK    2  A    between atoms: C1_1  and  C9_9 
REMARK    3  A    between atoms: C4_4  and  C8_8 
REMARK    4  A    between atoms: C9_9  and  C10_10 
ROOT
HETATM    1  C1  UNL     1     -32.357   6.691   1.641  1.00 20.00     0.128 C 
HETATM    2  O11 UNL     1     -31.640   5.697   1.528  1.00 20.00    -0.298 OA
ENDROOT
BRANCH   1   3
HETATM    3  C8  UNL     1     -31.816   8.101   1.494  1.00 20.00     0.082 C 
BRANCH   3   4
HETATM    4  C4  UNL     1     -32.783   9.055   0.868  1.00 20.00    -0.008 A 
HETATM    5  C2  UNL     1     -32.430  10.510   0.726  1.00 20.00     0.005 A 
HETATM    6  C3  UNL     1     -32.504   9.632  -0.492  1.00 20.00     0.005 A 
ENDBRANCH   3   4
ENDBRANCH   1   3
BRANCH   1   7
HETATM    7  C9  UNL     1     -33.840   6.560   1.955  1.00 20.00     0.086 C 
BRANCH   7   8
HETATM    8  C10 UNL     1     -34.176   6.333   3.446  1.00 20.00    -0.045 C 
HETATM    9  C5  UNL     1     -33.697   4.953   3.924  1.00 20.00     0.015 C 
HETATM   10  C6  UNL     1     -35.687   6.464   3.703  1.00 20.00     0.015 C 
HETATM   11  C7  UNL     1     -33.445   7.412   4.269  1.00 20.00     0.015 C 
ENDBRANCH   7   8
ENDBRANCH   1   7
TORSDOF 4
ENDMDL
MODEL 4
REMARK VINA RESULT:      -0.3      2.012      5.210
REMARK  4 active torsions:
REMARK  status: ('A' for Active; 'I' for Inactive)
REMARK    1  A    between atoms: C1_1  and  C8_8 
REMARK    2  A    between atoms: C1_1  and  C9_9 
REMARK    3  A    between atoms: C4_4  and  C8_8 
REMARK    4  A    between atoms: C9_9  and  C10_10 
ROOT
HETATM    1  C1  UNL     1     -34.546   5.968   3.721  1.00 20.00     0.128 C 
HETATM    2  O11 UNL     1     -35.527   6.701   3.594  1.00 20.00    -0.298 OA
ENDROOT
BRANCH   1   3
HETATM    3  C8  UNL     1     -34.661   4.536   4.211  1.00 20.00     0.082 C 
BRANCH   3   4
HETATM    4  C4  UNL     1     -33.366   3.790   4.197  1.00 20.00    -0.008 A 
HETATM    5  C2  UNL     1     -32.806   3.219   5.471  1.00 20.00     0.005 A 
HETATM    6  C3  UNL     1     -33.347   2.301   4.409  1.00 20.00     0.005 A 
ENDBRANCH   3   4
ENDBRANCH   1   3
BRANCH   1   7
HETATM    7  C9  UNL     1     -33.145   6.469   3.405  1.00 20.00     0.086 C 
BRANCH   7   8
HETATM    8  C10 UNL     1     -32.766   6.456   1.906  1.00 20.00    -0.045 C 
HETATM    9  C5  UNL     1     -34.005   6.255   1.019  1.00 20.00     0.015 C 
HETATM   10  C6  UNL     1     -31.738   5.356   1.601  1.00 20.00     0.015 C 
HETATM   11  C7  UNL     1     -32.140   7.822   1.561  1.00 20.00     0.015 C 
ENDBRANCH   7   8
ENDBRANCH   1   7
TORSDOF 4
ENDMDL
MODEL 5
REMARK VINA RESULT:      -0.3      1.990      5.210
REMARK  4 active torsions:
REMARK  status: ('A' for Active; 'I' for Inactive)
REMARK    1  A    between atoms: C1_1  and  C8_8 
REMARK    2  A    between atoms: C1_1  and  C9_9 
REMARK    3  A    between atoms: C4_4  and  C8_8 
REMARK    4  A    between atoms: C9_9  and  C10_10 
ROOT
HETATM    1  C1  UNL     1     -34.534   5.968   3.724  1.00 20.00     0.128 C 
HETATM    2  O11 UNL     1     -35.511   6.705   3.593  1.00 20.00    -0.298 OA
ENDROOT
BRANCH   1   3
HETATM    3  C8  UNL     1     -34.657   4.538   4.218  1.00 20.00     0.082 C 
BRANCH   3   4
HETATM    4  C4  UNL     1     -33.369   3.780   4.191  1.00 20.00    -0.008 A 
HETATM    5  C2  UNL     1     -32.795   3.215   5.461  1.00 20.00     0.005 A 
HETATM    6  C3  UNL     1     -33.361   2.293   4.416  1.00 20.00     0.005 A 
ENDBRANCH   3   4
ENDBRANCH   1   3
BRANCH   1   7
HETATM    7  C9  UNL     1     -33.129   6.462   3.412  1.00 20.00     0.086 C 
BRANCH   7   8
HETATM    8  C10 UNL     1     -32.771   6.511   1.909  1.00 20.00    -0.045 C 
HETATM    9  C5  UNL     1     -32.162   7.869   1.523  1.00 20.00     0.015 C 
HETATM   10  C6  UNL     1     -34.005   6.240   1.034  1.00 20.00     0.015 C 
HETATM   11  C7  UNL     1     -31.724   5.414   1.633  1.00 20.00     0.015 C 
ENDBRANCH   7   8
ENDBRANCH   1   7
TORSDOF 4
ENDMDL
MODEL 6
REMARK VINA RESULT:      -0.2      1.000      4.228
REMARK  4 active torsions:
REMARK  status: ('A' for Active; 'I' for Inactive)
REMARK    1  A    between atoms: C1_1  and  C8_8 
REMARK    2  A    between atoms: C1_1  and  C9_9 
REMARK    3  A    between atoms: C4_4  and  C8_8 
REMARK    4  A    between atoms: C9_9  and  C10_10 
ROOT
HETATM    1  C1  UNL     1     -32.558   6.043   1.534  1.00 20.00     0.128 C 
HETATM    2  O11 UNL     1     -31.609   5.391   1.100  1.00 20.00    -0.298 OA
ENDROOT
BRANCH   1   3
HETATM    3  C8  UNL     1     -33.360   5.601   2.745  1.00 20.00     0.082 C 
BRANCH   3   4
HETATM    4  C4  UNL     1     -34.465   6.539   3.110  1.00 20.00    -0.008 A 
HETATM    5  C2  UNL     1     -35.346   6.249   4.294  1.00 20.00     0.005 A 
HETATM    6  C3  UNL     1     -34.363   7.384   4.349  1.00 20.00     0.005 A 
ENDBRANCH   3   4
ENDBRANCH   1   3
BRANCH   1   7
HETATM    7  C9  UNL     1     -32.998   7.335   0.862  1.00 20.00     0.086 C 
BRANCH   7   8
HETATM    8  C10 UNL     1     -32.052   8.539   1.076  1.00 20.00    -0.045 C 
HETATM    9  C5  UNL     1     -31.371   8.477   2.453  1.00 20.00     0.015 C 
HETATM   10  C6  UNL     1     -32.807   9.871   0.942  1.00 20.00     0.015 C 
HETATM   11  C7  UNL     1     -30.958   8.485  -0.009  1.00 20.00     0.015 C 
ENDBRANCH   7   8
ENDBRANCH   1   7
TORSDOF 4
ENDMDL
MODEL 7
REMARK VINA RESULT:      -0.2      1.008      4.136
REMARK  4 active torsions:
REMARK  status: ('A' for Active; 'I' for Inactive)
REMARK    1  A    between atoms: C1_1  and  C8_8 
REMARK    2  A    between atoms: C1_1  and  C9_9 
REMARK    3  A    between atoms: C4_4  and  C8_8 
REMARK    4  A    between atoms: C9_9  and  C10_10 
ROOT
HETATM    1  C1  UNL     1     -32.568   6.048   1.535  1.00 20.00     0.128 C 
HETATM    2  O11 UNL     1     -31.619   5.400   1.096  1.00 20.00    -0.298 OA
ENDROOT
BRANCH   1   3
HETATM    3  C8  UNL     1     -33.379   5.589   2.733  1.00 20.00     0.082 C 
BRANCH   3   4
HETATM    4  C4  UNL     1     -34.477   6.530   3.113  1.00 20.00    -0.008 A 
HETATM    5  C2  UNL     1     -35.339   6.244   4.312  1.00 20.00     0.005 A 
HETATM    6  C3  UNL     1     -34.354   7.379   4.347  1.00 20.00     0.005 A 
ENDBRANCH   3   4
ENDBRANCH   1   3
BRANCH   1   7
HETATM    7  C9  UNL     1     -32.999   7.353   0.881  1.00 20.00     0.086 C 
BRANCH   7   8
HETATM    8  C10 UNL     1     -32.017   8.532   1.064  1.00 20.00    -0.045 C 
HETATM    9  C5  UNL     1     -30.921   8.520  -0.014  1.00 20.00     0.015 C 
HETATM   10  C6  UNL     1     -31.362   8.501   2.455  1.00 20.00     0.015 C 
HETATM   11  C7  UNL     1     -32.816   9.843   0.928  1.00 20.00     0.015 C 
ENDBRANCH   7   8
ENDBRANCH   1   7
TORSDOF 4
ENDMDL
MODEL 8
REMARK VINA RESULT:      -0.2      1.004      4.187
REMARK  4 active torsions:
REMARK  status: ('A' for Active; 'I' for Inactive)
REMARK    1  A    between atoms: C1_1  and  C8_8 
REMARK    2  A    between atoms: C1_1  and  C9_9 
REMARK    3  A    between atoms: C4_4  and  C8_8 
REMARK    4  A    between atoms: C9_9  and  C10_10 
ROOT
HETATM    1  C1  UNL     1     -32.568   6.066   1.534  1.00 20.00     0.128 C 
HETATM    2  O11 UNL     1     -31.616   5.424   1.091  1.00 20.00    -0.298 OA
ENDROOT
BRANCH   1   3
HETATM    3  C8  UNL     1     -33.356   5.612   2.749  1.00 20.00     0.082 C 
BRANCH   3   4
HETATM    4  C4  UNL     1     -34.473   6.535   3.120  1.00 20.00    -0.008 A 
HETATM    5  C2  UNL     1     -35.346   6.231   4.307  1.00 20.00     0.005 A 
HETATM    6  C3  UNL     1     -34.378   7.380   4.360  1.00 20.00     0.005 A 
ENDBRANCH   3   4
ENDBRANCH   1   3
BRANCH   1   7
HETATM    7  C9  UNL     1     -33.024   7.356   0.869  1.00 20.00     0.086 C 
BRANCH   7   8
HETATM    8  C10 UNL     1     -32.052   8.549   1.019  1.00 20.00    -0.045 C 
HETATM    9  C5  UNL     1     -32.791   9.891   0.903  1.00 20.00     0.015 C 
HETATM   10  C6  UNL     1     -30.934   8.492  -0.035  1.00 20.00     0.015 C 
HETATM   11  C7  UNL     1     -31.411   8.468   2.418  1.00 20.00     0.015 C 
ENDBRANCH   7   8
ENDBRANCH   1   7
TORSDOF 4
ENDMDL
MODEL 9
REMARK VINA RESULT:       0.1      0.643      1.141
REMARK  4 active torsions:
REMARK  status: ('A' for Active; 'I' for Inactive)
REMARK    1  A    between atoms: C1_1  and  C8_8 
REMARK    2  A    between atoms: C1_1  and  C9_9 
REMARK    3  A    between atoms: C4_4  and  C8_8 
REMARK    4  A    between atoms: C9_9  and  C10_10 
ROOT
HETATM    1  C1  UNL     1     -31.975   7.229   1.964  1.00 20.00     0.128 C 
HETATM    2  O11 UNL     1     -31.560   6.181   1.471  1.00 20.00    -0.298 OA
ENDROOT
BRANCH   1   3
HETATM    3  C8  UNL     1     -31.600   8.591   1.409  1.00 20.00     0.082 C 
BRANCH   3   4
HETATM    4  C4  UNL     1     -32.740   9.311   0.762  1.00 20.00    -0.008 A 
HETATM    5  C2  UNL     1     -32.674  10.799   0.550  1.00 20.00     0.005 A 
HETATM    6  C3  UNL     1     -32.593   9.867  -0.627  1.00 20.00     0.005 A 
ENDBRANCH   3   4
ENDBRANCH   1   3
BRANCH   1   7
HETATM    7  C9  UNL     1     -32.884   7.218   3.184  1.00 20.00     0.086 C 
BRANCH   7   8
HETATM    8  C10 UNL     1     -34.038   6.190   3.132  1.00 20.00    -0.045 C 
HETATM    9  C5  UNL     1     -35.270   6.692   3.901  1.00 20.00     0.015 C 
HETATM   10  C6  UNL     1     -33.600   4.832   3.703  1.00 20.00     0.015 C 
HETATM   11  C7  UNL     1     -34.435   5.995   1.655  1.00 20.00     0.015 C 
ENDBRANCH   7   8
ENDBRANCH   1   7
TORSDOF 4
ENDMDL
