MODEL 1
REMARK VINA RESULT:      -2.7      0.000      0.000
REMARK  4 active torsions:
REMARK  status: ('A' for Active; 'I' for Inactive)
REMARK    1  A    between atoms: C5_5  and  C7_7 
REMARK    2  A    between atoms: C6_6  and  C8_8 
REMARK    3  A    between atoms: C7_7  and  C8_8 
REMARK    4  A    between atoms: C8_8  and  O9_9 
ROOT
HETATM    1  C8  UNL     1     -33.055   6.773   1.902  1.00 20.00     0.122 C 
ENDROOT
BRANCH   1   2
HETATM    2  C6  UNL     1     -33.427   6.624   3.371  1.00 20.00     0.014 A 
HETATM    3  C3  UNL     1     -34.172   7.721   4.079  1.00 20.00     0.007 A 
HETATM    4  C4  UNL     1     -34.862   6.422   3.771  1.00 20.00     0.007 A 
ENDBRANCH   1   2
BRANCH   1   5
HETATM    5  C7  UNL     1     -32.198   8.019   1.671  1.00 20.00     0.036 C 
BRANCH   5   6
HETATM    6  C5  UNL     1     -32.889   9.036   0.772  1.00 20.00    -0.012 A 
HETATM    7  C1  UNL     1     -32.508  10.489   0.838  1.00 20.00     0.005 A 
HETATM    8  C2  UNL     1     -32.141   9.669  -0.369  1.00 20.00     0.005 A 
ENDBRANCH   5   6
ENDBRANCH   1   5
BRANCH   1   9
HETATM    9  O9  UNL     1     -32.324   5.620   1.493  1.00 20.00    -0.395 OA
HETATM   10  H23 UNL     1     -32.961   4.891   1.443  1.00 20.00     0.210 HD
ENDBRANCH   1   9
TORSDOF 4
ENDMDL
MODEL 2
REMARK VINA RESULT:      -2.4      0.838      4.091
REMARK  4 active torsions:
REMARK  status: ('A' for Active; 'I' for Inactive)
REMARK    1  A    between atoms: C5_5  and  C7_7 
REMARK    2  A    between atoms: C6_6  and  C8_8 
REMARK    3  A    between atoms: C7_7  and  C8_8 
REMARK    4  A    between atoms: C8_8  and  O9_9 
ROOT
HETATM    1  C8  UNL     1     -32.339   8.000   1.830  1.00 20.00     0.122 C 
ENDROOT
BRANCH   1   2
HETATM    2  C6  UNL     1     -32.794   8.883   0.676  1.00 20.00     0.014 A 
HETATM    3  C3  UNL     1     -32.752  10.380   0.805  1.00 20.00     0.007 A 
HETATM    4  C4  UNL     1     -31.789   9.678  -0.110  1.00 20.00     0.007 A 
ENDBRANCH   1   2
BRANCH   1   5
HETATM    5  C7  UNL     1     -33.208   6.745   1.943  1.00 20.00     0.036 C 
BRANCH   5   6
HETATM    6  C5  UNL     1     -33.640   6.471   3.378  1.00 20.00    -0.012 A 
HETATM    7  C1  UNL     1     -34.179   7.584   4.233  1.00 20.00     0.005 A 
HETATM    8  C2  UNL     1     -35.097   6.497   3.748  1.00 20.00     0.005 A 
ENDBRANCH   5   6
ENDBRANCH   1   5
BRANCH   1   9
HETATM    9  O9  UNL     1     -30.986   7.614   1.608  1.00 20.00    -0.395 OA
HETATM   10  H23 UNL     1     -30.437   8.373   1.857  1.00 20.00     0.210 HD
ENDBRANCH   1   9
TORSDOF 4
ENDMDL
MODEL 3
REMARK VINA RESULT:      -2.3      1.431      1.610
REMARK  4 active torsions:
REMARK  status: ('A' for Active; 'I' for Inactive)
REMARK    1  A    between atoms: C5_5  and  C7_7 
REMARK    2  A    between atoms: C6_6  and  C8_8 
REMARK    3  A    between atoms: C7_7  and  C8_8 
REMARK    4  A    between atoms: C8_8  and  O9_9 
ROOT
HETATM    1  C8  UNL     1     -32.082   7.729   2.700  1.00 20.00     0.122 C 
ENDROOT
BRANCH   1   2
HETATM    2  C6  UNL     1     -33.588   7.573   2.859  1.00 20.00     0.014 A 
HETATM    3  C3  UNL     1     -34.165   6.293   3.398  1.00 20.00     0.007 A 
HETATM    4  C4  UNL     1     -34.205   7.543   4.230  1.00 20.00     0.007 A 
ENDBRANCH   1   2
BRANCH   1   5
HETATM    5  C7  UNL     1     -31.723   8.249   1.307  1.00 20.00     0.036 C 
BRANCH   5   6
HETATM    6  C5  UNL     1     -32.800   9.163   0.737  1.00 20.00    -0.012 A 
HETATM    7  C1  UNL     1     -32.589  10.651   0.699  1.00 20.00     0.005 A 
HETATM    8  C2  UNL     1     -32.585   9.858  -0.578  1.00 20.00     0.005 A 
ENDBRANCH   5   6
ENDBRANCH   1   5
BRANCH   1   9
HETATM    9  O9  UNL     1     -31.609   8.650   3.679  1.00 20.00    -0.395 OA
HETATM   10  H23 UNL     1     -31.055   9.293   3.210  1.00 20.00     0.210 HD
ENDBRANCH   1   9
TORSDOF 4
ENDMDL
MODEL 4
REMARK VINA RESULT:      -2.0      2.685      5.344
REMARK  4 active torsions:
REMARK  status: ('A' for Active; 'I' for Inactive)
REMARK    1  A    between atoms: C5_5  and  C7_7 
REMARK    2  A    between atoms: C6_6  and  C8_8 
REMARK    3  A    between atoms: C7_7  and  C8_8 
REMARK    4  A    between atoms: C8_8  and  O9_9 
ROOT
HETATM    1  C8  UNL     1     -34.367   5.959   3.338  1.00 20.00     0.122 C 
ENDROOT
BRANCH   1   2
HETATM    2  C6  UNL     1     -32.975   6.013   2.725  1.00 20.00     0.014 A 
HETATM    3  C3  UNL     1     -32.799   5.915   1.235  1.00 20.00     0.007 A 
HETATM    4  C4  UNL     1     -32.542   7.218   1.937  1.00 20.00     0.007 A 
ENDBRANCH   1   2
BRANCH   1   5
HETATM    5  C7  UNL     1     -34.542   4.712   4.208  1.00 20.00     0.036 C 
BRANCH   5   6
HETATM    6  C5  UNL     1     -33.318   3.805   4.168  1.00 20.00    -0.012 A 
HETATM    7  C1  UNL     1     -32.772   3.213   5.437  1.00 20.00     0.005 A 
HETATM    8  C2  UNL     1     -33.459   2.332   4.431  1.00 20.00     0.005 A 
ENDBRANCH   5   6
ENDBRANCH   1   5
BRANCH   1   9
HETATM    9  O9  UNL     1     -34.562   7.120   4.141  1.00 20.00    -0.395 OA
HETATM   10  H23 UNL     1     -35.057   7.752   3.598  1.00 20.00     0.210 HD
ENDBRANCH   1   9
TORSDOF 4
ENDMDL
MODEL 5
REMARK VINA RESULT:      -1.8      1.468      1.928
REMARK  4 active torsions:
REMARK  status: ('A' for Active; 'I' for Inactive)
REMARK    1  A    between atoms: C5_5  and  C7_7 
REMARK    2  A    between atoms: C6_6  and  C8_8 
REMARK    3  A    between atoms: C7_7  and  C8_8 
REMARK    4  A    between atoms: C8_8  and  O9_9 
ROOT
HETATM    1  C8  UNL     1     -33.114   6.749   3.141  1.00 20.00     0.122 C 
ENDROOT
BRANCH   1   2
HETATM    2  C6  UNL     1     -34.351   5.860   3.144  1.00 20.00     0.014 A 
HETATM    3  C3  UNL     1     -34.514   4.795   4.192  1.00 20.00     0.007 A 
HETATM    4  C4  UNL     1     -35.390   6.016   4.219  1.00 20.00     0.007 A 
ENDBRANCH   1   2
BRANCH   1   5
HETATM    5  C7  UNL     1     -32.633   7.023   1.714  1.00 20.00     0.036 C 
BRANCH   5   6
HETATM    6  C5  UNL     1     -31.987   8.395   1.577  1.00 20.00    -0.012 A 
HETATM    7  C1  UNL     1     -31.300   8.785   0.298  1.00 20.00     0.005 A 
HETATM    8  C2  UNL     1     -32.601   9.435   0.682  1.00 20.00     0.005 A 
ENDBRANCH   5   6
ENDBRANCH   1   5
BRANCH   1   9
HETATM    9  O9  UNL     1     -33.435   7.986   3.771  1.00 20.00    -0.395 OA
HETATM   10  H23 UNL     1     -32.723   8.605   3.545  1.00 20.00     0.210 HD
ENDBRANCH   1   9
TORSDOF 4
ENDMDL
MODEL 6
REMARK VINA RESULT:      -1.8      1.400      4.291
REMARK  4 active torsions:
REMARK  status: ('A' for Active; 'I' for Inactive)
REMARK    1  A    between atoms: C5_5  and  C7_7 
REMARK    2  A    between atoms: C6_6  and  C8_8 
REMARK    3  A    between atoms: C7_7  and  C8_8 
REMARK    4  A    between atoms: C8_8  and  O9_9 
ROOT
HETATM    1  C8  UNL     1     -32.359   8.269   1.921  1.00 20.00     0.122 C 
ENDROOT
BRANCH   1   2
HETATM    2  C6  UNL     1     -31.860   9.038   0.706  1.00 20.00     0.014 A 
HETATM    3  C3  UNL     1     -32.785   9.319  -0.446  1.00 20.00     0.007 A 
HETATM    4  C4  UNL     1     -32.338  10.440   0.449  1.00 20.00     0.007 A 
ENDBRANCH   1   2
BRANCH   1   5
HETATM    5  C7  UNL     1     -32.338   6.760   1.669  1.00 20.00     0.036 C 
BRANCH   5   6
HETATM    6  C5  UNL     1     -33.607   6.076   2.160  1.00 20.00    -0.012 A 
HETATM    7  C1  UNL     1     -33.568   5.187   3.373  1.00 20.00     0.005 A 
HETATM    8  C2  UNL     1     -34.261   6.520   3.439  1.00 20.00     0.005 A 
ENDBRANCH   5   6
ENDBRANCH   1   5
BRANCH   1   9
HETATM    9  O9  UNL     1     -31.520   8.570   3.032  1.00 20.00    -0.395 OA
HETATM   10  H23 UNL     1     -30.745   9.034   2.678  1.00 20.00     0.210 HD
ENDBRANCH   1   9
TORSDOF 4
ENDMDL
MODEL 7
REMARK VINA RESULT:      -1.7      2.706      3.823
REMARK  4 active torsions:
REMARK  status: ('A' for Active; 'I' for Inactive)
REMARK    1  A    between atoms: C5_5  and  C7_7 
REMARK    2  A    between atoms: C6_6  and  C8_8 
REMARK    3  A    between atoms: C7_7  and  C8_8 
REMARK    4  A    between atoms: C8_8  and  O9_9 
ROOT
HETATM    1  C8  UNL     1     -34.345   5.088   4.385  1.00 20.00     0.122 C 
ENDROOT
BRANCH   1   2
HETATM    2  C6  UNL     1     -33.646   3.817   3.922  1.00 20.00     0.014 A 
HETATM    3  C3  UNL     1     -32.333   3.410   4.532  1.00 20.00     0.007 A 
HETATM    4  C4  UNL     1     -33.577   2.620   4.829  1.00 20.00     0.007 A 
ENDBRANCH   1   2
BRANCH   1   5
HETATM    5  C7  UNL     1     -34.278   6.179   3.314  1.00 20.00     0.036 C 
BRANCH   5   6
HETATM    6  C5  UNL     1     -32.883   6.314   2.716  1.00 20.00    -0.012 A 
HETATM    7  C1  UNL     1     -32.662   6.072   1.249  1.00 20.00     0.005 A 
HETATM    8  C2  UNL     1     -32.559   7.465   1.805  1.00 20.00     0.005 A 
ENDBRANCH   5   6
ENDBRANCH   1   5
BRANCH   1   9
HETATM    9  O9  UNL     1     -35.710   4.788   4.662  1.00 20.00    -0.395 OA
HETATM   10  H23 UNL     1     -35.975   4.098   4.034  1.00 20.00     0.210 HD
ENDBRANCH   1   9
TORSDOF 4
ENDMDL
MODEL 8
REMARK VINA RESULT:      -1.7      1.806      2.187
REMARK  4 active torsions:
REMARK  status: ('A' for Active; 'I' for Inactive)
REMARK    1  A    between atoms: C5_5  and  C7_7 
REMARK    2  A    between atoms: C6_6  and  C8_8 
REMARK    3  A    between atoms: C7_7  and  C8_8 
REMARK    4  A    between atoms: C8_8  and  O9_9 
ROOT
HETATM    1  C8  UNL     1     -31.955   7.529   2.190  1.00 20.00     0.122 C 
ENDROOT
BRANCH   1   2
HETATM    2  C6  UNL     1     -32.698   6.482   1.371  1.00 20.00     0.014 A 
HETATM    3  C3  UNL     1     -32.133   5.097   1.222  1.00 20.00     0.007 A 
HETATM    4  C4  UNL     1     -33.364   5.320   2.054  1.00 20.00     0.007 A 
ENDBRANCH   1   2
BRANCH   1   5
HETATM    5  C7  UNL     1     -31.516   8.706   1.318  1.00 20.00     0.036 C 
BRANCH   5   6
HETATM    6  C5  UNL     1     -32.700   9.433   0.693  1.00 20.00    -0.012 A 
HETATM    7  C1  UNL     1     -32.602  10.897   0.363  1.00 20.00     0.005 A 
HETATM    8  C2  UNL     1     -32.643   9.878  -0.742  1.00 20.00     0.005 A 
ENDBRANCH   5   6
ENDBRANCH   1   5
BRANCH   1   9
HETATM    9  O9  UNL     1     -32.817   8.005   3.219  1.00 20.00    -0.395 OA
HETATM   10  H23 UNL     1     -33.181   8.849   2.908  1.00 20.00     0.210 HD
ENDBRANCH   1   9
TORSDOF 4
ENDMDL
MODEL 9
REMARK VINA RESULT:      -1.6      1.364      3.943
REMARK  4 active torsions:
REMARK  status: ('A' for Active; 'I' for Inactive)
REMARK    1  A    between atoms: C5_5  and  C7_7 
REMARK    2  A    between atoms: C6_6  and  C8_8 
REMARK    3  A    between atoms: C7_7  and  C8_8 
REMARK    4  A    between atoms: C8_8  and  O9_9 
ROOT
HETATM    1  C8  UNL     1     -32.404   5.917   1.779  1.00 20.00     0.122 C 
ENDROOT
BRANCH   1   2
HETATM    2  C6  UNL     1     -32.567   7.419   1.595  1.00 20.00     0.014 A 
HETATM    3  C3  UNL     1     -31.574   8.370   2.204  1.00 20.00     0.007 A 
HETATM    4  C4  UNL     1     -31.617   8.181   0.714  1.00 20.00     0.007 A 
ENDBRANCH   1   2
BRANCH   1   5
HETATM    5  C7  UNL     1     -33.326   5.390   2.880  1.00 20.00     0.036 C 
BRANCH   5   6
HETATM    6  C5  UNL     1     -34.478   6.343   3.173  1.00 20.00    -0.012 A 
HETATM    7  C1  UNL     1     -35.420   6.067   4.312  1.00 20.00     0.005 A 
HETATM    8  C2  UNL     1     -34.449   7.211   4.400  1.00 20.00     0.005 A 
ENDBRANCH   5   6
ENDBRANCH   1   5
BRANCH   1   9
HETATM    9  O9  UNL     1     -32.720   5.265   0.552  1.00 20.00    -0.395 OA
HETATM   10  H23 UNL     1     -32.550   4.320   0.688  1.00 20.00     0.210 HD
ENDBRANCH   1   9
TORSDOF 4
ENDMDL
