MODEL 1
REMARK VINA RESULT:      -2.3      0.000      0.000
REMARK  5 active torsions:
REMARK  status: ('A' for Active; 'I' for Inactive)
REMARK    1  A    between atoms: C3_3  and  C5_5 
REMARK    2  A    between atoms: C5_5  and  C8_8 
REMARK    3  A    between atoms: C6_6  and  C7_7 
REMARK    4  A    between atoms: C7_7  and  C8_8 
REMARK    5  A    between atoms: C8_8  and  O9_9 
ROOT
HETATM    1  C8  UNL     1     -31.991   6.497   1.776  1.00 20.00     0.118 C 
ENDROOT
BRANCH   1   2
HETATM    2  C5  UNL     1     -33.503   6.445   2.025  1.00 20.00     0.036 C 
BRANCH   2   3
HETATM    3  C3  UNL     1     -33.881   6.308   3.490  1.00 20.00    -0.012 A 
HETATM    4  C1  UNL     1     -34.384   7.499   4.257  1.00 20.00     0.005 A 
HETATM    5  C2  UNL     1     -35.323   6.379   3.910  1.00 20.00     0.005 A 
ENDBRANCH   2   3
ENDBRANCH   1   2
BRANCH   1   6
HETATM    6  C7  UNL     1     -31.550   7.745   1.001  1.00 20.00     0.031 C 
BRANCH   6   7
HETATM    7  C6  UNL     1     -32.469   8.944   1.262  1.00 20.00    -0.002 C 
HETATM    8  C4  UNL     1     -32.480   9.903   0.082  1.00 20.00     0.005 C 
ENDBRANCH   6   7
ENDBRANCH   1   6
BRANCH   1   9
HETATM    9  O9  UNL     1     -31.626   5.344   1.017  1.00 20.00    -0.396 OA
HETATM   10  H25 UNL     1     -31.194   5.671   0.214  1.00 20.00     0.210 HD
ENDBRANCH   1   9
TORSDOF 5
ENDMDL
MODEL 2
REMARK VINA RESULT:      -2.3      0.812      4.126
REMARK  5 active torsions:
REMARK  status: ('A' for Active; 'I' for Inactive)
REMARK    1  A    between atoms: C3_3  and  C5_5 
REMARK    2  A    between atoms: C5_5  and  C8_8 
REMARK    3  A    between atoms: C6_6  and  C7_7 
REMARK    4  A    between atoms: C7_7  and  C8_8 
REMARK    5  A    between atoms: C8_8  and  O9_9 
ROOT
HETATM    1  C8  UNL     1     -32.825   7.027   1.933  1.00 20.00     0.118 C 
ENDROOT
BRANCH   1   2
HETATM    2  C5  UNL     1     -32.024   8.243   1.452  1.00 20.00     0.036 C 
BRANCH   2   3
HETATM    3  C3  UNL     1     -32.834   9.226   0.623  1.00 20.00    -0.012 A 
HETATM    4  C1  UNL     1     -32.613  10.705   0.771  1.00 20.00     0.005 A 
HETATM    5  C2  UNL     1     -32.180  10.002  -0.485  1.00 20.00     0.005 A 
ENDBRANCH   2   3
ENDBRANCH   1   2
BRANCH   1   6
HETATM    6  C7  UNL     1     -33.054   7.018   3.449  1.00 20.00     0.031 C 
BRANCH   6   7
HETATM    7  C6  UNL     1     -34.496   7.383   3.820  1.00 20.00    -0.002 C 
HETATM    8  C4  UNL     1     -35.344   6.140   4.042  1.00 20.00     0.005 C 
ENDBRANCH   6   7
ENDBRANCH   1   6
BRANCH   1   9
HETATM    9  O9  UNL     1     -32.098   5.849   1.580  1.00 20.00    -0.396 OA
HETATM   10  H25 UNL     1     -32.209   5.230   2.316  1.00 20.00     0.210 HD
ENDBRANCH   1   9
TORSDOF 5
ENDMDL
MODEL 3
REMARK VINA RESULT:      -2.2      1.533      4.304
REMARK  5 active torsions:
REMARK  status: ('A' for Active; 'I' for Inactive)
REMARK    1  A    between atoms: C3_3  and  C5_5 
REMARK    2  A    between atoms: C5_5  and  C8_8 
REMARK    3  A    between atoms: C6_6  and  C7_7 
REMARK    4  A    between atoms: C7_7  and  C8_8 
REMARK    5  A    between atoms: C8_8  and  O9_9 
ROOT
HETATM    1  C8  UNL     1     -31.949   7.605   2.331  1.00 20.00     0.118 C 
ENDROOT
BRANCH   1   2
HETATM    2  C5  UNL     1     -31.677   8.351   1.020  1.00 20.00     0.036 C 
BRANCH   2   3
HETATM    3  C3  UNL     1     -32.753   9.357   0.648  1.00 20.00    -0.012 A 
HETATM    4  C1  UNL     1     -32.415  10.816   0.518  1.00 20.00     0.005 A 
HETATM    5  C2  UNL     1     -32.745  10.009  -0.706  1.00 20.00     0.005 A 
ENDBRANCH   2   3
ENDBRANCH   1   2
BRANCH   1   6
HETATM    6  C7  UNL     1     -33.349   6.981   2.390  1.00 20.00     0.031 C 
BRANCH   6   7
HETATM    7  C6  UNL     1     -34.065   7.288   3.710  1.00 20.00    -0.002 C 
HETATM    8  C4  UNL     1     -35.178   6.288   3.985  1.00 20.00     0.005 C 
ENDBRANCH   6   7
ENDBRANCH   1   6
BRANCH   1   9
HETATM    9  O9  UNL     1     -31.827   8.538   3.406  1.00 20.00    -0.396 OA
HETATM   10  H25 UNL     1     -30.967   8.368   3.818  1.00 20.00     0.210 HD
ENDBRANCH   1   9
TORSDOF 5
ENDMDL
MODEL 4
REMARK VINA RESULT:      -2.1      0.794      4.052
REMARK  5 active torsions:
REMARK  status: ('A' for Active; 'I' for Inactive)
REMARK    1  A    between atoms: C3_3  and  C5_5 
REMARK    2  A    between atoms: C5_5  and  C8_8 
REMARK    3  A    between atoms: C6_6  and  C7_7 
REMARK    4  A    between atoms: C7_7  and  C8_8 
REMARK    5  A    between atoms: C8_8  and  O9_9 
ROOT
HETATM    1  C8  UNL     1     -32.685   6.671   1.528  1.00 20.00     0.118 C 
ENDROOT
BRANCH   1   2
HETATM    2  C5  UNL     1     -32.296   8.098   1.932  1.00 20.00     0.036 C 
BRANCH   2   3
HETATM    3  C3  UNL     1     -31.817   8.957   0.774  1.00 20.00    -0.012 A 
HETATM    4  C1  UNL     1     -32.710   9.198  -0.412  1.00 20.00     0.005 A 
HETATM    5  C2  UNL     1     -32.411  10.319   0.544  1.00 20.00     0.005 A 
ENDBRANCH   2   3
ENDBRANCH   1   2
BRANCH   1   6
HETATM    6  C7  UNL     1     -33.464   5.927   2.620  1.00 20.00     0.031 C 
BRANCH   6   7
HETATM    7  C6  UNL     1     -34.205   6.886   3.559  1.00 20.00    -0.002 C 
HETATM    8  C4  UNL     1     -35.431   6.227   4.172  1.00 20.00     0.005 C 
ENDBRANCH   6   7
ENDBRANCH   1   6
BRANCH   1   9
HETATM    9  O9  UNL     1     -31.486   5.944   1.257  1.00 20.00    -0.396 OA
HETATM   10  H25 UNL     1     -31.143   5.653   2.115  1.00 20.00     0.210 HD
ENDBRANCH   1   9
TORSDOF 5
ENDMDL
MODEL 5
REMARK VINA RESULT:      -2.1      2.355      4.741
REMARK  5 active torsions:
REMARK  status: ('A' for Active; 'I' for Inactive)
REMARK    1  A    between atoms: C3_3  and  C5_5 
REMARK    2  A    between atoms: C5_5  and  C8_8 
REMARK    3  A    between atoms: C6_6  and  C7_7 
REMARK    4  A    between atoms: C7_7  and  C8_8 
REMARK    5  A    between atoms: C8_8  and  O9_9 
ROOT
HETATM    1  C8  UNL     1     -34.361   6.421   3.995  1.00 20.00     0.118 C 
ENDROOT
BRANCH   1   2
HETATM    2  C5  UNL     1     -33.583   7.629   3.458  1.00 20.00     0.036 C 
BRANCH   2   3
HETATM    3  C3  UNL     1     -33.002   7.420   2.070  1.00 20.00    -0.012 A 
HETATM    4  C1  UNL     1     -32.428   8.580   1.305  1.00 20.00     0.005 A 
HETATM    5  C2  UNL     1     -31.518   7.514   1.848  1.00 20.00     0.005 A 
ENDBRANCH   2   3
ENDBRANCH   1   2
BRANCH   1   6
HETATM    6  C7  UNL     1     -33.805   5.079   3.502  1.00 20.00     0.031 C 
BRANCH   6   7
HETATM    7  C6  UNL     1     -34.198   3.917   4.421  1.00 20.00    -0.002 C 
HETATM    8  C4  UNL     1     -33.026   2.977   4.659  1.00 20.00     0.005 C 
ENDBRANCH   6   7
ENDBRANCH   1   6
BRANCH   1   9
HETATM    9  O9  UNL     1     -35.715   6.536   3.558  1.00 20.00    -0.396 OA
HETATM   10  H25 UNL     1     -36.234   5.940   4.119  1.00 20.00     0.210 HD
ENDBRANCH   1   9
TORSDOF 5
ENDMDL
MODEL 6
REMARK VINA RESULT:      -1.9      2.336      4.734
REMARK  5 active torsions:
REMARK  status: ('A' for Active; 'I' for Inactive)
REMARK    1  A    between atoms: C3_3  and  C5_5 
REMARK    2  A    between atoms: C5_5  and  C8_8 
REMARK    3  A    between atoms: C6_6  and  C7_7 
REMARK    4  A    between atoms: C7_7  and  C8_8 
REMARK    5  A    between atoms: C8_8  and  O9_9 
ROOT
HETATM    1  C8  UNL     1     -33.864   6.266   3.689  1.00 20.00     0.118 C 
ENDROOT
BRANCH   1   2
HETATM    2  C5  UNL     1     -33.585   6.324   2.183  1.00 20.00     0.036 C 
BRANCH   2   3
HETATM    3  C3  UNL     1     -32.261   6.977   1.827  1.00 20.00    -0.012 A 
HETATM    4  C1  UNL     1     -32.235   8.306   1.123  1.00 20.00     0.005 A 
HETATM    5  C2  UNL     1     -31.802   8.208   2.558  1.00 20.00     0.005 A 
ENDBRANCH   2   3
ENDBRANCH   1   2
BRANCH   1   6
HETATM    6  C7  UNL     1     -34.543   4.962   4.127  1.00 20.00     0.031 C 
BRANCH   6   7
HETATM    7  C6  UNL     1     -33.709   3.726   3.771  1.00 20.00    -0.002 C 
HETATM    8  C4  UNL     1     -33.153   3.054   5.017  1.00 20.00     0.005 C 
ENDBRANCH   6   7
ENDBRANCH   1   6
BRANCH   1   9
HETATM    9  O9  UNL     1     -34.724   7.355   4.024  1.00 20.00    -0.396 OA
HETATM   10  H25 UNL     1     -34.405   8.119   3.520  1.00 20.00     0.210 HD
ENDBRANCH   1   9
TORSDOF 5
ENDMDL
MODEL 7
REMARK VINA RESULT:      -1.9      1.451      1.734
REMARK  5 active torsions:
REMARK  status: ('A' for Active; 'I' for Inactive)
REMARK    1  A    between atoms: C3_3  and  C5_5 
REMARK    2  A    between atoms: C5_5  and  C8_8 
REMARK    3  A    between atoms: C6_6  and  C7_7 
REMARK    4  A    between atoms: C7_7  and  C8_8 
REMARK    5  A    between atoms: C8_8  and  O9_9 
ROOT
HETATM    1  C8  UNL     1     -32.301   8.218   1.924  1.00 20.00     0.118 C 
ENDROOT
BRANCH   1   2
HETATM    2  C5  UNL     1     -32.824   6.788   2.103  1.00 20.00     0.036 C 
BRANCH   2   3
HETATM    3  C3  UNL     1     -34.189   6.711   2.765  1.00 20.00    -0.012 A 
HETATM    4  C1  UNL     1     -34.409   5.807   3.947  1.00 20.00     0.005 A 
HETATM    5  C2  UNL     1     -34.403   7.299   4.133  1.00 20.00     0.005 A 
ENDBRANCH   2   3
ENDBRANCH   1   2
BRANCH   1   6
HETATM    6  C7  UNL     1     -31.645   8.454   0.558  1.00 20.00     0.031 C 
BRANCH   6   7
HETATM    7  C6  UNL     1     -32.385   9.513  -0.266  1.00 20.00    -0.002 C 
HETATM    8  C4  UNL     1     -32.756  10.719   0.584  1.00 20.00     0.005 C 
ENDBRANCH   6   7
ENDBRANCH   1   6
BRANCH   1   9
HETATM    9  O9  UNL     1     -31.328   8.465   2.939  1.00 20.00    -0.396 OA
HETATM   10  H25 UNL     1     -31.004   7.598   3.224  1.00 20.00     0.210 HD
ENDBRANCH   1   9
TORSDOF 5
ENDMDL
MODEL 8
REMARK VINA RESULT:      -1.8      2.760      3.526
REMARK  5 active torsions:
REMARK  status: ('A' for Active; 'I' for Inactive)
REMARK    1  A    between atoms: C3_3  and  C5_5 
REMARK    2  A    between atoms: C5_5  and  C8_8 
REMARK    3  A    between atoms: C6_6  and  C7_7 
REMARK    4  A    between atoms: C7_7  and  C8_8 
REMARK    5  A    between atoms: C8_8  and  O9_9 
ROOT
HETATM    1  C8  UNL     1     -34.664   6.021   3.533  1.00 20.00     0.118 C 
ENDROOT
BRANCH   1   2
HETATM    2  C5  UNL     1     -34.674   4.712   4.333  1.00 20.00     0.036 C 
BRANCH   2   3
HETATM    3  C3  UNL     1     -33.430   3.862   4.138  1.00 20.00    -0.012 A 
HETATM    4  C1  UNL     1     -32.695   3.310   5.328  1.00 20.00     0.005 A 
HETATM    5  C2  UNL     1     -33.467   2.387   4.427  1.00 20.00     0.005 A 
ENDBRANCH   2   3
ENDBRANCH   1   2
BRANCH   1   6
HETATM    6  C7  UNL     1     -33.418   6.179   2.653  1.00 20.00     0.031 C 
BRANCH   6   7
HETATM    7  C6  UNL     1     -32.805   7.580   2.762  1.00 20.00    -0.002 C 
HETATM    8  C4  UNL     1     -31.908   7.889   1.574  1.00 20.00     0.005 C 
ENDBRANCH   6   7
ENDBRANCH   1   6
BRANCH   1   9
HETATM    9  O9  UNL     1     -34.701   7.107   4.460  1.00 20.00    -0.396 OA
HETATM   10  H25 UNL     1     -33.788   7.415   4.556  1.00 20.00     0.210 HD
ENDBRANCH   1   9
TORSDOF 5
ENDMDL
MODEL 9
REMARK VINA RESULT:      -1.5      2.199      4.689
REMARK  5 active torsions:
REMARK  status: ('A' for Active; 'I' for Inactive)
REMARK    1  A    between atoms: C3_3  and  C5_5 
REMARK    2  A    between atoms: C5_5  and  C8_8 
REMARK    3  A    between atoms: C6_6  and  C7_7 
REMARK    4  A    between atoms: C7_7  and  C8_8 
REMARK    5  A    between atoms: C8_8  and  O9_9 
ROOT
HETATM    1  C8  UNL     1     -33.960   7.138   4.034  1.00 20.00     0.118 C 
ENDROOT
BRANCH   1   2
HETATM    2  C5  UNL     1     -33.639   7.971   2.787  1.00 20.00     0.036 C 
BRANCH   2   3
HETATM    3  C3  UNL     1     -32.189   7.880   2.342  1.00 20.00    -0.012 A 
HETATM    4  C1  UNL     1     -31.779   6.887   1.290  1.00 20.00     0.005 A 
HETATM    5  C2  UNL     1     -31.785   8.356   0.975  1.00 20.00     0.005 A 
ENDBRANCH   2   3
ENDBRANCH   1   2
BRANCH   1   6
HETATM    6  C7  UNL     1     -35.282   6.369   3.921  1.00 20.00     0.031 C 
BRANCH   6   7
HETATM    7  C6  UNL     1     -35.181   4.955   4.504  1.00 20.00    -0.002 C 
HETATM    8  C4  UNL     1     -33.955   4.223   3.978  1.00 20.00     0.005 C 
ENDBRANCH   6   7
ENDBRANCH   1   6
BRANCH   1   9
HETATM    9  O9  UNL     1     -34.049   8.026   5.149  1.00 20.00    -0.396 OA
HETATM   10  H25 UNL     1     -33.319   8.656   5.056  1.00 20.00     0.210 HD
ENDBRANCH   1   9
TORSDOF 5
ENDMDL
