MODEL 1
REMARK VINA RESULT:      -1.6      0.000      0.000
REMARK  2 active torsions:
REMARK  status: ('A' for Active; 'I' for Inactive)
REMARK    1  A    between atoms: C5_5  and  C6_6 
REMARK    2  A    between atoms: C6_6  and  C7_7 
ROOT
HETATM    1  C1  UNL     1     -34.833   6.514   3.973  1.00 20.00     0.027 C 
HETATM    2  C2  UNL     1     -33.763   7.570   3.713  1.00 20.00     0.009 C 
HETATM    3  C3  UNL     1     -34.287   5.118   3.709  1.00 20.00     0.167 C 
HETATM    4  C4  UNL     1     -32.682   5.919   2.161  1.00 20.00     0.172 C 
HETATM    5  C5  UNL     1     -33.135   7.372   2.329  1.00 20.00     0.010 C 
HETATM    6  O8  UNL     1     -33.770   5.021   2.382  1.00 20.00    -0.391 OA
ENDROOT
BRANCH   5   7
HETATM    7  C6  UNL     1     -31.978   8.340   2.106  1.00 20.00     0.017 C 
BRANCH   7   8
HETATM    8  C7  UNL     1     -31.770   8.608   0.628  1.00 20.00     0.085 C 
HETATM    9 BR9  UNL     1     -32.632  10.284   0.139  1.00 20.00    -0.096 Br
ENDBRANCH   7   8
ENDBRANCH   5   7
TORSDOF 2
ENDMDL
MODEL 2
REMARK VINA RESULT:      -1.4      1.257      1.818
REMARK  2 active torsions:
REMARK  status: ('A' for Active; 'I' for Inactive)
REMARK    1  A    between atoms: C5_5  and  C6_6 
REMARK    2  A    between atoms: C6_6  and  C7_7 
ROOT
HETATM    1  C1  UNL     1     -34.219   5.232   3.434  1.00 20.00     0.027 C 
HETATM    2  C2  UNL     1     -33.410   5.753   2.250  1.00 20.00     0.009 C 
HETATM    3  C3  UNL     1     -35.093   6.334   4.016  1.00 20.00     0.167 C 
HETATM    4  C4  UNL     1     -33.635   8.041   3.259  1.00 20.00     0.172 C 
HETATM    5  C5  UNL     1     -32.664   7.038   2.631  1.00 20.00     0.010 C 
HETATM    6  O8  UNL     1     -34.303   7.464   4.382  1.00 20.00    -0.391 OA
ENDROOT
BRANCH   5   7
HETATM    7  C6  UNL     1     -31.954   7.640   1.423  1.00 20.00     0.017 C 
BRANCH   7   8
HETATM    8  C7  UNL     1     -31.980   9.155   1.478  1.00 20.00     0.085 C 
HETATM    9 BR9  UNL     1     -32.564   9.862  -0.240  1.00 20.00    -0.096 Br
ENDBRANCH   7   8
ENDBRANCH   5   7
TORSDOF 2
ENDMDL
MODEL 3
REMARK VINA RESULT:      -1.3      0.862      1.005
REMARK  2 active torsions:
REMARK  status: ('A' for Active; 'I' for Inactive)
REMARK    1  A    between atoms: C5_5  and  C6_6 
REMARK    2  A    between atoms: C6_6  and  C7_7 
ROOT
HETATM    1  C1  UNL     1     -35.100   6.455   3.958  1.00 20.00     0.027 C 
HETATM    2  C2  UNL     1     -33.959   7.221   3.296  1.00 20.00     0.009 C 
HETATM    3  C3  UNL     1     -34.634   5.079   4.411  1.00 20.00     0.167 C 
HETATM    4  C4  UNL     1     -32.932   4.993   2.764  1.00 20.00     0.172 C 
HETATM    5  C5  UNL     1     -33.300   6.370   2.204  1.00 20.00     0.010 C 
HETATM    6  O8  UNL     1     -34.081   4.348   3.317  1.00 20.00    -0.391 OA
ENDROOT
BRANCH   5   7
HETATM    7  C6  UNL     1     -32.078   7.071   1.621  1.00 20.00     0.017 C 
BRANCH   7   8
HETATM    8  C7  UNL     1     -32.088   8.550   1.957  1.00 20.00     0.085 C 
HETATM    9 BR9  UNL     1     -32.394   9.587   0.339  1.00 20.00    -0.096 Br
ENDBRANCH   7   8
ENDBRANCH   5   7
TORSDOF 2
ENDMDL
MODEL 4
REMARK VINA RESULT:      -1.3      2.872      4.215
REMARK  2 active torsions:
REMARK  status: ('A' for Active; 'I' for Inactive)
REMARK    1  A    between atoms: C5_5  and  C6_6 
REMARK    2  A    between atoms: C6_6  and  C7_7 
ROOT
HETATM    1  C1  UNL     1     -32.120   8.368   3.194  1.00 20.00     0.027 C 
HETATM    2  C2  UNL     1     -33.509   7.953   3.672  1.00 20.00     0.009 C 
HETATM    3  C3  UNL     1     -31.905   7.960   1.744  1.00 20.00     0.167 C 
HETATM    4  C4  UNL     1     -33.452   6.173   1.903  1.00 20.00     0.172 C 
HETATM    5  C5  UNL     1     -33.761   6.470   3.373  1.00 20.00     0.010 C 
HETATM    6  O8  UNL     1     -32.116   6.559   1.578  1.00 20.00    -0.391 OA
ENDROOT
BRANCH   5   7
HETATM    7  C6  UNL     1     -35.189   6.072   3.727  1.00 20.00     0.017 C 
BRANCH   7   8
HETATM    8  C7  UNL     1     -35.203   4.909   4.700  1.00 20.00     0.085 C 
HETATM    9 BR9  UNL     1     -33.716   3.714   4.315  1.00 20.00    -0.096 Br
ENDBRANCH   7   8
ENDBRANCH   5   7
TORSDOF 2
ENDMDL
MODEL 5
REMARK VINA RESULT:      -1.0      3.256      4.614
REMARK  2 active torsions:
REMARK  status: ('A' for Active; 'I' for Inactive)
REMARK    1  A    between atoms: C5_5  and  C6_6 
REMARK    2  A    between atoms: C6_6  and  C7_7 
ROOT
HETATM    1  C1  UNL     1     -32.386   6.605   1.150  1.00 20.00     0.027 C 
HETATM    2  C2  UNL     1     -32.970   5.592   2.131  1.00 20.00     0.009 C 
HETATM    3  C3  UNL     1     -31.864   7.829   1.888  1.00 20.00     0.167 C 
HETATM    4  C4  UNL     1     -33.361   7.514   3.697  1.00 20.00     0.172 C 
HETATM    5  C5  UNL     1     -33.982   6.266   3.064  1.00 20.00     0.010 C 
HETATM    6  O8  UNL     1     -32.891   8.411   2.690  1.00 20.00    -0.391 OA
ENDROOT
BRANCH   5   7
HETATM    7  C6  UNL     1     -34.478   5.296   4.131  1.00 20.00     0.017 C 
BRANCH   7   8
HETATM    8  C7  UNL     1     -34.087   3.870   3.793  1.00 20.00     0.085 C 
HETATM    9 BR9  UNL     1     -32.934   3.159   5.190  1.00 20.00    -0.096 Br
ENDBRANCH   7   8
ENDBRANCH   5   7
TORSDOF 2
ENDMDL
MODEL 6
REMARK VINA RESULT:       0.3      1.615      1.930
REMARK  2 active torsions:
REMARK  status: ('A' for Active; 'I' for Inactive)
REMARK    1  A    between atoms: C5_5  and  C6_6 
REMARK    2  A    between atoms: C6_6  and  C7_7 
ROOT
HETATM    1  C1  UNL     1     -35.452   6.250   3.950  1.00 20.00     0.027 C 
HETATM    2  C2  UNL     1     -34.219   6.749   3.201  1.00 20.00     0.009 C 
HETATM    3  C3  UNL     1     -35.103   5.055   4.825  1.00 20.00     0.167 C 
HETATM    4  C4  UNL     1     -33.286   4.431   3.439  1.00 20.00     0.172 C 
HETATM    5  C5  UNL     1     -33.527   5.592   2.471  1.00 20.00     0.010 C 
HETATM    6  O8  UNL     1     -34.510   4.016   4.048  1.00 20.00    -0.391 OA
ENDROOT
BRANCH   5   7
HETATM    7  C6  UNL     1     -32.225   6.050   1.824  1.00 20.00     0.017 C 
BRANCH   7   8
HETATM    8  C7  UNL     1     -32.317   7.498   1.383  1.00 20.00     0.085 C 
HETATM    9 BR9  UNL     1     -31.297   8.620   2.604  1.00 20.00    -0.096 Br
ENDBRANCH   7   8
ENDBRANCH   5   7
TORSDOF 2
ENDMDL
MODEL 7
REMARK VINA RESULT:       0.5      2.941      4.366
REMARK  2 active torsions:
REMARK  status: ('A' for Active; 'I' for Inactive)
REMARK    1  A    between atoms: C5_5  and  C6_6 
REMARK    2  A    between atoms: C6_6  and  C7_7 
ROOT
HETATM    1  C1  UNL     1     -32.760  10.443   0.950  1.00 20.00     0.027 C 
HETATM    2  C2  UNL     1     -33.297   9.359   1.879  1.00 20.00     0.009 C 
HETATM    3  C3  UNL     1     -32.189   9.831  -0.320  1.00 20.00     0.167 C 
HETATM    4  C4  UNL     1     -31.701   7.778   0.758  1.00 20.00     0.172 C 
HETATM    5  C5  UNL     1     -32.241   8.270   2.104  1.00 20.00     0.010 C 
HETATM    6  O8  UNL     1     -31.184   8.867  -0.008  1.00 20.00    -0.391 OA
ENDROOT
BRANCH   5   7
HETATM    7  C6  UNL     1     -32.806   7.116   2.925  1.00 20.00     0.017 C 
BRANCH   7   8
HETATM    8  C7  UNL     1     -33.937   7.588   3.819  1.00 20.00     0.085 C 
HETATM    9 BR9  UNL     1     -35.238   6.157   4.038  1.00 20.00    -0.096 Br
ENDBRANCH   7   8
ENDBRANCH   5   7
TORSDOF 2
ENDMDL
MODEL 8
REMARK VINA RESULT:       0.7      1.894      1.925
REMARK  2 active torsions:
REMARK  status: ('A' for Active; 'I' for Inactive)
REMARK    1  A    between atoms: C5_5  and  C6_6 
REMARK    2  A    between atoms: C6_6  and  C7_7 
ROOT
HETATM    1  C1  UNL     1     -35.696   6.074   4.200  1.00 20.00     0.027 C 
HETATM    2  C2  UNL     1     -34.665   7.164   3.921  1.00 20.00     0.009 C 
HETATM    3  C3  UNL     1     -35.012   4.779   4.613  1.00 20.00     0.167 C 
HETATM    4  C4  UNL     1     -33.028   5.323   3.439  1.00 20.00     0.172 C 
HETATM    5  C5  UNL     1     -33.595   6.658   2.947  1.00 20.00     0.010 C 
HETATM    6  O8  UNL     1     -34.072   4.366   3.622  1.00 20.00    -0.391 OA
ENDROOT
BRANCH   5   7
HETATM    7  C6  UNL     1     -32.489   7.690   2.759  1.00 20.00     0.017 C 
BRANCH   7   8
HETATM    8  C7  UNL     1     -31.808   7.518   1.415  1.00 20.00     0.085 C 
HETATM    9 BR9  UNL     1     -32.082   5.702   0.770  1.00 20.00    -0.096 Br
ENDBRANCH   7   8
ENDBRANCH   5   7
TORSDOF 2
ENDMDL
MODEL 9
REMARK VINA RESULT:       1.3      2.589      4.226
REMARK  2 active torsions:
REMARK  status: ('A' for Active; 'I' for Inactive)
REMARK    1  A    between atoms: C5_5  and  C6_6 
REMARK    2  A    between atoms: C6_6  and  C7_7 
ROOT
HETATM    1  C1  UNL     1     -32.005   7.020   0.821  1.00 20.00     0.027 C 
HETATM    2  C2  UNL     1     -32.246   5.698   1.545  1.00 20.00     0.009 C 
HETATM    3  C3  UNL     1     -31.776   8.146   1.818  1.00 20.00     0.167 C 
HETATM    4  C4  UNL     1     -33.031   7.054   3.506  1.00 20.00     0.172 C 
HETATM    5  C5  UNL     1     -33.342   5.856   2.605  1.00 20.00     0.010 C 
HETATM    6  O8  UNL     1     -32.870   8.243   2.730  1.00 20.00    -0.391 OA
ENDROOT
BRANCH   5   7
HETATM    7  C6  UNL     1     -33.504   4.580   3.423  1.00 20.00     0.017 C 
BRANCH   7   8
HETATM    8  C7  UNL     1     -34.680   4.690   4.375  1.00 20.00     0.085 C 
HETATM    9 BR9  UNL     1     -35.693   6.304   3.979  1.00 20.00    -0.096 Br
ENDBRANCH   7   8
ENDBRANCH   5   7
TORSDOF 2
ENDMDL
