MODEL 1
REMARK VINA RESULT:      -2.8      0.000      0.000
REMARK  4 active torsions:
REMARK  status: ('A' for Active; 'I' for Inactive)
REMARK    1  A    between atoms: C3_3  and  C4_4 
REMARK    2  A    between atoms: C4_4  and  C5_5 
REMARK    3  A    between atoms: C5_5  and  C6_6 
REMARK    4  A    between atoms: C5_5  and  O7_7 
ROOT
HETATM    1  C5  UNL     1     -33.613   5.820   3.404  1.00 20.00     0.226 C 
ENDROOT
BRANCH   1   2
HETATM    2  C4  UNL     1     -33.348   6.131   1.929  1.00 20.00     0.045 C 
BRANCH   2   3
HETATM    3  C3  UNL     1     -32.129   6.985   1.743  1.00 20.00    -0.012 A 
HETATM    4  C1  UNL     1     -32.244   8.341   1.102  1.00 20.00     0.005 A 
HETATM    5  C2  UNL     1     -31.943   8.227   2.570  1.00 20.00     0.005 A 
ENDBRANCH   2   3
ENDBRANCH   1   2
BRANCH   1   6
HETATM    6  C6  UNL     1     -34.875   6.499   3.901  1.00 20.00     0.413 C 
HETATM    7  F8  UNL     1     -35.584   5.693   4.719  1.00 20.00    -0.168 F 
HETATM    8  F9  UNL     1     -35.675   6.851   2.872  1.00 20.00    -0.168 F 
HETATM    9  F10 UNL     1     -34.576   7.624   4.586  1.00 20.00    -0.168 F 
ENDBRANCH   1   6
BRANCH   1  10
HETATM   10  O7  UNL     1     -33.769   4.410   3.554  1.00 20.00    -0.387 OA
HETATM   11  H19 UNL     1     -32.896   4.019   3.401  1.00 20.00     0.210 HD
ENDBRANCH   1  10
TORSDOF 4
ENDMDL
MODEL 2
REMARK VINA RESULT:      -2.8      0.013      1.199
REMARK  4 active torsions:
REMARK  status: ('A' for Active; 'I' for Inactive)
REMARK    1  A    between atoms: C3_3  and  C4_4 
REMARK    2  A    between atoms: C4_4  and  C5_5 
REMARK    3  A    between atoms: C5_5  and  C6_6 
REMARK    4  A    between atoms: C5_5  and  O7_7 
ROOT
HETATM    1  C5  UNL     1     -33.615   5.814   3.397  1.00 20.00     0.226 C 
ENDROOT
BRANCH   1   2
HETATM    2  C4  UNL     1     -33.344   6.122   1.922  1.00 20.00     0.045 C 
BRANCH   2   3
HETATM    3  C3  UNL     1     -32.129   6.982   1.739  1.00 20.00    -0.012 A 
HETATM    4  C1  UNL     1     -32.252   8.343   1.110  1.00 20.00     0.005 A 
HETATM    5  C2  UNL     1     -31.945   8.218   2.577  1.00 20.00     0.005 A 
ENDBRANCH   2   3
ENDBRANCH   1   2
BRANCH   1   6
HETATM    6  C6  UNL     1     -34.875   6.501   3.890  1.00 20.00     0.413 C 
HETATM    7  F8  UNL     1     -35.676   6.864   2.866  1.00 20.00    -0.168 F 
HETATM    8  F9  UNL     1     -34.577   7.612   4.597  1.00 20.00    -0.168 F 
HETATM    9  F10 UNL     1     -35.582   5.682   4.699  1.00 20.00    -0.168 F 
ENDBRANCH   1   6
BRANCH   1  10
HETATM   10  O7  UNL     1     -33.780   4.406   3.549  1.00 20.00    -0.387 OA
HETATM   11  H19 UNL     1     -33.455   4.185   4.435  1.00 20.00     0.210 HD
ENDBRANCH   1  10
TORSDOF 4
ENDMDL
MODEL 3
REMARK VINA RESULT:      -2.4      2.652      4.050
REMARK  4 active torsions:
REMARK  status: ('A' for Active; 'I' for Inactive)
REMARK    1  A    between atoms: C3_3  and  C4_4 
REMARK    2  A    between atoms: C4_4  and  C5_5 
REMARK    3  A    between atoms: C5_5  and  C6_6 
REMARK    4  A    between atoms: C5_5  and  O7_7 
ROOT
HETATM    1  C5  UNL     1     -33.096   6.983   1.887  1.00 20.00     0.226 C 
ENDROOT
BRANCH   1   2
HETATM    2  C4  UNL     1     -33.683   6.818   3.291  1.00 20.00     0.045 C 
BRANCH   2   3
HETATM    3  C3  UNL     1     -34.615   5.645   3.379  1.00 20.00    -0.012 A 
HETATM    4  C1  UNL     1     -34.267   4.464   4.242  1.00 20.00     0.005 A 
HETATM    5  C2  UNL     1     -35.385   5.385   4.644  1.00 20.00     0.005 A 
ENDBRANCH   2   3
ENDBRANCH   1   2
BRANCH   1   6
HETATM    6  C6  UNL     1     -32.025   8.057   1.852  1.00 20.00     0.413 C 
HETATM    7  F8  UNL     1     -32.455   9.167   1.216  1.00 20.00    -0.168 F 
HETATM    8  F9  UNL     1     -30.918   7.618   1.216  1.00 20.00    -0.168 F 
HETATM    9  F10 UNL     1     -31.661   8.412   3.104  1.00 20.00    -0.168 F 
ENDBRANCH   1   6
BRANCH   1  10
HETATM   10  O7  UNL     1     -32.509   5.747   1.488  1.00 20.00    -0.387 OA
HETATM   11  H19 UNL     1     -32.111   5.361   2.283  1.00 20.00     0.210 HD
ENDBRANCH   1  10
TORSDOF 4
ENDMDL
MODEL 4
REMARK VINA RESULT:      -2.2      1.620      2.141
REMARK  4 active torsions:
REMARK  status: ('A' for Active; 'I' for Inactive)
REMARK    1  A    between atoms: C3_3  and  C4_4 
REMARK    2  A    between atoms: C4_4  and  C5_5 
REMARK    3  A    between atoms: C5_5  and  C6_6 
REMARK    4  A    between atoms: C5_5  and  O7_7 
ROOT
HETATM    1  C5  UNL     1     -32.630   7.046   2.626  1.00 20.00     0.226 C 
ENDROOT
BRANCH   1   2
HETATM    2  C4  UNL     1     -31.973   8.327   2.105  1.00 20.00     0.045 C 
BRANCH   2   3
HETATM    3  C3  UNL     1     -32.644   8.841   0.865  1.00 20.00    -0.012 A 
HETATM    4  C1  UNL     1     -32.687  10.318   0.584  1.00 20.00     0.005 A 
HETATM    5  C2  UNL     1     -31.823   9.417  -0.255  1.00 20.00     0.005 A 
ENDBRANCH   2   3
ENDBRANCH   1   2
BRANCH   1   6
HETATM    6  C6  UNL     1     -33.730   7.349   3.626  1.00 20.00     0.413 C 
HETATM    7  F8  UNL     1     -34.445   6.245   3.929  1.00 20.00    -0.168 F 
HETATM    8  F9  UNL     1     -34.584   8.276   3.143  1.00 20.00    -0.168 F 
HETATM    9  F10 UNL     1     -33.212   7.834   4.776  1.00 20.00    -0.168 F 
ENDBRANCH   1   6
BRANCH   1  10
HETATM   10  O7  UNL     1     -33.201   6.343   1.526  1.00 20.00    -0.387 OA
HETATM   11  H19 UNL     1     -33.221   5.407   1.777  1.00 20.00     0.210 HD
ENDBRANCH   1  10
TORSDOF 4
ENDMDL
MODEL 5
REMARK VINA RESULT:      -2.2      2.566      3.251
REMARK  4 active torsions:
REMARK  status: ('A' for Active; 'I' for Inactive)
REMARK    1  A    between atoms: C3_3  and  C4_4 
REMARK    2  A    between atoms: C4_4  and  C5_5 
REMARK    3  A    between atoms: C5_5  and  C6_6 
REMARK    4  A    between atoms: C5_5  and  O7_7 
ROOT
HETATM    1  C5  UNL     1     -33.147   7.326   2.091  1.00 20.00     0.226 C 
ENDROOT
BRANCH   1   2
HETATM    2  C4  UNL     1     -32.123   8.312   1.525  1.00 20.00     0.045 C 
BRANCH   2   3
HETATM    3  C3  UNL     1     -32.715   9.196   0.467  1.00 20.00    -0.012 A 
HETATM    4  C1  UNL     1     -32.708  10.691   0.637  1.00 20.00     0.005 A 
HETATM    5  C2  UNL     1     -31.823  10.048  -0.393  1.00 20.00     0.005 A 
ENDBRANCH   2   3
ENDBRANCH   1   2
BRANCH   1   6
HETATM    6  C6  UNL     1     -32.824   5.897   1.697  1.00 20.00     0.413 C 
HETATM    7  F8  UNL     1     -31.505   5.731   1.467  1.00 20.00    -0.168 F 
HETATM    8  F9  UNL     1     -33.489   5.539   0.578  1.00 20.00    -0.168 F 
HETATM    9  F10 UNL     1     -33.185   5.038   2.676  1.00 20.00    -0.168 F 
ENDBRANCH   1   6
BRANCH   1  10
HETATM   10  O7  UNL     1     -33.134   7.417   3.513  1.00 20.00    -0.387 OA
HETATM   11  H19 UNL     1     -32.973   8.349   3.728  1.00 20.00     0.210 HD
ENDBRANCH   1  10
TORSDOF 4
ENDMDL
MODEL 6
REMARK VINA RESULT:      -2.2      1.614      2.474
REMARK  4 active torsions:
REMARK  status: ('A' for Active; 'I' for Inactive)
REMARK    1  A    between atoms: C3_3  and  C4_4 
REMARK    2  A    between atoms: C4_4  and  C5_5 
REMARK    3  A    between atoms: C5_5  and  C6_6 
REMARK    4  A    between atoms: C5_5  and  O7_7 
ROOT
HETATM    1  C5  UNL     1     -32.627   7.047   2.639  1.00 20.00     0.226 C 
ENDROOT
BRANCH   1   2
HETATM    2  C4  UNL     1     -31.973   8.329   2.116  1.00 20.00     0.045 C 
BRANCH   2   3
HETATM    3  C3  UNL     1     -32.641   8.836   0.872  1.00 20.00    -0.012 A 
HETATM    4  C1  UNL     1     -32.684  10.311   0.583  1.00 20.00     0.005 A 
HETATM    5  C2  UNL     1     -31.817   9.408  -0.249  1.00 20.00     0.005 A 
ENDBRANCH   2   3
ENDBRANCH   1   2
BRANCH   1   6
HETATM    6  C6  UNL     1     -33.735   7.349   3.630  1.00 20.00     0.413 C 
HETATM    7  F8  UNL     1     -34.603   8.261   3.144  1.00 20.00    -0.168 F 
HETATM    8  F9  UNL     1     -33.233   7.831   4.787  1.00 20.00    -0.168 F 
HETATM    9  F10 UNL     1     -34.432   6.230   3.925  1.00 20.00    -0.168 F 
ENDBRANCH   1   6
BRANCH   1  10
HETATM   10  O7  UNL     1     -33.188   6.336   1.537  1.00 20.00    -0.387 OA
HETATM   11  H19 UNL     1     -34.027   6.773   1.326  1.00 20.00     0.210 HD
ENDBRANCH   1  10
TORSDOF 4
ENDMDL
MODEL 7
REMARK VINA RESULT:      -2.1      2.293      3.695
REMARK  4 active torsions:
REMARK  status: ('A' for Active; 'I' for Inactive)
REMARK    1  A    between atoms: C3_3  and  C4_4 
REMARK    2  A    between atoms: C4_4  and  C5_5 
REMARK    3  A    between atoms: C5_5  and  C6_6 
REMARK    4  A    between atoms: C5_5  and  O7_7 
ROOT
HETATM    1  C5  UNL     1     -34.572   6.122   4.218  1.00 20.00     0.226 C 
ENDROOT
BRANCH   1   2
HETATM    2  C4  UNL     1     -33.881   4.891   3.626  1.00 20.00     0.045 C 
BRANCH   2   3
HETATM    3  C3  UNL     1     -33.974   3.700   4.534  1.00 20.00    -0.012 A 
HETATM    4  C1  UNL     1     -33.190   2.453   4.231  1.00 20.00     0.005 A 
HETATM    5  C2  UNL     1     -32.806   3.316   5.400  1.00 20.00     0.005 A 
ENDBRANCH   2   3
ENDBRANCH   1   2
BRANCH   1   6
HETATM    6  C6  UNL     1     -33.878   7.406   3.804  1.00 20.00     0.413 C 
HETATM    7  F8  UNL     1     -33.086   7.882   4.787  1.00 20.00    -0.168 F 
HETATM    8  F9  UNL     1     -34.777   8.365   3.494  1.00 20.00    -0.168 F 
HETATM    9  F10 UNL     1     -33.107   7.204   2.713  1.00 20.00    -0.168 F 
ENDBRANCH   1   6
BRANCH   1  10
HETATM   10  O7  UNL     1     -35.917   6.163   3.747  1.00 20.00    -0.387 OA
HETATM   11  H19 UNL     1     -36.368   5.398   4.136  1.00 20.00     0.210 HD
ENDBRANCH   1  10
TORSDOF 4
ENDMDL
MODEL 8
REMARK VINA RESULT:      -2.0      3.289      4.346
REMARK  4 active torsions:
REMARK  status: ('A' for Active; 'I' for Inactive)
REMARK    1  A    between atoms: C3_3  and  C4_4 
REMARK    2  A    between atoms: C4_4  and  C5_5 
REMARK    3  A    between atoms: C5_5  and  C6_6 
REMARK    4  A    between atoms: C5_5  and  O7_7 
ROOT
HETATM    1  C5  UNL     1     -31.909   7.845   1.647  1.00 20.00     0.226 C 
ENDROOT
BRANCH   1   2
HETATM    2  C4  UNL     1     -33.200   7.051   1.859  1.00 20.00     0.045 C 
BRANCH   2   3
HETATM    3  C3  UNL     1     -33.461   6.776   3.311  1.00 20.00    -0.012 A 
HETATM    4  C1  UNL     1     -34.480   7.586   4.065  1.00 20.00     0.005 A 
HETATM    5  C2  UNL     1     -34.757   6.144   3.740  1.00 20.00     0.005 A 
ENDBRANCH   2   3
ENDBRANCH   1   2
BRANCH   1   6
HETATM    6  C6  UNL     1     -32.088   8.936   0.608  1.00 20.00     0.413 C 
HETATM    7  F8  UNL     1     -32.403  10.118   1.178  1.00 20.00    -0.168 F 
HETATM    8  F9  UNL     1     -33.071   8.622  -0.262  1.00 20.00    -0.168 F 
HETATM    9  F10 UNL     1     -30.954   9.110  -0.105  1.00 20.00    -0.168 F 
ENDBRANCH   1   6
BRANCH   1  10
HETATM   10  O7  UNL     1     -31.536   8.453   2.881  1.00 20.00    -0.387 OA
HETATM   11  H19 UNL     1     -31.363   9.387   2.687  1.00 20.00     0.210 HD
ENDBRANCH   1  10
TORSDOF 4
ENDMDL
MODEL 9
REMARK VINA RESULT:      -1.9      3.288      4.333
REMARK  4 active torsions:
REMARK  status: ('A' for Active; 'I' for Inactive)
REMARK    1  A    between atoms: C3_3  and  C4_4 
REMARK    2  A    between atoms: C4_4  and  C5_5 
REMARK    3  A    between atoms: C5_5  and  C6_6 
REMARK    4  A    between atoms: C5_5  and  O7_7 
ROOT
HETATM    1  C5  UNL     1     -31.911   7.834   1.637  1.00 20.00     0.226 C 
ENDROOT
BRANCH   1   2
HETATM    2  C4  UNL     1     -33.203   7.040   1.849  1.00 20.00     0.045 C 
BRANCH   2   3
HETATM    3  C3  UNL     1     -33.456   6.752   3.300  1.00 20.00    -0.012 A 
HETATM    4  C1  UNL     1     -34.436   7.587   4.078  1.00 20.00     0.005 A 
HETATM    5  C2  UNL     1     -34.769   6.162   3.735  1.00 20.00     0.005 A 
ENDBRANCH   2   3
ENDBRANCH   1   2
BRANCH   1   6
HETATM    6  C6  UNL     1     -32.091   8.926   0.600  1.00 20.00     0.413 C 
HETATM    7  F8  UNL     1     -33.067   8.621  -0.280  1.00 20.00    -0.168 F 
HETATM    8  F9  UNL     1     -30.952   9.126  -0.097  1.00 20.00    -0.168 F 
HETATM    9  F10 UNL     1     -32.417  10.097   1.190  1.00 20.00    -0.168 F 
ENDBRANCH   1   6
BRANCH   1  10
HETATM   10  O7  UNL     1     -31.537   8.439   2.872  1.00 20.00    -0.387 OA
HETATM   11  H19 UNL     1     -30.944   9.174   2.650  1.00 20.00     0.210 HD
ENDBRANCH   1  10
TORSDOF 4
ENDMDL
