MODEL 1
REMARK VINA RESULT:      -0.3      0.000      0.000
REMARK  1 active torsions:
REMARK  status: ('A' for Active; 'I' for Inactive)
REMARK    1  A    between atoms: C4_4  and  C7_7 
ROOT
HETATM    1  C5  UNL     1     -33.208   8.249   3.523  1.00 20.00     0.011 C 
HETATM    2  C6  UNL     1     -31.771   8.555   3.097  1.00 20.00     0.021 C 
HETATM    3  C7  UNL     1     -33.651   7.026   2.686  1.00 20.00     0.025 C 
HETATM    4  C8  UNL     1     -32.420   6.658   1.822  1.00 20.00     0.008 C 
HETATM    5  C9  UNL     1     -31.646   7.977   1.691  1.00 20.00     0.086 C 
HETATM    6  C10 UNL     1     -32.781   5.970   0.510  1.00 20.00     0.012 C 
HETATM    7 CL12 UNL     1     -32.355   9.103   0.497  1.00 20.00    -0.125 Cl
ENDROOT
BRANCH   3   8
HETATM    8  C4  UNL     1     -34.163   5.869   3.518  1.00 20.00    -0.029 A 
HETATM    9  C1  UNL     1     -33.520   4.626   3.733  1.00 20.00     0.034 A 
HETATM   10  C2  UNL     1     -34.357   3.900   4.549  1.00 20.00     0.142 A 
HETATM   11  O11 UNL     1     -35.473   4.617   4.848  1.00 20.00    -0.334 OA
HETATM   12  C3  UNL     1     -35.345   5.814   4.217  1.00 20.00     0.148 A 
ENDBRANCH   3   8
TORSDOF 1
ENDMDL
MODEL 2
REMARK VINA RESULT:      -0.2      3.179      4.778
REMARK  1 active torsions:
REMARK  status: ('A' for Active; 'I' for Inactive)
REMARK    1  A    between atoms: C4_4  and  C7_7 
ROOT
HETATM    1  C5  UNL     1     -33.510   7.700   3.712  1.00 20.00     0.011 C 
HETATM    2  C6  UNL     1     -34.692   6.729   3.749  1.00 20.00     0.021 C 
HETATM    3  C7  UNL     1     -32.647   7.277   2.500  1.00 20.00     0.025 C 
HETATM    4  C8  UNL     1     -33.396   6.079   1.866  1.00 20.00     0.008 C 
HETATM    5  C9  UNL     1     -34.196   5.478   3.031  1.00 20.00     0.086 C 
HETATM    6  C10 UNL     1     -32.480   5.112   1.124  1.00 20.00     0.012 C 
HETATM    7 CL12 UNL     1     -33.204   4.485   4.138  1.00 20.00    -0.125 Cl
ENDROOT
BRANCH   3   8
HETATM    8  C4  UNL     1     -32.378   8.398   1.519  1.00 20.00    -0.029 A 
HETATM    9  C1  UNL     1     -33.034   9.651   1.458  1.00 20.00     0.034 A 
HETATM   10  C2  UNL     1     -32.456  10.333   0.413  1.00 20.00     0.142 A 
HETATM   11  O11 UNL     1     -31.488   9.580  -0.173  1.00 20.00    -0.334 OA
HETATM   12  C3  UNL     1     -31.447   8.404   0.508  1.00 20.00     0.148 A 
ENDBRANCH   3   8
TORSDOF 1
ENDMDL
MODEL 3
REMARK VINA RESULT:      -0.1      0.546      1.078
REMARK  1 active torsions:
REMARK  status: ('A' for Active; 'I' for Inactive)
REMARK    1  A    between atoms: C4_4  and  C7_7 
ROOT
HETATM    1  C5  UNL     1     -33.128   8.297   3.405  1.00 20.00     0.011 C 
HETATM    2  C6  UNL     1     -31.668   8.509   2.999  1.00 20.00     0.021 C 
HETATM    3  C7  UNL     1     -33.620   7.066   2.608  1.00 20.00     0.025 C 
HETATM    4  C8  UNL     1     -32.392   6.597   1.788  1.00 20.00     0.008 C 
HETATM    5  C9  UNL     1     -31.546   7.867   1.621  1.00 20.00     0.086 C 
HETATM    6  C10 UNL     1     -32.763   5.875   0.497  1.00 20.00     0.012 C 
HETATM    7 CL12 UNL     1     -32.169   8.978   0.367  1.00 20.00    -0.125 Cl
ENDROOT
BRANCH   3   8
HETATM    8  C4  UNL     1     -34.209   5.973   3.475  1.00 20.00    -0.029 A 
HETATM    9  C1  UNL     1     -35.389   6.049   4.254  1.00 20.00     0.034 A 
HETATM   10  C2  UNL     1     -35.523   4.822   4.862  1.00 20.00     0.142 A 
HETATM   11  O11 UNL     1     -34.501   3.999   4.508  1.00 20.00    -0.334 OA
HETATM   12  C3  UNL     1     -33.707   4.707   3.663  1.00 20.00     0.148 A 
ENDBRANCH   3   8
TORSDOF 1
ENDMDL
MODEL 4
REMARK VINA RESULT:       1.5      3.217      4.796
REMARK  1 active torsions:
REMARK  status: ('A' for Active; 'I' for Inactive)
REMARK    1  A    between atoms: C4_4  and  C7_7 
ROOT
HETATM    1  C5  UNL     1     -32.986   8.259   3.638  1.00 20.00     0.011 C 
HETATM    2  C6  UNL     1     -34.198   7.396   3.994  1.00 20.00     0.021 C 
HETATM    3  C7  UNL     1     -32.472   7.734   2.277  1.00 20.00     0.025 C 
HETATM    4  C8  UNL     1     -33.443   6.592   1.889  1.00 20.00     0.008 C 
HETATM    5  C9  UNL     1     -33.988   6.090   3.234  1.00 20.00     0.086 C 
HETATM    6  C10 UNL     1     -32.810   5.531   0.996  1.00 20.00     0.012 C 
HETATM    7 CL12 UNL     1     -32.844   5.040   4.120  1.00 20.00    -0.125 Cl
ENDROOT
BRANCH   3   8
HETATM    8  C4  UNL     1     -32.355   8.804   1.213  1.00 20.00    -0.029 A 
HETATM    9  C1  UNL     1     -31.924   8.631  -0.125  1.00 20.00     0.034 A 
HETATM   10  C2  UNL     1     -31.984   9.875  -0.708  1.00 20.00     0.142 A 
HETATM   11  O11 UNL     1     -32.423  10.801   0.185  1.00 20.00    -0.334 OA
HETATM   12  C3  UNL     1     -32.647  10.140   1.351  1.00 20.00     0.148 A 
ENDBRANCH   3   8
TORSDOF 1
ENDMDL
MODEL 5
REMARK VINA RESULT:       2.5      3.083      4.971
REMARK  1 active torsions:
REMARK  status: ('A' for Active; 'I' for Inactive)
REMARK    1  A    between atoms: C4_4  and  C7_7 
ROOT
HETATM    1  C5  UNL     1     -33.511   5.670   1.701  1.00 20.00     0.011 C 
HETATM    2  C6  UNL     1     -33.240   4.868   2.976  1.00 20.00     0.021 C 
HETATM    3  C7  UNL     1     -33.619   7.149   2.142  1.00 20.00     0.025 C 
HETATM    4  C8  UNL     1     -33.372   7.136   3.671  1.00 20.00     0.008 C 
HETATM    5  C9  UNL     1     -33.796   5.726   4.107  1.00 20.00     0.086 C 
HETATM    6  C10 UNL     1     -34.050   8.288   4.406  1.00 20.00     0.012 C 
HETATM    7 CL12 UNL     1     -35.568   5.519   4.223  1.00 20.00    -0.125 Cl
ENDROOT
BRANCH   3   8
HETATM    8  C4  UNL     1     -32.686   8.079   1.396  1.00 20.00    -0.029 A 
HETATM    9  C1  UNL     1     -33.021   9.312   0.786  1.00 20.00     0.034 A 
HETATM   10  C2  UNL     1     -31.856   9.794   0.236  1.00 20.00     0.142 A 
HETATM   11  O11 UNL     1     -30.827   8.936   0.466  1.00 20.00    -0.334 OA
HETATM   12  C3  UNL     1     -31.341   7.896   1.174  1.00 20.00     0.148 A 
ENDBRANCH   3   8
TORSDOF 1
ENDMDL
