MODEL 1
REMARK VINA RESULT:      -0.7      0.000      0.000
REMARK  2 active torsions:
REMARK  status: ('A' for Active; 'I' for Inactive)
REMARK    1  A    between atoms: C4_4  and  C9_9 
REMARK    2  A    between atoms: C6_6  and  N10_10 
ROOT
HETATM    1  C1  UNL     1     -32.229   8.993   0.874  1.00 20.00     0.158 C 
HETATM    2  N10 UNL     1     -31.889   7.889   1.079  1.00 20.00    -0.270 NA
HETATM    3  S11 UNL     1     -32.675  10.491   0.567  1.00 20.00    -0.055 SA
ENDROOT
BRANCH   2   4
HETATM    4  C6  UNL     1     -32.318   7.346   2.365  1.00 20.00     0.113 C 
HETATM    5  C3  UNL     1     -33.629   7.983   2.821  1.00 20.00     0.028 C 
HETATM    6  C2  UNL     1     -34.382   6.888   3.582  1.00 20.00     0.007 C 
HETATM    7  C4  UNL     1     -33.457   5.664   3.577  1.00 20.00    -0.009 C 
HETATM    8  C5  UNL     1     -32.607   5.839   2.304  1.00 20.00     0.010 C 
HETATM    9  C7  UNL     1     -33.308   5.391   1.019  1.00 20.00     0.012 C 
BRANCH   7  10
HETATM   10  C9  UNL     1     -34.212   4.350   3.703  1.00 20.00     0.000 C 
HETATM   11  C8  UNL     1     -33.446   3.345   4.500  1.00 20.00     0.005 C 
ENDBRANCH   7  10
ENDBRANCH   2   4
TORSDOF 2
ENDMDL
MODEL 2
REMARK VINA RESULT:      -0.7      0.947      1.883
REMARK  2 active torsions:
REMARK  status: ('A' for Active; 'I' for Inactive)
REMARK    1  A    between atoms: C4_4  and  C9_9 
REMARK    2  A    between atoms: C6_6  and  N10_10 
ROOT
HETATM    1  C1  UNL     1     -32.278   9.319   0.822  1.00 20.00     0.158 C 
HETATM    2  N10 UNL     1     -31.998   8.510   1.624  1.00 20.00    -0.270 NA
HETATM    3  S11 UNL     1     -32.631  10.436  -0.259  1.00 20.00    -0.055 SA
ENDROOT
BRANCH   2   4
HETATM    4  C6  UNL     1     -32.885   7.351   1.658  1.00 20.00     0.113 C 
HETATM    5  C3  UNL     1     -32.089   6.048   1.622  1.00 20.00     0.028 C 
HETATM    6  C2  UNL     1     -32.886   5.048   2.464  1.00 20.00     0.007 C 
HETATM    7  C4  UNL     1     -34.144   5.798   2.923  1.00 20.00    -0.009 C 
HETATM    8  C5  UNL     1     -33.712   7.277   2.950  1.00 20.00     0.010 C 
HETATM    9  C7  UNL     1     -32.938   7.679   4.208  1.00 20.00     0.012 C 
BRANCH   7  10
HETATM   10  C9  UNL     1     -34.724   5.246   4.215  1.00 20.00     0.000 C 
HETATM   11  C8  UNL     1     -34.110   3.934   4.583  1.00 20.00     0.005 C 
ENDBRANCH   7  10
ENDBRANCH   2   4
TORSDOF 2
ENDMDL
MODEL 3
REMARK VINA RESULT:       0.2      3.137      4.977
REMARK  2 active torsions:
REMARK  status: ('A' for Active; 'I' for Inactive)
REMARK    1  A    between atoms: C4_4  and  C9_9 
REMARK    2  A    between atoms: C6_6  and  N10_10 
ROOT
HETATM    1  C1  UNL     1     -33.677   3.971   4.152  1.00 20.00     0.158 C 
HETATM    2  N10 UNL     1     -34.035   4.974   3.659  1.00 20.00    -0.270 NA
HETATM    3  S11 UNL     1     -33.222   2.604   4.833  1.00 20.00    -0.055 SA
ENDROOT
BRANCH   2   4
HETATM    4  C6  UNL     1     -32.990   5.717   2.959  1.00 20.00     0.113 C 
HETATM    5  C3  UNL     1     -33.127   5.565   1.446  1.00 20.00     0.028 C 
HETATM    6  C2  UNL     1     -32.659   6.895   0.849  1.00 20.00     0.007 C 
HETATM    7  C4  UNL     1     -32.224   7.758   2.041  1.00 20.00    -0.009 C 
HETATM    8  C5  UNL     1     -33.067   7.229   3.217  1.00 20.00     0.010 C 
HETATM    9  C7  UNL     1     -34.495   7.781   3.259  1.00 20.00     0.012 C 
BRANCH   7  10
HETATM   10  C9  UNL     1     -32.325   9.249   1.761  1.00 20.00     0.000 C 
HETATM   11  C8  UNL     1     -32.325   9.539   0.295  1.00 20.00     0.005 C 
ENDBRANCH   7  10
ENDBRANCH   2   4
TORSDOF 2
ENDMDL
MODEL 4
REMARK VINA RESULT:       0.8      3.019      4.594
REMARK  2 active torsions:
REMARK  status: ('A' for Active; 'I' for Inactive)
REMARK    1  A    between atoms: C4_4  and  C9_9 
REMARK    2  A    between atoms: C6_6  and  N10_10 
ROOT
HETATM    1  C1  UNL     1     -34.472   4.692   4.275  1.00 20.00     0.158 C 
HETATM    2  N10 UNL     1     -35.257   5.515   3.983  1.00 20.00    -0.270 NA
HETATM    3  S11 UNL     1     -33.432   3.554   4.676  1.00 20.00    -0.055 SA
ENDROOT
BRANCH   2   4
HETATM    4  C6  UNL     1     -34.683   6.815   3.648  1.00 20.00     0.113 C 
HETATM    5  C3  UNL     1     -33.675   7.260   4.706  1.00 20.00     0.028 C 
HETATM    6  C2  UNL     1     -32.601   8.050   3.952  1.00 20.00     0.007 C 
HETATM    7  C4  UNL     1     -33.050   8.071   2.485  1.00 20.00    -0.009 C 
HETATM    8  C5  UNL     1     -33.894   6.792   2.331  1.00 20.00     0.010 C 
HETATM    9  C7  UNL     1     -33.068   5.520   2.123  1.00 20.00     0.012 C 
BRANCH   7  10
HETATM   10  C9  UNL     1     -31.892   8.232   1.514  1.00 20.00     0.000 C 
HETATM   11  C8  UNL     1     -32.109   9.375   0.576  1.00 20.00     0.005 C 
ENDBRANCH   7  10
ENDBRANCH   2   4
TORSDOF 2
ENDMDL
MODEL 5
REMARK VINA RESULT:       1.1      1.404      1.795
REMARK  2 active torsions:
REMARK  status: ('A' for Active; 'I' for Inactive)
REMARK    1  A    between atoms: C4_4  and  C9_9 
REMARK    2  A    between atoms: C6_6  and  N10_10 
ROOT
HETATM    1  C1  UNL     1     -32.591   8.156   2.142  1.00 20.00     0.158 C 
HETATM    2  N10 UNL     1     -33.677   8.084   2.580  1.00 20.00    -0.270 NA
HETATM    3  S11 UNL     1     -31.127   8.277   1.526  1.00 20.00    -0.055 SA
ENDROOT
BRANCH   2   4
HETATM    4  C6  UNL     1     -33.843   7.097   3.644  1.00 20.00     0.113 C 
HETATM    5  C3  UNL     1     -35.319   6.788   3.882  1.00 20.00     0.028 C 
HETATM    6  C2  UNL     1     -35.376   5.312   4.286  1.00 20.00     0.007 C 
HETATM    7  C4  UNL     1     -33.920   4.828   4.311  1.00 20.00    -0.009 C 
HETATM    8  C5  UNL     1     -33.202   5.745   3.301  1.00 20.00     0.010 C 
HETATM    9  C7  UNL     1     -33.382   5.324   1.840  1.00 20.00     0.012 C 
BRANCH   7  10
HETATM   10  C9  UNL     1     -33.788   3.333   4.071  1.00 20.00     0.000 C 
HETATM   11  C8  UNL     1     -32.845   2.698   5.041  1.00 20.00     0.005 C 
ENDBRANCH   7  10
ENDBRANCH   2   4
TORSDOF 2
ENDMDL
