MODEL 1
REMARK VINA RESULT:      -1.5      0.000      0.000
REMARK  2 active torsions:
REMARK  status: ('A' for Active; 'I' for Inactive)
REMARK    1  A    between atoms: C4_4  and  C5_5 
REMARK    2  A    between atoms: C5_5  and  C7_7 
ROOT
HETATM    1  C3  UNL     1     -33.253   5.417   0.925  1.00 20.00     0.207 A 
HETATM    2  C5  UNL     1     -33.052   6.460   1.999  1.00 20.00     0.085 A 
HETATM    3  O8  UNL     1     -32.032   5.506   1.675  1.00 20.00    -0.375 OA
ENDROOT
BRANCH   2   4
HETATM    4  C4  UNL     1     -33.652   6.310   3.390  1.00 20.00     0.022 A 
HETATM    5  C1  UNL     1     -34.211   7.472   4.162  1.00 20.00     0.008 A 
HETATM    6  C2  UNL     1     -35.130   6.399   3.650  1.00 20.00     0.008 A 
ENDBRANCH   2   4
BRANCH   2   7
HETATM    7  C7  UNL     1     -32.708   7.854   1.567  1.00 20.00     0.036 C 
HETATM    8  C6  UNL     1     -31.353   8.294   2.053  1.00 20.00     0.008 C 
ENDBRANCH   2   7
TORSDOF 2
ENDMDL
MODEL 2
REMARK VINA RESULT:      -1.5      1.206      2.395
REMARK  2 active torsions:
REMARK  status: ('A' for Active; 'I' for Inactive)
REMARK    1  A    between atoms: C4_4  and  C5_5 
REMARK    2  A    between atoms: C5_5  and  C7_7 
ROOT
HETATM    1  C3  UNL     1     -31.522   8.253   2.239  1.00 20.00     0.207 A 
HETATM    2  C5  UNL     1     -32.666   7.268   2.182  1.00 20.00     0.085 A 
HETATM    3  O8  UNL     1     -32.435   8.217   1.132  1.00 20.00    -0.375 OA
ENDROOT
BRANCH   2   4
HETATM    4  C4  UNL     1     -33.952   7.482   2.968  1.00 20.00     0.022 A 
HETATM    5  C1  UNL     1     -34.559   6.415   3.837  1.00 20.00     0.008 A 
HETATM    6  C2  UNL     1     -33.972   7.649   4.462  1.00 20.00     0.008 A 
ENDBRANCH   2   4
BRANCH   2   7
HETATM    7  C7  UNL     1     -32.359   5.858   1.774  1.00 20.00     0.036 C 
HETATM    8  C6  UNL     1     -33.173   5.406   0.592  1.00 20.00     0.008 C 
ENDBRANCH   2   7
TORSDOF 2
ENDMDL
MODEL 3
REMARK VINA RESULT:      -1.1      1.222      3.168
REMARK  2 active torsions:
REMARK  status: ('A' for Active; 'I' for Inactive)
REMARK    1  A    between atoms: C4_4  and  C5_5 
REMARK    2  A    between atoms: C5_5  and  C7_7 
ROOT
HETATM    1  C3  UNL     1     -32.468   8.455   1.497  1.00 20.00     0.207 A 
HETATM    2  C5  UNL     1     -32.879   7.349   2.440  1.00 20.00     0.085 A 
HETATM    3  O8  UNL     1     -31.602   7.993   2.545  1.00 20.00    -0.375 OA
ENDROOT
BRANCH   2   4
HETATM    4  C4  UNL     1     -32.825   5.883   2.032  1.00 20.00     0.022 A 
HETATM    5  C1  UNL     1     -33.287   5.398   0.685  1.00 20.00     0.008 A 
HETATM    6  C2  UNL     1     -31.827   5.352   1.040  1.00 20.00     0.008 A 
ENDBRANCH   2   4
BRANCH   2   7
HETATM    7  C7  UNL     1     -33.804   7.694   3.568  1.00 20.00     0.036 C 
HETATM    8  C6  UNL     1     -34.789   6.597   3.867  1.00 20.00     0.008 C 
ENDBRANCH   2   7
TORSDOF 2
ENDMDL
MODEL 4
REMARK VINA RESULT:      -1.0      1.010      2.928
REMARK  2 active torsions:
REMARK  status: ('A' for Active; 'I' for Inactive)
REMARK    1  A    between atoms: C4_4  and  C5_5 
REMARK    2  A    between atoms: C5_5  and  C7_7 
ROOT
HETATM    1  C3  UNL     1     -32.228   5.360   1.673  1.00 20.00     0.207 A 
HETATM    2  C5  UNL     1     -32.885   6.647   2.113  1.00 20.00     0.085 A 
HETATM    3  O8  UNL     1     -33.217   6.020   0.867  1.00 20.00    -0.375 OA
ENDROOT
BRANCH   2   4
HETATM    4  C4  UNL     1     -32.184   7.993   1.986  1.00 20.00     0.022 A 
HETATM    5  C1  UNL     1     -31.333   8.355   0.800  1.00 20.00     0.008 A 
HETATM    6  C2  UNL     1     -32.641   9.059   1.028  1.00 20.00     0.008 A 
ENDBRANCH   2   4
BRANCH   2   7
HETATM    7  C7  UNL     1     -33.990   6.563   3.123  1.00 20.00     0.036 C 
HETATM    8  C6  UNL     1     -33.947   7.685   4.124  1.00 20.00     0.008 C 
ENDBRANCH   2   7
TORSDOF 2
ENDMDL
MODEL 5
REMARK VINA RESULT:      -0.7      1.581      3.549
REMARK  2 active torsions:
REMARK  status: ('A' for Active; 'I' for Inactive)
REMARK    1  A    between atoms: C4_4  and  C5_5 
REMARK    2  A    between atoms: C5_5  and  C7_7 
ROOT
HETATM    1  C3  UNL     1     -34.265   8.004   4.183  1.00 20.00     0.207 A 
HETATM    2  C5  UNL     1     -34.069   6.697   3.452  1.00 20.00     0.085 A 
HETATM    3  O8  UNL     1     -33.143   7.148   4.450  1.00 20.00    -0.375 OA
ENDROOT
BRANCH   2   4
HETATM    4  C4  UNL     1     -33.509   6.643   2.037  1.00 20.00     0.022 A 
HETATM    5  C1  UNL     1     -32.169   7.220   1.672  1.00 20.00     0.008 A 
HETATM    6  C2  UNL     1     -32.378   5.732   1.646  1.00 20.00     0.008 A 
ENDBRANCH   2   4
BRANCH   2   7
HETATM    7  C7  UNL     1     -34.879   5.516   3.895  1.00 20.00     0.036 C 
HETATM    8  C6  UNL     1     -34.033   4.301   4.164  1.00 20.00     0.008 C 
ENDBRANCH   2   7
TORSDOF 2
ENDMDL
MODEL 6
REMARK VINA RESULT:      -0.6      1.732      3.086
REMARK  2 active torsions:
REMARK  status: ('A' for Active; 'I' for Inactive)
REMARK    1  A    between atoms: C4_4  and  C5_5 
REMARK    2  A    between atoms: C5_5  and  C7_7 
ROOT
HETATM    1  C3  UNL     1     -34.596   5.499   4.273  1.00 20.00     0.207 A 
HETATM    2  C5  UNL     1     -34.281   6.740   3.472  1.00 20.00     0.085 A 
HETATM    3  O8  UNL     1     -35.611   6.209   3.547  1.00 20.00    -0.375 OA
ENDROOT
BRANCH   2   4
HETATM    4  C4  UNL     1     -33.639   6.667   2.093  1.00 20.00     0.022 A 
HETATM    5  C1  UNL     1     -32.282   7.245   1.799  1.00 20.00     0.008 A 
HETATM    6  C2  UNL     1     -32.483   5.756   1.783  1.00 20.00     0.008 A 
ENDBRANCH   2   4
BRANCH   2   7
HETATM    7  C7  UNL     1     -34.125   8.034   4.213  1.00 20.00     0.036 C 
HETATM    8  C6  UNL     1     -32.886   8.067   5.067  1.00 20.00     0.008 C 
ENDBRANCH   2   7
TORSDOF 2
ENDMDL
MODEL 7
REMARK VINA RESULT:      -0.6      1.859      2.756
REMARK  2 active torsions:
REMARK  status: ('A' for Active; 'I' for Inactive)
REMARK    1  A    between atoms: C4_4  and  C5_5 
REMARK    2  A    between atoms: C5_5  and  C7_7 
ROOT
HETATM    1  C3  UNL     1     -33.483   7.794   4.764  1.00 20.00     0.207 A 
HETATM    2  C5  UNL     1     -33.699   7.052   3.467  1.00 20.00     0.085 A 
HETATM    3  O8  UNL     1     -34.432   8.242   3.785  1.00 20.00    -0.375 OA
ENDROOT
BRANCH   2   4
HETATM    4  C4  UNL     1     -34.536   5.782   3.395  1.00 20.00     0.022 A 
HETATM    5  C1  UNL     1     -34.168   4.525   4.133  1.00 20.00     0.008 A 
HETATM    6  C2  UNL     1     -35.386   5.305   4.541  1.00 20.00     0.008 A 
ENDBRANCH   2   4
BRANCH   2   7
HETATM    7  C7  UNL     1     -32.701   7.256   2.367  1.00 20.00     0.036 C 
HETATM    8  C6  UNL     1     -32.606   6.072   1.442  1.00 20.00     0.008 C 
ENDBRANCH   2   7
TORSDOF 2
ENDMDL
MODEL 8
REMARK VINA RESULT:      -0.5      1.966      3.762
REMARK  2 active torsions:
REMARK  status: ('A' for Active; 'I' for Inactive)
REMARK    1  A    between atoms: C4_4  and  C5_5 
REMARK    2  A    between atoms: C5_5  and  C7_7 
ROOT
HETATM    1  C3  UNL     1     -33.072   8.181   2.927  1.00 20.00     0.207 A 
HETATM    2  C5  UNL     1     -32.082   8.030   1.797  1.00 20.00     0.085 A 
HETATM    3  O8  UNL     1     -31.657   8.292   3.141  1.00 20.00    -0.375 OA
ENDROOT
BRANCH   2   4
HETATM    4  C4  UNL     1     -31.812   9.156   0.808  1.00 20.00     0.022 A 
HETATM    5  C1  UNL     1     -32.546   9.282  -0.498  1.00 20.00     0.008 A 
HETATM    6  C2  UNL     1     -32.772  10.293   0.590  1.00 20.00     0.008 A 
ENDBRANCH   2   4
BRANCH   2   7
HETATM    7  C7  UNL     1     -31.747   6.643   1.337  1.00 20.00     0.036 C 
HETATM    8  C6  UNL     1     -32.933   5.718   1.373  1.00 20.00     0.008 C 
ENDBRANCH   2   7
TORSDOF 2
ENDMDL
MODEL 9
REMARK VINA RESULT:      -0.2      1.595      3.152
REMARK  2 active torsions:
REMARK  status: ('A' for Active; 'I' for Inactive)
REMARK    1  A    between atoms: C4_4  and  C5_5 
REMARK    2  A    between atoms: C5_5  and  C7_7 
ROOT
HETATM    1  C3  UNL     1     -33.250   4.396   4.249  1.00 20.00     0.207 A 
HETATM    2  C5  UNL     1     -33.932   5.385   3.333  1.00 20.00     0.085 A 
HETATM    3  O8  UNL     1     -34.439   4.057   3.519  1.00 20.00    -0.375 OA
ENDROOT
BRANCH   2   4
HETATM    4  C4  UNL     1     -33.408   5.681   1.935  1.00 20.00     0.022 A 
HETATM    5  C1  UNL     1     -32.441   6.797   1.650  1.00 20.00     0.008 A 
HETATM    6  C2  UNL     1     -31.998   5.368   1.513  1.00 20.00     0.008 A 
ENDBRANCH   2   4
BRANCH   2   7
HETATM    7  C7  UNL     1     -34.800   6.436   3.957  1.00 20.00     0.036 C 
HETATM    8  C6  UNL     1     -34.056   7.715   4.232  1.00 20.00     0.008 C 
ENDBRANCH   2   7
TORSDOF 2
ENDMDL
