MODEL 1
REMARK VINA RESULT:      -1.7      0.000      0.000
REMARK  2 active torsions:
REMARK  status: ('A' for Active; 'I' for Inactive)
REMARK    1  A    between atoms: C5_5  and  C9_9 
REMARK    2  A    between atoms: C9_9  and  C10_10 
ROOT
HETATM    1  C1  UNL     1     -33.917   5.409   3.455  1.00 20.00     0.131 C 
HETATM    2  C2  UNL     1     -34.764   6.491   4.075  1.00 20.00     0.079 C 
HETATM    3  C3  UNL     1     -33.979   7.748   3.721  1.00 20.00     0.013 C 
HETATM    4  C4  UNL     1     -32.846   5.974   2.543  1.00 20.00     0.055 C 
HETATM    5  C5  UNL     1     -33.331   7.423   2.372  1.00 20.00    -0.003 C 
HETATM    6  C6  UNL     1     -32.741   5.216   1.232  1.00 20.00     0.018 C 
HETATM    7  O11 UNL     1     -34.085   4.214   3.667  1.00 20.00    -0.298 OA
ENDROOT
BRANCH   5   8
HETATM    8  C9  UNL     1     -32.213   8.393   2.021  1.00 20.00     0.009 C 
BRANCH   8   9
HETATM    9  C10 UNL     1     -32.374   9.043   0.635  1.00 20.00    -0.022 C 
HETATM   10  C7  UNL     1     -32.710  10.532   0.726  1.00 20.00     0.009 C 
HETATM   11  C8  UNL     1     -31.094   8.852  -0.182  1.00 20.00     0.009 C 
ENDBRANCH   8   9
ENDBRANCH   5   8
TORSDOF 2
ENDMDL
MODEL 2
REMARK VINA RESULT:      -1.4      1.134      2.112
REMARK  2 active torsions:
REMARK  status: ('A' for Active; 'I' for Inactive)
REMARK    1  A    between atoms: C5_5  and  C9_9 
REMARK    2  A    between atoms: C9_9  and  C10_10 
ROOT
HETATM    1  C1  UNL     1     -34.216   6.383   3.315  1.00 20.00     0.131 C 
HETATM    2  C2  UNL     1     -33.664   5.356   2.359  1.00 20.00     0.079 C 
HETATM    3  C3  UNL     1     -32.772   6.206   1.463  1.00 20.00     0.013 C 
HETATM    4  C4  UNL     1     -33.498   7.714   3.199  1.00 20.00     0.055 C 
HETATM    5  C5  UNL     1     -32.257   7.316   2.382  1.00 20.00    -0.003 C 
HETATM    6  C6  UNL     1     -33.161   8.312   4.553  1.00 20.00     0.018 C 
HETATM    7  O11 UNL     1     -35.134   6.158   4.093  1.00 20.00    -0.298 OA
ENDROOT
BRANCH   5   8
HETATM    8  C9  UNL     1     -31.654   8.477   1.605  1.00 20.00     0.009 C 
BRANCH   8   9
HETATM    9  C10 UNL     1     -32.679   9.247   0.753  1.00 20.00    -0.022 C 
HETATM   10  C7  UNL     1     -32.766  10.724   1.141  1.00 20.00     0.009 C 
HETATM   11  C8  UNL     1     -32.322   9.123  -0.730  1.00 20.00     0.009 C 
ENDBRANCH   8   9
ENDBRANCH   5   8
TORSDOF 2
ENDMDL
MODEL 3
REMARK VINA RESULT:      -0.7      1.197      2.480
REMARK  2 active torsions:
REMARK  status: ('A' for Active; 'I' for Inactive)
REMARK    1  A    between atoms: C5_5  and  C9_9 
REMARK    2  A    between atoms: C9_9  and  C10_10 
ROOT
HETATM    1  C1  UNL     1     -34.707   5.000   4.142  1.00 20.00     0.131 C 
HETATM    2  C2  UNL     1     -33.656   3.966   3.831  1.00 20.00     0.079 C 
HETATM    3  C3  UNL     1     -33.016   4.536   2.571  1.00 20.00     0.013 C 
HETATM    4  C4  UNL     1     -34.540   6.254   3.307  1.00 20.00     0.055 C 
HETATM    5  C5  UNL     1     -33.123   6.053   2.743  1.00 20.00    -0.003 C 
HETATM    6  C6  UNL     1     -34.687   7.523   4.127  1.00 20.00     0.018 C 
HETATM    7  O11 UNL     1     -35.588   4.838   4.978  1.00 20.00    -0.298 OA
ENDROOT
BRANCH   5   8
HETATM    8  C9  UNL     1     -32.884   6.800   1.440  1.00 20.00     0.009 C 
BRANCH   8   9
HETATM    9  C10 UNL     1     -31.848   7.932   1.560  1.00 20.00    -0.022 C 
HETATM   10  C7  UNL     1     -32.235   9.164   0.742  1.00 20.00     0.009 C 
HETATM   11  C8  UNL     1     -31.672   8.322   3.029  1.00 20.00     0.009 C 
ENDBRANCH   8   9
ENDBRANCH   5   8
TORSDOF 2
ENDMDL
MODEL 4
REMARK VINA RESULT:       0.1      2.364      5.252
REMARK  2 active torsions:
REMARK  status: ('A' for Active; 'I' for Inactive)
REMARK    1  A    between atoms: C5_5  and  C9_9 
REMARK    2  A    between atoms: C9_9  and  C10_10 
ROOT
HETATM    1  C1  UNL     1     -32.760   7.058   2.353  1.00 20.00     0.131 C 
HETATM    2  C2  UNL     1     -32.549   5.936   1.367  1.00 20.00     0.079 C 
HETATM    3  C3  UNL     1     -32.908   4.713   2.201  1.00 20.00     0.013 C 
HETATM    4  C4  UNL     1     -33.470   6.589   3.608  1.00 20.00     0.055 C 
HETATM    5  C5  UNL     1     -33.989   5.212   3.162  1.00 20.00    -0.003 C 
HETATM    6  C6  UNL     1     -34.574   7.538   4.039  1.00 20.00     0.018 C 
HETATM    7  O11 UNL     1     -32.400   8.211   2.151  1.00 20.00    -0.298 OA
ENDROOT
BRANCH   5   8
HETATM    8  C9  UNL     1     -34.219   4.254   4.321  1.00 20.00     0.009 C 
BRANCH   8   9
HETATM    9  C10 UNL     1     -33.011   3.348   4.620  1.00 20.00    -0.022 C 
HETATM   10  C7  UNL     1     -32.482   3.533   6.043  1.00 20.00     0.009 C 
HETATM   11  C8  UNL     1     -33.392   1.882   4.398  1.00 20.00     0.009 C 
ENDBRANCH   8   9
ENDBRANCH   5   8
TORSDOF 2
ENDMDL
MODEL 5
REMARK VINA RESULT:       0.5      2.237      4.818
REMARK  2 active torsions:
REMARK  status: ('A' for Active; 'I' for Inactive)
REMARK    1  A    between atoms: C5_5  and  C9_9 
REMARK    2  A    between atoms: C9_9  and  C10_10 
ROOT
HETATM    1  C1  UNL     1     -32.022   8.062   2.726  1.00 20.00     0.131 C 
HETATM    2  C2  UNL     1     -31.597   7.580   1.362  1.00 20.00     0.079 C 
HETATM    3  C3  UNL     1     -32.147   6.159   1.344  1.00 20.00     0.013 C 
HETATM    4  C4  UNL     1     -33.007   7.115   3.385  1.00 20.00     0.055 C 
HETATM    5  C5  UNL     1     -33.418   6.233   2.194  1.00 20.00    -0.003 C 
HETATM    6  C6  UNL     1     -34.173   7.844   4.026  1.00 20.00     0.018 C 
HETATM    7  O11 UNL     1     -31.617   9.101   3.232  1.00 20.00    -0.298 OA
ENDROOT
BRANCH   5   8
HETATM    8  C9  UNL     1     -33.916   4.857   2.610  1.00 20.00     0.009 C 
BRANCH   8   9
HETATM    9  C10 UNL     1     -33.984   4.662   4.135  1.00 20.00    -0.022 C 
HETATM   10  C7  UNL     1     -35.395   4.869   4.686  1.00 20.00     0.009 C 
HETATM   11  C8  UNL     1     -33.486   3.263   4.503  1.00 20.00     0.009 C 
ENDBRANCH   8   9
ENDBRANCH   5   8
TORSDOF 2
ENDMDL
MODEL 6
REMARK VINA RESULT:       0.5      2.208      4.636
REMARK  2 active torsions:
REMARK  status: ('A' for Active; 'I' for Inactive)
REMARK    1  A    between atoms: C5_5  and  C9_9 
REMARK    2  A    between atoms: C9_9  and  C10_10 
ROOT
HETATM    1  C1  UNL     1     -32.113   7.871   1.997  1.00 20.00     0.131 C 
HETATM    2  C2  UNL     1     -32.041   8.516   3.358  1.00 20.00     0.079 C 
HETATM    3  C3  UNL     1     -33.343   8.049   3.998  1.00 20.00     0.013 C 
HETATM    4  C4  UNL     1     -33.232   6.852   1.907  1.00 20.00     0.055 C 
HETATM    5  C5  UNL     1     -33.589   6.665   3.391  1.00 20.00    -0.003 C 
HETATM    6  C6  UNL     1     -32.794   5.568   1.227  1.00 20.00     0.018 C 
HETATM    7  O11 UNL     1     -31.349   8.143   1.079  1.00 20.00    -0.298 OA
ENDROOT
BRANCH   5   8
HETATM    8  C9  UNL     1     -35.015   6.184   3.610  1.00 20.00     0.009 C 
BRANCH   8   9
HETATM    9  C10 UNL     1     -35.104   4.776   4.224  1.00 20.00    -0.022 C 
HETATM   10  C7  UNL     1     -33.758   4.049   4.211  1.00 20.00     0.009 C 
HETATM   11  C8  UNL     1     -35.627   4.867   5.660  1.00 20.00     0.009 C 
ENDBRANCH   8   9
ENDBRANCH   5   8
TORSDOF 2
ENDMDL
MODEL 7
REMARK VINA RESULT:       0.6      2.259      4.896
REMARK  2 active torsions:
REMARK  status: ('A' for Active; 'I' for Inactive)
REMARK    1  A    between atoms: C5_5  and  C9_9 
REMARK    2  A    between atoms: C9_9  and  C10_10 
ROOT
HETATM    1  C1  UNL     1     -32.960   7.442   2.232  1.00 20.00     0.131 C 
HETATM    2  C2  UNL     1     -33.589   7.923   3.515  1.00 20.00     0.079 C 
HETATM    3  C3  UNL     1     -34.289   6.666   4.015  1.00 20.00     0.013 C 
HETATM    4  C4  UNL     1     -33.025   5.933   2.095  1.00 20.00     0.055 C 
HETATM    5  C5  UNL     1     -33.401   5.518   3.528  1.00 20.00    -0.003 C 
HETATM    6  C6  UNL     1     -31.714   5.336   1.620  1.00 20.00     0.018 C 
HETATM    7  O11 UNL     1     -32.455   8.190   1.405  1.00 20.00    -0.298 OA
ENDROOT
BRANCH   5   8
HETATM    8  C9  UNL     1     -34.108   4.173   3.597  1.00 20.00     0.009 C 
BRANCH   8   9
HETATM    9  C10 UNL     1     -33.641   3.290   4.768  1.00 20.00    -0.022 C 
HETATM   10  C7  UNL     1     -33.377   1.846   4.341  1.00 20.00     0.009 C 
HETATM   11  C8  UNL     1     -32.376   3.883   5.394  1.00 20.00     0.009 C 
ENDBRANCH   8   9
ENDBRANCH   5   8
TORSDOF 2
ENDMDL
MODEL 8
REMARK VINA RESULT:       1.0      1.285      1.863
REMARK  2 active torsions:
REMARK  status: ('A' for Active; 'I' for Inactive)
REMARK    1  A    between atoms: C5_5  and  C9_9 
REMARK    2  A    between atoms: C9_9  and  C10_10 
ROOT
HETATM    1  C1  UNL     1     -34.971   5.271   4.332  1.00 20.00     0.131 C 
HETATM    2  C2  UNL     1     -35.669   6.515   3.845  1.00 20.00     0.079 C 
HETATM    3  C3  UNL     1     -34.561   7.212   3.065  1.00 20.00     0.013 C 
HETATM    4  C4  UNL     1     -33.624   5.073   3.665  1.00 20.00     0.055 C 
HETATM    5  C5  UNL     1     -33.719   6.068   2.496  1.00 20.00    -0.003 C 
HETATM    6  C6  UNL     1     -33.402   3.639   3.218  1.00 20.00     0.018 C 
HETATM    7  O11 UNL     1     -35.448   4.512   5.167  1.00 20.00    -0.298 OA
ENDROOT
BRANCH   5   8
HETATM    8  C9  UNL     1     -32.361   6.542   2.000  1.00 20.00     0.009 C 
BRANCH   8   9
HETATM    9  C10 UNL     1     -32.215   8.074   1.972  1.00 20.00    -0.022 C 
HETATM   10  C7  UNL     1     -31.202   8.581   2.999  1.00 20.00     0.009 C 
HETATM   11  C8  UNL     1     -31.803   8.532   0.571  1.00 20.00     0.009 C 
ENDBRANCH   8   9
ENDBRANCH   5   8
TORSDOF 2
ENDMDL
