MODEL 1
REMARK VINA RESULT:      -2.2      0.000      0.000
REMARK  2 active torsions:
REMARK  status: ('A' for Active; 'I' for Inactive)
REMARK    1  A    between atoms: C3_3  and  C8_8 
REMARK    2  A    between atoms: C8_8  and  C9_9 
ROOT
HETATM    1  C1  UNL     1     -34.136   7.730   3.360  1.00 20.00     0.006 C 
HETATM    2  C2  UNL     1     -34.510   6.419   4.045  1.00 20.00     0.021 C 
HETATM    3  C3  UNL     1     -33.373   7.344   2.074  1.00 20.00    -0.009 C 
HETATM    4  C4  UNL     1     -33.294   5.798   2.095  1.00 20.00     0.004 C 
HETATM    5  C5  UNL     1     -33.429   5.456   3.581  1.00 20.00     0.086 C 
HETATM    6  C6  UNL     1     -32.072   5.178   1.432  1.00 20.00     0.012 C 
HETATM    7 CL10 UNL     1     -33.890   3.768   3.868  1.00 20.00    -0.125 Cl
ENDROOT
BRANCH   3   8
HETATM    8  C8  UNL     1     -32.030   8.070   2.009  1.00 20.00     0.005 C 
BRANCH   8   9
HETATM    9  C9  UNL     1     -31.794   8.673   0.629  1.00 20.00    -0.004 C 
HETATM   10  C7  UNL     1     -32.522   9.999   0.476  1.00 20.00     0.005 C 
ENDBRANCH   8   9
ENDBRANCH   3   8
TORSDOF 2
ENDMDL
MODEL 2
REMARK VINA RESULT:      -1.6      1.085      2.234
REMARK  2 active torsions:
REMARK  status: ('A' for Active; 'I' for Inactive)
REMARK    1  A    between atoms: C3_3  and  C8_8 
REMARK    2  A    between atoms: C8_8  and  C9_9 
ROOT
HETATM    1  C1  UNL     1     -32.228   6.569   1.340  1.00 20.00     0.006 C 
HETATM    2  C2  UNL     1     -33.056   5.444   1.952  1.00 20.00     0.021 C 
HETATM    3  C3  UNL     1     -32.205   7.708   2.382  1.00 20.00    -0.009 C 
HETATM    4  C4  UNL     1     -33.078   7.203   3.557  1.00 20.00     0.004 C 
HETATM    5  C5  UNL     1     -33.999   6.173   2.897  1.00 20.00     0.086 C 
HETATM    6  C6  UNL     1     -33.820   8.270   4.350  1.00 20.00     0.012 C 
HETATM    7 CL10 UNL     1     -34.748   5.063   4.059  1.00 20.00    -0.125 Cl
ENDROOT
BRANCH   3   8
HETATM    8  C8  UNL     1     -32.651   9.025   1.750  1.00 20.00     0.005 C 
BRANCH   8   9
HETATM    9  C9  UNL     1     -31.992   9.237   0.392  1.00 20.00    -0.004 C 
HETATM   10  C7  UNL     1     -32.787  10.213  -0.460  1.00 20.00     0.005 C 
ENDBRANCH   8   9
ENDBRANCH   3   8
TORSDOF 2
ENDMDL
MODEL 3
REMARK VINA RESULT:      -1.3      2.405      4.710
REMARK  2 active torsions:
REMARK  status: ('A' for Active; 'I' for Inactive)
REMARK    1  A    between atoms: C3_3  and  C8_8 
REMARK    2  A    between atoms: C8_8  and  C9_9 
ROOT
HETATM    1  C1  UNL     1     -33.100   5.106   1.812  1.00 20.00     0.006 C 
HETATM    2  C2  UNL     1     -32.338   6.290   1.226  1.00 20.00     0.021 C 
HETATM    3  C3  UNL     1     -34.074   5.691   2.857  1.00 20.00    -0.009 C 
HETATM    4  C4  UNL     1     -33.796   7.214   2.866  1.00 20.00     0.004 C 
HETATM    5  C5  UNL     1     -32.358   7.315   2.349  1.00 20.00     0.086 C 
HETATM    6  C6  UNL     1     -34.023   7.931   4.190  1.00 20.00     0.012 C 
HETATM    7 CL10 UNL     1     -31.941   8.936   1.764  1.00 20.00    -0.125 Cl
ENDROOT
BRANCH   3   8
HETATM    8  C8  UNL     1     -33.908   4.985   4.202  1.00 20.00     0.005 C 
BRANCH   8   9
HETATM    9  C9  UNL     1     -33.717   3.483   4.017  1.00 20.00    -0.004 C 
HETATM   10  C7  UNL     1     -32.848   2.898   5.119  1.00 20.00     0.005 C 
ENDBRANCH   8   9
ENDBRANCH   3   8
TORSDOF 2
ENDMDL
MODEL 4
REMARK VINA RESULT:      -0.8      2.337      4.168
REMARK  2 active torsions:
REMARK  status: ('A' for Active; 'I' for Inactive)
REMARK    1  A    between atoms: C3_3  and  C8_8 
REMARK    2  A    between atoms: C8_8  and  C9_9 
ROOT
HETATM    1  C1  UNL     1     -33.138   7.969   4.073  1.00 20.00     0.006 C 
HETATM    2  C2  UNL     1     -32.290   8.736   3.063  1.00 20.00     0.021 C 
HETATM    3  C3  UNL     1     -33.310   6.545   3.502  1.00 20.00    -0.009 C 
HETATM    4  C4  UNL     1     -32.581   6.562   2.137  1.00 20.00     0.004 C 
HETATM    5  C5  UNL     1     -32.596   8.042   1.745  1.00 20.00     0.086 C 
HETATM    6  C6  UNL     1     -33.140   5.638   1.064  1.00 20.00     0.012 C 
HETATM    7 CL10 UNL     1     -31.398   8.445   0.500  1.00 20.00    -0.125 Cl
ENDROOT
BRANCH   3   8
HETATM    8  C8  UNL     1     -34.788   6.161   3.453  1.00 20.00     0.005 C 
BRANCH   8   9
HETATM    9  C9  UNL     1     -35.086   4.991   4.384  1.00 20.00    -0.004 C 
HETATM   10  C7  UNL     1     -33.984   3.946   4.327  1.00 20.00     0.005 C 
ENDBRANCH   8   9
ENDBRANCH   3   8
TORSDOF 2
ENDMDL
MODEL 5
REMARK VINA RESULT:       0.2      1.984      3.517
REMARK  2 active torsions:
REMARK  status: ('A' for Active; 'I' for Inactive)
REMARK    1  A    between atoms: C3_3  and  C8_8 
REMARK    2  A    between atoms: C8_8  and  C9_9 
ROOT
HETATM    1  C1  UNL     1     -32.082   7.776   1.807  1.00 20.00     0.006 C 
HETATM    2  C2  UNL     1     -32.002   8.533   3.129  1.00 20.00     0.021 C 
HETATM    3  C3  UNL     1     -33.405   6.981   1.843  1.00 20.00    -0.009 C 
HETATM    4  C4  UNL     1     -34.023   7.279   3.230  1.00 20.00     0.004 C 
HETATM    5  C5  UNL     1     -32.812   7.668   4.082  1.00 20.00     0.086 C 
HETATM    6  C6  UNL     1     -34.872   6.172   3.841  1.00 20.00     0.012 C 
HETATM    7 CL10 UNL     1     -33.251   8.551   5.556  1.00 20.00    -0.125 Cl
ENDROOT
BRANCH   3   8
HETATM    8  C8  UNL     1     -33.153   5.505   1.539  1.00 20.00     0.005 C 
BRANCH   8   9
HETATM    9  C9  UNL     1     -31.668   5.229   1.330  1.00 20.00    -0.004 C 
HETATM   10  C7  UNL     1     -31.446   4.226   0.210  1.00 20.00     0.005 C 
ENDBRANCH   8   9
ENDBRANCH   3   8
TORSDOF 2
ENDMDL
MODEL 6
REMARK VINA RESULT:       0.6      1.823      2.493
REMARK  2 active torsions:
REMARK  status: ('A' for Active; 'I' for Inactive)
REMARK    1  A    between atoms: C3_3  and  C8_8 
REMARK    2  A    between atoms: C8_8  and  C9_9 
ROOT
HETATM    1  C1  UNL     1     -35.332   6.143   4.097  1.00 20.00     0.006 C 
HETATM    2  C2  UNL     1     -35.077   4.725   4.599  1.00 20.00     0.021 C 
HETATM    3  C3  UNL     1     -34.434   6.330   2.855  1.00 20.00    -0.009 C 
HETATM    4  C4  UNL     1     -33.647   5.004   2.717  1.00 20.00     0.004 C 
HETATM    5  C5  UNL     1     -33.657   4.436   4.139  1.00 20.00     0.086 C 
HETATM    6  C6  UNL     1     -32.254   5.109   2.109  1.00 20.00     0.012 C 
HETATM    7 CL10 UNL     1     -33.290   2.702   4.199  1.00 20.00    -0.125 Cl
ENDROOT
BRANCH   3   8
HETATM    8  C8  UNL     1     -33.580   7.590   2.994  1.00 20.00     0.005 C 
BRANCH   8   9
HETATM    9  C9  UNL     1     -33.918   8.347   4.273  1.00 20.00    -0.004 C 
HETATM   10  C7  UNL     1     -32.733   8.376   5.225  1.00 20.00     0.005 C 
ENDBRANCH   8   9
ENDBRANCH   3   8
TORSDOF 2
ENDMDL
