MODEL 1
REMARK VINA RESULT:      -2.0      0.000      0.000
REMARK  2 active torsions:
REMARK  status: ('A' for Active; 'I' for Inactive)
REMARK    1  A    between atoms: C7_7  and  C10_10 
REMARK    2  A    between atoms: C9_9  and  C10_10 
ROOT
HETATM    1  C1  UNL     1     -32.743  10.763   0.302  1.00 20.00     0.012 C 
HETATM    2  C2  UNL     1     -32.299   9.648   0.342  1.00 20.00    -0.117 C 
HETATM    3  C9  UNL     1     -31.754   8.285   0.385  1.00 20.00     0.093 C 
ENDROOT
BRANCH   3   4
HETATM    4  C10 UNL     1     -31.557   7.847   1.823  1.00 20.00     0.017 C 
BRANCH   4   5
HETATM    5  C7  UNL     1     -32.874   7.894   2.584  1.00 20.00    -0.002 C 
HETATM    6  C5  UNL     1     -32.675   8.113   4.086  1.00 20.00     0.013 C 
HETATM    7  C4  UNL     1     -34.035   7.802   4.694  1.00 20.00     0.079 C 
HETATM    8  C3  UNL     1     -34.558   6.735   3.767  1.00 20.00     0.131 C 
HETATM    9  C6  UNL     1     -33.745   6.625   2.491  1.00 20.00     0.055 C 
HETATM   10  O11 UNL     1     -35.536   6.041   4.018  1.00 20.00    -0.298 OA
HETATM   11  C8  UNL     1     -32.995   5.301   2.476  1.00 20.00     0.018 C 
ENDBRANCH   4   5
ENDBRANCH   3   4
TORSDOF 2
ENDMDL
MODEL 2
REMARK VINA RESULT:      -1.2      1.232      2.245
REMARK  2 active torsions:
REMARK  status: ('A' for Active; 'I' for Inactive)
REMARK    1  A    between atoms: C7_7  and  C10_10 
REMARK    2  A    between atoms: C9_9  and  C10_10 
ROOT
HETATM    1  C1  UNL     1     -32.732  10.277  -0.424  1.00 20.00     0.012 C 
HETATM    2  C2  UNL     1     -32.343   9.496   0.400  1.00 20.00    -0.117 C 
HETATM    3  C9  UNL     1     -31.861   8.542   1.407  1.00 20.00     0.093 C 
ENDROOT
BRANCH   3   4
HETATM    4  C10 UNL     1     -32.975   8.200   2.376  1.00 20.00     0.017 C 
BRANCH   4   5
HETATM    5  C7  UNL     1     -32.849   6.761   2.854  1.00 20.00    -0.002 C 
HETATM    6  C5  UNL     1     -32.923   5.753   1.704  1.00 20.00     0.013 C 
HETATM    7  C4  UNL     1     -33.112   4.409   2.394  1.00 20.00     0.079 C 
HETATM    8  C3  UNL     1     -33.909   4.791   3.615  1.00 20.00     0.131 C 
HETATM    9  C6  UNL     1     -33.928   6.290   3.849  1.00 20.00     0.055 C 
HETATM   10  O11 UNL     1     -34.470   3.978   4.338  1.00 20.00    -0.298 OA
HETATM   11  C8  UNL     1     -35.333   6.826   3.613  1.00 20.00     0.018 C 
ENDBRANCH   4   5
ENDBRANCH   3   4
TORSDOF 2
ENDMDL
MODEL 3
REMARK VINA RESULT:      -1.1      2.282      4.994
REMARK  2 active torsions:
REMARK  status: ('A' for Active; 'I' for Inactive)
REMARK    1  A    between atoms: C7_7  and  C10_10 
REMARK    2  A    between atoms: C9_9  and  C10_10 
ROOT
HETATM    1  C1  UNL     1     -33.100   3.020   4.844  1.00 20.00     0.012 C 
HETATM    2  C2  UNL     1     -33.975   3.783   4.539  1.00 20.00    -0.117 C 
HETATM    3  C9  UNL     1     -35.050   4.712   4.167  1.00 20.00     0.093 C 
ENDROOT
BRANCH   3   4
HETATM    4  C10 UNL     1     -34.560   6.142   4.264  1.00 20.00     0.017 C 
BRANCH   4   5
HETATM    5  C7  UNL     1     -34.003   6.611   2.928  1.00 20.00    -0.002 C 
HETATM    6  C5  UNL     1     -32.956   5.650   2.359  1.00 20.00     0.013 C 
HETATM    7  C4  UNL     1     -32.298   6.435   1.232  1.00 20.00     0.079 C 
HETATM    8  C3  UNL     1     -32.373   7.849   1.748  1.00 20.00     0.131 C 
HETATM    9  C6  UNL     1     -33.300   7.983   2.941  1.00 20.00     0.055 C 
HETATM   10  O11 UNL     1     -31.756   8.784   1.250  1.00 20.00    -0.298 OA
HETATM   11  C8  UNL     1     -32.486   8.304   4.186  1.00 20.00     0.018 C 
ENDBRANCH   4   5
ENDBRANCH   3   4
TORSDOF 2
ENDMDL
MODEL 4
REMARK VINA RESULT:      -1.0      0.889      1.894
REMARK  2 active torsions:
REMARK  status: ('A' for Active; 'I' for Inactive)
REMARK    1  A    between atoms: C7_7  and  C10_10 
REMARK    2  A    between atoms: C9_9  and  C10_10 
ROOT
HETATM    1  C1  UNL     1     -32.752  10.588  -0.242  1.00 20.00     0.012 C 
HETATM    2  C2  UNL     1     -32.348   9.585   0.280  1.00 20.00    -0.117 C 
HETATM    3  C9  UNL     1     -31.852   8.357   0.914  1.00 20.00     0.093 C 
ENDROOT
BRANCH   3   4
HETATM    4  C10 UNL     1     -31.988   8.456   2.420  1.00 20.00     0.017 C 
BRANCH   4   5
HETATM    5  C7  UNL     1     -32.580   7.176   2.992  1.00 20.00    -0.002 C 
HETATM    6  C5  UNL     1     -32.993   6.184   1.903  1.00 20.00     0.013 C 
HETATM    7  C4  UNL     1     -33.841   5.153   2.635  1.00 20.00     0.079 C 
HETATM    8  C3  UNL     1     -34.490   5.986   3.710  1.00 20.00     0.131 C 
HETATM    9  C6  UNL     1     -33.846   7.352   3.854  1.00 20.00     0.055 C 
HETATM   10  O11 UNL     1     -35.429   5.596   4.394  1.00 20.00    -0.298 OA
HETATM   11  C8  UNL     1     -34.821   8.427   3.394  1.00 20.00     0.018 C 
ENDBRANCH   4   5
ENDBRANCH   3   4
TORSDOF 2
ENDMDL
MODEL 5
REMARK VINA RESULT:      -0.8      2.375      4.796
REMARK  2 active torsions:
REMARK  status: ('A' for Active; 'I' for Inactive)
REMARK    1  A    between atoms: C7_7  and  C10_10 
REMARK    2  A    between atoms: C9_9  and  C10_10 
ROOT
HETATM    1  C1  UNL     1     -33.044   2.823   4.448  1.00 20.00     0.012 C 
HETATM    2  C2  UNL     1     -33.876   3.679   4.574  1.00 20.00    -0.117 C 
HETATM    3  C9  UNL     1     -34.895   4.726   4.733  1.00 20.00     0.093 C 
ENDROOT
BRANCH   3   4
HETATM    4  C10 UNL     1     -34.926   5.613   3.506  1.00 20.00     0.017 C 
BRANCH   4   5
HETATM    5  C7  UNL     1     -33.622   6.385   3.366  1.00 20.00    -0.002 C 
HETATM    6  C5  UNL     1     -33.824   7.899   3.460  1.00 20.00     0.013 C 
HETATM    7  C4  UNL     1     -32.505   8.485   2.976  1.00 20.00     0.079 C 
HETATM    8  C3  UNL     1     -32.062   7.465   1.959  1.00 20.00     0.131 C 
HETATM    9  C6  UNL     1     -32.863   6.179   2.040  1.00 20.00     0.055 C 
HETATM   10  O11 UNL     1     -31.152   7.656   1.161  1.00 20.00    -0.298 OA
HETATM   11  C8  UNL     1     -33.724   6.034   0.794  1.00 20.00     0.018 C 
ENDBRANCH   4   5
ENDBRANCH   3   4
TORSDOF 2
ENDMDL
MODEL 6
REMARK VINA RESULT:       0.5      2.321      4.483
REMARK  2 active torsions:
REMARK  status: ('A' for Active; 'I' for Inactive)
REMARK    1  A    between atoms: C7_7  and  C10_10 
REMARK    2  A    between atoms: C9_9  and  C10_10 
ROOT
HETATM    1  C1  UNL     1     -35.325   5.108   4.434  1.00 20.00     0.012 C 
HETATM    2  C2  UNL     1     -34.945   6.183   4.056  1.00 20.00    -0.117 C 
HETATM    3  C9  UNL     1     -34.486   7.499   3.595  1.00 20.00     0.093 C 
ENDROOT
BRANCH   3   4
HETATM    4  C10 UNL     1     -33.006   7.664   3.879  1.00 20.00     0.017 C 
BRANCH   4   5
HETATM    5  C7  UNL     1     -32.339   8.491   2.790  1.00 20.00    -0.002 C 
HETATM    6  C5  UNL     1     -33.335   9.363   2.022  1.00 20.00     0.013 C 
HETATM    7  C4  UNL     1     -32.558   9.838   0.802  1.00 20.00     0.079 C 
HETATM    8  C3  UNL     1     -31.641   8.671   0.540  1.00 20.00     0.131 C 
HETATM    9  C6  UNL     1     -31.606   7.689   1.696  1.00 20.00     0.055 C 
HETATM   10  O11 UNL     1     -30.993   8.538  -0.491  1.00 20.00    -0.298 OA
HETATM   11  C8  UNL     1     -32.261   6.382   1.275  1.00 20.00     0.018 C 
ENDBRANCH   4   5
ENDBRANCH   3   4
TORSDOF 2
ENDMDL
