MODEL 1
REMARK VINA RESULT:      -1.2      0.000      0.000
REMARK  1 active torsions:
REMARK  status: ('A' for Active; 'I' for Inactive)
REMARK    1  A    between atoms: C7_7  and  C9_9 
ROOT
HETATM    1  C1  UNL     1     -32.361  10.822   0.314  1.00 20.00     0.012 C 
HETATM    2  C2  UNL     1     -32.546   9.643   0.442  1.00 20.00    -0.117 C 
HETATM    3  C9  UNL     1     -32.779   8.204   0.587  1.00 20.00     0.098 C 
ENDROOT
BRANCH   3   4
HETATM    4  C7  UNL     1     -32.005   7.643   1.780  1.00 20.00     0.008 C 
HETATM    5  C5  UNL     1     -32.309   8.428   3.063  1.00 20.00     0.013 C 
HETATM    6  C4  UNL     1     -33.606   7.836   3.601  1.00 20.00     0.079 C 
HETATM    7  C3  UNL     1     -33.523   6.409   3.124  1.00 20.00     0.131 C 
HETATM    8  C6  UNL     1     -32.367   6.194   2.165  1.00 20.00     0.056 C 
HETATM    9  O10 UNL     1     -34.299   5.530   3.481  1.00 20.00    -0.298 OA
HETATM   10  C8  UNL     1     -32.714   5.263   1.019  1.00 20.00     0.018 C 
ENDBRANCH   3   4
TORSDOF 1
ENDMDL
MODEL 2
REMARK VINA RESULT:      -1.1      2.398      4.681
REMARK  1 active torsions:
REMARK  status: ('A' for Active; 'I' for Inactive)
REMARK    1  A    between atoms: C7_7  and  C9_9 
ROOT
HETATM    1  C1  UNL     1     -33.435   2.032   4.497  1.00 20.00     0.012 C 
HETATM    2  C2  UNL     1     -33.280   3.220   4.409  1.00 20.00    -0.117 C 
HETATM    3  C9  UNL     1     -33.080   4.667   4.311  1.00 20.00     0.098 C 
ENDROOT
BRANCH   3   4
HETATM    4  C7  UNL     1     -34.038   5.282   3.290  1.00 20.00     0.008 C 
HETATM    5  C5  UNL     1     -34.858   6.422   3.910  1.00 20.00     0.013 C 
HETATM    6  C4  UNL     1     -33.959   7.652   3.837  1.00 20.00     0.079 C 
HETATM    7  C3  UNL     1     -33.138   7.370   2.606  1.00 20.00     0.131 C 
HETATM    8  C6  UNL     1     -33.355   5.961   2.085  1.00 20.00     0.056 C 
HETATM    9  O10 UNL     1     -32.391   8.192   2.089  1.00 20.00    -0.298 OA
HETATM   10  C8  UNL     1     -32.078   5.312   1.586  1.00 20.00     0.018 C 
ENDBRANCH   3   4
TORSDOF 1
ENDMDL
MODEL 3
REMARK VINA RESULT:      -0.7      1.011      2.370
REMARK  1 active torsions:
REMARK  status: ('A' for Active; 'I' for Inactive)
REMARK    1  A    between atoms: C7_7  and  C9_9 
ROOT
HETATM    1  C1  UNL     1     -32.254   9.983   0.366  1.00 20.00     0.012 C 
HETATM    2  C2  UNL     1     -32.248   9.012   1.072  1.00 20.00    -0.117 C 
HETATM    3  C9  UNL     1     -32.230   7.834   1.941  1.00 20.00     0.098 C 
ENDROOT
BRANCH   3   4
HETATM    4  C7  UNL     1     -33.379   6.885   1.598  1.00 20.00     0.008 C 
HETATM    5  C5  UNL     1     -32.867   5.612   0.911  1.00 20.00     0.013 C 
HETATM    6  C4  UNL     1     -32.420   4.694   2.043  1.00 20.00     0.079 C 
HETATM    7  C3  UNL     1     -33.346   5.098   3.161  1.00 20.00     0.131 C 
HETATM    8  C6  UNL     1     -34.153   6.336   2.814  1.00 20.00     0.056 C 
HETATM    9  O10 UNL     1     -33.435   4.488   4.220  1.00 20.00    -0.298 OA
HETATM   10  C8  UNL     1     -34.316   7.283   3.988  1.00 20.00     0.018 C 
ENDBRANCH   3   4
TORSDOF 1
ENDMDL
MODEL 4
REMARK VINA RESULT:       0.3      2.126      4.115
REMARK  1 active torsions:
REMARK  status: ('A' for Active; 'I' for Inactive)
REMARK    1  A    between atoms: C7_7  and  C9_9 
ROOT
HETATM    1  C1  UNL     1     -33.950   3.668   4.483  1.00 20.00     0.012 C 
HETATM    2  C2  UNL     1     -33.516   4.371   3.612  1.00 20.00    -0.117 C 
HETATM    3  C9  UNL     1     -32.977   5.218   2.546  1.00 20.00     0.098 C 
ENDROOT
BRANCH   3   4
HETATM    4  C7  UNL     1     -33.762   6.526   2.438  1.00 20.00     0.008 C 
HETATM    5  C5  UNL     1     -34.513   6.836   3.740  1.00 20.00     0.013 C 
HETATM    6  C4  UNL     1     -33.486   7.504   4.648  1.00 20.00     0.079 C 
HETATM    7  C3  UNL     1     -32.585   8.190   3.654  1.00 20.00     0.131 C 
HETATM    8  C6  UNL     1     -32.899   7.786   2.226  1.00 20.00     0.056 C 
HETATM    9  O10 UNL     1     -31.709   8.985   3.973  1.00 20.00    -0.298 OA
HETATM   10  C8  UNL     1     -31.656   7.611   1.374  1.00 20.00     0.018 C 
ENDBRANCH   3   4
TORSDOF 1
ENDMDL
MODEL 5
REMARK VINA RESULT:       0.6      2.092      4.284
REMARK  1 active torsions:
REMARK  status: ('A' for Active; 'I' for Inactive)
REMARK    1  A    between atoms: C7_7  and  C9_9 
ROOT
HETATM    1  C1  UNL     1     -35.483   5.226   4.464  1.00 20.00     0.012 C 
HETATM    2  C2  UNL     1     -34.830   6.142   4.044  1.00 20.00    -0.117 C 
HETATM    3  C9  UNL     1     -34.043   7.268   3.537  1.00 20.00     0.098 C 
ENDROOT
BRANCH   3   4
HETATM    4  C7  UNL     1     -32.750   6.780   2.883  1.00 20.00     0.008 C 
HETATM    5  C5  UNL     1     -33.029   6.088   1.542  1.00 20.00     0.013 C 
HETATM    6  C4  UNL     1     -33.143   7.215   0.522  1.00 20.00     0.079 C 
HETATM    7  C3  UNL     1     -32.226   8.260   1.102  1.00 20.00     0.131 C 
HETATM    8  C6  UNL     1     -31.756   7.895   2.498  1.00 20.00     0.056 C 
HETATM    9  O10 UNL     1     -31.898   9.278   0.505  1.00 20.00    -0.298 OA
HETATM   10  C8  UNL     1     -31.694   9.089   3.432  1.00 20.00     0.018 C 
ENDBRANCH   3   4
TORSDOF 1
ENDMDL
MODEL 6
REMARK VINA RESULT:       0.7      1.152      1.461
REMARK  1 active torsions:
REMARK  status: ('A' for Active; 'I' for Inactive)
REMARK    1  A    between atoms: C7_7  and  C9_9 
ROOT
HETATM    1  C1  UNL     1     -31.946   9.500   0.584  1.00 20.00     0.012 C 
HETATM    2  C2  UNL     1     -32.334   8.425   0.952  1.00 20.00    -0.117 C 
HETATM    3  C9  UNL     1     -32.811   7.111   1.388  1.00 20.00     0.098 C 
ENDROOT
BRANCH   3   4
HETATM    4  C7  UNL     1     -32.587   6.919   2.888  1.00 20.00     0.008 C 
HETATM    5  C5  UNL     1     -33.056   8.143   3.686  1.00 20.00     0.013 C 
HETATM    6  C4  UNL     1     -34.558   7.956   3.866  1.00 20.00     0.079 C 
HETATM    7  C3  UNL     1     -34.688   6.454   3.891  1.00 20.00     0.131 C 
HETATM    8  C6  UNL     1     -33.388   5.763   3.522  1.00 20.00     0.056 C 
HETATM    9  O10 UNL     1     -35.724   5.870   4.183  1.00 20.00    -0.298 OA
HETATM   10  C8  UNL     1     -33.596   4.537   2.654  1.00 20.00     0.018 C 
ENDBRANCH   3   4
TORSDOF 1
ENDMDL
MODEL 7
REMARK VINA RESULT:       1.3      2.188      4.123
REMARK  1 active torsions:
REMARK  status: ('A' for Active; 'I' for Inactive)
REMARK    1  A    between atoms: C7_7  and  C9_9 
ROOT
HETATM    1  C1  UNL     1     -35.561   4.668   5.154  1.00 20.00     0.012 C 
HETATM    2  C2  UNL     1     -34.673   4.877   4.373  1.00 20.00    -0.117 C 
HETATM    3  C9  UNL     1     -33.583   5.121   3.427  1.00 20.00     0.098 C 
ENDROOT
BRANCH   3   4
HETATM    4  C7  UNL     1     -33.946   6.245   2.454  1.00 20.00     0.008 C 
HETATM    5  C5  UNL     1     -34.106   7.586   3.183  1.00 20.00     0.013 C 
HETATM    6  C4  UNL     1     -32.692   8.139   3.326  1.00 20.00     0.079 C 
HETATM    7  C3  UNL     1     -32.007   7.571   2.110  1.00 20.00     0.131 C 
HETATM    8  C6  UNL     1     -32.873   6.554   1.390  1.00 20.00     0.056 C 
HETATM    9  O10 UNL     1     -30.885   7.904   1.749  1.00 20.00    -0.298 OA
HETATM   10  C8  UNL     1     -32.083   5.367   0.870  1.00 20.00     0.018 C 
ENDBRANCH   3   4
TORSDOF 1
ENDMDL
MODEL 8
REMARK VINA RESULT:       1.4      2.080      3.530
REMARK  1 active torsions:
REMARK  status: ('A' for Active; 'I' for Inactive)
REMARK    1  A    between atoms: C7_7  and  C9_9 
ROOT
HETATM    1  C1  UNL     1     -31.862   4.662   0.280  1.00 20.00     0.012 C 
HETATM    2  C2  UNL     1     -32.423   4.919   1.310  1.00 20.00    -0.117 C 
HETATM    3  C9  UNL     1     -33.101   5.222   2.572  1.00 20.00     0.098 C 
ENDROOT
BRANCH   3   4
HETATM    4  C7  UNL     1     -33.942   6.493   2.449  1.00 20.00     0.008 C 
HETATM    5  C5  UNL     1     -35.037   6.545   3.524  1.00 20.00     0.013 C 
HETATM    6  C4  UNL     1     -34.353   7.094   4.771  1.00 20.00     0.079 C 
HETATM    7  C3  UNL     1     -33.284   7.978   4.180  1.00 20.00     0.131 C 
HETATM    8  C6  UNL     1     -33.169   7.808   2.677  1.00 20.00     0.056 C 
HETATM    9  O10 UNL     1     -32.599   8.746   4.845  1.00 20.00    -0.298 OA
HETATM   10  C8  UNL     1     -31.734   7.835   2.187  1.00 20.00     0.018 C 
ENDBRANCH   3   4
TORSDOF 1
ENDMDL
MODEL 9
REMARK VINA RESULT:       1.8      1.739      3.415
REMARK  1 active torsions:
REMARK  status: ('A' for Active; 'I' for Inactive)
REMARK    1  A    between atoms: C7_7  and  C9_9 
ROOT
HETATM    1  C1  UNL     1     -33.963   3.755  -0.711  1.00 20.00     0.012 C 
HETATM    2  C2  UNL     1     -33.921   4.765  -0.062  1.00 20.00    -0.117 C 
HETATM    3  C9  UNL     1     -33.881   6.001   0.722  1.00 20.00     0.098 C 
ENDROOT
BRANCH   3   4
HETATM    4  C7  UNL     1     -32.787   5.935   1.789  1.00 20.00     0.008 C 
HETATM    5  C5  UNL     1     -31.829   7.129   1.682  1.00 20.00     0.013 C 
HETATM    6  C4  UNL     1     -32.517   8.266   2.429  1.00 20.00     0.079 C 
HETATM    7  C3  UNL     1     -33.309   7.523   3.474  1.00 20.00     0.131 C 
HETATM    8  C6  UNL     1     -33.292   6.024   3.244  1.00 20.00     0.056 C 
HETATM    9  O10 UNL     1     -33.890   8.075   4.401  1.00 20.00    -0.298 OA
HETATM   10  C8  UNL     1     -34.629   5.366   3.530  1.00 20.00     0.018 C 
ENDBRANCH   3   4
TORSDOF 1
ENDMDL
