MODEL 1
REMARK VINA RESULT:      -3.1      0.000      0.000
REMARK  1 active torsions:
REMARK  status: ('A' for Active; 'I' for Inactive)
REMARK    1  A    between atoms: C5_5  and  C9_9 
ROOT
HETATM    1  C1  UNL     1     -32.432  10.020  -0.045  1.00 20.00     0.012 C 
HETATM    2  C2  UNL     1     -32.215   9.211   0.815  1.00 20.00    -0.117 C 
HETATM    3  C9  UNL     1     -31.942   8.226   1.867  1.00 20.00     0.098 C 
ENDROOT
BRANCH   3   4
HETATM    4  C5  UNL     1     -33.188   7.417   2.201  1.00 20.00     0.002 C 
HETATM    5  C3  UNL     1     -33.887   7.914   3.477  1.00 20.00     0.007 C 
HETATM    6  C4  UNL     1     -34.351   6.664   4.229  1.00 20.00     0.021 C 
HETATM    7  C7  UNL     1     -34.155   5.515   3.247  1.00 20.00     0.086 C 
HETATM    8  C6  UNL     1     -32.905   5.930   2.468  1.00 20.00     0.005 C 
HETATM    9 CL10 UNL     1     -33.972   3.959   4.080  1.00 20.00    -0.125 Cl
HETATM   10  C8  UNL     1     -32.688   5.121   1.195  1.00 20.00     0.012 C 
ENDBRANCH   3   4
TORSDOF 1
ENDMDL
MODEL 2
REMARK VINA RESULT:      -2.0      2.371      4.413
REMARK  1 active torsions:
REMARK  status: ('A' for Active; 'I' for Inactive)
REMARK    1  A    between atoms: C5_5  and  C9_9 
ROOT
HETATM    1  C1  UNL     1     -33.348   2.853   4.633  1.00 20.00     0.012 C 
HETATM    2  C2  UNL     1     -33.811   3.847   4.145  1.00 20.00    -0.117 C 
HETATM    3  C9  UNL     1     -34.384   5.059   3.548  1.00 20.00     0.098 C 
ENDROOT
BRANCH   3   4
HETATM    4  C5  UNL     1     -33.334   6.152   3.406  1.00 20.00     0.002 C 
HETATM    5  C3  UNL     1     -33.783   7.484   4.031  1.00 20.00     0.007 C 
HETATM    6  C4  UNL     1     -33.307   8.587   3.082  1.00 20.00     0.021 C 
HETATM    7  C7  UNL     1     -32.375   7.890   2.098  1.00 20.00     0.086 C 
HETATM    8  C6  UNL     1     -33.001   6.502   1.947  1.00 20.00     0.005 C 
HETATM    9 CL10 UNL     1     -32.256   8.771   0.564  1.00 20.00    -0.125 Cl
HETATM   10  C8  UNL     1     -32.076   5.489   1.282  1.00 20.00     0.012 C 
ENDBRANCH   3   4
TORSDOF 1
ENDMDL
MODEL 3
REMARK VINA RESULT:      -1.8      2.309      4.755
REMARK  1 active torsions:
REMARK  status: ('A' for Active; 'I' for Inactive)
REMARK    1  A    between atoms: C5_5  and  C9_9 
ROOT
HETATM    1  C1  UNL     1     -33.131   2.904   4.532  1.00 20.00     0.012 C 
HETATM    2  C2  UNL     1     -33.875   3.842   4.435  1.00 20.00    -0.117 C 
HETATM    3  C9  UNL     1     -34.788   4.985   4.322  1.00 20.00     0.098 C 
ENDROOT
BRANCH   3   4
HETATM    4  C5  UNL     1     -34.387   5.898   3.172  1.00 20.00     0.002 C 
HETATM    5  C3  UNL     1     -33.654   5.143   2.050  1.00 20.00     0.007 C 
HETATM    6  C4  UNL     1     -32.528   6.065   1.574  1.00 20.00     0.021 C 
HETATM    7  C7  UNL     1     -32.812   7.410   2.232  1.00 20.00     0.086 C 
HETATM    8  C6  UNL     1     -33.417   7.018   3.582  1.00 20.00     0.005 C 
HETATM    9 CL10 UNL     1     -31.343   8.391   2.387  1.00 20.00    -0.125 Cl
HETATM   10  C8  UNL     1     -34.104   8.176   4.297  1.00 20.00     0.012 C 
ENDBRANCH   3   4
TORSDOF 1
ENDMDL
MODEL 4
REMARK VINA RESULT:      -1.6      1.245      2.305
REMARK  1 active torsions:
REMARK  status: ('A' for Active; 'I' for Inactive)
REMARK    1  A    between atoms: C5_5  and  C9_9 
ROOT
HETATM    1  C1  UNL     1     -32.781   9.598  -0.367  1.00 20.00     0.012 C 
HETATM    2  C2  UNL     1     -32.223   9.336   0.663  1.00 20.00    -0.117 C 
HETATM    3  C9  UNL     1     -31.538   9.024   1.923  1.00 20.00     0.098 C 
ENDROOT
BRANCH   3   4
HETATM    4  C5  UNL     1     -32.003   7.687   2.485  1.00 20.00     0.002 C 
HETATM    5  C3  UNL     1     -32.328   6.666   1.381  1.00 20.00     0.007 C 
HETATM    6  C4  UNL     1     -33.582   5.919   1.841  1.00 20.00     0.021 C 
HETATM    7  C7  UNL     1     -33.780   6.332   3.295  1.00 20.00     0.086 C 
HETATM    8  C6  UNL     1     -33.293   7.783   3.316  1.00 20.00     0.005 C 
HETATM    9 CL10 UNL     1     -35.469   6.157   3.806  1.00 20.00    -0.125 Cl
HETATM   10  C8  UNL     1     -33.064   8.325   4.721  1.00 20.00     0.012 C 
ENDBRANCH   3   4
TORSDOF 1
ENDMDL
MODEL 5
REMARK VINA RESULT:      -0.8      1.196      1.681
REMARK  1 active torsions:
REMARK  status: ('A' for Active; 'I' for Inactive)
REMARK    1  A    between atoms: C5_5  and  C9_9 
ROOT
HETATM    1  C1  UNL     1     -31.582   8.160   1.260  1.00 20.00     0.012 C 
HETATM    2  C2  UNL     1     -32.426   8.066   2.109  1.00 20.00    -0.117 C 
HETATM    3  C9  UNL     1     -33.455   7.959   3.149  1.00 20.00     0.098 C 
ENDROOT
BRANCH   3   4
HETATM    4  C5  UNL     1     -34.165   6.613   3.084  1.00 20.00     0.002 C 
HETATM    5  C3  UNL     1     -35.236   6.460   4.177  1.00 20.00     0.007 C 
HETATM    6  C4  UNL     1     -35.138   5.017   4.677  1.00 20.00     0.021 C 
HETATM    7  C7  UNL     1     -34.219   4.314   3.685  1.00 20.00     0.086 C 
HETATM    8  C6  UNL     1     -33.228   5.411   3.289  1.00 20.00     0.005 C 
HETATM    9 CL10 UNL     1     -33.434   2.895   4.403  1.00 20.00    -0.125 Cl
HETATM   10  C8  UNL     1     -32.409   5.069   2.050  1.00 20.00     0.012 C 
ENDBRANCH   3   4
TORSDOF 1
ENDMDL
