MODEL 1
REMARK VINA RESULT:      -0.5      0.000      0.000
REMARK  1 active torsions:
REMARK  status: ('A' for Active; 'I' for Inactive)
REMARK    1  A    between atoms: C6_6  and  N9_9 
ROOT
HETATM    1  C1  UNL     1     -32.306   8.760   1.394  1.00 20.00     0.158 C 
HETATM    2  N9  UNL     1     -32.331   7.914   2.209  1.00 20.00    -0.270 NA
HETATM    3  S10 UNL     1     -32.246   9.918   0.302  1.00 20.00    -0.055 SA
ENDROOT
BRANCH   2   4
HETATM    4  C6  UNL     1     -33.448   6.974   2.084  1.00 20.00     0.113 C 
HETATM    5  C3  UNL     1     -34.505   7.286   3.150  1.00 20.00     0.028 C 
HETATM    6  C2  UNL     1     -34.406   6.155   4.165  1.00 20.00     0.007 C 
HETATM    7  C4  UNL     1     -34.011   4.953   3.311  1.00 20.00    -0.013 C 
HETATM    8  C5  UNL     1     -32.944   5.549   2.381  1.00 20.00     0.010 C 
HETATM    9  C7  UNL     1     -33.514   3.782   4.146  1.00 20.00     0.010 C 
HETATM   10  C8  UNL     1     -32.730   4.733   1.112  1.00 20.00     0.012 C 
ENDBRANCH   2   4
TORSDOF 1
ENDMDL
MODEL 2
REMARK VINA RESULT:       0.1      1.463      2.599
REMARK  1 active torsions:
REMARK  status: ('A' for Active; 'I' for Inactive)
REMARK    1  A    between atoms: C6_6  and  N9_9 
ROOT
HETATM    1  C1  UNL     1     -32.190   9.211   0.639  1.00 20.00     0.158 C 
HETATM    2  N9  UNL     1     -31.738   8.136   0.500  1.00 20.00    -0.270 NA
HETATM    3  S10 UNL     1     -32.800  10.674   0.799  1.00 20.00    -0.055 SA
ENDROOT
BRANCH   2   4
HETATM    4  C6  UNL     1     -31.701   7.321   1.717  1.00 20.00     0.113 C 
HETATM    5  C3  UNL     1     -32.045   5.868   1.373  1.00 20.00     0.028 C 
HETATM    6  C2  UNL     1     -33.440   5.635   1.939  1.00 20.00     0.007 C 
HETATM    7  C4  UNL     1     -33.464   6.517   3.184  1.00 20.00    -0.013 C 
HETATM    8  C5  UNL     1     -32.798   7.808   2.683  1.00 20.00     0.010 C 
HETATM    9  C7  UNL     1     -34.870   6.723   3.727  1.00 20.00     0.010 C 
HETATM   10  C8  UNL     1     -32.239   8.671   3.808  1.00 20.00     0.012 C 
ENDBRANCH   2   4
TORSDOF 1
ENDMDL
MODEL 3
REMARK VINA RESULT:       0.2      1.429      2.509
REMARK  1 active torsions:
REMARK  status: ('A' for Active; 'I' for Inactive)
REMARK    1  A    between atoms: C6_6  and  N9_9 
ROOT
HETATM    1  C1  UNL     1     -32.375   9.299   0.763  1.00 20.00     0.158 C 
HETATM    2  N9  UNL     1     -32.761   9.290   1.872  1.00 20.00    -0.270 NA
HETATM    3  S10 UNL     1     -31.862   9.340  -0.745  1.00 20.00    -0.055 SA
ENDROOT
BRANCH   2   4
HETATM    4  C6  UNL     1     -32.437   8.076   2.626  1.00 20.00     0.113 C 
HETATM    5  C3  UNL     1     -32.402   6.874   1.676  1.00 20.00     0.028 C 
HETATM    6  C2  UNL     1     -33.649   6.062   2.001  1.00 20.00     0.007 C 
HETATM    7  C4  UNL     1     -33.832   6.288   3.500  1.00 20.00    -0.013 C 
HETATM    8  C5  UNL     1     -33.564   7.795   3.638  1.00 20.00     0.010 C 
HETATM    9  C7  UNL     1     -35.207   5.862   3.991  1.00 20.00     0.010 C 
HETATM   10  C8  UNL     1     -33.188   8.210   5.055  1.00 20.00     0.012 C 
ENDBRANCH   2   4
TORSDOF 1
ENDMDL
MODEL 4
REMARK VINA RESULT:       0.8      3.002      4.121
REMARK  1 active torsions:
REMARK  status: ('A' for Active; 'I' for Inactive)
REMARK    1  A    between atoms: C6_6  and  N9_9 
ROOT
HETATM    1  C1  UNL     1     -33.119   4.085   3.240  1.00 20.00     0.158 C 
HETATM    2  N9  UNL     1     -32.904   4.705   2.266  1.00 20.00    -0.270 NA
HETATM    3  S10 UNL     1     -33.393   3.223   4.551  1.00 20.00    -0.055 SA
ENDROOT
BRANCH   2   4
HETATM    4  C6  UNL     1     -33.577   6.005   2.202  1.00 20.00     0.113 C 
HETATM    5  C3  UNL     1     -32.603   7.062   1.670  1.00 20.00     0.028 C 
HETATM    6  C2  UNL     1     -32.257   7.937   2.867  1.00 20.00     0.007 C 
HETATM    7  C4  UNL     1     -33.542   7.924   3.692  1.00 20.00    -0.013 C 
HETATM    8  C5  UNL     1     -33.957   6.447   3.628  1.00 20.00     0.010 C 
HETATM    9  C7  UNL     1     -33.332   8.442   5.107  1.00 20.00     0.010 C 
HETATM   10  C8  UNL     1     -35.434   6.224   3.929  1.00 20.00     0.012 C 
ENDBRANCH   2   4
TORSDOF 1
ENDMDL
MODEL 5
REMARK VINA RESULT:       1.3      3.076      4.487
REMARK  1 active torsions:
REMARK  status: ('A' for Active; 'I' for Inactive)
REMARK    1  A    between atoms: C6_6  and  N9_9 
ROOT
HETATM    1  C1  UNL     1     -33.867   4.075   4.388  1.00 20.00     0.158 C 
HETATM    2  N9  UNL     1     -34.400   5.117   4.481  1.00 20.00    -0.270 NA
HETATM    3  S10 UNL     1     -33.150   2.656   4.293  1.00 20.00    -0.055 SA
ENDROOT
BRANCH   2   4
HETATM    4  C6  UNL     1     -34.443   5.898   3.241  1.00 20.00     0.113 C 
HETATM    5  C3  UNL     1     -33.769   5.109   2.113  1.00 20.00     0.028 C 
HETATM    6  C2  UNL     1     -32.450   5.823   1.849  1.00 20.00     0.007 C 
HETATM    7  C4  UNL     1     -32.780   7.285   2.139  1.00 20.00    -0.013 C 
HETATM    8  C5  UNL     1     -33.614   7.183   3.425  1.00 20.00     0.010 C 
HETATM    9  C7  UNL     1     -31.534   8.146   2.282  1.00 20.00     0.010 C 
HETATM   10  C8  UNL     1     -34.488   8.407   3.672  1.00 20.00     0.012 C 
ENDBRANCH   2   4
TORSDOF 1
ENDMDL
MODEL 6
REMARK VINA RESULT:       1.5      2.739      4.195
REMARK  1 active torsions:
REMARK  status: ('A' for Active; 'I' for Inactive)
REMARK    1  A    between atoms: C6_6  and  N9_9 
ROOT
HETATM    1  C1  UNL     1     -34.699   6.408   4.105  1.00 20.00     0.158 C 
HETATM    2  N9  UNL     1     -34.217   7.436   3.802  1.00 20.00    -0.270 NA
HETATM    3  S10 UNL     1     -35.379   5.030   4.523  1.00 20.00    -0.055 SA
ENDROOT
BRANCH   2   4
HETATM    4  C6  UNL     1     -32.847   7.345   3.290  1.00 20.00     0.113 C 
HETATM    5  C3  UNL     1     -32.083   8.628   3.637  1.00 20.00     0.028 C 
HETATM    6  C2  UNL     1     -31.922   9.375   2.319  1.00 20.00     0.007 C 
HETATM    7  C4  UNL     1     -31.799   8.250   1.294  1.00 20.00    -0.013 C 
HETATM    8  C5  UNL     1     -32.887   7.268   1.752  1.00 20.00     0.010 C 
HETATM    9  C7  UNL     1     -31.977   8.741  -0.135  1.00 20.00     0.010 C 
HETATM   10  C8  UNL     1     -32.672   5.850   1.237  1.00 20.00     0.012 C 
ENDBRANCH   2   4
TORSDOF 1
ENDMDL
MODEL 7
REMARK VINA RESULT:       1.6      2.477      3.591
REMARK  1 active torsions:
REMARK  status: ('A' for Active; 'I' for Inactive)
REMARK    1  A    between atoms: C6_6  and  N9_9 
ROOT
HETATM    1  C1  UNL     1     -33.140   4.895   0.688  1.00 20.00     0.158 C 
HETATM    2  N9  UNL     1     -32.644   5.507   1.560  1.00 20.00    -0.270 NA
HETATM    3  S10 UNL     1     -33.791   4.045  -0.491  1.00 20.00    -0.055 SA
ENDROOT
BRANCH   2   4
HETATM    4  C6  UNL     1     -33.333   6.753   1.906  1.00 20.00     0.113 C 
HETATM    5  C3  UNL     1     -32.379   7.938   1.720  1.00 20.00     0.028 C 
HETATM    6  C2  UNL     1     -32.029   8.404   3.127  1.00 20.00     0.007 C 
HETATM    7  C4  UNL     1     -33.303   8.118   3.916  1.00 20.00    -0.013 C 
HETATM    8  C5  UNL     1     -33.702   6.727   3.402  1.00 20.00     0.010 C 
HETATM    9  C7  UNL     1     -33.084   8.177   5.420  1.00 20.00     0.010 C 
HETATM   10  C8  UNL     1     -35.173   6.400   3.630  1.00 20.00     0.012 C 
ENDBRANCH   2   4
TORSDOF 1
ENDMDL
MODEL 8
REMARK VINA RESULT:       2.0      3.034      4.234
REMARK  1 active torsions:
REMARK  status: ('A' for Active; 'I' for Inactive)
REMARK    1  A    between atoms: C6_6  and  N9_9 
ROOT
HETATM    1  C1  UNL     1     -33.886   4.365   3.905  1.00 20.00     0.158 C 
HETATM    2  N9  UNL     1     -34.114   5.410   3.420  1.00 20.00    -0.270 NA
HETATM    3  S10 UNL     1     -33.607   2.939   4.558  1.00 20.00    -0.055 SA
ENDROOT
BRANCH   2   4
HETATM    4  C6  UNL     1     -32.961   6.310   3.327  1.00 20.00     0.113 C 
HETATM    5  C3  UNL     1     -33.304   7.655   3.976  1.00 20.00     0.028 C 
HETATM    6  C2  UNL     1     -33.446   8.639   2.823  1.00 20.00     0.007 C 
HETATM    7  C4  UNL     1     -32.438   8.125   1.799  1.00 20.00    -0.013 C 
HETATM    8  C5  UNL     1     -32.670   6.607   1.844  1.00 20.00     0.010 C 
HETATM    9  C7  UNL     1     -32.641   8.737   0.421  1.00 20.00     0.010 C 
HETATM   10  C8  UNL     1     -31.491   5.803   1.311  1.00 20.00     0.012 C 
ENDBRANCH   2   4
TORSDOF 1
ENDMDL
MODEL 9
REMARK VINA RESULT:       2.1      2.183      2.196
REMARK  1 active torsions:
REMARK  status: ('A' for Active; 'I' for Inactive)
REMARK    1  A    between atoms: C6_6  and  N9_9 
ROOT
HETATM    1  C1  UNL     1     -33.231   8.038   4.184  1.00 20.00     0.158 C 
HETATM    2  N9  UNL     1     -33.281   7.812   3.032  1.00 20.00    -0.270 NA
HETATM    3  S10 UNL     1     -33.145   8.370   5.739  1.00 20.00    -0.055 SA
ENDROOT
BRANCH   2   4
HETATM    4  C6  UNL     1     -34.057   6.621   2.673  1.00 20.00     0.113 C 
HETATM    5  C3  UNL     1     -35.252   6.480   3.622  1.00 20.00     0.028 C 
HETATM    6  C2  UNL     1     -34.920   5.297   4.522  1.00 20.00     0.007 C 
HETATM    7  C4  UNL     1     -34.113   4.379   3.608  1.00 20.00    -0.013 C 
HETATM    8  C5  UNL     1     -33.186   5.369   2.885  1.00 20.00     0.010 C 
HETATM    9  C7  UNL     1     -33.374   3.294   4.375  1.00 20.00     0.010 C 
HETATM   10  C8  UNL     1     -32.627   4.823   1.577  1.00 20.00     0.012 C 
ENDBRANCH   2   4
TORSDOF 1
ENDMDL
