MODEL 1
REMARK VINA RESULT:      -0.7      0.000      0.000
REMARK  2 active torsions:
REMARK  status: ('A' for Active; 'I' for Inactive)
REMARK    1  A    between atoms: C3_3  and  C9_9 
REMARK    2  A    between atoms: C9_9  and  C10_10 
ROOT
HETATM    1  C1  UNL     1     -33.802   8.053   3.051  1.00 20.00     0.006 C 
HETATM    2  C2  UNL     1     -34.419   6.929   3.864  1.00 20.00     0.016 C 
HETATM    3  C3  UNL     1     -32.462   7.458   2.624  1.00 20.00    -0.009 C 
HETATM    4  C4  UNL     1     -32.788   5.983   2.283  1.00 20.00    -0.000 C 
HETATM    5  C5  UNL     1     -34.092   5.684   3.051  1.00 20.00     0.062 C 
HETATM    6  C6  UNL     1     -32.972   5.690   0.793  1.00 20.00     0.011 C 
HETATM    7 BR11 UNL     1     -33.893   4.140   4.214  1.00 20.00    -0.091 Br
ENDROOT
BRANCH   3   8
HETATM    8  C9  UNL     1     -31.772   8.277   1.544  1.00 20.00     0.009 C 
BRANCH   8   9
HETATM    9  C10 UNL     1     -32.723   9.226   0.798  1.00 20.00    -0.022 C 
HETATM   10  C7  UNL     1     -32.561  10.681   1.239  1.00 20.00     0.009 C 
HETATM   11  C8  UNL     1     -32.485   9.111  -0.709  1.00 20.00     0.009 C 
ENDBRANCH   8   9
ENDBRANCH   3   8
TORSDOF 2
ENDMDL
MODEL 2
REMARK VINA RESULT:      -0.7      1.156      2.026
REMARK  2 active torsions:
REMARK  status: ('A' for Active; 'I' for Inactive)
REMARK    1  A    between atoms: C3_3  and  C9_9 
REMARK    2  A    between atoms: C9_9  and  C10_10 
ROOT
HETATM    1  C1  UNL     1     -35.207   6.467   3.857  1.00 20.00     0.006 C 
HETATM    2  C2  UNL     1     -35.118   5.103   4.520  1.00 20.00     0.016 C 
HETATM    3  C3  UNL     1     -33.750   6.763   3.507  1.00 20.00    -0.009 C 
HETATM    4  C4  UNL     1     -33.189   5.404   3.022  1.00 20.00    -0.000 C 
HETATM    5  C5  UNL     1     -34.127   4.349   3.643  1.00 20.00     0.062 C 
HETATM    6  C6  UNL     1     -33.132   5.233   1.503  1.00 20.00     0.011 C 
HETATM    7 BR11 UNL     1     -33.137   3.048   4.694  1.00 20.00    -0.091 Br
ENDROOT
BRANCH   3   8
HETATM    8  C9  UNL     1     -33.601   7.945   2.562  1.00 20.00     0.009 C 
BRANCH   8   9
HETATM    9  C10 UNL     1     -32.176   8.109   2.011  1.00 20.00    -0.022 C 
HETATM   10  C7  UNL     1     -32.121   9.042   0.800  1.00 20.00     0.009 C 
HETATM   11  C8  UNL     1     -31.256   8.636   3.114  1.00 20.00     0.009 C 
ENDBRANCH   8   9
ENDBRANCH   3   8
TORSDOF 2
ENDMDL
MODEL 3
REMARK VINA RESULT:      -0.3      1.178      2.333
REMARK  2 active torsions:
REMARK  status: ('A' for Active; 'I' for Inactive)
REMARK    1  A    between atoms: C3_3  and  C9_9 
REMARK    2  A    between atoms: C9_9  and  C10_10 
ROOT
HETATM    1  C1  UNL     1     -32.187   6.290   1.549  1.00 20.00     0.006 C 
HETATM    2  C2  UNL     1     -33.314   5.501   2.192  1.00 20.00     0.016 C 
HETATM    3  C3  UNL     1     -32.664   7.734   1.700  1.00 20.00    -0.009 C 
HETATM    4  C4  UNL     1     -33.296   7.783   3.112  1.00 20.00    -0.000 C 
HETATM    5  C5  UNL     1     -33.654   6.317   3.432  1.00 20.00     0.062 C 
HETATM    6  C6  UNL     1     -32.393   8.358   4.205  1.00 20.00     0.011 C 
HETATM    7 BR11 UNL     1     -35.536   6.127   3.881  1.00 20.00    -0.091 Br
ENDROOT
BRANCH   3   8
HETATM    8  C9  UNL     1     -31.571   8.748   1.400  1.00 20.00     0.009 C 
BRANCH   8   9
HETATM    9  C10 UNL     1     -31.979   9.791   0.348  1.00 20.00    -0.022 C 
HETATM   10  C7  UNL     1     -32.662   9.160  -0.866  1.00 20.00     0.009 C 
HETATM   11  C8  UNL     1     -32.908  10.826   0.985  1.00 20.00     0.009 C 
ENDBRANCH   8   9
ENDBRANCH   3   8
TORSDOF 2
ENDMDL
MODEL 4
REMARK VINA RESULT:      -0.2      2.543      4.679
REMARK  2 active torsions:
REMARK  status: ('A' for Active; 'I' for Inactive)
REMARK    1  A    between atoms: C3_3  and  C9_9 
REMARK    2  A    between atoms: C9_9  and  C10_10 
ROOT
HETATM    1  C1  UNL     1     -33.126   7.227   3.642  1.00 20.00     0.006 C 
HETATM    2  C2  UNL     1     -32.672   8.527   2.999  1.00 20.00     0.016 C 
HETATM    3  C3  UNL     1     -33.649   6.431   2.448  1.00 20.00    -0.009 C 
HETATM    4  C4  UNL     1     -32.643   6.735   1.313  1.00 20.00    -0.000 C 
HETATM    5  C5  UNL     1     -31.980   8.067   1.723  1.00 20.00     0.062 C 
HETATM    6  C6  UNL     1     -31.576   5.661   1.089  1.00 20.00     0.011 C 
HETATM    7 BR11 UNL     1     -32.158   9.408   0.328  1.00 20.00    -0.091 Br
ENDROOT
BRANCH   3   8
HETATM    8  C9  UNL     1     -33.890   4.966   2.780  1.00 20.00     0.009 C 
BRANCH   8   9
HETATM    9  C10 UNL     1     -34.038   4.698   4.285  1.00 20.00    -0.022 C 
HETATM   10  C7  UNL     1     -35.468   4.920   4.781  1.00 20.00     0.009 C 
HETATM   11  C8  UNL     1     -33.598   3.267   4.598  1.00 20.00     0.009 C 
ENDBRANCH   8   9
ENDBRANCH   3   8
TORSDOF 2
ENDMDL
MODEL 5
REMARK VINA RESULT:       1.1      2.850      5.490
REMARK  2 active torsions:
REMARK  status: ('A' for Active; 'I' for Inactive)
REMARK    1  A    between atoms: C3_3  and  C9_9 
REMARK    2  A    between atoms: C9_9  and  C10_10 
ROOT
HETATM    1  C1  UNL     1     -33.134   4.660   1.775  1.00 20.00     0.006 C 
HETATM    2  C2  UNL     1     -32.627   5.937   1.127  1.00 20.00     0.016 C 
HETATM    3  C3  UNL     1     -33.060   4.991   3.264  1.00 20.00    -0.009 C 
HETATM    4  C4  UNL     1     -33.531   6.462   3.354  1.00 20.00    -0.000 C 
HETATM    5  C5  UNL     1     -33.297   7.036   1.942  1.00 20.00     0.062 C 
HETATM    6  C6  UNL     1     -34.993   6.649   3.765  1.00 20.00     0.011 C 
HETATM    7 BR11 UNL     1     -32.177   8.624   1.997  1.00 20.00    -0.091 Br
ENDROOT
BRANCH   3   8
HETATM    8  C9  UNL     1     -33.796   3.978   4.128  1.00 20.00     0.009 C 
BRANCH   8   9
HETATM    9  C10 UNL     1     -32.865   2.950   4.789  1.00 20.00    -0.022 C 
HETATM   10  C7  UNL     1     -32.660   3.220   6.280  1.00 20.00     0.009 C 
HETATM   11  C8  UNL     1     -33.432   1.542   4.590  1.00 20.00     0.009 C 
ENDBRANCH   8   9
ENDBRANCH   3   8
TORSDOF 2
ENDMDL
MODEL 6
REMARK VINA RESULT:       1.2      2.538      4.575
REMARK  2 active torsions:
REMARK  status: ('A' for Active; 'I' for Inactive)
REMARK    1  A    between atoms: C3_3  and  C9_9 
REMARK    2  A    between atoms: C9_9  and  C10_10 
ROOT
HETATM    1  C1  UNL     1     -32.952   7.216   3.626  1.00 20.00     0.006 C 
HETATM    2  C2  UNL     1     -32.630   8.564   3.003  1.00 20.00     0.016 C 
HETATM    3  C3  UNL     1     -33.505   6.427   2.440  1.00 20.00    -0.009 C 
HETATM    4  C4  UNL     1     -32.601   6.836   1.252  1.00 20.00    -0.000 C 
HETATM    5  C5  UNL     1     -32.000   8.194   1.667  1.00 20.00     0.062 C 
HETATM    6  C6  UNL     1     -31.486   5.844   0.917  1.00 20.00     0.011 C 
HETATM    7 BR11 UNL     1     -32.360   9.567   0.339  1.00 20.00    -0.091 Br
ENDROOT
BRANCH   3   8
HETATM    8  C9  UNL     1     -33.627   4.939   2.731  1.00 20.00     0.009 C 
BRANCH   8   9
HETATM    9  C10 UNL     1     -34.622   4.618   3.858  1.00 20.00    -0.022 C 
HETATM   10  C7  UNL     1     -33.961   3.894   5.032  1.00 20.00     0.009 C 
HETATM   11  C8  UNL     1     -35.276   5.912   4.349  1.00 20.00     0.009 C 
ENDBRANCH   8   9
ENDBRANCH   3   8
TORSDOF 2
ENDMDL
MODEL 7
REMARK VINA RESULT:       1.4      2.502      4.448
REMARK  2 active torsions:
REMARK  status: ('A' for Active; 'I' for Inactive)
REMARK    1  A    between atoms: C3_3  and  C9_9 
REMARK    2  A    between atoms: C9_9  and  C10_10 
ROOT
HETATM    1  C1  UNL     1     -32.182   8.154   3.572  1.00 20.00     0.006 C 
HETATM    2  C2  UNL     1     -31.755   9.146   2.504  1.00 20.00     0.016 C 
HETATM    3  C3  UNL     1     -33.316   7.395   2.885  1.00 20.00    -0.009 C 
HETATM    4  C4  UNL     1     -32.828   7.211   1.428  1.00 20.00    -0.000 C 
HETATM    5  C5  UNL     1     -31.774   8.320   1.225  1.00 20.00     0.062 C 
HETATM    6  C6  UNL     1     -32.222   5.842   1.117  1.00 20.00     0.011 C 
HETATM    7 BR11 UNL     1     -32.206   9.438  -0.305  1.00 20.00    -0.091 Br
ENDROOT
BRANCH   3   8
HETATM    8  C9  UNL     1     -33.722   6.138   3.639  1.00 20.00     0.009 C 
BRANCH   8   9
HETATM    9  C10 UNL     1     -35.140   6.209   4.225  1.00 20.00    -0.022 C 
HETATM   10  C7  UNL     1     -36.175   6.666   3.196  1.00 20.00     0.009 C 
HETATM   11  C8  UNL     1     -35.535   4.841   4.784  1.00 20.00     0.009 C 
ENDBRANCH   8   9
ENDBRANCH   3   8
TORSDOF 2
ENDMDL
