MODEL 1
REMARK VINA RESULT:      -1.7      0.000      0.000
REMARK  1 active torsions:
REMARK  status: ('A' for Active; 'I' for Inactive)
REMARK    1  A    between atoms: C5_5  and  C9_9 
ROOT
HETATM    1  C1  UNL     1     -32.374  10.137  -0.188  1.00 20.00     0.012 C 
HETATM    2  C2  UNL     1     -32.199   9.252   0.604  1.00 20.00    -0.117 C 
HETATM    3  C9  UNL     1     -31.976   8.168   1.566  1.00 20.00     0.098 C 
ENDROOT
BRANCH   3   4
HETATM    4  C5  UNL     1     -33.166   8.010   2.498  1.00 20.00     0.002 C 
HETATM    5  C3  UNL     1     -32.816   8.286   3.968  1.00 20.00     0.007 C 
HETATM    6  C4  UNL     1     -33.768   7.421   4.802  1.00 20.00     0.021 C 
HETATM    7  C7  UNL     1     -34.695   6.755   3.788  1.00 20.00     0.086 C 
HETATM    8  C6  UNL     1     -33.846   6.624   2.513  1.00 20.00     0.005 C 
HETATM    9 CL10 UNL     1     -35.389   5.244   4.397  1.00 20.00    -0.125 Cl
HETATM   10  C8  UNL     1     -32.856   5.454   2.520  1.00 20.00     0.012 C 
ENDBRANCH   3   4
TORSDOF 1
ENDMDL
MODEL 2
REMARK VINA RESULT:      -1.5      2.575      4.667
REMARK  1 active torsions:
REMARK  status: ('A' for Active; 'I' for Inactive)
REMARK    1  A    between atoms: C5_5  and  C9_9 
ROOT
HETATM    1  C1  UNL     1     -32.909   2.648   5.165  1.00 20.00     0.012 C 
HETATM    2  C2  UNL     1     -33.516   3.427   4.483  1.00 20.00    -0.117 C 
HETATM    3  C9  UNL     1     -34.263   4.370   3.646  1.00 20.00     0.098 C 
ENDROOT
BRANCH   3   4
HETATM    4  C5  UNL     1     -33.610   5.743   3.650  1.00 20.00     0.002 C 
HETATM    5  C3  UNL     1     -34.625   6.889   3.776  1.00 20.00     0.007 C 
HETATM    6  C4  UNL     1     -34.006   8.087   3.049  1.00 20.00     0.021 C 
HETATM    7  C7  UNL     1     -32.617   7.620   2.618  1.00 20.00     0.086 C 
HETATM    8  C6  UNL     1     -32.766   6.104   2.409  1.00 20.00     0.005 C 
HETATM    9 CL10 UNL     1     -32.004   8.522   1.223  1.00 20.00    -0.125 Cl
HETATM   10  C8  UNL     1     -33.418   5.700   1.083  1.00 20.00     0.012 C 
ENDBRANCH   3   4
TORSDOF 1
ENDMDL
MODEL 3
REMARK VINA RESULT:      -1.2      2.443      4.780
REMARK  1 active torsions:
REMARK  status: ('A' for Active; 'I' for Inactive)
REMARK    1  A    between atoms: C5_5  and  C9_9 
ROOT
HETATM    1  C1  UNL     1     -33.247   2.917   4.719  1.00 20.00     0.012 C 
HETATM    2  C2  UNL     1     -33.862   3.917   4.470  1.00 20.00    -0.117 C 
HETATM    3  C9  UNL     1     -34.620   5.136   4.174  1.00 20.00     0.098 C 
ENDROOT
BRANCH   3   4
HETATM    4  C5  UNL     1     -34.123   5.792   2.896  1.00 20.00     0.002 C 
HETATM    5  C3  UNL     1     -32.833   5.155   2.357  1.00 20.00     0.007 C 
HETATM    6  C4  UNL     1     -32.084   6.269   1.619  1.00 20.00     0.021 C 
HETATM    7  C7  UNL     1     -33.011   7.481   1.674  1.00 20.00     0.086 C 
HETATM    8  C6  UNL     1     -33.806   7.301   2.978  1.00 20.00     0.005 C 
HETATM    9 CL10 UNL     1     -32.134   9.011   1.524  1.00 20.00    -0.125 Cl
HETATM   10  C8  UNL     1     -33.050   7.702   4.250  1.00 20.00     0.012 C 
ENDBRANCH   3   4
TORSDOF 1
ENDMDL
MODEL 4
REMARK VINA RESULT:      -0.6      1.089      2.137
REMARK  1 active torsions:
REMARK  status: ('A' for Active; 'I' for Inactive)
REMARK    1  A    between atoms: C5_5  and  C9_9 
ROOT
HETATM    1  C1  UNL     1     -32.450   9.761  -0.405  1.00 20.00     0.012 C 
HETATM    2  C2  UNL     1     -32.449   9.435   0.750  1.00 20.00    -0.117 C 
HETATM    3  C9  UNL     1     -32.448   9.046   2.164  1.00 20.00     0.098 C 
ENDROOT
BRANCH   3   4
HETATM    4  C5  UNL     1     -32.310   7.540   2.317  1.00 20.00     0.002 C 
HETATM    5  C3  UNL     1     -32.720   6.768   1.054  1.00 20.00     0.007 C 
HETATM    6  C4  UNL     1     -33.243   5.411   1.535  1.00 20.00     0.021 C 
HETATM    7  C7  UNL     1     -33.023   5.409   3.046  1.00 20.00     0.086 C 
HETATM    8  C6  UNL     1     -33.127   6.888   3.453  1.00 20.00     0.005 C 
HETATM    9 CL10 UNL     1     -34.127   4.310   3.888  1.00 20.00    -0.125 Cl
HETATM   10  C8  UNL     1     -34.559   7.423   3.565  1.00 20.00     0.012 C 
ENDBRANCH   3   4
TORSDOF 1
ENDMDL
MODEL 5
REMARK VINA RESULT:       1.1      2.386      4.451
REMARK  1 active torsions:
REMARK  status: ('A' for Active; 'I' for Inactive)
REMARK    1  A    between atoms: C5_5  and  C9_9 
ROOT
HETATM    1  C1  UNL     1     -35.560   5.774   4.397  1.00 20.00     0.012 C 
HETATM    2  C2  UNL     1     -34.531   5.586   3.808  1.00 20.00    -0.117 C 
HETATM    3  C9  UNL     1     -33.272   5.348   3.097  1.00 20.00     0.098 C 
ENDROOT
BRANCH   3   4
HETATM    4  C5  UNL     1     -33.096   6.333   1.952  1.00 20.00     0.002 C 
HETATM    5  C3  UNL     1     -31.698   6.269   1.317  1.00 20.00     0.007 C 
HETATM    6  C4  UNL     1     -31.409   7.676   0.784  1.00 20.00     0.021 C 
HETATM    7  C7  UNL     1     -32.686   8.473   1.041  1.00 20.00     0.086 C 
HETATM    8  C6  UNL     1     -33.301   7.824   2.292  1.00 20.00     0.005 C 
HETATM    9 CL10 UNL     1     -32.384  10.213   1.158  1.00 20.00    -0.125 Cl
HETATM   10  C8  UNL     1     -32.657   8.248   3.617  1.00 20.00     0.012 C 
ENDBRANCH   3   4
TORSDOF 1
ENDMDL
MODEL 6
REMARK VINA RESULT:       1.1      1.724      2.374
REMARK  1 active torsions:
REMARK  status: ('A' for Active; 'I' for Inactive)
REMARK    1  A    between atoms: C5_5  and  C9_9 
ROOT
HETATM    1  C1  UNL     1     -31.769   4.396   0.322  1.00 20.00     0.012 C 
HETATM    2  C2  UNL     1     -31.820   5.435   0.921  1.00 20.00    -0.117 C 
HETATM    3  C9  UNL     1     -31.873   6.705   1.650  1.00 20.00     0.098 C 
ENDROOT
BRANCH   3   4
HETATM    4  C5  UNL     1     -33.232   6.908   2.301  1.00 20.00     0.002 C 
HETATM    5  C3  UNL     1     -33.188   7.877   3.491  1.00 20.00     0.007 C 
HETATM    6  C4  UNL     1     -34.305   7.434   4.442  1.00 20.00     0.021 C 
HETATM    7  C7  UNL     1     -35.014   6.290   3.722  1.00 20.00     0.086 C 
HETATM    8  C6  UNL     1     -33.922   5.643   2.854  1.00 20.00     0.005 C 
HETATM    9 CL10 UNL     1     -35.842   5.197   4.841  1.00 20.00    -0.125 Cl
HETATM   10  C8  UNL     1     -32.975   4.705   3.610  1.00 20.00     0.012 C 
ENDBRANCH   3   4
TORSDOF 1
ENDMDL
MODEL 7
REMARK VINA RESULT:       1.2      2.370      4.166
REMARK  1 active torsions:
REMARK  status: ('A' for Active; 'I' for Inactive)
REMARK    1  A    between atoms: C5_5  and  C9_9 
ROOT
HETATM    1  C1  UNL     1     -35.649   5.534   4.554  1.00 20.00     0.012 C 
HETATM    2  C2  UNL     1     -35.009   6.429   4.075  1.00 20.00    -0.117 C 
HETATM    3  C9  UNL     1     -34.235   7.529   3.490  1.00 20.00     0.098 C 
ENDROOT
BRANCH   3   4
HETATM    4  C5  UNL     1     -32.896   7.037   2.966  1.00 20.00     0.002 C 
HETATM    5  C3  UNL     1     -32.192   8.064   2.065  1.00 20.00     0.007 C 
HETATM    6  C4  UNL     1     -31.349   7.254   1.074  1.00 20.00     0.021 C 
HETATM    7  C7  UNL     1     -31.519   5.797   1.501  1.00 20.00     0.086 C 
HETATM    8  C6  UNL     1     -32.921   5.739   2.130  1.00 20.00     0.005 C 
HETATM    9 CL10 UNL     1     -31.238   4.666   0.168  1.00 20.00    -0.125 Cl
HETATM   10  C8  UNL     1     -34.074   5.678   1.123  1.00 20.00     0.012 C 
ENDBRANCH   3   4
TORSDOF 1
ENDMDL
