MODEL 1
REMARK VINA RESULT:       0.8      0.000      0.000
REMARK  1 active torsions:
REMARK  status: ('A' for Active; 'I' for Inactive)
REMARK    1  A    between atoms: C5_5  and  C8_8 
ROOT
HETATM    1  C1  UNL     1     -34.050   4.143   4.112  1.00 20.00     0.018 A 
HETATM    2  C2  UNL     1     -33.362   5.118   3.398  1.00 20.00     0.010 A 
HETATM    3  C3  UNL     1     -35.263   4.473   4.698  1.00 20.00     0.087 A 
HETATM    4  C4  UNL     1     -35.111   6.673   3.892  1.00 20.00     0.095 A 
HETATM    5  C5  UNL     1     -33.894   6.400   3.285  1.00 20.00    -0.038 A 
HETATM    6  N12 UNL     1     -35.752   5.715   4.574  1.00 20.00    -0.375 N 
HETATM    7  H28 UNL     1     -36.646   5.937   5.013  1.00 20.00     0.164 HD
ENDROOT
BRANCH   5   8
HETATM    8  C8  UNL     1     -33.161   7.476   2.512  1.00 20.00     0.025 C 
HETATM    9  C6  UNL     1     -31.924   8.116   3.169  1.00 20.00     0.011 C 
HETATM   10  C7  UNL     1     -31.091   8.716   2.031  1.00 20.00     0.021 C 
HETATM   11  C10 UNL     1     -31.764   8.288   0.725  1.00 20.00     0.086 C 
HETATM   12  C9  UNL     1     -32.637   7.082   1.109  1.00 20.00     0.008 C 
HETATM   13 CL13 UNL     1     -32.780   9.624   0.092  1.00 20.00    -0.125 Cl
HETATM   14  C11 UNL     1     -31.803   5.792   1.098  1.00 20.00     0.012 C 
ENDBRANCH   5   8
TORSDOF 1
ENDMDL
MODEL 2
REMARK VINA RESULT:       1.5      0.755      1.323
REMARK  1 active torsions:
REMARK  status: ('A' for Active; 'I' for Inactive)
REMARK    1  A    between atoms: C5_5  and  C8_8 
ROOT
HETATM    1  C1  UNL     1     -35.710   5.752   4.577  1.00 20.00     0.018 A 
HETATM    2  C2  UNL     1     -35.046   6.750   3.871  1.00 20.00     0.010 A 
HETATM    3  C3  UNL     1     -35.147   4.486   4.635  1.00 20.00     0.087 A 
HETATM    4  C4  UNL     1     -33.323   5.182   3.329  1.00 20.00     0.095 A 
HETATM    5  C5  UNL     1     -33.839   6.466   3.238  1.00 20.00    -0.038 A 
HETATM    6  N12 UNL     1     -33.983   4.239   4.016  1.00 20.00    -0.375 N 
HETATM    7  H28 UNL     1     -33.587   3.301   4.070  1.00 20.00     0.164 HD
ENDROOT
BRANCH   5   8
HETATM    8  C8  UNL     1     -33.100   7.538   2.465  1.00 20.00     0.025 C 
HETATM    9  C6  UNL     1     -31.850   8.159   3.114  1.00 20.00     0.011 C 
HETATM   10  C7  UNL     1     -31.021   8.756   1.971  1.00 20.00     0.021 C 
HETATM   11  C10 UNL     1     -31.711   8.345   0.670  1.00 20.00     0.086 C 
HETATM   12  C9  UNL     1     -32.595   7.147   1.054  1.00 20.00     0.008 C 
HETATM   13 CL13 UNL     1     -32.717   9.697   0.054  1.00 20.00    -0.125 Cl
HETATM   14  C11 UNL     1     -31.777   5.847   1.027  1.00 20.00     0.012 C 
ENDBRANCH   5   8
TORSDOF 1
ENDMDL
MODEL 3
REMARK VINA RESULT:       2.9      2.873      4.801
REMARK  1 active torsions:
REMARK  status: ('A' for Active; 'I' for Inactive)
REMARK    1  A    between atoms: C5_5  and  C8_8 
ROOT
HETATM    1  C1  UNL     1     -31.159   8.657   0.424  1.00 20.00     0.018 A 
HETATM    2  C2  UNL     1     -31.571   7.615   1.249  1.00 20.00     0.010 A 
HETATM    3  C3  UNL     1     -31.859   9.855   0.458  1.00 20.00     0.087 A 
HETATM    4  C4  UNL     1     -33.332   9.006   2.078  1.00 20.00     0.095 A 
HETATM    5  C5  UNL     1     -32.670   7.787   2.085  1.00 20.00    -0.038 A 
HETATM    6  N12 UNL     1     -32.914   9.993   1.274  1.00 20.00    -0.375 N 
HETATM    7  H28 UNL     1     -33.415  10.881   1.283  1.00 20.00     0.164 HD
ENDROOT
BRANCH   5   8
HETATM    8  C8  UNL     1     -33.135   6.665   2.991  1.00 20.00     0.025 C 
HETATM    9  C6  UNL     1     -34.524   6.796   3.642  1.00 20.00     0.011 C 
HETATM   10  C7  UNL     1     -34.962   5.376   4.017  1.00 20.00     0.021 C 
HETATM   11  C10 UNL     1     -33.906   4.429   3.446  1.00 20.00     0.086 C 
HETATM   12  C9  UNL     1     -33.184   5.249   2.364  1.00 20.00     0.008 C 
HETATM   13 CL13 UNL     1     -32.759   3.939   4.735  1.00 20.00    -0.125 Cl
HETATM   14  C11 UNL     1     -33.955   5.183   1.038  1.00 20.00     0.012 C 
ENDBRANCH   5   8
TORSDOF 1
ENDMDL
MODEL 4
REMARK VINA RESULT:       3.2      2.980      5.223
REMARK  1 active torsions:
REMARK  status: ('A' for Active; 'I' for Inactive)
REMARK    1  A    between atoms: C5_5  and  C8_8 
ROOT
HETATM    1  C1  UNL     1     -32.642  10.587   0.332  1.00 20.00     0.018 A 
HETATM    2  C2  UNL     1     -33.332   9.639   1.081  1.00 20.00     0.010 A 
HETATM    3  C3  UNL     1     -31.432  10.231  -0.245  1.00 20.00     0.087 A 
HETATM    4  C4  UNL     1     -31.588   8.063   0.642  1.00 20.00     0.095 A 
HETATM    5  C5  UNL     1     -32.802   8.362   1.241  1.00 20.00    -0.038 A 
HETATM    6  N12 UNL     1     -30.944   8.994  -0.074  1.00 20.00    -0.375 N 
HETATM    7  H28 UNL     1     -30.052   8.754  -0.507  1.00 20.00     0.164 HD
ENDROOT
BRANCH   5   8
HETATM    8  C8  UNL     1     -33.537   7.316   2.053  1.00 20.00     0.025 C 
HETATM    9  C6  UNL     1     -32.903   5.918   2.166  1.00 20.00     0.011 C 
HETATM   10  C7  UNL     1     -33.504   5.270   3.418  1.00 20.00     0.021 C 
HETATM   11  C10 UNL     1     -34.353   6.344   4.101  1.00 20.00     0.086 C 
HETATM   12  C9  UNL     1     -33.837   7.675   3.531  1.00 20.00     0.008 C 
HETATM   13 CL13 UNL     1     -36.083   6.111   3.691  1.00 20.00    -0.125 Cl
HETATM   14  C11 UNL     1     -32.607   8.153   4.315  1.00 20.00     0.012 C 
ENDBRANCH   5   8
TORSDOF 1
ENDMDL
MODEL 5
REMARK VINA RESULT:       3.4      1.443      2.242
REMARK  1 active torsions:
REMARK  status: ('A' for Active; 'I' for Inactive)
REMARK    1  A    between atoms: C5_5  and  C8_8 
ROOT
HETATM    1  C1  UNL     1     -35.033   6.375   4.283  1.00 20.00     0.018 A 
HETATM    2  C2  UNL     1     -34.426   7.240   3.379  1.00 20.00     0.010 A 
HETATM    3  C3  UNL     1     -34.707   5.027   4.241  1.00 20.00     0.087 A 
HETATM    4  C4  UNL     1     -33.223   5.389   2.458  1.00 20.00     0.095 A 
HETATM    5  C5  UNL     1     -33.511   6.746   2.454  1.00 20.00    -0.038 A 
HETATM    6  N12 UNL     1     -33.822   4.578   3.340  1.00 20.00    -0.375 N 
HETATM    7  H28 UNL     1     -33.596   3.583   3.326  1.00 20.00     0.164 HD
ENDROOT
BRANCH   5   8
HETATM    8  C8  UNL     1     -32.839   7.672   1.461  1.00 20.00     0.025 C 
HETATM    9  C6  UNL     1     -33.528   9.013   1.150  1.00 20.00     0.011 C 
HETATM   10  C7  UNL     1     -32.439   9.941   0.600  1.00 20.00     0.021 C 
HETATM   11  C10 UNL     1     -31.113   9.191   0.743  1.00 20.00     0.086 C 
HETATM   12  C9  UNL     1     -31.387   8.101   1.792  1.00 20.00     0.008 C 
HETATM   13 CL13 UNL     1     -30.654   8.453  -0.826  1.00 20.00    -0.125 Cl
HETATM   14  C11 UNL     1     -31.216   8.666   3.209  1.00 20.00     0.012 C 
ENDBRANCH   5   8
TORSDOF 1
ENDMDL
MODEL 6
REMARK VINA RESULT:       3.8      1.286      1.807
REMARK  1 active torsions:
REMARK  status: ('A' for Active; 'I' for Inactive)
REMARK    1  A    between atoms: C5_5  and  C8_8 
ROOT
HETATM    1  C1  UNL     1     -33.889   4.526   3.434  1.00 20.00     0.018 A 
HETATM    2  C2  UNL     1     -33.254   5.356   2.516  1.00 20.00     0.010 A 
HETATM    3  C3  UNL     1     -34.813   5.078   4.309  1.00 20.00     0.087 A 
HETATM    4  C4  UNL     1     -34.485   7.213   3.388  1.00 20.00     0.095 A 
HETATM    5  C5  UNL     1     -33.552   6.716   2.490  1.00 20.00    -0.038 A 
HETATM    6  N12 UNL     1     -35.081   6.391   4.262  1.00 20.00    -0.375 N 
HETATM    7  H28 UNL     1     -35.764   6.777   4.914  1.00 20.00     0.164 HD
ENDROOT
BRANCH   5   8
HETATM    8  C8  UNL     1     -32.873   7.637   1.498  1.00 20.00     0.025 C 
HETATM    9  C6  UNL     1     -33.554   8.981   1.183  1.00 20.00     0.011 C 
HETATM   10  C7  UNL     1     -32.459   9.903   0.636  1.00 20.00     0.021 C 
HETATM   11  C10 UNL     1     -31.138   9.148   0.784  1.00 20.00     0.086 C 
HETATM   12  C9  UNL     1     -31.420   8.061   1.834  1.00 20.00     0.008 C 
HETATM   13 CL13 UNL     1     -30.676   8.406  -0.783  1.00 20.00    -0.125 Cl
HETATM   14  C11 UNL     1     -31.251   8.627   3.251  1.00 20.00     0.012 C 
ENDBRANCH   5   8
TORSDOF 1
ENDMDL
