MODEL 1
REMARK VINA RESULT:      -1.9      0.000      0.000
REMARK  3 active torsions:
REMARK  status: ('A' for Active; 'I' for Inactive)
REMARK    1  A    between atoms: C1_1  and  C4_4 
REMARK    2  A    between atoms: C1_1  and  C6_6 
REMARK    3  A    between atoms: N7_7  and  O8_8 
ROOT
HETATM    1  C1  UNL     1     -33.113   6.645   2.394  1.00 20.00     0.043 C 
HETATM    2  N7  UNL     1     -33.335   5.447   1.943  1.00 20.00    -0.145 NA
ENDROOT
BRANCH   1   3
HETATM    3  C4  UNL     1     -31.983   7.431   1.778  1.00 20.00     0.036 A 
HETATM    4  C2  UNL     1     -32.302   8.748   1.170  1.00 20.00     0.011 A 
HETATM    5  C3  UNL     1     -31.548   8.674   2.464  1.00 20.00     0.011 A 
ENDBRANCH   1   3
BRANCH   1   6
HETATM    6  C6  UNL     1     -33.881   7.305   3.525  1.00 20.00     0.053 C 
HETATM    7  C5  UNL     1     -35.064   6.449   3.939  1.00 20.00     0.011 C 
ENDBRANCH   1   6
BRANCH   2   8
HETATM    8  O8  UNL     1     -32.441   5.110   0.927  1.00 20.00    -0.266 OA
HETATM    9  H19 UNL     1     -32.587   4.152   0.848  1.00 20.00     0.247 HD
ENDBRANCH   2   8
TORSDOF 3
ENDMDL
MODEL 2
REMARK VINA RESULT:      -1.8      2.057      3.224
REMARK  3 active torsions:
REMARK  status: ('A' for Active; 'I' for Inactive)
REMARK    1  A    between atoms: C1_1  and  C4_4 
REMARK    2  A    between atoms: C1_1  and  C6_6 
REMARK    3  A    between atoms: N7_7  and  O8_8 
ROOT
HETATM    1  C1  UNL     1     -32.869   7.232   2.461  1.00 20.00     0.043 C 
HETATM    2  N7  UNL     1     -33.682   7.656   3.381  1.00 20.00    -0.145 NA
ENDROOT
BRANCH   1   3
HETATM    3  C4  UNL     1     -32.983   5.790   2.030  1.00 20.00     0.036 A 
HETATM    4  C2  UNL     1     -33.255   5.512   0.597  1.00 20.00     0.011 A 
HETATM    5  C3  UNL     1     -31.901   5.234   1.179  1.00 20.00     0.011 A 
ENDBRANCH   1   3
BRANCH   1   6
HETATM    6  C6  UNL     1     -31.782   8.067   1.809  1.00 20.00     0.053 C 
HETATM    7  C5  UNL     1     -32.388   9.096   0.872  1.00 20.00     0.011 C 
ENDBRANCH   1   6
BRANCH   2   8
HETATM    8  O8  UNL     1     -34.543   6.644   3.808  1.00 20.00    -0.266 OA
HETATM    9  H19 UNL     1     -33.926   5.903   3.932  1.00 20.00     0.247 HD
ENDBRANCH   2   8
TORSDOF 3
ENDMDL
MODEL 3
REMARK VINA RESULT:      -1.7      2.165      3.047
REMARK  3 active torsions:
REMARK  status: ('A' for Active; 'I' for Inactive)
REMARK    1  A    between atoms: C1_1  and  C4_4 
REMARK    2  A    between atoms: C1_1  and  C6_6 
REMARK    3  A    between atoms: N7_7  and  O8_8 
ROOT
HETATM    1  C1  UNL     1     -33.628   5.027   3.222  1.00 20.00     0.043 C 
HETATM    2  N7  UNL     1     -32.682   4.742   2.379  1.00 20.00    -0.145 NA
ENDROOT
BRANCH   1   3
HETATM    3  C4  UNL     1     -34.294   6.376   3.106  1.00 20.00     0.036 A 
HETATM    4  C2  UNL     1     -35.427   6.673   4.017  1.00 20.00     0.011 A 
HETATM    5  C3  UNL     1     -34.101   7.343   4.215  1.00 20.00     0.011 A 
ENDBRANCH   1   3
BRANCH   1   6
HETATM    6  C6  UNL     1     -34.094   4.119   4.346  1.00 20.00     0.053 C 
HETATM    7  C5  UNL     1     -33.104   2.988   4.566  1.00 20.00     0.011 C 
ENDBRANCH   1   6
BRANCH   2   8
HETATM    8  O8  UNL     1     -32.459   5.792   1.488  1.00 20.00    -0.266 OA
HETATM    9  H19 UNL     1     -33.075   5.572   0.769  1.00 20.00     0.247 HD
ENDBRANCH   2   8
TORSDOF 3
ENDMDL
MODEL 4
REMARK VINA RESULT:      -1.6      2.122      2.592
REMARK  3 active torsions:
REMARK  status: ('A' for Active; 'I' for Inactive)
REMARK    1  A    between atoms: C1_1  and  C4_4 
REMARK    2  A    between atoms: C1_1  and  C6_6 
REMARK    3  A    between atoms: N7_7  and  O8_8 
ROOT
HETATM    1  C1  UNL     1     -34.189   5.617   3.595  1.00 20.00     0.043 C 
HETATM    2  N7  UNL     1     -34.608   4.596   4.279  1.00 20.00    -0.145 NA
ENDROOT
BRANCH   1   3
HETATM    3  C4  UNL     1     -33.013   5.413   2.672  1.00 20.00     0.036 A 
HETATM    4  C2  UNL     1     -33.263   5.454   1.209  1.00 20.00     0.011 A 
HETATM    5  C3  UNL     1     -32.538   6.579   1.885  1.00 20.00     0.011 A 
ENDBRANCH   1   3
BRANCH   1   6
HETATM    6  C6  UNL     1     -34.767   7.018   3.681  1.00 20.00     0.053 C 
HETATM    7  C5  UNL     1     -33.949   7.878   4.627  1.00 20.00     0.011 C 
ENDBRANCH   1   6
BRANCH   2   8
HETATM    8  O8  UNL     1     -33.851   3.455   4.009  1.00 20.00    -0.266 OA
HETATM    9  H19 UNL     1     -33.008   3.674   4.440  1.00 20.00     0.247 HD
ENDBRANCH   2   8
TORSDOF 3
ENDMDL
MODEL 5
REMARK VINA RESULT:      -1.6      0.892      2.938
REMARK  3 active torsions:
REMARK  status: ('A' for Active; 'I' for Inactive)
REMARK    1  A    between atoms: C1_1  and  C4_4 
REMARK    2  A    between atoms: C1_1  and  C6_6 
REMARK    3  A    between atoms: N7_7  and  O8_8 
ROOT
HETATM    1  C1  UNL     1     -32.635   7.180   2.180  1.00 20.00     0.043 C 
HETATM    2  N7  UNL     1     -32.334   6.323   1.251  1.00 20.00    -0.145 NA
ENDROOT
BRANCH   1   3
HETATM    3  C4  UNL     1     -33.404   6.680   3.377  1.00 20.00     0.036 A 
HETATM    4  C2  UNL     1     -33.966   7.686   4.313  1.00 20.00     0.011 A 
HETATM    5  C3  UNL     1     -34.870   6.908   3.404  1.00 20.00     0.011 A 
ENDBRANCH   1   3
BRANCH   1   6
HETATM    6  C6  UNL     1     -32.303   8.661   2.137  1.00 20.00     0.053 C 
HETATM    7  C5  UNL     1     -32.299   9.167   0.706  1.00 20.00     0.011 C 
ENDBRANCH   1   6
BRANCH   2   8
HETATM    8  O8  UNL     1     -32.805   5.047   1.561  1.00 20.00    -0.266 OA
HETATM    9  H19 UNL     1     -32.003   4.510   1.448  1.00 20.00     0.247 HD
ENDBRANCH   2   8
TORSDOF 3
ENDMDL
MODEL 6
REMARK VINA RESULT:      -1.5      2.091      3.251
REMARK  3 active torsions:
REMARK  status: ('A' for Active; 'I' for Inactive)
REMARK    1  A    between atoms: C1_1  and  C4_4 
REMARK    2  A    between atoms: C1_1  and  C6_6 
REMARK    3  A    between atoms: N7_7  and  O8_8 
ROOT
HETATM    1  C1  UNL     1     -32.859   6.956   2.154  1.00 20.00     0.043 C 
HETATM    2  N7  UNL     1     -32.022   7.753   1.562  1.00 20.00    -0.145 NA
ENDROOT
BRANCH   1   3
HETATM    3  C4  UNL     1     -33.964   7.575   2.973  1.00 20.00     0.036 A 
HETATM    4  C2  UNL     1     -34.812   6.674   3.793  1.00 20.00     0.011 A 
HETATM    5  C3  UNL     1     -33.814   7.580   4.450  1.00 20.00     0.011 A 
ENDBRANCH   1   3
BRANCH   1   6
HETATM    6  C6  UNL     1     -32.789   5.439   2.118  1.00 20.00     0.053 C 
HETATM    7  C5  UNL     1     -32.008   4.968   0.905  1.00 20.00     0.011 C 
ENDBRANCH   1   6
BRANCH   2   8
HETATM    8  O8  UNL     1     -32.328   9.091   1.812  1.00 20.00    -0.266 OA
HETATM    9  H19 UNL     1     -31.791   9.270   2.603  1.00 20.00     0.247 HD
ENDBRANCH   2   8
TORSDOF 3
ENDMDL
MODEL 7
REMARK VINA RESULT:      -1.4      2.352      3.460
REMARK  3 active torsions:
REMARK  status: ('A' for Active; 'I' for Inactive)
REMARK    1  A    between atoms: C1_1  and  C4_4 
REMARK    2  A    between atoms: C1_1  and  C6_6 
REMARK    3  A    between atoms: N7_7  and  O8_8 
ROOT
HETATM    1  C1  UNL     1     -33.580   5.262   3.099  1.00 20.00     0.043 C 
HETATM    2  N7  UNL     1     -33.385   3.997   3.316  1.00 20.00    -0.145 NA
ENDROOT
BRANCH   1   3
HETATM    3  C4  UNL     1     -34.442   6.021   4.078  1.00 20.00     0.036 A 
HETATM    4  C2  UNL     1     -34.334   7.501   4.099  1.00 20.00     0.011 A 
HETATM    5  C3  UNL     1     -35.555   6.839   3.535  1.00 20.00     0.011 A 
ENDBRANCH   1   3
BRANCH   1   6
HETATM    6  C6  UNL     1     -33.039   6.035   1.910  1.00 20.00     0.053 C 
HETATM    7  C5  UNL     1     -32.058   5.186   1.122  1.00 20.00     0.011 C 
ENDBRANCH   1   6
BRANCH   2   8
HETATM    8  O8  UNL     1     -34.042   3.569   4.470  1.00 20.00    -0.266 OA
HETATM    9  H19 UNL     1     -33.936   2.605   4.409  1.00 20.00     0.247 HD
ENDBRANCH   2   8
TORSDOF 3
ENDMDL
MODEL 8
REMARK VINA RESULT:      -1.4      2.498      2.627
REMARK  3 active torsions:
REMARK  status: ('A' for Active; 'I' for Inactive)
REMARK    1  A    between atoms: C1_1  and  C4_4 
REMARK    2  A    between atoms: C1_1  and  C6_6 
REMARK    3  A    between atoms: N7_7  and  O8_8 
ROOT
HETATM    1  C1  UNL     1     -33.321   7.538   3.627  1.00 20.00     0.043 C 
HETATM    2  N7  UNL     1     -33.311   8.025   4.832  1.00 20.00    -0.145 NA
ENDROOT
BRANCH   1   3
HETATM    3  C4  UNL     1     -32.152   7.858   2.728  1.00 20.00     0.036 A 
HETATM    4  C2  UNL     1     -31.998   7.069   1.480  1.00 20.00     0.011 A 
HETATM    5  C3  UNL     1     -32.438   8.501   1.421  1.00 20.00     0.011 A 
ENDBRANCH   1   3
BRANCH   1   6
HETATM    6  C6  UNL     1     -34.440   6.700   3.037  1.00 20.00     0.053 C 
HETATM    7  C5  UNL     1     -35.304   6.110   4.137  1.00 20.00     0.011 C 
ENDBRANCH   1   6
BRANCH   2   8
HETATM    8  O8  UNL     1     -32.164   8.783   5.067  1.00 20.00    -0.266 OA
HETATM    9  H19 UNL     1     -31.703   8.240   5.729  1.00 20.00     0.247 HD
ENDBRANCH   2   8
TORSDOF 3
ENDMDL
MODEL 9
REMARK VINA RESULT:      -1.3      2.173      3.491
REMARK  3 active torsions:
REMARK  status: ('A' for Active; 'I' for Inactive)
REMARK    1  A    between atoms: C1_1  and  C4_4 
REMARK    2  A    between atoms: C1_1  and  C6_6 
REMARK    3  A    between atoms: N7_7  and  O8_8 
ROOT
HETATM    1  C1  UNL     1     -32.937   6.859   2.301  1.00 20.00     0.043 C 
HETATM    2  N7  UNL     1     -32.056   7.793   2.102  1.00 20.00    -0.145 NA
ENDROOT
BRANCH   1   3
HETATM    3  C4  UNL     1     -33.688   6.866   3.610  1.00 20.00     0.036 A 
HETATM    4  C2  UNL     1     -35.171   6.850   3.561  1.00 20.00     0.011 A 
HETATM    5  C3  UNL     1     -34.415   5.632   3.999  1.00 20.00     0.011 A 
ENDBRANCH   1   3
BRANCH   1   6
HETATM    6  C6  UNL     1     -33.246   5.733   1.331  1.00 20.00     0.053 C 
HETATM    7  C5  UNL     1     -31.975   5.000   0.941  1.00 20.00     0.011 C 
ENDBRANCH   1   6
BRANCH   2   8
HETATM    8  O8  UNL     1     -31.976   8.660   3.192  1.00 20.00    -0.266 OA
HETATM    9  H19 UNL     1     -32.084   9.525   2.762  1.00 20.00     0.247 HD
ENDBRANCH   2   8
TORSDOF 3
ENDMDL
