MODEL 1
REMARK VINA RESULT:      -1.8      0.000      0.000
REMARK  2 active torsions:
REMARK  status: ('A' for Active; 'I' for Inactive)
REMARK    1  A    between atoms: C2_2  and  C10_10 
REMARK    2  A    between atoms: C7_7  and  C10_10 
ROOT
HETATM    1  C1  UNL     1     -33.771   3.517   4.495  1.00 20.00    -0.111 C 
HETATM    2  C2  UNL     1     -34.285   4.575   4.245  1.00 20.00    -0.107 C 
HETATM    3  C8  UNL     1     -33.146   2.231   4.799  1.00 20.00     0.112 C 
ENDROOT
BRANCH   2   4
HETATM    4  C10 UNL     1     -34.900   5.866   3.934  1.00 20.00     0.099 C 
BRANCH   4   5
HETATM    5  C7  UNL     1     -34.181   6.544   2.778  1.00 20.00     0.008 C 
HETATM    6  C5  UNL     1     -33.049   5.688   2.207  1.00 20.00     0.013 C 
HETATM    7  C4  UNL     1     -32.263   6.644   1.319  1.00 20.00     0.079 C 
HETATM    8  C3  UNL     1     -32.436   7.956   2.042  1.00 20.00     0.131 C 
HETATM    9  C6  UNL     1     -33.514   7.895   3.106  1.00 20.00     0.056 C 
HETATM   10  O11 UNL     1     -31.778   8.959   1.789  1.00 20.00    -0.298 OA
HETATM   11  C9  UNL     1     -32.879   8.009   4.485  1.00 20.00     0.018 C 
ENDBRANCH   4   5
ENDBRANCH   2   4
TORSDOF 2
ENDMDL
MODEL 2
REMARK VINA RESULT:      -1.2      2.433      5.137
REMARK  2 active torsions:
REMARK  status: ('A' for Active; 'I' for Inactive)
REMARK    1  A    between atoms: C2_2  and  C10_10 
REMARK    2  A    between atoms: C7_7  and  C10_10 
ROOT
HETATM    1  C1  UNL     1     -32.251   9.392   0.529  1.00 20.00    -0.111 C 
HETATM    2  C2  UNL     1     -32.253   8.330   1.092  1.00 20.00    -0.107 C 
HETATM    3  C8  UNL     1     -32.247  10.683  -0.157  1.00 20.00     0.112 C 
ENDROOT
BRANCH   2   4
HETATM    4  C10 UNL     1     -32.268   7.038   1.781  1.00 20.00     0.099 C 
BRANCH   4   5
HETATM    5  C7  UNL     1     -33.589   6.825   2.504  1.00 20.00     0.008 C 
HETATM    6  C5  UNL     1     -33.678   7.619   3.809  1.00 20.00     0.013 C 
HETATM    7  C4  UNL     1     -34.886   7.031   4.527  1.00 20.00     0.079 C 
HETATM    8  C3  UNL     1     -34.847   5.593   4.078  1.00 20.00     0.131 C 
HETATM    9  C6  UNL     1     -33.900   5.372   2.916  1.00 20.00     0.056 C 
HETATM   10  O11 UNL     1     -35.515   4.705   4.596  1.00 20.00    -0.298 OA
HETATM   11  C9  UNL     1     -32.711   4.540   3.376  1.00 20.00     0.018 C 
ENDBRANCH   4   5
ENDBRANCH   2   4
TORSDOF 2
ENDMDL
MODEL 3
REMARK VINA RESULT:      -0.5      0.852      1.901
REMARK  2 active torsions:
REMARK  status: ('A' for Active; 'I' for Inactive)
REMARK    1  A    between atoms: C2_2  and  C10_10 
REMARK    2  A    between atoms: C7_7  and  C10_10 
ROOT
HETATM    1  C1  UNL     1     -33.657   3.252   4.410  1.00 20.00    -0.111 C 
HETATM    2  C2  UNL     1     -34.075   4.337   4.105  1.00 20.00    -0.107 C 
HETATM    3  C8  UNL     1     -33.150   1.932   4.781  1.00 20.00     0.112 C 
ENDROOT
BRANCH   2   4
HETATM    4  C10 UNL     1     -34.571   5.663   3.731  1.00 20.00     0.099 C 
BRANCH   4   5
HETATM    5  C7  UNL     1     -33.419   6.605   3.420  1.00 20.00     0.008 C 
HETATM    6  C5  UNL     1     -33.871   8.060   3.281  1.00 20.00     0.013 C 
HETATM    7  C4  UNL     1     -32.677   8.769   2.657  1.00 20.00     0.079 C 
HETATM    8  C3  UNL     1     -32.081   7.683   1.798  1.00 20.00     0.131 C 
HETATM    9  C6  UNL     1     -32.652   6.315   2.114  1.00 20.00     0.056 C 
HETATM   10  O11 UNL     1     -31.226   7.889   0.945  1.00 20.00    -0.298 OA
HETATM   11  C9  UNL     1     -33.491   5.828   0.941  1.00 20.00     0.018 C 
ENDBRANCH   4   5
ENDBRANCH   2   4
TORSDOF 2
ENDMDL
MODEL 4
REMARK VINA RESULT:       0.2      2.411      4.796
REMARK  2 active torsions:
REMARK  status: ('A' for Active; 'I' for Inactive)
REMARK    1  A    between atoms: C2_2  and  C10_10 
REMARK    2  A    between atoms: C7_7  and  C10_10 
ROOT
HETATM    1  C1  UNL     1     -32.423   9.519   0.403  1.00 20.00    -0.111 C 
HETATM    2  C2  UNL     1     -32.054   9.033   1.439  1.00 20.00    -0.107 C 
HETATM    3  C8  UNL     1     -32.871  10.110  -0.857  1.00 20.00     0.112 C 
ENDROOT
BRANCH   2   4
HETATM    4  C10 UNL     1     -31.603   8.454   2.704  1.00 20.00     0.099 C 
BRANCH   4   5
HETATM    5  C7  UNL     1     -32.372   7.181   3.023  1.00 20.00     0.008 C 
HETATM    6  C5  UNL     1     -32.915   6.493   1.769  1.00 20.00     0.013 C 
HETATM    7  C4  UNL     1     -33.904   5.465   2.301  1.00 20.00     0.079 C 
HETATM    8  C3  UNL     1     -34.435   6.149   3.534  1.00 20.00     0.131 C 
HETATM    9  C6  UNL     1     -33.606   7.355   3.931  1.00 20.00     0.056 C 
HETATM   10  O11 UNL     1     -35.424   5.765   4.148  1.00 20.00    -0.298 OA
HETATM   11  C9  UNL     1     -34.418   8.625   3.717  1.00 20.00     0.018 C 
ENDBRANCH   4   5
ENDBRANCH   2   4
TORSDOF 2
ENDMDL
