MODEL 1
REMARK VINA RESULT:      -3.0      0.000      0.000
REMARK  1 active torsions:
REMARK  status: ('A' for Active; 'I' for Inactive)
REMARK    1  A    between atoms: C7_7  and  C9_9 
ROOT
HETATM    1  C1  UNL     1     -32.575  10.003  -0.070  1.00 20.00     0.012 C 
HETATM    2  C2  UNL     1     -32.289   9.223   0.796  1.00 20.00    -0.117 C 
HETATM    3  C9  UNL     1     -31.934   8.271   1.856  1.00 20.00     0.098 C 
ENDROOT
BRANCH   3   4
HETATM    4  C7  UNL     1     -33.124   7.408   2.243  1.00 20.00     0.008 C 
HETATM    5  C5  UNL     1     -33.733   7.825   3.583  1.00 20.00     0.013 C 
HETATM    6  C4  UNL     1     -34.615   6.649   3.981  1.00 20.00     0.079 C 
HETATM    7  C3  UNL     1     -33.865   5.482   3.392  1.00 20.00     0.131 C 
HETATM    8  C6  UNL     1     -32.757   5.930   2.458  1.00 20.00     0.056 C 
HETATM    9  O10 UNL     1     -34.128   4.313   3.643  1.00 20.00    -0.298 OA
HETATM   10  C8  UNL     1     -32.723   5.126   1.171  1.00 20.00     0.018 C 
ENDBRANCH   3   4
TORSDOF 1
ENDMDL
MODEL 2
REMARK VINA RESULT:      -2.5      2.111      4.334
REMARK  1 active torsions:
REMARK  status: ('A' for Active; 'I' for Inactive)
REMARK    1  A    between atoms: C7_7  and  C9_9 
ROOT
HETATM    1  C1  UNL     1     -33.228   2.761   4.775  1.00 20.00     0.012 C 
HETATM    2  C2  UNL     1     -33.745   3.706   4.244  1.00 20.00    -0.117 C 
HETATM    3  C9  UNL     1     -34.384   4.858   3.596  1.00 20.00     0.098 C 
ENDROOT
BRANCH   3   4
HETATM    4  C7  UNL     1     -33.400   6.003   3.415  1.00 20.00     0.008 C 
HETATM    5  C5  UNL     1     -33.953   7.332   3.933  1.00 20.00     0.013 C 
HETATM    6  C4  UNL     1     -33.036   8.387   3.327  1.00 20.00     0.079 C 
HETATM    7  C3  UNL     1     -32.655   7.752   2.014  1.00 20.00     0.131 C 
HETATM    8  C6  UNL     1     -33.075   6.297   1.941  1.00 20.00     0.056 C 
HETATM    9  O10 UNL     1     -32.072   8.350   1.118  1.00 20.00    -0.298 OA
HETATM   10  C8  UNL     1     -31.984   5.406   1.377  1.00 20.00     0.018 C 
ENDBRANCH   3   4
TORSDOF 1
ENDMDL
MODEL 3
REMARK VINA RESULT:      -2.1      2.226      4.692
REMARK  1 active torsions:
REMARK  status: ('A' for Active; 'I' for Inactive)
REMARK    1  A    between atoms: C7_7  and  C9_9 
ROOT
HETATM    1  C1  UNL     1     -33.150   2.886   4.619  1.00 20.00     0.012 C 
HETATM    2  C2  UNL     1     -33.867   3.837   4.465  1.00 20.00    -0.117 C 
HETATM    3  C9  UNL     1     -34.747   4.998   4.284  1.00 20.00     0.098 C 
ENDROOT
BRANCH   3   4
HETATM    4  C7  UNL     1     -34.247   5.898   3.165  1.00 20.00     0.008 C 
HETATM    5  C5  UNL     1     -33.343   5.153   2.179  1.00 20.00     0.013 C 
HETATM    6  C4  UNL     1     -32.645   6.258   1.396  1.00 20.00     0.079 C 
HETATM    7  C3  UNL     1     -32.539   7.353   2.427  1.00 20.00     0.131 C 
HETATM    8  C6  UNL     1     -33.363   7.053   3.665  1.00 20.00     0.056 C 
HETATM    9  O10 UNL     1     -31.866   8.364   2.273  1.00 20.00    -0.298 OA
HETATM   10  C8  UNL     1     -34.156   8.256   4.139  1.00 20.00     0.018 C 
ENDBRANCH   3   4
TORSDOF 1
ENDMDL
MODEL 4
REMARK VINA RESULT:      -1.9      1.081      2.197
REMARK  1 active torsions:
REMARK  status: ('A' for Active; 'I' for Inactive)
REMARK    1  A    between atoms: C7_7  and  C9_9 
ROOT
HETATM    1  C1  UNL     1     -32.729   9.553  -0.024  1.00 20.00     0.012 C 
HETATM    2  C2  UNL     1     -32.167   9.105   0.939  1.00 20.00    -0.117 C 
HETATM    3  C9  UNL     1     -31.476   8.564   2.115  1.00 20.00     0.098 C 
ENDROOT
BRANCH   3   4
HETATM    4  C7  UNL     1     -32.227   7.376   2.696  1.00 20.00     0.008 C 
HETATM    5  C5  UNL     1     -32.714   6.410   1.613  1.00 20.00     0.013 C 
HETATM    6  C4  UNL     1     -33.744   5.538   2.319  1.00 20.00     0.079 C 
HETATM    7  C3  UNL     1     -34.324   6.494   3.329  1.00 20.00     0.131 C 
HETATM    8  C6  UNL     1     -33.517   7.774   3.432  1.00 20.00     0.056 C 
HETATM    9  O10 UNL     1     -35.329   6.255   3.987  1.00 20.00    -0.298 OA
HETATM   10  C8  UNL     1     -33.282   8.197   4.870  1.00 20.00     0.018 C 
ENDBRANCH   3   4
TORSDOF 1
ENDMDL
MODEL 5
REMARK VINA RESULT:      -1.0      1.351      2.666
REMARK  1 active torsions:
REMARK  status: ('A' for Active; 'I' for Inactive)
REMARK    1  A    between atoms: C7_7  and  C9_9 
ROOT
HETATM    1  C1  UNL     1     -31.653   8.546   1.678  1.00 20.00     0.012 C 
HETATM    2  C2  UNL     1     -32.141   7.450   1.616  1.00 20.00    -0.117 C 
HETATM    3  C9  UNL     1     -32.735   6.110   1.534  1.00 20.00     0.098 C 
ENDROOT
BRANCH   3   4
HETATM    4  C7  UNL     1     -33.091   5.580   2.914  1.00 20.00     0.008 C 
HETATM    5  C5  UNL     1     -33.102   4.051   2.965  1.00 20.00     0.013 C 
HETATM    6  C4  UNL     1     -33.840   3.720   4.256  1.00 20.00     0.079 C 
HETATM    7  C3  UNL     1     -34.815   4.865   4.361  1.00 20.00     0.131 C 
HETATM    8  C6  UNL     1     -34.509   5.967   3.365  1.00 20.00     0.056 C 
HETATM    9  O10 UNL     1     -35.741   4.892   5.161  1.00 20.00    -0.298 OA
HETATM   10  C8  UNL     1     -34.586   7.349   3.988  1.00 20.00     0.018 C 
ENDBRANCH   3   4
TORSDOF 1
ENDMDL
MODEL 6
REMARK VINA RESULT:      -0.8      1.069      1.434
REMARK  1 active torsions:
REMARK  status: ('A' for Active; 'I' for Inactive)
REMARK    1  A    between atoms: C7_7  and  C9_9 
ROOT
HETATM    1  C1  UNL     1     -31.626   8.244   0.897  1.00 20.00     0.012 C 
HETATM    2  C2  UNL     1     -32.298   8.187   1.891  1.00 20.00    -0.117 C 
HETATM    3  C9  UNL     1     -33.117   8.125   3.107  1.00 20.00     0.098 C 
ENDROOT
BRANCH   3   4
HETATM    4  C7  UNL     1     -33.975   6.869   3.129  1.00 20.00     0.008 C 
HETATM    5  C5  UNL     1     -34.872   6.800   4.367  1.00 20.00     0.013 C 
HETATM    6  C4  UNL     1     -35.336   5.350   4.417  1.00 20.00     0.079 C 
HETATM    7  C3  UNL     1     -34.153   4.622   3.833  1.00 20.00     0.131 C 
HETATM    8  C6  UNL     1     -33.151   5.573   3.207  1.00 20.00     0.056 C 
HETATM    9  O10 UNL     1     -34.025   3.405   3.864  1.00 20.00    -0.298 OA
HETATM   10  C8  UNL     1     -32.660   5.090   1.855  1.00 20.00     0.018 C 
ENDBRANCH   3   4
TORSDOF 1
ENDMDL
