MODEL 1
REMARK VINA RESULT:      -2.3      0.000      0.000
REMARK  4 active torsions:
REMARK  status: ('A' for Active; 'I' for Inactive)
REMARK    1  A    between atoms: C3_3  and  C5_5 
REMARK    2  A    between atoms: C5_5  and  N8_8 
REMARK    3  A    between atoms: C6_6  and  C7_7 
REMARK    4  A    between atoms: C7_7  and  N8_8 
ROOT
HETATM    1  N8  UNL     1     -32.042   7.974   2.579  1.00 20.00     0.089 N 
HETATM    2  H23 UNL     1     -32.132   8.757   3.230  1.00 20.00     0.316 HD
ENDROOT
BRANCH   1   3
HETATM    3  C5  UNL     1     -31.666   8.493   1.268  1.00 20.00     0.274 C 
BRANCH   3   4
HETATM    4  C3  UNL     1     -32.731   9.374   0.711  1.00 20.00     0.014 A 
HETATM    5  C1  UNL     1     -32.450  10.827   0.447  1.00 20.00     0.007 A 
HETATM    6  C2  UNL     1     -32.637   9.877  -0.703  1.00 20.00     0.007 A 
ENDBRANCH   3   4
ENDBRANCH   1   3
BRANCH   1   7
HETATM    7  C7  UNL     1     -33.293   7.246   2.517  1.00 20.00     0.230 C 
HETATM    8  C4  UNL     1     -33.034   5.834   2.003  1.00 20.00     0.043 C 
BRANCH   7   9
HETATM    9  C6  UNL     1     -33.992   7.287   3.877  1.00 20.00     0.149 C 
HETATM   10 CL9  UNL     1     -35.414   6.216   3.973  1.00 20.00    -0.128 Cl
ENDBRANCH   7   9
ENDBRANCH   1   7
TORSDOF 4
ENDMDL
MODEL 2
REMARK VINA RESULT:      -1.6      1.611      2.125
REMARK  4 active torsions:
REMARK  status: ('A' for Active; 'I' for Inactive)
REMARK    1  A    between atoms: C3_3  and  C5_5 
REMARK    2  A    between atoms: C5_5  and  N8_8 
REMARK    3  A    between atoms: C6_6  and  C7_7 
REMARK    4  A    between atoms: C7_7  and  N8_8 
ROOT
HETATM    1  N8  UNL     1     -32.384   8.213   2.487  1.00 20.00     0.089 N 
HETATM    2  H23 UNL     1     -33.056   8.976   2.598  1.00 20.00     0.316 HD
ENDROOT
BRANCH   1   3
HETATM    3  C5  UNL     1     -31.990   8.134   1.084  1.00 20.00     0.274 C 
BRANCH   3   4
HETATM    4  C3  UNL     1     -31.821   9.492   0.494  1.00 20.00     0.014 A 
HETATM    5  C1  UNL     1     -32.749   9.968  -0.589  1.00 20.00     0.007 A 
HETATM    6  C2  UNL     1     -32.823  10.574   0.785  1.00 20.00     0.007 A 
ENDBRANCH   3   4
ENDBRANCH   1   3
BRANCH   1   7
HETATM    7  C7  UNL     1     -32.977   6.971   2.938  1.00 20.00     0.230 C 
HETATM    8  C4  UNL     1     -34.214   7.274   3.776  1.00 20.00     0.043 C 
BRANCH   7   9
HETATM    9  C6  UNL     1     -33.253   6.058   1.742  1.00 20.00     0.149 C 
HETATM   10 CL9  UNL     1     -31.868   5.020   1.312  1.00 20.00    -0.128 Cl
ENDBRANCH   7   9
ENDBRANCH   1   7
TORSDOF 4
ENDMDL
MODEL 3
REMARK VINA RESULT:      -1.6      3.219      5.734
REMARK  4 active torsions:
REMARK  status: ('A' for Active; 'I' for Inactive)
REMARK    1  A    between atoms: C3_3  and  C5_5 
REMARK    2  A    between atoms: C5_5  and  N8_8 
REMARK    3  A    between atoms: C6_6  and  C7_7 
REMARK    4  A    between atoms: C7_7  and  N8_8 
ROOT
HETATM    1  N8  UNL     1     -34.709   5.750   3.983  1.00 20.00     0.089 N 
HETATM    2  H23 UNL     1     -34.647   5.853   4.998  1.00 20.00     0.316 HD
ENDROOT
BRANCH   1   3
HETATM    3  C5  UNL     1     -33.931   4.583   3.580  1.00 20.00     0.274 C 
BRANCH   3   4
HETATM    4  C3  UNL     1     -33.874   3.570   4.671  1.00 20.00     0.014 A 
HETATM    5  C1  UNL     1     -33.255   2.223   4.423  1.00 20.00     0.007 A 
HETATM    6  C2  UNL     1     -32.559   3.217   5.309  1.00 20.00     0.007 A 
ENDBRANCH   3   4
ENDBRANCH   1   3
BRANCH   1   7
HETATM    7  C7  UNL     1     -34.223   6.954   3.340  1.00 20.00     0.230 C 
HETATM    8  C4  UNL     1     -33.736   7.934   4.401  1.00 20.00     0.043 C 
BRANCH   7   9
HETATM    9  C6  UNL     1     -33.161   6.599   2.297  1.00 20.00     0.149 C 
HETATM   10 CL9  UNL     1     -32.049   7.945   1.935  1.00 20.00    -0.128 Cl
ENDBRANCH   7   9
ENDBRANCH   1   7
TORSDOF 4
ENDMDL
MODEL 4
REMARK VINA RESULT:      -1.6      2.406      4.388
REMARK  4 active torsions:
REMARK  status: ('A' for Active; 'I' for Inactive)
REMARK    1  A    between atoms: C3_3  and  C5_5 
REMARK    2  A    between atoms: C5_5  and  N8_8 
REMARK    3  A    between atoms: C6_6  and  C7_7 
REMARK    4  A    between atoms: C7_7  and  N8_8 
ROOT
HETATM    1  N8  UNL     1     -32.367   6.716   1.438  1.00 20.00     0.089 N 
HETATM    2  H23 UNL     1     -32.879   6.555   0.568  1.00 20.00     0.316 HD
ENDROOT
BRANCH   1   3
HETATM    3  C5  UNL     1     -33.069   6.046   2.528  1.00 20.00     0.274 C 
BRANCH   3   4
HETATM    4  C3  UNL     1     -34.242   6.843   2.984  1.00 20.00     0.014 A 
HETATM    5  C1  UNL     1     -35.215   6.262   3.972  1.00 20.00     0.007 A 
HETATM    6  C2  UNL     1     -34.297   7.377   4.389  1.00 20.00     0.007 A 
ENDBRANCH   3   4
ENDBRANCH   1   3
BRANCH   1   7
HETATM    7  C7  UNL     1     -32.256   8.140   1.681  1.00 20.00     0.230 C 
HETATM    8  C4  UNL     1     -31.165   8.395   2.715  1.00 20.00     0.043 C 
BRANCH   7   9
HETATM    9  C6  UNL     1     -32.038   8.882   0.362  1.00 20.00     0.149 C 
HETATM   10 CL9  UNL     1     -32.673  10.549   0.376  1.00 20.00    -0.128 Cl
ENDBRANCH   7   9
ENDBRANCH   1   7
TORSDOF 4
ENDMDL
MODEL 5
REMARK VINA RESULT:      -1.6      2.203      2.947
REMARK  4 active torsions:
REMARK  status: ('A' for Active; 'I' for Inactive)
REMARK    1  A    between atoms: C3_3  and  C5_5 
REMARK    2  A    between atoms: C5_5  and  N8_8 
REMARK    3  A    between atoms: C6_6  and  C7_7 
REMARK    4  A    between atoms: C7_7  and  N8_8 
ROOT
HETATM    1  N8  UNL     1     -33.110   5.303   2.528  1.00 20.00     0.089 N 
HETATM    2  H23 UNL     1     -32.109   5.154   2.673  1.00 20.00     0.316 HD
ENDROOT
BRANCH   1   3
HETATM    3  C5  UNL     1     -33.294   6.481   1.686  1.00 20.00     0.274 C 
BRANCH   3   4
HETATM    4  C3  UNL     1     -32.030   7.262   1.570  1.00 20.00     0.014 A 
HETATM    5  C1  UNL     1     -32.061   8.685   1.084  1.00 20.00     0.007 A 
HETATM    6  C2  UNL     1     -31.745   8.389   2.523  1.00 20.00     0.007 A 
ENDBRANCH   3   4
ENDBRANCH   1   3
BRANCH   1   7
HETATM    7  C7  UNL     1     -33.770   5.463   3.807  1.00 20.00     0.230 C 
HETATM    8  C4  UNL     1     -34.833   6.550   3.698  1.00 20.00     0.043 C 
BRANCH   7   9
HETATM    9  C6  UNL     1     -34.314   4.117   4.288  1.00 20.00     0.149 C 
HETATM   10 CL9  UNL     1     -33.040   2.988   4.819  1.00 20.00    -0.128 Cl
ENDBRANCH   7   9
ENDBRANCH   1   7
TORSDOF 4
ENDMDL
MODEL 6
REMARK VINA RESULT:      -1.5      1.436      1.759
REMARK  4 active torsions:
REMARK  status: ('A' for Active; 'I' for Inactive)
REMARK    1  A    between atoms: C3_3  and  C5_5 
REMARK    2  A    between atoms: C5_5  and  N8_8 
REMARK    3  A    between atoms: C6_6  and  C7_7 
REMARK    4  A    between atoms: C7_7  and  N8_8 
ROOT
HETATM    1  N8  UNL     1     -33.065   6.793   2.148  1.00 20.00     0.089 N 
HETATM    2  H23 UNL     1     -32.529   5.968   1.867  1.00 20.00     0.316 HD
ENDROOT
BRANCH   1   3
HETATM    3  C5  UNL     1     -32.235   7.979   1.963  1.00 20.00     0.274 C 
BRANCH   3   4
HETATM    4  C3  UNL     1     -32.637   8.732   0.741  1.00 20.00     0.014 A 
HETATM    5  C1  UNL     1     -32.622  10.235   0.739  1.00 20.00     0.007 A 
HETATM    6  C2  UNL     1     -31.607   9.472  -0.066  1.00 20.00     0.007 A 
ENDBRANCH   3   4
ENDBRANCH   1   3
BRANCH   1   7
HETATM    7  C7  UNL     1     -33.484   6.655   3.528  1.00 20.00     0.230 C 
HETATM    8  C4  UNL     1     -33.907   8.016   4.068  1.00 20.00     0.043 C 
BRANCH   7   9
HETATM    9  C6  UNL     1     -34.569   5.583   3.642  1.00 20.00     0.149 C 
HETATM   10 CL9  UNL     1     -33.939   3.990   4.137  1.00 20.00    -0.128 Cl
ENDBRANCH   7   9
ENDBRANCH   1   7
TORSDOF 4
ENDMDL
MODEL 7
REMARK VINA RESULT:      -1.5      2.385      4.569
REMARK  4 active torsions:
REMARK  status: ('A' for Active; 'I' for Inactive)
REMARK    1  A    between atoms: C3_3  and  C5_5 
REMARK    2  A    between atoms: C5_5  and  N8_8 
REMARK    3  A    between atoms: C6_6  and  C7_7 
REMARK    4  A    between atoms: C7_7  and  N8_8 
ROOT
HETATM    1  N8  UNL     1     -33.150   8.147   2.414  1.00 20.00     0.089 N 
HETATM    2  H23 UNL     1     -33.103   9.133   2.683  1.00 20.00     0.316 HD
ENDROOT
BRANCH   1   3
HETATM    3  C5  UNL     1     -33.427   7.348   3.604  1.00 20.00     0.274 C 
BRANCH   3   4
HETATM    4  C3  UNL     1     -34.470   6.319   3.331  1.00 20.00     0.014 A 
HETATM    5  C1  UNL     1     -34.389   4.967   3.983  1.00 20.00     0.007 A 
HETATM    6  C2  UNL     1     -35.457   5.939   4.400  1.00 20.00     0.007 A 
ENDBRANCH   3   4
ENDBRANCH   1   3
BRANCH   1   7
HETATM    7  C7  UNL     1     -31.902   7.751   1.794  1.00 20.00     0.230 C 
HETATM    8  C4  UNL     1     -31.982   6.285   1.383  1.00 20.00     0.043 C 
BRANCH   7   9
HETATM    9  C6  UNL     1     -31.568   8.696   0.638  1.00 20.00     0.149 C 
HETATM   10 CL9  UNL     1     -32.631  10.126   0.566  1.00 20.00    -0.128 Cl
ENDBRANCH   7   9
ENDBRANCH   1   7
TORSDOF 4
ENDMDL
MODEL 8
REMARK VINA RESULT:      -1.4      1.807      2.566
REMARK  4 active torsions:
REMARK  status: ('A' for Active; 'I' for Inactive)
REMARK    1  A    between atoms: C3_3  and  C5_5 
REMARK    2  A    between atoms: C5_5  and  N8_8 
REMARK    3  A    between atoms: C6_6  and  C7_7 
REMARK    4  A    between atoms: C7_7  and  N8_8 
ROOT
HETATM    1  N8  UNL     1     -32.974   5.745   2.982  1.00 20.00     0.089 N 
HETATM    2  H23 UNL     1     -32.792   6.572   3.556  1.00 20.00     0.316 HD
ENDROOT
BRANCH   1   3
HETATM    3  C5  UNL     1     -32.987   6.141   1.577  1.00 20.00     0.274 C 
BRANCH   3   4
HETATM    4  C3  UNL     1     -31.943   7.167   1.297  1.00 20.00     0.014 A 
HETATM    5  C1  UNL     1     -32.335   8.597   1.046  1.00 20.00     0.007 A 
HETATM    6  C2  UNL     1     -31.625   8.223   2.318  1.00 20.00     0.007 A 
ENDBRANCH   3   4
ENDBRANCH   1   3
BRANCH   1   7
HETATM    7  C7  UNL     1     -34.236   5.150   3.372  1.00 20.00     0.230 C 
HETATM    8  C4  UNL     1     -33.973   3.951   4.276  1.00 20.00     0.043 C 
BRANCH   7   9
HETATM    9  C6  UNL     1     -35.142   6.209   4.003  1.00 20.00     0.149 C 
HETATM   10 CL9  UNL     1     -34.285   7.717   4.415  1.00 20.00    -0.128 Cl
ENDBRANCH   7   9
ENDBRANCH   1   7
TORSDOF 4
ENDMDL
MODEL 9
REMARK VINA RESULT:      -1.2      1.913      4.266
REMARK  4 active torsions:
REMARK  status: ('A' for Active; 'I' for Inactive)
REMARK    1  A    between atoms: C3_3  and  C5_5 
REMARK    2  A    between atoms: C5_5  and  N8_8 
REMARK    3  A    between atoms: C6_6  and  C7_7 
REMARK    4  A    between atoms: C7_7  and  N8_8 
ROOT
HETATM    1  N8  UNL     1     -32.362   8.157   3.239  1.00 20.00     0.089 N 
HETATM    2  H23 UNL     1     -31.597   7.601   3.629  1.00 20.00     0.316 HD
ENDROOT
BRANCH   1   3
HETATM    3  C5  UNL     1     -33.580   7.871   3.990  1.00 20.00     0.274 C 
BRANCH   3   4
HETATM    4  C3  UNL     1     -34.337   6.742   3.380  1.00 20.00     0.014 A 
HETATM    5  C1  UNL     1     -34.314   5.381   4.020  1.00 20.00     0.007 A 
HETATM    6  C2  UNL     1     -35.571   6.206   4.051  1.00 20.00     0.007 A 
ENDBRANCH   3   4
ENDBRANCH   1   3
BRANCH   1   7
HETATM    7  C7  UNL     1     -32.525   7.845   1.834  1.00 20.00     0.230 C 
HETATM    8  C4  UNL     1     -32.346   9.114   1.009  1.00 20.00     0.043 C 
BRANCH   7   9
HETATM    9  C6  UNL     1     -31.577   6.713   1.435  1.00 20.00     0.149 C 
HETATM   10 CL9  UNL     1     -32.423   5.203   1.003  1.00 20.00    -0.128 Cl
ENDBRANCH   7   9
ENDBRANCH   1   7
TORSDOF 4
ENDMDL
