MODEL 1
REMARK VINA RESULT:      -2.7      0.000      0.000
REMARK  3 active torsions:
REMARK  status: ('A' for Active; 'I' for Inactive)
REMARK    1  A    between atoms: C1_1  and  C2_2 
REMARK    2  A    between atoms: C1_1  and  C3_3 
REMARK    3  A    between atoms: C2_2  and  C4_4 
ROOT
HETATM    1  C2  UNL     1     -34.035   6.782   2.123  1.00 20.00     0.196 C 
ENDROOT
BRANCH   1   2
HETATM    2  C1  UNL     1     -32.551   6.668   1.808  1.00 20.00     0.148 C 
HETATM    3  O5  UNL     1     -32.038   5.601   1.478  1.00 20.00    -0.296 OA
BRANCH   2   4
HETATM    4  C3  UNL     1     -31.770   7.959   1.923  1.00 20.00     0.193 C 
HETATM    5 CL9  UNL     1     -32.315   9.134   0.716  1.00 20.00    -0.123 Cl
ENDBRANCH   2   4
ENDBRANCH   1   2
BRANCH   1   6
HETATM    6  C4  UNL     1     -34.363   6.462   3.563  1.00 20.00     0.394 C 
HETATM    7  F6  UNL     1     -33.912   5.239   3.912  1.00 20.00    -0.171 F 
HETATM    8  F7  UNL     1     -35.702   6.472   3.754  1.00 20.00    -0.171 F 
HETATM    9  F8  UNL     1     -33.826   7.367   4.407  1.00 20.00    -0.171 F 
ENDBRANCH   1   6
TORSDOF 3
ENDMDL
MODEL 2
REMARK VINA RESULT:      -2.7      0.021      1.256
REMARK  3 active torsions:
REMARK  status: ('A' for Active; 'I' for Inactive)
REMARK    1  A    between atoms: C1_1  and  C2_2 
REMARK    2  A    between atoms: C1_1  and  C3_3 
REMARK    3  A    between atoms: C2_2  and  C4_4 
ROOT
HETATM    1  C2  UNL     1     -34.044   6.798   2.123  1.00 20.00     0.196 C 
ENDROOT
BRANCH   1   2
HETATM    2  C1  UNL     1     -32.563   6.663   1.803  1.00 20.00     0.148 C 
HETATM    3  O5  UNL     1     -32.066   5.589   1.470  1.00 20.00    -0.296 OA
BRANCH   2   4
HETATM    4  C3  UNL     1     -31.763   7.942   1.916  1.00 20.00     0.193 C 
HETATM    5 CL9  UNL     1     -32.320   9.140   0.737  1.00 20.00    -0.123 Cl
ENDBRANCH   2   4
ENDBRANCH   1   2
BRANCH   1   6
HETATM    6  C4  UNL     1     -34.375   6.455   3.557  1.00 20.00     0.394 C 
HETATM    7  F6  UNL     1     -35.709   6.453   3.770  1.00 20.00    -0.171 F 
HETATM    8  F7  UNL     1     -33.832   7.366   4.396  1.00 20.00    -0.171 F 
HETATM    9  F8  UNL     1     -33.892   5.244   3.902  1.00 20.00    -0.171 F 
ENDBRANCH   1   6
TORSDOF 3
ENDMDL
MODEL 3
REMARK VINA RESULT:      -2.7      0.016      1.263
REMARK  3 active torsions:
REMARK  status: ('A' for Active; 'I' for Inactive)
REMARK    1  A    between atoms: C1_1  and  C2_2 
REMARK    2  A    between atoms: C1_1  and  C3_3 
REMARK    3  A    between atoms: C2_2  and  C4_4 
ROOT
HETATM    1  C2  UNL     1     -34.040   6.782   2.117  1.00 20.00     0.196 C 
ENDROOT
BRANCH   1   2
HETATM    2  C1  UNL     1     -32.553   6.672   1.814  1.00 20.00     0.148 C 
HETATM    3  O5  UNL     1     -32.034   5.608   1.484  1.00 20.00    -0.296 OA
BRANCH   2   4
HETATM    4  C3  UNL     1     -31.775   7.965   1.939  1.00 20.00     0.193 C 
HETATM    5 CL9  UNL     1     -32.301   9.136   0.720  1.00 20.00    -0.123 Cl
ENDBRANCH   2   4
ENDBRANCH   1   2
BRANCH   1   6
HETATM    6  C4  UNL     1     -34.377   6.469   3.556  1.00 20.00     0.394 C 
HETATM    7  F6  UNL     1     -33.832   7.371   4.400  1.00 20.00    -0.171 F 
HETATM    8  F7  UNL     1     -33.898   5.252   3.897  1.00 20.00    -0.171 F 
HETATM    9  F8  UNL     1     -35.711   6.453   3.761  1.00 20.00    -0.171 F 
ENDBRANCH   1   6
TORSDOF 3
ENDMDL
MODEL 4
REMARK VINA RESULT:      -2.6      3.344      4.017
REMARK  3 active torsions:
REMARK  status: ('A' for Active; 'I' for Inactive)
REMARK    1  A    between atoms: C1_1  and  C2_2 
REMARK    2  A    between atoms: C1_1  and  C3_3 
REMARK    3  A    between atoms: C2_2  and  C4_4 
ROOT
HETATM    1  C2  UNL     1     -33.200   6.770   2.433  1.00 20.00     0.196 C 
ENDROOT
BRANCH   1   2
HETATM    2  C1  UNL     1     -34.057   7.071   3.653  1.00 20.00     0.148 C 
HETATM    3  O5  UNL     1     -33.894   8.085   4.327  1.00 20.00    -0.296 OA
BRANCH   2   4
HETATM    4  C3  UNL     1     -35.120   6.038   3.960  1.00 20.00     0.193 C 
HETATM    5 CL9  UNL     1     -34.394   4.442   4.208  1.00 20.00    -0.123 Cl
ENDBRANCH   2   4
ENDBRANCH   1   2
BRANCH   1   6
HETATM    6  C4  UNL     1     -32.202   7.862   2.124  1.00 20.00     0.394 C 
HETATM    7  F6  UNL     1     -32.780   8.886   1.461  1.00 20.00    -0.171 F 
HETATM    8  F7  UNL     1     -31.207   7.383   1.344  1.00 20.00    -0.171 F 
HETATM    9  F8  UNL     1     -31.639   8.352   3.248  1.00 20.00    -0.171 F 
ENDBRANCH   1   6
TORSDOF 3
ENDMDL
MODEL 5
REMARK VINA RESULT:      -2.5      3.296      3.934
REMARK  3 active torsions:
REMARK  status: ('A' for Active; 'I' for Inactive)
REMARK    1  A    between atoms: C1_1  and  C2_2 
REMARK    2  A    between atoms: C1_1  and  C3_3 
REMARK    3  A    between atoms: C2_2  and  C4_4 
ROOT
HETATM    1  C2  UNL     1     -33.227   6.681   2.399  1.00 20.00     0.196 C 
ENDROOT
BRANCH   1   2
HETATM    2  C1  UNL     1     -34.092   6.949   3.622  1.00 20.00     0.148 C 
HETATM    3  O5  UNL     1     -34.032   8.010   4.240  1.00 20.00    -0.296 OA
BRANCH   2   4
HETATM    4  C3  UNL     1     -35.026   5.822   4.006  1.00 20.00     0.193 C 
HETATM    5 CL9  UNL     1     -34.155   4.283   4.090  1.00 20.00    -0.123 Cl
ENDBRANCH   2   4
ENDBRANCH   1   2
BRANCH   1   6
HETATM    6  C4  UNL     1     -32.237   7.787   2.118  1.00 20.00     0.394 C 
HETATM    7  F6  UNL     1     -31.199   7.345   1.377  1.00 20.00    -0.171 F 
HETATM    8  F7  UNL     1     -31.734   8.273   3.275  1.00 20.00    -0.171 F 
HETATM    9  F8  UNL     1     -32.815   8.815   1.461  1.00 20.00    -0.171 F 
ENDBRANCH   1   6
TORSDOF 3
ENDMDL
MODEL 6
REMARK VINA RESULT:      -2.5      3.710      4.465
REMARK  3 active torsions:
REMARK  status: ('A' for Active; 'I' for Inactive)
REMARK    1  A    between atoms: C1_1  and  C2_2 
REMARK    2  A    between atoms: C1_1  and  C3_3 
REMARK    3  A    between atoms: C2_2  and  C4_4 
ROOT
HETATM    1  C2  UNL     1     -31.657   8.678   0.572  1.00 20.00     0.196 C 
ENDROOT
BRANCH   1   2
HETATM    2  C1  UNL     1     -32.035   8.025   1.893  1.00 20.00     0.148 C 
HETATM    3  O5  UNL     1     -31.682   8.493   2.974  1.00 20.00    -0.296 OA
BRANCH   2   4
HETATM    4  C3  UNL     1     -32.880   6.775   1.773  1.00 20.00     0.193 C 
HETATM    5 CL9  UNL     1     -33.926   6.583   3.188  1.00 20.00    -0.123 Cl
ENDBRANCH   2   4
ENDBRANCH   1   2
BRANCH   1   6
HETATM    6  C4  UNL     1     -32.524   9.865   0.226  1.00 20.00     0.394 C 
HETATM    7  F6  UNL     1     -33.186   9.673  -0.935  1.00 20.00    -0.171 F 
HETATM    8  F7  UNL     1     -31.766  10.976   0.083  1.00 20.00    -0.171 F 
HETATM    9  F8  UNL     1     -33.433  10.115   1.192  1.00 20.00    -0.171 F 
ENDBRANCH   1   6
TORSDOF 3
ENDMDL
MODEL 7
REMARK VINA RESULT:      -2.5      3.708      4.402
REMARK  3 active torsions:
REMARK  status: ('A' for Active; 'I' for Inactive)
REMARK    1  A    between atoms: C1_1  and  C2_2 
REMARK    2  A    between atoms: C1_1  and  C3_3 
REMARK    3  A    between atoms: C2_2  and  C4_4 
ROOT
HETATM    1  C2  UNL     1     -31.637   8.694   0.603  1.00 20.00     0.196 C 
ENDROOT
BRANCH   1   2
HETATM    2  C1  UNL     1     -32.039   8.033   1.913  1.00 20.00     0.148 C 
HETATM    3  O5  UNL     1     -31.699   8.490   3.003  1.00 20.00    -0.296 OA
BRANCH   2   4
HETATM    4  C3  UNL     1     -32.888   6.788   1.770  1.00 20.00     0.193 C 
HETATM    5 CL9  UNL     1     -33.928   6.570   3.187  1.00 20.00    -0.123 Cl
ENDBRANCH   2   4
ENDBRANCH   1   2
BRANCH   1   6
HETATM    6  C4  UNL     1     -32.512   9.871   0.239  1.00 20.00     0.394 C 
HETATM    7  F6  UNL     1     -33.437  10.113   1.192  1.00 20.00    -0.171 F 
HETATM    8  F7  UNL     1     -33.172   9.627  -0.916  1.00 20.00    -0.171 F 
HETATM    9  F8  UNL     1     -31.785  10.994   0.063  1.00 20.00    -0.171 F 
ENDBRANCH   1   6
TORSDOF 3
ENDMDL
MODEL 8
REMARK VINA RESULT:      -2.5      3.702      4.466
REMARK  3 active torsions:
REMARK  status: ('A' for Active; 'I' for Inactive)
REMARK    1  A    between atoms: C1_1  and  C2_2 
REMARK    2  A    between atoms: C1_1  and  C3_3 
REMARK    3  A    between atoms: C2_2  and  C4_4 
ROOT
HETATM    1  C2  UNL     1     -31.641   8.680   0.594  1.00 20.00     0.196 C 
ENDROOT
BRANCH   1   2
HETATM    2  C1  UNL     1     -32.038   8.028   1.910  1.00 20.00     0.148 C 
HETATM    3  O5  UNL     1     -31.693   8.492   2.995  1.00 20.00    -0.296 OA
BRANCH   2   4
HETATM    4  C3  UNL     1     -32.888   6.782   1.778  1.00 20.00     0.193 C 
HETATM    5 CL9  UNL     1     -33.933   6.581   3.194  1.00 20.00    -0.123 Cl
ENDBRANCH   2   4
ENDBRANCH   1   2
BRANCH   1   6
HETATM    6  C4  UNL     1     -32.512   9.860   0.230  1.00 20.00     0.394 C 
HETATM    7  F6  UNL     1     -31.783  10.988   0.093  1.00 20.00    -0.171 F 
HETATM    8  F7  UNL     1     -33.430  10.083   1.197  1.00 20.00    -0.171 F 
HETATM    9  F8  UNL     1     -33.179   9.648  -0.923  1.00 20.00    -0.171 F 
ENDBRANCH   1   6
TORSDOF 3
ENDMDL
MODEL 9
REMARK VINA RESULT:      -2.4      3.607      4.324
REMARK  3 active torsions:
REMARK  status: ('A' for Active; 'I' for Inactive)
REMARK    1  A    between atoms: C1_1  and  C2_2 
REMARK    2  A    between atoms: C1_1  and  C3_3 
REMARK    3  A    between atoms: C2_2  and  C4_4 
ROOT
HETATM    1  C2  UNL     1     -31.560   8.952   1.077  1.00 20.00     0.196 C 
ENDROOT
BRANCH   1   2
HETATM    2  C1  UNL     1     -32.296   7.860   1.839  1.00 20.00     0.148 C 
HETATM    3  O5  UNL     1     -32.558   6.774   1.327  1.00 20.00    -0.296 OA
BRANCH   2   4
HETATM    4  C3  UNL     1     -32.667   8.211   3.264  1.00 20.00     0.193 C 
HETATM    5 CL9  UNL     1     -34.103   7.313   3.780  1.00 20.00    -0.123 Cl
ENDBRANCH   2   4
ENDBRANCH   1   2
BRANCH   1   6
HETATM    6  C4  UNL     1     -32.486   9.877   0.323  1.00 20.00     0.394 C 
HETATM    7  F6  UNL     1     -32.993   9.282  -0.777  1.00 20.00    -0.171 F 
HETATM    8  F7  UNL     1     -31.820  10.982  -0.083  1.00 20.00    -0.171 F 
HETATM    9  F8  UNL     1     -33.517  10.284   1.094  1.00 20.00    -0.171 F 
ENDBRANCH   1   6
TORSDOF 3
ENDMDL
