MODEL 1
REMARK VINA RESULT:       0.3      0.000      0.000
REMARK  1 active torsions:
REMARK  status: ('A' for Active; 'I' for Inactive)
REMARK    1  A    between atoms: C1_1  and  N8_8 
ROOT
HETATM    1  C2  UNL     1     -33.126   7.770   3.534  1.00 20.00     0.008 C 
HETATM    2  C3  UNL     1     -34.048   7.380   4.710  1.00 20.00     0.026 C 
HETATM    3  C4  UNL     1     -35.165   6.904   2.671  1.00 20.00     0.031 C 
HETATM    4  C5  UNL     1     -33.304   5.432   2.642  1.00 20.00     0.130 C 
HETATM    5  C6  UNL     1     -33.659   6.905   2.372  1.00 20.00     0.006 C 
HETATM    6  C7  UNL     1     -34.973   6.328   4.075  1.00 20.00     0.087 C 
HETATM    7  N8  UNL     1     -34.150   5.149   3.793  1.00 20.00    -0.354 N 
ENDROOT
BRANCH   7   8
HETATM    8  C1  UNL     1     -34.124   3.996   4.532  1.00 20.00     0.351 C 
HETATM    9  O9  UNL     1     -33.201   3.195   4.616  1.00 20.00    -0.284 OA
ENDBRANCH   7   8
TORSDOF 1
ENDMDL
MODEL 2
REMARK VINA RESULT:       0.7      2.289      3.366
REMARK  1 active torsions:
REMARK  status: ('A' for Active; 'I' for Inactive)
REMARK    1  A    between atoms: C1_1  and  N8_8 
ROOT
HETATM    1  C2  UNL     1     -34.316   5.163   4.381  1.00 20.00     0.008 C 
HETATM    2  C3  UNL     1     -33.656   5.035   2.990  1.00 20.00     0.026 C 
HETATM    3  C4  UNL     1     -35.423   6.614   2.857  1.00 20.00     0.031 C 
HETATM    4  C5  UNL     1     -33.878   7.632   4.343  1.00 20.00     0.130 C 
HETATM    5  C6  UNL     1     -34.978   6.556   4.326  1.00 20.00     0.006 C 
HETATM    6  C7  UNL     1     -34.007   6.379   2.330  1.00 20.00     0.087 C 
HETATM    7  N8  UNL     1     -33.257   7.415   3.044  1.00 20.00    -0.354 N 
ENDROOT
BRANCH   7   8
HETATM    8  C1  UNL     1     -32.117   8.030   2.597  1.00 20.00     0.351 C 
HETATM    9  O9  UNL     1     -31.696   8.057   1.447  1.00 20.00    -0.284 OA
ENDBRANCH   7   8
TORSDOF 1
ENDMDL
MODEL 3
REMARK VINA RESULT:       0.7      3.646      4.578
REMARK  1 active torsions:
REMARK  status: ('A' for Active; 'I' for Inactive)
REMARK    1  A    between atoms: C1_1  and  N8_8 
ROOT
HETATM    1  C2  UNL     1     -33.810   6.614   2.811  1.00 20.00     0.008 C 
HETATM    2  C3  UNL     1     -32.967   7.819   3.285  1.00 20.00     0.026 C 
HETATM    3  C4  UNL     1     -31.602   6.406   1.954  1.00 20.00     0.031 C 
HETATM    4  C5  UNL     1     -33.250   7.181   0.432  1.00 20.00     0.130 C 
HETATM    5  C6  UNL     1     -33.059   6.139   1.549  1.00 20.00     0.006 C 
HETATM    6  C7  UNL     1     -31.859   7.890   2.221  1.00 20.00     0.087 C 
HETATM    7  N8  UNL     1     -32.494   8.304   0.968  1.00 20.00    -0.354 N 
ENDROOT
BRANCH   7   8
HETATM    8  C1  UNL     1     -32.447   9.560   0.424  1.00 20.00     0.351 C 
HETATM    9  O9  UNL     1     -32.928   9.919  -0.644  1.00 20.00    -0.284 OA
ENDBRANCH   7   8
TORSDOF 1
ENDMDL
MODEL 4
REMARK VINA RESULT:       1.0      2.752      3.497
REMARK  1 active torsions:
REMARK  status: ('A' for Active; 'I' for Inactive)
REMARK    1  A    between atoms: C1_1  and  N8_8 
ROOT
HETATM    1  C2  UNL     1     -35.271   6.645   3.391  1.00 20.00     0.008 C 
HETATM    2  C3  UNL     1     -34.439   7.809   3.975  1.00 20.00     0.026 C 
HETATM    3  C4  UNL     1     -33.168   5.810   4.120  1.00 20.00     0.031 C 
HETATM    4  C5  UNL     1     -33.411   6.146   1.784  1.00 20.00     0.130 C 
HETATM    5  C6  UNL     1     -34.195   5.612   2.995  1.00 20.00     0.006 C 
HETATM    6  C7  UNL     1     -32.996   7.299   3.818  1.00 20.00     0.087 C 
HETATM    7  N8  UNL     1     -32.707   7.272   2.382  1.00 20.00    -0.354 N 
ENDROOT
BRANCH   7   8
HETATM    8  C1  UNL     1     -31.957   8.192   1.698  1.00 20.00     0.351 C 
HETATM    9  O9  UNL     1     -32.368   9.054   0.931  1.00 20.00    -0.284 OA
ENDBRANCH   7   8
TORSDOF 1
ENDMDL
MODEL 5
REMARK VINA RESULT:       1.0      1.874      2.978
REMARK  1 active torsions:
REMARK  status: ('A' for Active; 'I' for Inactive)
REMARK    1  A    between atoms: C1_1  and  N8_8 
ROOT
HETATM    1  C2  UNL     1     -32.568   8.012   0.705  1.00 20.00     0.008 C 
HETATM    2  C3  UNL     1     -33.578   6.845   0.647  1.00 20.00     0.026 C 
HETATM    3  C4  UNL     1     -31.706   6.173   1.941  1.00 20.00     0.031 C 
HETATM    4  C5  UNL     1     -32.655   7.939   3.211  1.00 20.00     0.130 C 
HETATM    5  C6  UNL     1     -31.757   7.707   1.983  1.00 20.00     0.006 C 
HETATM    6  C7  UNL     1     -33.229   6.038   1.909  1.00 20.00     0.087 C 
HETATM    7  N8  UNL     1     -33.617   6.856   3.060  1.00 20.00    -0.354 N 
ENDROOT
BRANCH   7   8
HETATM    8  C1  UNL     1     -34.738   6.678   3.827  1.00 20.00     0.351 C 
HETATM    9  O9  UNL     1     -35.260   5.613   4.134  1.00 20.00    -0.284 OA
ENDBRANCH   7   8
TORSDOF 1
ENDMDL
MODEL 6
REMARK VINA RESULT:       1.0      2.235      3.122
REMARK  1 active torsions:
REMARK  status: ('A' for Active; 'I' for Inactive)
REMARK    1  A    between atoms: C1_1  and  N8_8 
ROOT
HETATM    1  C2  UNL     1     -31.576   5.789   1.618  1.00 20.00     0.008 C 
HETATM    2  C3  UNL     1     -31.570   7.319   1.831  1.00 20.00     0.026 C 
HETATM    3  C4  UNL     1     -33.628   6.692   0.830  1.00 20.00     0.031 C 
HETATM    4  C5  UNL     1     -33.695   5.629   2.950  1.00 20.00     0.130 C 
HETATM    5  C6  UNL     1     -33.080   5.452   1.551  1.00 20.00     0.006 C 
HETATM    6  C7  UNL     1     -33.070   7.655   1.879  1.00 20.00     0.087 C 
HETATM    7  N8  UNL     1     -33.599   7.073   3.115  1.00 20.00    -0.354 N 
ENDROOT
BRANCH   7   8
HETATM    8  C1  UNL     1     -33.888   7.761   4.264  1.00 20.00     0.351 C 
HETATM    9  O9  UNL     1     -33.089   8.181   5.093  1.00 20.00    -0.284 OA
ENDBRANCH   7   8
TORSDOF 1
ENDMDL
MODEL 7
REMARK VINA RESULT:       1.4      0.729      2.003
REMARK  1 active torsions:
REMARK  status: ('A' for Active; 'I' for Inactive)
REMARK    1  A    between atoms: C1_1  and  N8_8 
ROOT
HETATM    1  C2  UNL     1     -35.187   6.835   2.438  1.00 20.00     0.008 C 
HETATM    2  C3  UNL     1     -33.789   6.262   2.118  1.00 20.00     0.026 C 
HETATM    3  C4  UNL     1     -33.782   7.102   4.337  1.00 20.00     0.031 C 
HETATM    4  C5  UNL     1     -35.337   5.312   4.425  1.00 20.00     0.130 C 
HETATM    5  C6  UNL     1     -35.241   6.782   3.979  1.00 20.00     0.006 C 
HETATM    6  C7  UNL     1     -33.234   5.935   3.515  1.00 20.00     0.087 C 
HETATM    7  N8  UNL     1     -34.024   4.817   4.037  1.00 20.00    -0.354 N 
ENDROOT
BRANCH   7   8
HETATM    8  C1  UNL     1     -33.623   3.508   4.088  1.00 20.00     0.351 C 
HETATM    9  O9  UNL     1     -33.051   2.947   5.015  1.00 20.00    -0.284 OA
ENDBRANCH   7   8
TORSDOF 1
ENDMDL
MODEL 8
REMARK VINA RESULT:       1.8      2.664      3.739
REMARK  1 active torsions:
REMARK  status: ('A' for Active; 'I' for Inactive)
REMARK    1  A    between atoms: C1_1  and  N8_8 
ROOT
HETATM    1  C2  UNL     1     -32.760   9.487   1.208  1.00 20.00     0.008 C 
HETATM    2  C3  UNL     1     -31.829   8.579   0.375  1.00 20.00     0.026 C 
HETATM    3  C4  UNL     1     -31.199   8.435   2.658  1.00 20.00     0.031 C 
HETATM    4  C5  UNL     1     -33.386   7.515   2.626  1.00 20.00     0.130 C 
HETATM    5  C6  UNL     1     -32.669   8.877   2.622  1.00 20.00     0.006 C 
HETATM    6  C7  UNL     1     -31.344   7.556   1.415  1.00 20.00     0.087 C 
HETATM    7  N8  UNL     1     -32.500   6.732   1.776  1.00 20.00    -0.354 N 
ENDROOT
BRANCH   7   8
HETATM    8  C1  UNL     1     -32.747   5.460   1.332  1.00 20.00     0.351 C 
HETATM    9  O9  UNL     1     -32.002   4.756   0.661  1.00 20.00    -0.284 OA
ENDBRANCH   7   8
TORSDOF 1
ENDMDL
MODEL 9
REMARK VINA RESULT:       1.9      1.771      2.785
REMARK  1 active torsions:
REMARK  status: ('A' for Active; 'I' for Inactive)
REMARK    1  A    between atoms: C1_1  and  N8_8 
ROOT
HETATM    1  C2  UNL     1     -35.829   6.132   3.848  1.00 20.00     0.008 C 
HETATM    2  C3  UNL     1     -35.424   7.246   2.859  1.00 20.00     0.026 C 
HETATM    3  C4  UNL     1     -33.790   7.114   4.575  1.00 20.00     0.031 C 
HETATM    4  C5  UNL     1     -33.613   5.018   3.476  1.00 20.00     0.130 C 
HETATM    5  C6  UNL     1     -34.489   5.748   4.510  1.00 20.00     0.006 C 
HETATM    6  C7  UNL     1     -33.902   7.339   3.066  1.00 20.00     0.087 C 
HETATM    7  N8  UNL     1     -33.323   6.099   2.544  1.00 20.00    -0.354 N 
ENDROOT
BRANCH   7   8
HETATM    8  C1  UNL     1     -32.677   5.960   1.344  1.00 20.00     0.351 C 
HETATM    9  O9  UNL     1     -31.694   5.266   1.112  1.00 20.00    -0.284 OA
ENDBRANCH   7   8
TORSDOF 1
ENDMDL
