MODEL 1
REMARK VINA RESULT:      -0.0      0.000      0.000
REMARK  3 active torsions:
REMARK  status: ('A' for Active; 'I' for Inactive)
REMARK    1  A    between atoms: C5_5  and  C7_7 
REMARK    2  A    between atoms: C5_5  and  C8_8 
REMARK    3  A    between atoms: C8_8  and  O9_9 
ROOT
HETATM    1  C1  UNL     1     -33.758   7.946   4.537  1.00 20.00     0.001 C 
HETATM    2  C2  UNL     1     -34.626   7.009   3.697  1.00 20.00     0.001 C 
HETATM    3  C3  UNL     1     -32.403   8.013   3.837  1.00 20.00     0.011 C 
HETATM    4  C4  UNL     1     -33.755   6.556   2.528  1.00 20.00     0.011 C 
HETATM    5  C5  UNL     1     -32.691   7.652   2.373  1.00 20.00    -0.019 C 
ENDROOT
BRANCH   5   6
HETATM    6  C7  UNL     1     -33.244   8.861   1.600  1.00 20.00     0.007 C 
HETATM    7  C6  UNL     1     -32.259   9.371   0.601  1.00 20.00     0.006 C 
ENDBRANCH   5   6
BRANCH   5   8
HETATM    8  C8  UNL     1     -31.441   7.129   1.664  1.00 20.00     0.173 C 
BRANCH   8   9
HETATM    9  O9  UNL     1     -31.668   5.781   1.311  1.00 20.00    -0.400 OA
HETATM   10  H25 UNL     1     -30.802   5.338   1.287  1.00 20.00     0.209 HD
ENDBRANCH   8   9
ENDBRANCH   5   8
TORSDOF 3
ENDMDL
MODEL 2
REMARK VINA RESULT:       0.1      1.719      2.283
REMARK  3 active torsions:
REMARK  status: ('A' for Active; 'I' for Inactive)
REMARK    1  A    between atoms: C5_5  and  C7_7 
REMARK    2  A    between atoms: C5_5  and  C8_8 
REMARK    3  A    between atoms: C8_8  and  O9_9 
ROOT
HETATM    1  C1  UNL     1     -33.880   6.164   2.556  1.00 20.00     0.001 C 
HETATM    2  C2  UNL     1     -32.879   5.687   1.504  1.00 20.00     0.001 C 
HETATM    3  C3  UNL     1     -33.249   7.383   3.223  1.00 20.00     0.011 C 
HETATM    4  C4  UNL     1     -31.691   6.642   1.583  1.00 20.00     0.011 C 
HETATM    5  C5  UNL     1     -32.256   7.934   2.190  1.00 20.00    -0.019 C 
ENDROOT
BRANCH   5   6
HETATM    6  C7  UNL     1     -32.972   8.783   1.127  1.00 20.00     0.007 C 
HETATM    7  C6  UNL     1     -32.004   9.577   0.315  1.00 20.00     0.006 C 
ENDBRANCH   5   6
BRANCH   5   8
HETATM    8  C8  UNL     1     -31.161   8.773   2.851  1.00 20.00     0.173 C 
BRANCH   8   9
HETATM    9  O9  UNL     1     -31.513   8.967   4.204  1.00 20.00    -0.400 OA
HETATM   10  H25 UNL     1     -32.396   9.376   4.218  1.00 20.00     0.209 HD
ENDBRANCH   8   9
ENDBRANCH   5   8
TORSDOF 3
ENDMDL
MODEL 3
REMARK VINA RESULT:       0.1      2.359      3.927
REMARK  3 active torsions:
REMARK  status: ('A' for Active; 'I' for Inactive)
REMARK    1  A    between atoms: C5_5  and  C7_7 
REMARK    2  A    between atoms: C5_5  and  C8_8 
REMARK    3  A    between atoms: C8_8  and  O9_9 
ROOT
HETATM    1  C1  UNL     1     -32.276   7.592   2.624  1.00 20.00     0.001 C 
HETATM    2  C2  UNL     1     -32.527   6.521   1.563  1.00 20.00     0.001 C 
HETATM    3  C3  UNL     1     -33.490   7.567   3.550  1.00 20.00     0.011 C 
HETATM    4  C4  UNL     1     -33.880   5.898   1.898  1.00 20.00     0.011 C 
HETATM    5  C5  UNL     1     -34.079   6.158   3.398  1.00 20.00    -0.019 C 
ENDROOT
BRANCH   5   6
HETATM    6  C7  UNL     1     -33.305   5.136   4.248  1.00 20.00     0.007 C 
HETATM    7  C6  UNL     1     -33.612   3.735   3.836  1.00 20.00     0.006 C 
ENDBRANCH   5   6
BRANCH   5   8
HETATM    8  C8  UNL     1     -35.558   6.119   3.785  1.00 20.00     0.173 C 
BRANCH   8   9
HETATM    9  O9  UNL     1     -35.742   5.072   4.714  1.00 20.00    -0.400 OA
HETATM   10  H25 UNL     1     -36.498   5.314   5.278  1.00 20.00     0.209 HD
ENDBRANCH   8   9
ENDBRANCH   5   8
TORSDOF 3
ENDMDL
MODEL 4
REMARK VINA RESULT:       0.1      1.678      2.435
REMARK  3 active torsions:
REMARK  status: ('A' for Active; 'I' for Inactive)
REMARK    1  A    between atoms: C5_5  and  C7_7 
REMARK    2  A    between atoms: C5_5  and  C8_8 
REMARK    3  A    between atoms: C8_8  and  O9_9 
ROOT
HETATM    1  C1  UNL     1     -35.310   6.170   3.924  1.00 20.00     0.001 C 
HETATM    2  C2  UNL     1     -34.414   4.934   3.990  1.00 20.00     0.001 C 
HETATM    3  C3  UNL     1     -34.427   7.310   3.422  1.00 20.00     0.011 C 
HETATM    4  C4  UNL     1     -33.032   5.383   3.523  1.00 20.00     0.011 C 
HETATM    5  C5  UNL     1     -33.288   6.624   2.654  1.00 20.00    -0.019 C 
ENDROOT
BRANCH   5   6
HETATM    6  C7  UNL     1     -33.731   6.230   1.235  1.00 20.00     0.007 C 
HETATM    7  C6  UNL     1     -32.826   5.200   0.644  1.00 20.00     0.006 C 
ENDBRANCH   5   6
BRANCH   5   8
HETATM    8  C8  UNL     1     -32.049   7.516   2.567  1.00 20.00     0.173 C 
BRANCH   8   9
HETATM    9  O9  UNL     1     -32.252   8.449   1.527  1.00 20.00    -0.400 OA
HETATM   10  H25 UNL     1     -32.563   7.952   0.749  1.00 20.00     0.209 HD
ENDBRANCH   8   9
ENDBRANCH   5   8
TORSDOF 3
ENDMDL
MODEL 5
REMARK VINA RESULT:       0.2      1.538      2.799
REMARK  3 active torsions:
REMARK  status: ('A' for Active; 'I' for Inactive)
REMARK    1  A    between atoms: C5_5  and  C7_7 
REMARK    2  A    between atoms: C5_5  and  C8_8 
REMARK    3  A    between atoms: C8_8  and  O9_9 
ROOT
HETATM    1  C1  UNL     1     -34.317   4.500   4.292  1.00 20.00     0.001 C 
HETATM    2  C2  UNL     1     -35.481   5.486   4.391  1.00 20.00     0.001 C 
HETATM    3  C3  UNL     1     -33.394   5.040   3.201  1.00 20.00     0.011 C 
HETATM    4  C4  UNL     1     -35.206   6.575   3.358  1.00 20.00     0.011 C 
HETATM    5  C5  UNL     1     -33.687   6.545   3.139  1.00 20.00    -0.019 C 
ENDROOT
BRANCH   5   6
HETATM    6  C7  UNL     1     -32.947   7.303   4.255  1.00 20.00     0.007 C 
HETATM    7  C6  UNL     1     -33.815   8.346   4.878  1.00 20.00     0.006 C 
ENDBRANCH   5   6
BRANCH   5   8
HETATM    8  C8  UNL     1     -33.300   7.141   1.784  1.00 20.00     0.173 C 
BRANCH   8   9
HETATM    9  O9  UNL     1     -32.007   7.694   1.901  1.00 20.00    -0.400 OA
HETATM   10  H25 UNL     1     -31.956   8.444   1.281  1.00 20.00     0.209 HD
ENDBRANCH   8   9
ENDBRANCH   5   8
TORSDOF 3
ENDMDL
MODEL 6
REMARK VINA RESULT:       0.2      1.740      2.674
REMARK  3 active torsions:
REMARK  status: ('A' for Active; 'I' for Inactive)
REMARK    1  A    between atoms: C5_5  and  C7_7 
REMARK    2  A    between atoms: C5_5  and  C8_8 
REMARK    3  A    between atoms: C8_8  and  O9_9 
ROOT
HETATM    1  C1  UNL     1     -34.055   7.432   3.810  1.00 20.00     0.001 C 
HETATM    2  C2  UNL     1     -32.780   7.981   4.450  1.00 20.00     0.001 C 
HETATM    3  C3  UNL     1     -33.936   7.716   2.314  1.00 20.00     0.011 C 
HETATM    4  C4  UNL     1     -31.949   8.568   3.312  1.00 20.00     0.011 C 
HETATM    5  C5  UNL     1     -32.428   7.837   2.049  1.00 20.00    -0.019 C 
ENDROOT
BRANCH   5   6
HETATM    6  C7  UNL     1     -31.772   6.452   1.924  1.00 20.00     0.007 C 
HETATM    7  C6  UNL     1     -32.653   5.491   1.197  1.00 20.00     0.006 C 
ENDBRANCH   5   6
BRANCH   5   8
HETATM    8  C8  UNL     1     -32.141   8.648   0.785  1.00 20.00     0.173 C 
BRANCH   8   9
HETATM    9  O9  UNL     1     -32.667   9.946   0.966  1.00 20.00    -0.400 OA
HETATM   10  H25 UNL     1     -33.159   9.944   1.807  1.00 20.00     0.209 HD
ENDBRANCH   8   9
ENDBRANCH   5   8
TORSDOF 3
ENDMDL
MODEL 7
REMARK VINA RESULT:       0.3      1.650      3.406
REMARK  3 active torsions:
REMARK  status: ('A' for Active; 'I' for Inactive)
REMARK    1  A    between atoms: C5_5  and  C7_7 
REMARK    2  A    between atoms: C5_5  and  C8_8 
REMARK    3  A    between atoms: C8_8  and  O9_9 
ROOT
HETATM    1  C1  UNL     1     -31.133   8.699   0.343  1.00 20.00     0.001 C 
HETATM    2  C2  UNL     1     -32.431   9.503   0.276  1.00 20.00     0.001 C 
HETATM    3  C3  UNL     1     -31.127   8.011   1.706  1.00 20.00     0.011 C 
HETATM    4  C4  UNL     1     -33.150   9.261   1.601  1.00 20.00     0.011 C 
HETATM    5  C5  UNL     1     -32.605   7.920   2.113  1.00 20.00    -0.019 C 
ENDROOT
BRANCH   5   6
HETATM    6  C7  UNL     1     -33.301   6.735   1.425  1.00 20.00     0.007 C 
HETATM    7  C6  UNL     1     -32.441   5.515   1.430  1.00 20.00     0.006 C 
ENDBRANCH   5   6
BRANCH   5   8
HETATM    8  C8  UNL     1     -32.765   7.789   3.629  1.00 20.00     0.173 C 
BRANCH   8   9
HETATM    9  O9  UNL     1     -34.115   7.476   3.902  1.00 20.00    -0.400 OA
HETATM   10  H25 UNL     1     -34.565   7.363   3.046  1.00 20.00     0.209 HD
ENDBRANCH   8   9
ENDBRANCH   5   8
TORSDOF 3
ENDMDL
MODEL 8
REMARK VINA RESULT:       0.4      2.002      3.468
REMARK  3 active torsions:
REMARK  status: ('A' for Active; 'I' for Inactive)
REMARK    1  A    between atoms: C5_5  and  C7_7 
REMARK    2  A    between atoms: C5_5  and  C8_8 
REMARK    3  A    between atoms: C8_8  and  O9_9 
ROOT
HETATM    1  C1  UNL     1     -32.270   7.654   1.659  1.00 20.00     0.001 C 
HETATM    2  C2  UNL     1     -32.132   6.134   1.744  1.00 20.00     0.001 C 
HETATM    3  C3  UNL     1     -33.612   7.996   2.303  1.00 20.00     0.011 C 
HETATM    4  C4  UNL     1     -33.395   5.629   2.437  1.00 20.00     0.011 C 
HETATM    5  C5  UNL     1     -33.910   6.825   3.251  1.00 20.00    -0.019 C 
ENDROOT
BRANCH   5   6
HETATM    6  C7  UNL     1     -33.142   6.971   4.575  1.00 20.00     0.007 C 
HETATM    7  C6  UNL     1     -33.258   8.352   5.127  1.00 20.00     0.006 C 
ENDBRANCH   5   6
BRANCH   5   8
HETATM    8  C8  UNL     1     -35.406   6.704   3.546  1.00 20.00     0.173 C 
BRANCH   8   9
HETATM    9  O9  UNL     1     -35.606   5.548   4.332  1.00 20.00    -0.400 OA
HETATM   10  H25 UNL     1     -34.851   4.954   4.171  1.00 20.00     0.209 HD
ENDBRANCH   8   9
ENDBRANCH   5   8
TORSDOF 3
ENDMDL
MODEL 9
REMARK VINA RESULT:       0.4      1.564      3.006
REMARK  3 active torsions:
REMARK  status: ('A' for Active; 'I' for Inactive)
REMARK    1  A    between atoms: C5_5  and  C7_7 
REMARK    2  A    between atoms: C5_5  and  C8_8 
REMARK    3  A    between atoms: C8_8  and  O9_9 
ROOT
HETATM    1  C1  UNL     1     -31.545   5.687   1.584  1.00 20.00     0.001 C 
HETATM    2  C2  UNL     1     -33.054   5.489   1.441  1.00 20.00     0.001 C 
HETATM    3  C3  UNL     1     -31.307   7.194   1.537  1.00 20.00     0.011 C 
HETATM    4  C4  UNL     1     -33.657   6.885   1.317  1.00 20.00     0.011 C 
HETATM    5  C5  UNL     1     -32.636   7.822   1.980  1.00 20.00    -0.019 C 
ENDROOT
BRANCH   5   6
HETATM    6  C7  UNL     1     -32.777   7.807   3.511  1.00 20.00     0.007 C 
HETATM    7  C6  UNL     1     -34.172   7.482   3.931  1.00 20.00     0.006 C 
ENDBRANCH   5   6
BRANCH   5   8
HETATM    8  C8  UNL     1     -32.778   9.259   1.474  1.00 20.00     0.173 C 
BRANCH   8   9
HETATM    9  O9  UNL     1     -32.148   9.345   0.214  1.00 20.00    -0.400 OA
HETATM   10  H25 UNL     1     -31.589  10.142   0.223  1.00 20.00     0.209 HD
ENDBRANCH   8   9
ENDBRANCH   5   8
TORSDOF 3
ENDMDL
