MODEL 1
REMARK VINA RESULT:      -0.7      0.000      0.000
REMARK  1 active torsions:
REMARK  status: ('A' for Active; 'I' for Inactive)
REMARK    1  A    between atoms: C1_1  and  N8_8 
ROOT
HETATM    1  C2  UNL     1     -34.429   6.560   3.618  1.00 20.00     0.022 C 
HETATM    2  C3  UNL     1     -33.732   5.358   2.989  1.00 20.00     0.032 C 
HETATM    3  C4  UNL     1     -33.388   7.658   3.484  1.00 20.00     0.126 C 
HETATM    4  C5  UNL     1     -32.946   5.963   1.803  1.00 20.00     0.027 C 
HETATM    5  C6  UNL     1     -31.649   5.177   1.578  1.00 20.00     0.038 C 
HETATM    6  C7  UNL     1     -33.796   5.953   0.525  1.00 20.00     0.038 C 
HETATM    7  N8  UNL     1     -32.693   7.347   2.246  1.00 20.00    -0.351 N 
ENDROOT
BRANCH   7   8
HETATM    8  C1  UNL     1     -31.927   8.276   1.576  1.00 20.00     0.351 C 
HETATM    9  O9  UNL     1     -32.327   9.151   0.816  1.00 20.00    -0.284 OA
ENDBRANCH   7   8
TORSDOF 1
ENDMDL
MODEL 2
REMARK VINA RESULT:       0.1      1.927      3.000
REMARK  1 active torsions:
REMARK  status: ('A' for Active; 'I' for Inactive)
REMARK    1  A    between atoms: C1_1  and  N8_8 
ROOT
HETATM    1  C2  UNL     1     -31.847   8.211   2.470  1.00 20.00     0.022 C 
HETATM    2  C3  UNL     1     -32.074   7.503   1.139  1.00 20.00     0.032 C 
HETATM    3  C4  UNL     1     -33.117   7.891   3.239  1.00 20.00     0.126 C 
HETATM    4  C5  UNL     1     -32.799   6.195   1.532  1.00 20.00     0.027 C 
HETATM    5  C6  UNL     1     -33.773   5.781   0.424  1.00 20.00     0.038 C 
HETATM    6  C7  UNL     1     -31.788   5.069   1.791  1.00 20.00     0.038 C 
HETATM    7  N8  UNL     1     -33.493   6.565   2.779  1.00 20.00    -0.351 N 
ENDROOT
BRANCH   7   8
HETATM    8  C1  UNL     1     -34.370   5.763   3.477  1.00 20.00     0.351 C 
HETATM    9  O9  UNL     1     -35.366   6.123   4.095  1.00 20.00    -0.284 OA
ENDBRANCH   7   8
TORSDOF 1
ENDMDL
MODEL 3
REMARK VINA RESULT:       0.1      2.683      3.945
REMARK  1 active torsions:
REMARK  status: ('A' for Active; 'I' for Inactive)
REMARK    1  A    between atoms: C1_1  and  N8_8 
ROOT
HETATM    1  C2  UNL     1     -32.949   6.404   1.461  1.00 20.00     0.022 C 
HETATM    2  C3  UNL     1     -33.205   7.527   2.461  1.00 20.00     0.032 C 
HETATM    3  C4  UNL     1     -32.860   5.177   2.352  1.00 20.00     0.126 C 
HETATM    4  C5  UNL     1     -34.140   6.883   3.511  1.00 20.00     0.027 C 
HETATM    5  C6  UNL     1     -33.870   7.485   4.894  1.00 20.00     0.038 C 
HETATM    6  C7  UNL     1     -35.613   7.088   3.127  1.00 20.00     0.038 C 
HETATM    7  N8  UNL     1     -33.781   5.454   3.441  1.00 20.00    -0.351 N 
ENDROOT
BRANCH   7   8
HETATM    8  C1  UNL     1     -34.268   4.464   4.266  1.00 20.00     0.351 C 
HETATM    9  O9  UNL     1     -33.809   3.337   4.416  1.00 20.00    -0.284 OA
ENDBRANCH   7   8
TORSDOF 1
ENDMDL
MODEL 4
REMARK VINA RESULT:       0.2      1.956      3.196
REMARK  1 active torsions:
REMARK  status: ('A' for Active; 'I' for Inactive)
REMARK    1  A    between atoms: C1_1  and  N8_8 
ROOT
HETATM    1  C2  UNL     1     -32.312   5.737   1.044  1.00 20.00     0.022 C 
HETATM    2  C3  UNL     1     -31.346   6.874   1.363  1.00 20.00     0.032 C 
HETATM    3  C4  UNL     1     -33.159   5.656   2.301  1.00 20.00     0.126 C 
HETATM    4  C5  UNL     1     -32.210   7.885   2.151  1.00 20.00     0.027 C 
HETATM    5  C6  UNL     1     -31.349   8.613   3.190  1.00 20.00     0.038 C 
HETATM    6  C7  UNL     1     -32.860   8.901   1.202  1.00 20.00     0.038 C 
HETATM    7  N8  UNL     1     -33.235   7.028   2.774  1.00 20.00    -0.351 N 
ENDROOT
BRANCH   7   8
HETATM    8  C1  UNL     1     -34.192   7.447   3.672  1.00 20.00     0.351 C 
HETATM    9  O9  UNL     1     -35.135   6.793   4.105  1.00 20.00    -0.284 OA
ENDBRANCH   7   8
TORSDOF 1
ENDMDL
MODEL 5
REMARK VINA RESULT:       0.2      0.940      2.741
REMARK  1 active torsions:
REMARK  status: ('A' for Active; 'I' for Inactive)
REMARK    1  A    between atoms: C1_1  and  N8_8 
ROOT
HETATM    1  C2  UNL     1     -33.900   5.191   3.375  1.00 20.00     0.022 C 
HETATM    2  C3  UNL     1     -34.777   6.343   3.856  1.00 20.00     0.032 C 
HETATM    3  C4  UNL     1     -33.147   5.808   2.210  1.00 20.00     0.126 C 
HETATM    4  C5  UNL     1     -33.878   7.589   3.688  1.00 20.00     0.027 C 
HETATM    5  C6  UNL     1     -34.734   8.811   3.337  1.00 20.00     0.038 C 
HETATM    6  C7  UNL     1     -33.076   7.859   4.969  1.00 20.00     0.038 C 
HETATM    7  N8  UNL     1     -32.978   7.201   2.586  1.00 20.00    -0.351 N 
ENDROOT
BRANCH   7   8
HETATM    8  C1  UNL     1     -32.046   8.020   1.985  1.00 20.00     0.351 C 
HETATM    9  O9  UNL     1     -32.222   8.747   1.013  1.00 20.00    -0.284 OA
ENDBRANCH   7   8
TORSDOF 1
ENDMDL
MODEL 6
REMARK VINA RESULT:       0.3      1.545      3.044
REMARK  1 active torsions:
REMARK  status: ('A' for Active; 'I' for Inactive)
REMARK    1  A    between atoms: C1_1  and  N8_8 
ROOT
HETATM    1  C2  UNL     1     -34.052   4.244   4.551  1.00 20.00     0.022 C 
HETATM    2  C3  UNL     1     -35.209   5.239   4.555  1.00 20.00     0.032 C 
HETATM    3  C4  UNL     1     -33.482   4.400   3.152  1.00 20.00     0.126 C 
HETATM    4  C5  UNL     1     -34.675   6.433   3.732  1.00 20.00     0.027 C 
HETATM    5  C6  UNL     1     -35.824   7.101   2.968  1.00 20.00     0.038 C 
HETATM    6  C7  UNL     1     -33.985   7.458   4.645  1.00 20.00     0.038 C 
HETATM    7  N8  UNL     1     -33.694   5.801   2.830  1.00 20.00    -0.351 N 
ENDROOT
BRANCH   7   8
HETATM    8  C1  UNL     1     -33.011   6.437   1.816  1.00 20.00     0.351 C 
HETATM    9  O9  UNL     1     -32.338   7.458   1.907  1.00 20.00    -0.284 OA
ENDBRANCH   7   8
TORSDOF 1
ENDMDL
MODEL 7
REMARK VINA RESULT:       0.4      1.720      2.784
REMARK  1 active torsions:
REMARK  status: ('A' for Active; 'I' for Inactive)
REMARK    1  A    between atoms: C1_1  and  N8_8 
ROOT
HETATM    1  C2  UNL     1     -33.495   8.430   3.975  1.00 20.00     0.022 C 
HETATM    2  C3  UNL     1     -34.183   7.316   4.758  1.00 20.00     0.032 C 
HETATM    3  C4  UNL     1     -32.660   7.663   2.966  1.00 20.00     0.126 C 
HETATM    4  C5  UNL     1     -34.496   6.247   3.686  1.00 20.00     0.027 C 
HETATM    5  C6  UNL     1     -34.418   4.846   4.302  1.00 20.00     0.038 C 
HETATM    6  C7  UNL     1     -35.886   6.477   3.077  1.00 20.00     0.038 C 
HETATM    7  N8  UNL     1     -33.445   6.474   2.676  1.00 20.00    -0.351 N 
ENDROOT
BRANCH   7   8
HETATM    8  C1  UNL     1     -33.226   5.699   1.558  1.00 20.00     0.351 C 
HETATM    9  O9  UNL     1     -32.147   5.285   1.148  1.00 20.00    -0.284 OA
ENDBRANCH   7   8
TORSDOF 1
ENDMDL
MODEL 8
REMARK VINA RESULT:       0.8      1.735      2.891
REMARK  1 active torsions:
REMARK  status: ('A' for Active; 'I' for Inactive)
REMARK    1  A    between atoms: C1_1  and  N8_8 
ROOT
HETATM    1  C2  UNL     1     -34.108   7.257   3.993  1.00 20.00     0.022 C 
HETATM    2  C3  UNL     1     -33.726   8.483   3.169  1.00 20.00     0.032 C 
HETATM    3  C4  UNL     1     -33.950   6.122   2.996  1.00 20.00     0.126 C 
HETATM    4  C5  UNL     1     -32.569   7.983   2.274  1.00 20.00     0.027 C 
HETATM    5  C6  UNL     1     -32.598   8.709   0.924  1.00 20.00     0.038 C 
HETATM    6  C7  UNL     1     -31.214   8.206   2.962  1.00 20.00     0.038 C 
HETATM    7  N8  UNL     1     -32.852   6.542   2.142  1.00 20.00    -0.351 N 
ENDROOT
BRANCH   7   8
HETATM    8  C1  UNL     1     -32.157   5.658   1.346  1.00 20.00     0.351 C 
HETATM    9  O9  UNL     1     -32.625   4.901   0.501  1.00 20.00    -0.284 OA
ENDBRANCH   7   8
TORSDOF 1
ENDMDL
MODEL 9
REMARK VINA RESULT:       0.9      1.906      3.099
REMARK  1 active torsions:
REMARK  status: ('A' for Active; 'I' for Inactive)
REMARK    1  A    between atoms: C1_1  and  N8_8 
ROOT
HETATM    1  C2  UNL     1     -32.386   6.452   1.645  1.00 20.00     0.022 C 
HETATM    2  C3  UNL     1     -33.775   5.834   1.772  1.00 20.00     0.032 C 
HETATM    3  C4  UNL     1     -32.501   7.709   2.488  1.00 20.00     0.126 C 
HETATM    4  C5  UNL     1     -34.175   6.120   3.238  1.00 20.00     0.027 C 
HETATM    5  C6  UNL     1     -35.691   6.326   3.337  1.00 20.00     0.038 C 
HETATM    6  C7  UNL     1     -33.740   4.968   4.156  1.00 20.00     0.038 C 
HETATM    7  N8  UNL     1     -33.421   7.347   3.553  1.00 20.00    -0.351 N 
ENDROOT
BRANCH   7   8
HETATM    8  C1  UNL     1     -33.519   8.070   4.722  1.00 20.00     0.351 C 
HETATM    9  O9  UNL     1     -32.595   8.479   5.416  1.00 20.00    -0.284 OA
ENDBRANCH   7   8
TORSDOF 1
ENDMDL
