MODEL 1
REMARK VINA RESULT:      -2.6      0.000      0.000
REMARK  1 active torsions:
REMARK  status: ('A' for Active; 'I' for Inactive)
REMARK    1  A    between atoms: C6_6  and  C7_7 
ROOT
HETATM    1  C1  UNL     1     -32.142   9.288   0.635  1.00 20.00     0.065 C 
HETATM    2  C7  UNL     1     -31.498   8.172   1.344  1.00 20.00     0.186 C 
HETATM    3  N8  UNL     1     -32.648  10.169   0.074  1.00 20.00    -0.197 NA
ENDROOT
BRANCH   2   4
HETATM    4  C6  UNL     1     -32.502   7.412   2.144  1.00 20.00     0.085 A 
HETATM    5  C4  UNL     1     -32.702   6.065   1.886  1.00 20.00     0.143 A 
HETATM    6  C2  UNL     1     -33.646   5.388   2.650  1.00 20.00     0.069 A 
HETATM    7  F10 UNL     1     -32.012   5.426   0.933  1.00 20.00    -0.204 F 
HETATM    8  C5  UNL     1     -34.353   6.069   3.634  1.00 20.00     0.054 A 
HETATM    9  C3  UNL     1     -34.080   7.415   3.815  1.00 20.00     0.141 A 
HETATM   10 CL11 UNL     1     -35.524   5.268   4.596  1.00 20.00    -0.083 Cl
HETATM   11  N9  UNL     1     -33.170   8.107   3.092  1.00 20.00    -0.260 NA
ENDBRANCH   2   4
TORSDOF 1
ENDMDL
MODEL 2
REMARK VINA RESULT:      -2.4      3.254      4.912
REMARK  1 active torsions:
REMARK  status: ('A' for Active; 'I' for Inactive)
REMARK    1  A    between atoms: C6_6  and  C7_7 
ROOT
HETATM    1  C1  UNL     1     -33.803   3.796   4.466  1.00 20.00     0.065 C 
HETATM    2  C7  UNL     1     -34.629   4.959   4.109  1.00 20.00     0.186 C 
HETATM    3  N8  UNL     1     -33.153   2.877   4.748  1.00 20.00    -0.197 NA
ENDROOT
BRANCH   2   4
HETATM    4  C6  UNL     1     -33.843   5.928   3.291  1.00 20.00     0.085 A 
HETATM    5  C4  UNL     1     -33.784   7.258   3.677  1.00 20.00     0.143 A 
HETATM    6  C2  UNL     1     -33.044   8.133   2.891  1.00 20.00     0.069 A 
HETATM    7  F10 UNL     1     -34.417   7.696   4.773  1.00 20.00    -0.204 F 
HETATM    8  C5  UNL     1     -32.394   7.659   1.757  1.00 20.00     0.054 A 
HETATM    9  C3  UNL     1     -32.513   6.312   1.456  1.00 20.00     0.141 A 
HETATM   10 CL11 UNL     1     -31.471   8.709   0.764  1.00 20.00    -0.083 Cl
HETATM   11  N9  UNL     1     -33.225   5.432   2.196  1.00 20.00    -0.260 NA
ENDBRANCH   2   4
TORSDOF 1
ENDMDL
MODEL 3
REMARK VINA RESULT:      -0.9      1.632      1.984
REMARK  1 active torsions:
REMARK  status: ('A' for Active; 'I' for Inactive)
REMARK    1  A    between atoms: C6_6  and  C7_7 
ROOT
HETATM    1  C1  UNL     1     -32.043   9.256   0.511  1.00 20.00     0.065 C 
HETATM    2  C7  UNL     1     -31.431   8.113   1.205  1.00 20.00     0.186 C 
HETATM    3  N8  UNL     1     -32.524  10.158  -0.037  1.00 20.00    -0.197 NA
ENDROOT
BRANCH   2   4
HETATM    4  C6  UNL     1     -32.436   7.424   2.067  1.00 20.00     0.085 A 
HETATM    5  C4  UNL     1     -32.728   7.939   3.320  1.00 20.00     0.143 A 
HETATM    6  C2  UNL     1     -33.668   7.271   4.095  1.00 20.00     0.069 A 
HETATM    7  F10 UNL     1     -32.129   9.045   3.778  1.00 20.00    -0.204 F 
HETATM    8  C5  UNL     1     -34.280   6.123   3.602  1.00 20.00     0.054 A 
HETATM    9  C3  UNL     1     -33.919   5.690   2.337  1.00 20.00     0.141 A 
HETATM   10 CL11 UNL     1     -35.444   5.274   4.530  1.00 20.00    -0.083 Cl
HETATM   11  N9  UNL     1     -33.009   6.312   1.554  1.00 20.00    -0.260 NA
ENDBRANCH   2   4
TORSDOF 1
ENDMDL
MODEL 4
REMARK VINA RESULT:      -0.8      2.817      4.449
REMARK  1 active torsions:
REMARK  status: ('A' for Active; 'I' for Inactive)
REMARK    1  A    between atoms: C6_6  and  C7_7 
ROOT
HETATM    1  C1  UNL     1     -33.804   3.844   4.448  1.00 20.00     0.065 C 
HETATM    2  C7  UNL     1     -34.667   4.968   4.053  1.00 20.00     0.186 C 
HETATM    3  N8  UNL     1     -33.125   2.956   4.760  1.00 20.00    -0.197 NA
ENDROOT
BRANCH   2   4
HETATM    4  C6  UNL     1     -33.886   5.984   3.289  1.00 20.00     0.085 A 
HETATM    5  C4  UNL     1     -33.215   5.604   2.137  1.00 20.00     0.143 A 
HETATM    6  C2  UNL     1     -32.496   6.577   1.452  1.00 20.00     0.069 A 
HETATM    7  F10 UNL     1     -33.253   4.343   1.690  1.00 20.00    -0.204 F 
HETATM    8  C5  UNL     1     -32.469   7.881   1.932  1.00 20.00     0.054 A 
HETATM    9  C3  UNL     1     -33.173   8.160   3.092  1.00 20.00     0.141 A 
HETATM   10 CL11 UNL     1     -31.594   9.107   1.113  1.00 20.00    -0.083 Cl
HETATM   11  N9  UNL     1     -33.882   7.241   3.786  1.00 20.00    -0.260 NA
ENDBRANCH   2   4
TORSDOF 1
ENDMDL
MODEL 5
REMARK VINA RESULT:      -0.2      1.913      2.286
REMARK  1 active torsions:
REMARK  status: ('A' for Active; 'I' for Inactive)
REMARK    1  A    between atoms: C6_6  and  C7_7 
ROOT
HETATM    1  C1  UNL     1     -32.553   9.419   0.434  1.00 20.00     0.065 C 
HETATM    2  C7  UNL     1     -32.246   9.196   1.855  1.00 20.00     0.186 C 
HETATM    3  N8  UNL     1     -32.794   9.596  -0.687  1.00 20.00    -0.197 NA
ENDROOT
BRANCH   2   4
HETATM    4  C6  UNL     1     -32.701   7.841   2.283  1.00 20.00     0.085 A 
HETATM    5  C4  UNL     1     -33.635   7.724   3.299  1.00 20.00     0.143 A 
HETATM    6  C2  UNL     1     -34.035   6.446   3.673  1.00 20.00     0.069 A 
HETATM    7  F10 UNL     1     -34.143   8.803   3.909  1.00 20.00    -0.204 F 
HETATM    8  C5  UNL     1     -33.496   5.339   3.028  1.00 20.00     0.054 A 
HETATM    9  C3  UNL     1     -32.569   5.561   2.023  1.00 20.00     0.141 A 
HETATM   10 CL11 UNL     1     -33.967   3.748   3.461  1.00 20.00    -0.083 Cl
HETATM   11  N9  UNL     1     -32.155   6.788   1.633  1.00 20.00    -0.260 NA
ENDBRANCH   2   4
TORSDOF 1
ENDMDL
MODEL 6
REMARK VINA RESULT:       0.4      2.678      4.197
REMARK  1 active torsions:
REMARK  status: ('A' for Active; 'I' for Inactive)
REMARK    1  A    between atoms: C6_6  and  C7_7 
ROOT
HETATM    1  C1  UNL     1     -34.672   4.816   4.177  1.00 20.00     0.065 C 
HETATM    2  C7  UNL     1     -33.425   4.679   3.407  1.00 20.00     0.186 C 
HETATM    3  N8  UNL     1     -35.654   4.922   4.784  1.00 20.00    -0.197 NA
ENDROOT
BRANCH   2   4
HETATM    4  C6  UNL     1     -33.086   5.964   2.729  1.00 20.00     0.085 A 
HETATM    5  C4  UNL     1     -32.322   5.945   1.573  1.00 20.00     0.143 A 
HETATM    6  C2  UNL     1     -32.024   7.160   0.969  1.00 20.00     0.069 A 
HETATM    7  F10 UNL     1     -31.882   4.795   1.046  1.00 20.00    -0.204 F 
HETATM    8  C5  UNL     1     -32.490   8.343   1.531  1.00 20.00     0.054 A 
HETATM    9  C3  UNL     1     -33.246   8.256   2.689  1.00 20.00     0.141 A 
HETATM   10 CL11 UNL     1     -32.142   9.860   0.813  1.00 20.00    -0.083 Cl
HETATM   11  N9  UNL     1     -33.556   7.093   3.305  1.00 20.00    -0.260 NA
ENDBRANCH   2   4
TORSDOF 1
ENDMDL
