MODEL 1
REMARK VINA RESULT:      -0.5      0.000      0.000
REMARK  2 active torsions:
REMARK  status: ('A' for Active; 'I' for Inactive)
REMARK    1  A    between atoms: C1_1  and  N11_11 
REMARK    2  A    between atoms: C7_7  and  C10_10 
ROOT
HETATM    1  C2  UNL     1     -31.581   6.131   1.118  1.00 20.00     0.020 C 
HETATM    2  C3  UNL     1     -32.975   5.704   1.578  1.00 20.00     0.006 C 
HETATM    3  C4  UNL     1     -33.403   7.572   3.313  1.00 20.00     0.025 C 
HETATM    4  C5  UNL     1     -31.498   7.566   0.608  1.00 20.00     0.125 C 
HETATM    5  C6  UNL     1     -32.201   8.405   2.878  1.00 20.00     0.125 C 
HETATM    6  C7  UNL     1     -33.269   6.063   3.046  1.00 20.00    -0.010 C 
HETATM    7  N11 UNL     1     -32.164   8.569   1.429  1.00 20.00    -0.359 N 
ENDROOT
BRANCH   6   8
HETATM    8  C10 UNL     1     -34.549   5.356   3.502  1.00 20.00    -0.019 C 
HETATM    9  C8  UNL     1     -34.210   4.167   4.395  1.00 20.00     0.010 C 
HETATM   10  C9  UNL     1     -35.466   6.334   4.229  1.00 20.00     0.010 C 
ENDBRANCH   6   8
BRANCH   7  11
HETATM   11  C1  UNL     1     -32.720   9.696   0.836  1.00 20.00     0.350 C 
HETATM   12  O12 UNL     1     -32.712   9.994  -0.354  1.00 20.00    -0.284 OA
ENDBRANCH   7  11
TORSDOF 2
ENDMDL
MODEL 2
REMARK VINA RESULT:       1.3      2.616      4.946
REMARK  2 active torsions:
REMARK  status: ('A' for Active; 'I' for Inactive)
REMARK    1  A    between atoms: C1_1  and  N11_11 
REMARK    2  A    between atoms: C7_7  and  C10_10 
ROOT
HETATM    1  C2  UNL     1     -32.332   8.514   4.060  1.00 20.00     0.020 C 
HETATM    2  C3  UNL     1     -32.600   9.047   2.652  1.00 20.00     0.006 C 
HETATM    3  C4  UNL     1     -32.979   6.792   1.446  1.00 20.00     0.025 C 
HETATM    4  C5  UNL     1     -33.438   7.621   4.616  1.00 20.00     0.125 C 
HETATM    5  C6  UNL     1     -33.050   5.985   2.739  1.00 20.00     0.125 C 
HETATM    6  C7  UNL     1     -32.149   8.083   1.540  1.00 20.00    -0.010 C 
HETATM    7  N11 UNL     1     -33.950   6.606   3.705  1.00 20.00    -0.359 N 
ENDROOT
BRANCH   6   8
HETATM    8  C10 UNL     1     -32.185   8.804   0.188  1.00 20.00    -0.019 C 
HETATM    9  C8  UNL     1     -32.653  10.244   0.366  1.00 20.00     0.010 C 
HETATM   10  C9  UNL     1     -30.812   8.759  -0.475  1.00 20.00     0.010 C 
ENDBRANCH   6   8
BRANCH   7  11
HETATM   11  C1  UNL     1     -35.277   6.201   3.788  1.00 20.00     0.350 C 
HETATM   12  O12 UNL     1     -35.731   5.263   4.435  1.00 20.00    -0.284 OA
ENDBRANCH   7  11
TORSDOF 2
ENDMDL
MODEL 3
REMARK VINA RESULT:       1.7      1.827      3.496
REMARK  2 active torsions:
REMARK  status: ('A' for Active; 'I' for Inactive)
REMARK    1  A    between atoms: C1_1  and  N11_11 
REMARK    2  A    between atoms: C7_7  and  C10_10 
ROOT
HETATM    1  C2  UNL     1     -35.339   5.760   4.089  1.00 20.00     0.020 C 
HETATM    2  C3  UNL     1     -34.308   4.862   4.772  1.00 20.00     0.006 C 
HETATM    3  C4  UNL     1     -32.681   4.554   2.787  1.00 20.00     0.025 C 
HETATM    4  C5  UNL     1     -34.760   7.033   3.479  1.00 20.00     0.125 C 
HETATM    5  C6  UNL     1     -33.338   5.638   1.936  1.00 20.00     0.125 C 
HETATM    6  C7  UNL     1     -33.617   3.883   3.805  1.00 20.00    -0.010 C 
HETATM    7  N11 UNL     1     -33.540   6.864   2.700  1.00 20.00    -0.359 N 
ENDROOT
BRANCH   6   8
HETATM    8  C10 UNL     1     -32.827   2.841   4.605  1.00 20.00    -0.019 C 
HETATM    9  C8  UNL     1     -32.723   3.261   6.067  1.00 20.00     0.010 C 
HETATM   10  C9  UNL     1     -33.480   1.469   4.480  1.00 20.00     0.010 C 
ENDBRANCH   6   8
BRANCH   7  11
HETATM   11  C1  UNL     1     -32.598   7.884   2.652  1.00 20.00     0.350 C 
HETATM   12  O12 UNL     1     -31.714   8.044   1.817  1.00 20.00    -0.284 OA
ENDBRANCH   7  11
TORSDOF 2
ENDMDL
MODEL 4
REMARK VINA RESULT:       1.8      1.071      1.451
REMARK  2 active torsions:
REMARK  status: ('A' for Active; 'I' for Inactive)
REMARK    1  A    between atoms: C1_1  and  N11_11 
REMARK    2  A    between atoms: C7_7  and  C10_10 
ROOT
HETATM    1  C2  UNL     1     -32.296   6.037   1.127  1.00 20.00     0.020 C 
HETATM    2  C3  UNL     1     -33.455   6.242   2.103  1.00 20.00     0.006 C 
HETATM    3  C4  UNL     1     -32.573   8.343   3.322  1.00 20.00     0.025 C 
HETATM    4  C5  UNL     1     -31.984   7.250   0.256  1.00 20.00     0.125 C 
HETATM    5  C6  UNL     1     -31.446   8.587   2.322  1.00 20.00     0.125 C 
HETATM    6  C7  UNL     1     -33.023   6.878   3.437  1.00 20.00    -0.010 C 
HETATM    7  N11 UNL     1     -31.933   8.531   0.948  1.00 20.00    -0.359 N 
ENDROOT
BRANCH   6   8
HETATM    8  C10 UNL     1     -34.171   6.781   4.448  1.00 20.00    -0.019 C 
HETATM    9  C8  UNL     1     -34.314   8.091   5.215  1.00 20.00     0.010 C 
HETATM   10  C9  UNL     1     -35.473   6.424   3.740  1.00 20.00     0.010 C 
ENDBRANCH   6   8
BRANCH   7  11
HETATM   11  C1  UNL     1     -32.303   9.696   0.287  1.00 20.00     0.350 C 
HETATM   12  O12 UNL     1     -32.915   9.790  -0.772  1.00 20.00    -0.284 OA
ENDBRANCH   7  11
TORSDOF 2
ENDMDL
MODEL 5
REMARK VINA RESULT:       1.9      3.027      4.713
REMARK  2 active torsions:
REMARK  status: ('A' for Active; 'I' for Inactive)
REMARK    1  A    between atoms: C1_1  and  N11_11 
REMARK    2  A    between atoms: C7_7  and  C10_10 
ROOT
HETATM    1  C2  UNL     1     -33.264   5.114   1.176  1.00 20.00     0.020 C 
HETATM    2  C3  UNL     1     -32.413   6.323   1.567  1.00 20.00     0.006 C 
HETATM    3  C4  UNL     1     -33.840   7.184   3.542  1.00 20.00     0.025 C 
HETATM    4  C5  UNL     1     -33.519   4.130   2.313  1.00 20.00     0.125 C 
HETATM    5  C6  UNL     1     -34.716   5.936   3.600  1.00 20.00     0.125 C 
HETATM    6  C7  UNL     1     -33.235   7.481   2.160  1.00 20.00    -0.010 C 
HETATM    7  N11 UNL     1     -33.910   4.720   3.587  1.00 20.00    -0.359 N 
ENDROOT
BRANCH   6   8
HETATM    8  C10 UNL     1     -32.362   8.738   2.252  1.00 20.00    -0.019 C 
HETATM    9  C8  UNL     1     -30.998   8.395   2.839  1.00 20.00     0.010 C 
HETATM   10  C9  UNL     1     -32.214   9.383   0.878  1.00 20.00     0.010 C 
ENDBRANCH   6   8
BRANCH   7  11
HETATM   11  C1  UNL     1     -33.554   4.102   4.779  1.00 20.00     0.350 C 
HETATM   12  O12 UNL     1     -33.113   2.967   4.929  1.00 20.00    -0.284 OA
ENDBRANCH   7  11
TORSDOF 2
ENDMDL
MODEL 6
REMARK VINA RESULT:       1.9      1.591      3.176
REMARK  2 active torsions:
REMARK  status: ('A' for Active; 'I' for Inactive)
REMARK    1  A    between atoms: C1_1  and  N11_11 
REMARK    2  A    between atoms: C7_7  and  C10_10 
ROOT
HETATM    1  C2  UNL     1     -35.316   6.503   3.742  1.00 20.00     0.020 C 
HETATM    2  C3  UNL     1     -34.575   5.513   4.642  1.00 20.00     0.006 C 
HETATM    3  C4  UNL     1     -32.934   4.549   2.893  1.00 20.00     0.025 C 
HETATM    4  C5  UNL     1     -34.413   7.505   3.030  1.00 20.00     0.125 C 
HETATM    5  C6  UNL     1     -33.256   5.607   1.842  1.00 20.00     0.125 C 
HETATM    6  C7  UNL     1     -34.070   4.268   3.891  1.00 20.00    -0.010 C 
HETATM    7  N11 UNL     1     -33.216   6.950   2.410  1.00 20.00    -0.359 N 
ENDROOT
BRANCH   6   8
HETATM    8  C10 UNL     1     -33.603   3.213   4.901  1.00 20.00    -0.019 C 
HETATM    9  C8  UNL     1     -33.253   1.913   4.186  1.00 20.00     0.010 C 
HETATM   10  C9  UNL     1     -32.411   3.731   5.697  1.00 20.00     0.010 C 
ENDBRANCH   6   8
BRANCH   7  11
HETATM   11  C1  UNL     1     -32.059   7.715   2.322  1.00 20.00     0.350 C 
HETATM   12  O12 UNL     1     -31.683   8.392   1.372  1.00 20.00    -0.284 OA
ENDBRANCH   7  11
TORSDOF 2
ENDMDL
