MODEL 1
REMARK VINA RESULT:       0.5      0.000      0.000
REMARK  0 active torsions:
REMARK  status: ('A' for Active; 'I' for Inactive)
ROOT
HETATM    1  C1  UNL     1     -33.467   5.437   2.859  1.00 20.00    -0.074 C 
HETATM    2  C2  UNL     1     -34.075   4.762   3.838  1.00 20.00    -0.085 C 
HETATM    3  C3  UNL     1     -32.242   4.992   2.098  1.00 20.00     0.039 C 
HETATM    4  C4  UNL     1     -32.888   7.823   2.720  1.00 20.00     0.009 C 
HETATM    5  C5  UNL     1     -31.614   7.430   1.947  1.00 20.00     0.005 C 
HETATM    6  C6  UNL     1     -33.511   6.549   0.808  1.00 20.00     0.014 C 
HETATM    7  C7  UNL     1     -33.904   6.760   2.271  1.00 20.00     0.015 C 
HETATM    8  C8  UNL     1     -32.061   6.190   1.144  1.00 20.00    -0.010 C 
HETATM    9  C9  UNL     1     -35.295   5.294   4.537  1.00 20.00     0.043 C 
HETATM   10  C10 UNL     1     -33.580   3.425   4.313  1.00 20.00     0.043 C 
ENDROOT
TORSDOF 0
ENDMDL
MODEL 2
REMARK VINA RESULT:       0.9      1.547      2.510
REMARK  0 active torsions:
REMARK  status: ('A' for Active; 'I' for Inactive)
ROOT
HETATM    1  C1  UNL     1     -33.155   7.304   2.983  1.00 20.00    -0.074 C 
HETATM    2  C2  UNL     1     -34.077   7.245   3.948  1.00 20.00    -0.085 C 
HETATM    3  C3  UNL     1     -31.958   8.222   2.950  1.00 20.00     0.039 C 
HETATM    4  C4  UNL     1     -33.437   7.314   0.540  1.00 20.00     0.009 C 
HETATM    5  C5  UNL     1     -32.226   8.262   0.442  1.00 20.00     0.005 C 
HETATM    6  C6  UNL     1     -31.571   6.290   1.604  1.00 20.00     0.014 C 
HETATM    7  C7  UNL     1     -33.086   6.431   1.749  1.00 20.00     0.015 C 
HETATM    8  C8  UNL     1     -31.326   7.801   1.608  1.00 20.00    -0.010 C 
HETATM    9  C9  UNL     1     -35.238   6.291   3.887  1.00 20.00     0.043 C 
HETATM   10  C10 UNL     1     -34.022   8.130   5.161  1.00 20.00     0.043 C 
ENDROOT
TORSDOF 0
ENDMDL
MODEL 3
REMARK VINA RESULT:       1.0      1.261      3.969
REMARK  0 active torsions:
REMARK  status: ('A' for Active; 'I' for Inactive)
ROOT
HETATM    1  C1  UNL     1     -33.369   7.266   3.171  1.00 20.00    -0.074 C 
HETATM    2  C2  UNL     1     -32.303   7.928   2.714  1.00 20.00    -0.085 C 
HETATM    3  C3  UNL     1     -34.040   7.472   4.506  1.00 20.00     0.039 C 
HETATM    4  C4  UNL     1     -33.866   4.859   3.107  1.00 20.00     0.009 C 
HETATM    5  C5  UNL     1     -34.558   5.003   4.477  1.00 20.00     0.005 C 
HETATM    6  C6  UNL     1     -35.566   6.517   2.939  1.00 20.00     0.014 C 
HETATM    7  C7  UNL     1     -34.157   6.208   2.431  1.00 20.00     0.015 C 
HETATM    8  C8  UNL     1     -35.165   6.421   4.414  1.00 20.00    -0.010 C 
HETATM    9  C9  UNL     1     -31.706   7.647   1.363  1.00 20.00     0.043 C 
HETATM   10  C10 UNL     1     -31.623   9.001   3.518  1.00 20.00     0.043 C 
ENDROOT
TORSDOF 0
ENDMDL
MODEL 4
REMARK VINA RESULT:       1.1      1.253      3.597
REMARK  0 active torsions:
REMARK  status: ('A' for Active; 'I' for Inactive)
ROOT
HETATM    1  C1  UNL     1     -33.265   6.461   2.711  1.00 20.00    -0.074 C 
HETATM    2  C2  UNL     1     -32.372   6.607   1.730  1.00 20.00    -0.085 C 
HETATM    3  C3  UNL     1     -33.797   5.153   3.245  1.00 20.00     0.039 C 
HETATM    4  C4  UNL     1     -35.370   7.669   3.110  1.00 20.00     0.009 C 
HETATM    5  C5  UNL     1     -35.974   6.361   3.657  1.00 20.00     0.005 C 
HETATM    6  C6  UNL     1     -34.000   6.874   4.887  1.00 20.00     0.014 C 
HETATM    7  C7  UNL     1     -33.894   7.568   3.528  1.00 20.00     0.015 C 
HETATM    8  C8  UNL     1     -34.766   5.672   4.327  1.00 20.00    -0.010 C 
HETATM    9  C9  UNL     1     -31.904   7.959   1.269  1.00 20.00     0.043 C 
HETATM   10  C10 UNL     1     -31.771   5.429   1.015  1.00 20.00     0.043 C 
ENDROOT
TORSDOF 0
ENDMDL
MODEL 5
REMARK VINA RESULT:       1.7      1.496      2.212
REMARK  0 active torsions:
REMARK  status: ('A' for Active; 'I' for Inactive)
ROOT
HETATM    1  C1  UNL     1     -33.385   7.411   2.871  1.00 20.00    -0.074 C 
HETATM    2  C2  UNL     1     -34.136   7.213   3.957  1.00 20.00    -0.085 C 
HETATM    3  C3  UNL     1     -33.300   6.503   1.669  1.00 20.00     0.039 C 
HETATM    4  C4  UNL     1     -31.042   8.136   2.694  1.00 20.00     0.009 C 
HETATM    5  C5  UNL     1     -30.890   7.218   1.465  1.00 20.00     0.005 C 
HETATM    6  C6  UNL     1     -32.687   8.733   1.080  1.00 20.00     0.014 C 
HETATM    7  C7  UNL     1     -32.502   8.607   2.593  1.00 20.00     0.015 C 
HETATM    8  C8  UNL     1     -32.285   7.281   0.808  1.00 20.00    -0.010 C 
HETATM    9  C9  UNL     1     -34.151   8.181   5.107  1.00 20.00     0.043 C 
HETATM   10  C10 UNL     1     -35.019   6.006   4.109  1.00 20.00     0.043 C 
ENDROOT
TORSDOF 0
ENDMDL
MODEL 6
REMARK VINA RESULT:       1.8      0.806      2.252
REMARK  0 active torsions:
REMARK  status: ('A' for Active; 'I' for Inactive)
ROOT
HETATM    1  C1  UNL     1     -33.527   6.168   2.942  1.00 20.00    -0.074 C 
HETATM    2  C2  UNL     1     -34.229   5.376   3.757  1.00 20.00    -0.085 C 
HETATM    3  C3  UNL     1     -33.759   7.641   2.713  1.00 20.00     0.039 C 
HETATM    4  C4  UNL     1     -32.757   5.764   0.642  1.00 20.00     0.009 C 
HETATM    5  C5  UNL     1     -32.984   7.259   0.343  1.00 20.00     0.005 C 
HETATM    6  C6  UNL     1     -31.503   7.057   2.198  1.00 20.00     0.014 C 
HETATM    7  C7  UNL     1     -32.323   5.769   2.117  1.00 20.00     0.015 C 
HETATM    8  C8  UNL     1     -32.647   7.938   1.687  1.00 20.00    -0.010 C 
HETATM    9  C9  UNL     1     -33.918   3.914   3.916  1.00 20.00     0.043 C 
HETATM   10  C10 UNL     1     -35.382   5.891   4.572  1.00 20.00     0.043 C 
ENDROOT
TORSDOF 0
ENDMDL
MODEL 7
REMARK VINA RESULT:       2.0      2.121      4.551
REMARK  0 active torsions:
REMARK  status: ('A' for Active; 'I' for Inactive)
ROOT
HETATM    1  C1  UNL     1     -32.484   8.668   1.072  1.00 20.00    -0.074 C 
HETATM    2  C2  UNL     1     -32.600   9.869   0.499  1.00 20.00    -0.085 C 
HETATM    3  C3  UNL     1     -32.660   7.335   0.389  1.00 20.00     0.039 C 
HETATM    4  C4  UNL     1     -33.359   7.865   3.226  1.00 20.00     0.009 C 
HETATM    5  C5  UNL     1     -33.572   6.482   2.581  1.00 20.00     0.005 C 
HETATM    6  C6  UNL     1     -31.288   7.108   2.329  1.00 20.00     0.014 C 
HETATM    7  C7  UNL     1     -32.103   8.389   2.509  1.00 20.00     0.015 C 
HETATM    8  C8  UNL     1     -32.406   6.382   1.575  1.00 20.00    -0.010 C 
HETATM    9  C9  UNL     1     -32.405  11.145   1.270  1.00 20.00     0.043 C 
HETATM   10  C10 UNL     1     -32.936  10.031  -0.957  1.00 20.00     0.043 C 
ENDROOT
TORSDOF 0
ENDMDL
MODEL 8
REMARK VINA RESULT:       2.5      1.440      3.144
REMARK  0 active torsions:
REMARK  status: ('A' for Active; 'I' for Inactive)
ROOT
HETATM    1  C1  UNL     1     -32.511   6.998   1.916  1.00 20.00    -0.074 C 
HETATM    2  C2  UNL     1     -32.836   5.708   1.802  1.00 20.00    -0.085 C 
HETATM    3  C3  UNL     1     -33.131   7.992   2.867  1.00 20.00     0.039 C 
HETATM    4  C4  UNL     1     -32.110   8.676   0.164  1.00 20.00     0.009 C 
HETATM    5  C5  UNL     1     -32.743   9.737   1.086  1.00 20.00     0.005 C 
HETATM    6  C6  UNL     1     -30.938   8.691   2.235  1.00 20.00     0.014 C 
HETATM    7  C7  UNL     1     -31.423   7.723   1.155  1.00 20.00     0.015 C 
HETATM    8  C8  UNL     1     -32.335   9.260   2.496  1.00 20.00    -0.010 C 
HETATM    9  C9  UNL     1     -32.157   4.796   0.819  1.00 20.00     0.043 C 
HETATM   10  C10 UNL     1     -33.906   5.076   2.648  1.00 20.00     0.043 C 
ENDROOT
TORSDOF 0
ENDMDL
