MODEL 1
REMARK VINA RESULT:      -1.9      0.000      0.000
REMARK  2 active torsions:
REMARK  status: ('A' for Active; 'I' for Inactive)
REMARK    1  A    between atoms: C1_1  and  C3_3 
REMARK    2  A    between atoms: C2_2  and  C5_5 
ROOT
HETATM    1  C1  UNL     1     -33.046   5.630   2.409  1.00 20.00     0.004 C 
HETATM    2  C2  UNL     1     -34.090   5.801   3.231  1.00 20.00     0.049 C 
ENDROOT
BRANCH   1   3
HETATM    3  C3  UNL     1     -32.607   6.648   1.481  1.00 20.00     0.007 C 
HETATM    4  C4  UNL     1     -32.391   7.917   1.844  1.00 20.00     0.056 C 
HETATM    5 BR8  UNL     1     -31.828   9.250   0.684  1.00 20.00    -0.064 Br
ENDBRANCH   1   3
BRANCH   2   6
HETATM    6  C5  UNL     1     -34.500   4.719   4.169  1.00 20.00     0.145 C 
HETATM    7  C6  UNL     1     -33.569   3.542   4.291  1.00 20.00     0.096 C 
HETATM    8  O7  UNL     1     -35.557   4.761   4.796  1.00 20.00    -0.294 OA
ENDBRANCH   2   6
TORSDOF 2
ENDMDL
MODEL 2
REMARK VINA RESULT:      -1.5      1.351      1.790
REMARK  2 active torsions:
REMARK  status: ('A' for Active; 'I' for Inactive)
REMARK    1  A    between atoms: C1_1  and  C3_3 
REMARK    2  A    between atoms: C2_2  and  C5_5 
ROOT
HETATM    1  C1  UNL     1     -32.763   7.310   2.683  1.00 20.00     0.004 C 
HETATM    2  C2  UNL     1     -33.497   6.224   2.408  1.00 20.00     0.049 C 
ENDROOT
BRANCH   1   3
HETATM    3  C3  UNL     1     -32.119   8.099   1.657  1.00 20.00     0.007 C 
HETATM    4  C4  UNL     1     -32.743   9.079   0.994  1.00 20.00     0.056 C 
HETATM    5 BR8  UNL     1     -31.950  10.111  -0.327  1.00 20.00    -0.064 Br
ENDBRANCH   1   3
BRANCH   2   6
HETATM    6  C5  UNL     1     -34.141   5.447   3.504  1.00 20.00     0.145 C 
HETATM    7  C6  UNL     1     -35.315   6.094   4.190  1.00 20.00     0.096 C 
HETATM    8  O7  UNL     1     -33.726   4.346   3.858  1.00 20.00    -0.294 OA
ENDBRANCH   2   6
TORSDOF 2
ENDMDL
MODEL 3
REMARK VINA RESULT:      -1.1      3.788      5.314
REMARK  2 active torsions:
REMARK  status: ('A' for Active; 'I' for Inactive)
REMARK    1  A    between atoms: C1_1  and  C3_3 
REMARK    2  A    between atoms: C2_2  and  C5_5 
ROOT
HETATM    1  C1  UNL     1     -32.571   6.887   1.454  1.00 20.00     0.004 C 
HETATM    2  C2  UNL     1     -32.532   8.211   1.654  1.00 20.00     0.049 C 
ENDROOT
BRANCH   1   3
HETATM    3  C3  UNL     1     -33.165   5.970   2.402  1.00 20.00     0.007 C 
HETATM    4  C4  UNL     1     -34.157   6.322   3.228  1.00 20.00     0.056 C 
HETATM    5 BR8  UNL     1     -34.944   5.176   4.455  1.00 20.00    -0.064 Br
ENDBRANCH   1   3
BRANCH   2   6
HETATM    6  C5  UNL     1     -31.908   9.111   0.645  1.00 20.00     0.145 C 
HETATM    7  C6  UNL     1     -32.639  10.392   0.339  1.00 20.00     0.096 C 
HETATM    8  O7  UNL     1     -30.865   8.821   0.064  1.00 20.00    -0.294 OA
ENDBRANCH   2   6
TORSDOF 2
ENDMDL
MODEL 4
REMARK VINA RESULT:      -0.6      2.167      2.451
REMARK  2 active torsions:
REMARK  status: ('A' for Active; 'I' for Inactive)
REMARK    1  A    between atoms: C1_1  and  C3_3 
REMARK    2  A    between atoms: C2_2  and  C5_5 
ROOT
HETATM    1  C1  UNL     1     -32.468   7.909   2.564  1.00 20.00     0.004 C 
HETATM    2  C2  UNL     1     -33.773   7.783   2.840  1.00 20.00     0.049 C 
ENDROOT
BRANCH   1   3
HETATM    3  C3  UNL     1     -31.983   8.423   1.303  1.00 20.00     0.007 C 
HETATM    4  C4  UNL     1     -32.524   9.484   0.694  1.00 20.00     0.056 C 
HETATM    5 BR8  UNL     1     -31.930  10.173  -0.922  1.00 20.00    -0.064 Br
ENDBRANCH   1   3
BRANCH   2   6
HETATM    6  C5  UNL     1     -34.220   7.248   4.157  1.00 20.00     0.145 C 
HETATM    7  C6  UNL     1     -35.178   6.087   4.123  1.00 20.00     0.096 C 
HETATM    8  O7  UNL     1     -33.854   7.740   5.222  1.00 20.00    -0.294 OA
ENDBRANCH   2   6
TORSDOF 2
ENDMDL
MODEL 5
REMARK VINA RESULT:      -0.4      3.795      5.217
REMARK  2 active torsions:
REMARK  status: ('A' for Active; 'I' for Inactive)
REMARK    1  A    between atoms: C1_1  and  C3_3 
REMARK    2  A    between atoms: C2_2  and  C5_5 
ROOT
HETATM    1  C1  UNL     1     -32.499   7.120   1.546  1.00 20.00     0.004 C 
HETATM    2  C2  UNL     1     -32.779   8.428   1.615  1.00 20.00     0.049 C 
ENDROOT
BRANCH   1   3
HETATM    3  C3  UNL     1     -33.073   6.149   2.450  1.00 20.00     0.007 C 
HETATM    4  C4  UNL     1     -34.138   6.411   3.216  1.00 20.00     0.056 C 
HETATM    5 BR8  UNL     1     -34.903   5.192   4.387  1.00 20.00    -0.064 Br
ENDBRANCH   1   3
BRANCH   2   6
HETATM    6  C5  UNL     1     -32.160   9.386   0.657  1.00 20.00     0.145 C 
HETATM    7  C6  UNL     1     -31.036   8.858  -0.194  1.00 20.00     0.096 C 
HETATM    8  O7  UNL     1     -32.520  10.559   0.578  1.00 20.00    -0.294 OA
ENDBRANCH   2   6
TORSDOF 2
ENDMDL
MODEL 6
REMARK VINA RESULT:      -0.2      3.666      5.155
REMARK  2 active torsions:
REMARK  status: ('A' for Active; 'I' for Inactive)
REMARK    1  A    between atoms: C1_1  and  C3_3 
REMARK    2  A    between atoms: C2_2  and  C5_5 
ROOT
HETATM    1  C1  UNL     1     -33.472   7.678   2.497  1.00 20.00     0.004 C 
HETATM    2  C2  UNL     1     -32.291   7.890   1.901  1.00 20.00     0.049 C 
ENDROOT
BRANCH   1   3
HETATM    3  C3  UNL     1     -33.689   6.606   3.444  1.00 20.00     0.007 C 
HETATM    4  C4  UNL     1     -33.593   5.314   3.112  1.00 20.00     0.056 C 
HETATM    5 BR8  UNL     1     -33.862   3.913   4.297  1.00 20.00    -0.064 Br
ENDBRANCH   1   3
BRANCH   2   6
HETATM    6  C5  UNL     1     -32.122   9.010   0.934  1.00 20.00     0.145 C 
HETATM    7  C6  UNL     1     -31.138   8.792  -0.186  1.00 20.00     0.096 C 
HETATM    8  O7  UNL     1     -32.728  10.073   1.049  1.00 20.00    -0.294 OA
ENDBRANCH   2   6
TORSDOF 2
ENDMDL
MODEL 7
REMARK VINA RESULT:       0.3      2.511      3.041
REMARK  2 active torsions:
REMARK  status: ('A' for Active; 'I' for Inactive)
REMARK    1  A    between atoms: C1_1  and  C3_3 
REMARK    2  A    between atoms: C2_2  and  C5_5 
ROOT
HETATM    1  C1  UNL     1     -32.869   6.510   1.948  1.00 20.00     0.004 C 
HETATM    2  C2  UNL     1     -33.597   5.846   2.855  1.00 20.00     0.049 C 
ENDROOT
BRANCH   1   3
HETATM    3  C3  UNL     1     -31.971   5.845   1.029  1.00 20.00     0.007 C 
HETATM    4  C4  UNL     1     -31.949   4.518   0.868  1.00 20.00     0.056 C 
HETATM    5 BR8  UNL     1     -30.814   3.629  -0.299  1.00 20.00    -0.064 Br
ENDBRANCH   1   3
BRANCH   2   6
HETATM    6  C5  UNL     1     -34.508   6.580   3.778  1.00 20.00     0.145 C 
HETATM    7  C6  UNL     1     -33.996   7.881   4.339  1.00 20.00     0.096 C 
HETATM    8  O7  UNL     1     -35.612   6.142   4.095  1.00 20.00    -0.294 OA
ENDBRANCH   2   6
TORSDOF 2
ENDMDL
MODEL 8
REMARK VINA RESULT:       0.8      1.621      2.062
REMARK  2 active torsions:
REMARK  status: ('A' for Active; 'I' for Inactive)
REMARK    1  A    between atoms: C1_1  and  C3_3 
REMARK    2  A    between atoms: C2_2  and  C5_5 
ROOT
HETATM    1  C1  UNL     1     -33.937   5.174   3.736  1.00 20.00     0.004 C 
HETATM    2  C2  UNL     1     -33.054   4.166   3.727  1.00 20.00     0.049 C 
ENDROOT
BRANCH   1   3
HETATM    3  C3  UNL     1     -33.827   6.317   2.856  1.00 20.00     0.007 C 
HETATM    4  C4  UNL     1     -32.652   6.838   2.487  1.00 20.00     0.056 C 
HETATM    5 BR8  UNL     1     -32.470   8.301   1.361  1.00 20.00    -0.064 Br
ENDBRANCH   1   3
BRANCH   2   6
HETATM    6  C5  UNL     1     -33.215   3.012   4.655  1.00 20.00     0.145 C 
HETATM    7  C6  UNL     1     -32.697   3.195   6.057  1.00 20.00     0.096 C 
HETATM    8  O7  UNL     1     -33.717   1.948   4.297  1.00 20.00    -0.294 OA
ENDBRANCH   2   6
TORSDOF 2
ENDMDL
MODEL 9
REMARK VINA RESULT:       1.0      3.514      4.783
REMARK  2 active torsions:
REMARK  status: ('A' for Active; 'I' for Inactive)
REMARK    1  A    between atoms: C1_1  and  C3_3 
REMARK    2  A    between atoms: C2_2  and  C5_5 
ROOT
HETATM    1  C1  UNL     1     -34.058   5.702   3.674  1.00 20.00     0.004 C 
HETATM    2  C2  UNL     1     -33.144   6.158   2.807  1.00 20.00     0.049 C 
ENDROOT
BRANCH   1   3
HETATM    3  C3  UNL     1     -34.204   4.298   3.988  1.00 20.00     0.007 C 
HETATM    4  C4  UNL     1     -33.170   3.515   4.313  1.00 20.00     0.056 C 
HETATM    5 BR8  UNL     1     -33.318   1.712   4.722  1.00 20.00    -0.064 Br
ENDBRANCH   1   3
BRANCH   2   6
HETATM    6  C5  UNL     1     -33.035   7.616   2.520  1.00 20.00     0.145 C 
HETATM    7  C6  UNL     1     -31.977   8.031   1.532  1.00 20.00     0.096 C 
HETATM    8  O7  UNL     1     -33.748   8.449   3.076  1.00 20.00    -0.294 OA
ENDBRANCH   2   6
TORSDOF 2
ENDMDL
