MODEL 1
REMARK VINA RESULT:      -1.3      0.000      0.000
REMARK  5 active torsions:
REMARK  status: ('A' for Active; 'I' for Inactive)
REMARK    1  A    between atoms: C2_2  and  C9_9 
REMARK    2  A    between atoms: C3_3  and  C8_8 
REMARK    3  A    between atoms: C4_4  and  C10_10 
REMARK    4  A    between atoms: C8_8  and  C9_9 
REMARK    5  A    between atoms: C10_10  and  O11_11 
ROOT
HETATM    1  C3  UNL     1     -33.946   6.938   3.417  1.00 20.00    -0.027 C 
HETATM    2  C4  UNL     1     -33.369   8.014   2.861  1.00 20.00     0.006 C 
ENDROOT
BRANCH   1   3
HETATM    3  C8  UNL     1     -33.495   5.525   3.162  1.00 20.00     0.035 C 
BRANCH   3   4
HETATM    4  C9  UNL     1     -34.380   4.485   3.877  1.00 20.00     0.006 C 
HETATM    5  C5  UNL     1     -35.490   5.192   4.662  1.00 20.00     0.014 C 
BRANCH   4   6
HETATM    6  C2  UNL     1     -33.571   3.627   4.819  1.00 20.00    -0.032 C 
HETATM    7  C1  UNL     1     -33.150   2.390   4.530  1.00 20.00     0.007 C 
ENDBRANCH   4   6
ENDBRANCH   3   4
ENDBRANCH   1   3
BRANCH   2   8
HETATM    8  C10 UNL     1     -32.197   8.030   1.904  1.00 20.00     0.068 C 
HETATM    9  C6  UNL     1     -31.913   6.709   1.181  1.00 20.00     0.050 C 
HETATM   10  C7  UNL     1     -32.403   9.145   0.874  1.00 20.00     0.050 C 
BRANCH   8  11
HETATM   11  O11 UNL     1     -31.027   8.369   2.658  1.00 20.00    -0.387 OA
HETATM   12  H29 UNL     1     -31.195   8.075   3.564  1.00 20.00     0.211 HD
ENDBRANCH   8  11
ENDBRANCH   2   8
TORSDOF 5
ENDMDL
MODEL 2
REMARK VINA RESULT:      -1.1      0.776      1.533
REMARK  5 active torsions:
REMARK  status: ('A' for Active; 'I' for Inactive)
REMARK    1  A    between atoms: C2_2  and  C9_9 
REMARK    2  A    between atoms: C3_3  and  C8_8 
REMARK    3  A    between atoms: C4_4  and  C10_10 
REMARK    4  A    between atoms: C8_8  and  C9_9 
REMARK    5  A    between atoms: C10_10  and  O11_11 
ROOT
HETATM    1  C3  UNL     1     -33.101   5.668   1.594  1.00 20.00    -0.027 C 
HETATM    2  C4  UNL     1     -32.715   6.790   0.968  1.00 20.00     0.006 C 
ENDROOT
BRANCH   1   3
HETATM    3  C8  UNL     1     -33.043   5.485   3.087  1.00 20.00     0.035 C 
BRANCH   3   4
HETATM    4  C9  UNL     1     -34.308   4.807   3.647  1.00 20.00     0.006 C 
HETATM    5  C5  UNL     1     -35.282   5.866   4.173  1.00 20.00     0.014 C 
BRANCH   4   6
HETATM    6  C2  UNL     1     -33.971   3.842   4.759  1.00 20.00    -0.032 C 
HETATM    7  C1  UNL     1     -33.131   2.810   4.625  1.00 20.00     0.007 C 
ENDBRANCH   4   6
ENDBRANCH   3   4
ENDBRANCH   1   3
BRANCH   2   8
HETATM    8  C10 UNL     1     -32.164   8.047   1.603  1.00 20.00     0.068 C 
HETATM    9  C6  UNL     1     -32.209   9.307   0.730  1.00 20.00     0.050 C 
HETATM   10  C7  UNL     1     -32.900   8.310   2.921  1.00 20.00     0.050 C 
BRANCH   8  11
HETATM   11  O11 UNL     1     -30.793   7.801   1.934  1.00 20.00    -0.387 OA
HETATM   12  H29 UNL     1     -30.294   7.903   1.111  1.00 20.00     0.211 HD
ENDBRANCH   8  11
ENDBRANCH   2   8
TORSDOF 5
ENDMDL
MODEL 3
REMARK VINA RESULT:      -1.1      2.401      5.137
REMARK  5 active torsions:
REMARK  status: ('A' for Active; 'I' for Inactive)
REMARK    1  A    between atoms: C2_2  and  C9_9 
REMARK    2  A    between atoms: C3_3  and  C8_8 
REMARK    3  A    between atoms: C4_4  and  C10_10 
REMARK    4  A    between atoms: C8_8  and  C9_9 
REMARK    5  A    between atoms: C10_10  and  O11_11 
ROOT
HETATM    1  C3  UNL     1     -33.117   5.854   1.979  1.00 20.00    -0.027 C 
HETATM    2  C4  UNL     1     -33.858   5.386   2.994  1.00 20.00     0.006 C 
ENDROOT
BRANCH   1   3
HETATM    3  C8  UNL     1     -33.182   7.275   1.485  1.00 20.00     0.035 C 
BRANCH   3   4
HETATM    4  C9  UNL     1     -31.800   7.959   1.474  1.00 20.00     0.006 C 
HETATM    5  C5  UNL     1     -31.512   8.582   2.843  1.00 20.00     0.014 C 
BRANCH   4   6
HETATM    6  C2  UNL     1     -31.723   9.029   0.412  1.00 20.00    -0.032 C 
HETATM    7  C1  UNL     1     -32.585  10.047   0.311  1.00 20.00     0.007 C 
ENDBRANCH   4   6
ENDBRANCH   3   4
ENDBRANCH   1   3
BRANCH   2   8
HETATM    8  C10 UNL     1     -34.870   6.154   3.816  1.00 20.00     0.068 C 
HETATM    9  C6  UNL     1     -34.301   7.281   4.686  1.00 20.00     0.050 C 
HETATM   10  C7  UNL     1     -35.950   6.718   2.888  1.00 20.00     0.050 C 
BRANCH   8  11
HETATM   11  O11 UNL     1     -35.517   5.221   4.689  1.00 20.00    -0.387 OA
HETATM   12  H29 UNL     1     -35.262   5.471   5.588  1.00 20.00     0.211 HD
ENDBRANCH   8  11
ENDBRANCH   2   8
TORSDOF 5
ENDMDL
MODEL 4
REMARK VINA RESULT:      -0.9      2.173      5.206
REMARK  5 active torsions:
REMARK  status: ('A' for Active; 'I' for Inactive)
REMARK    1  A    between atoms: C2_2  and  C9_9 
REMARK    2  A    between atoms: C3_3  and  C8_8 
REMARK    3  A    between atoms: C4_4  and  C10_10 
REMARK    4  A    between atoms: C8_8  and  C9_9 
REMARK    5  A    between atoms: C10_10  and  O11_11 
ROOT
HETATM    1  C3  UNL     1     -32.876   6.075   1.894  1.00 20.00    -0.027 C 
HETATM    2  C4  UNL     1     -33.525   5.578   2.958  1.00 20.00     0.006 C 
ENDROOT
BRANCH   1   3
HETATM    3  C8  UNL     1     -33.178   7.419   1.287  1.00 20.00     0.035 C 
BRANCH   3   4
HETATM    4  C9  UNL     1     -31.931   8.321   1.203  1.00 20.00     0.006 C 
HETATM    5  C5  UNL     1     -31.256   8.412   2.576  1.00 20.00     0.014 C 
BRANCH   4   6
HETATM    6  C2  UNL     1     -32.285   9.710   0.728  1.00 20.00    -0.032 C 
HETATM    7  C1  UNL     1     -32.707   9.992  -0.509  1.00 20.00     0.007 C 
ENDBRANCH   4   6
ENDBRANCH   3   4
ENDBRANCH   1   3
BRANCH   2   8
HETATM    8  C10 UNL     1     -34.646   6.234   3.733  1.00 20.00     0.068 C 
HETATM    9  C6  UNL     1     -35.395   5.327   4.715  1.00 20.00     0.050 C 
HETATM   10  C7  UNL     1     -34.096   7.454   4.479  1.00 20.00     0.050 C 
BRANCH   8  11
HETATM   11  O11 UNL     1     -35.601   6.723   2.783  1.00 20.00    -0.387 OA
HETATM   12  H29 UNL     1     -35.939   5.945   2.317  1.00 20.00     0.211 HD
ENDBRANCH   8  11
ENDBRANCH   2   8
TORSDOF 5
ENDMDL
MODEL 5
REMARK VINA RESULT:      -0.7      1.930      5.156
REMARK  5 active torsions:
REMARK  status: ('A' for Active; 'I' for Inactive)
REMARK    1  A    between atoms: C2_2  and  C9_9 
REMARK    2  A    between atoms: C3_3  and  C8_8 
REMARK    3  A    between atoms: C4_4  and  C10_10 
REMARK    4  A    between atoms: C8_8  and  C9_9 
REMARK    5  A    between atoms: C10_10  and  O11_11 
ROOT
HETATM    1  C3  UNL     1     -32.966   5.895   1.913  1.00 20.00    -0.027 C 
HETATM    2  C4  UNL     1     -33.669   5.434   2.959  1.00 20.00     0.006 C 
ENDROOT
BRANCH   1   3
HETATM    3  C8  UNL     1     -33.120   7.283   1.352  1.00 20.00     0.035 C 
BRANCH   3   4
HETATM    4  C9  UNL     1     -31.794   8.068   1.347  1.00 20.00     0.006 C 
HETATM    5  C5  UNL     1     -31.523   8.648   2.738  1.00 20.00     0.014 C 
BRANCH   4   6
HETATM    6  C2  UNL     1     -31.819   9.187   0.335  1.00 20.00    -0.032 C 
HETATM    7  C1  UNL     1     -32.658  10.228   0.390  1.00 20.00     0.007 C 
ENDBRANCH   4   6
ENDBRANCH   3   4
ENDBRANCH   1   3
BRANCH   2   8
HETATM    8  C10 UNL     1     -34.718   6.179   3.754  1.00 20.00     0.068 C 
HETATM    9  C6  UNL     1     -35.834   6.835   2.932  1.00 20.00     0.050 C 
HETATM   10  C7  UNL     1     -35.333   5.232   4.789  1.00 20.00     0.050 C 
BRANCH   8  11
HETATM   11  O11 UNL     1     -34.053   7.217   4.482  1.00 20.00    -0.387 OA
HETATM   12  H29 UNL     1     -34.631   7.992   4.437  1.00 20.00     0.211 HD
ENDBRANCH   8  11
ENDBRANCH   2   8
TORSDOF 5
ENDMDL
MODEL 6
REMARK VINA RESULT:      -0.6      2.198      3.352
REMARK  5 active torsions:
REMARK  status: ('A' for Active; 'I' for Inactive)
REMARK    1  A    between atoms: C2_2  and  C9_9 
REMARK    2  A    between atoms: C3_3  and  C8_8 
REMARK    3  A    between atoms: C4_4  and  C10_10 
REMARK    4  A    between atoms: C8_8  and  C9_9 
REMARK    5  A    between atoms: C10_10  and  O11_11 
ROOT
HETATM    1  C3  UNL     1     -31.649   7.907   1.556  1.00 20.00    -0.027 C 
HETATM    2  C4  UNL     1     -31.487   8.715   0.497  1.00 20.00     0.006 C 
ENDROOT
BRANCH   1   3
HETATM    3  C8  UNL     1     -32.748   8.074   2.571  1.00 20.00     0.035 C 
BRANCH   3   4
HETATM    4  C9  UNL     1     -33.267   6.724   3.105  1.00 20.00     0.006 C 
HETATM    5  C5  UNL     1     -33.293   5.689   1.976  1.00 20.00     0.014 C 
BRANCH   4   6
HETATM    6  C2  UNL     1     -34.652   6.858   3.691  1.00 20.00    -0.032 C 
HETATM    7  C1  UNL     1     -35.364   5.832   4.171  1.00 20.00     0.007 C 
ENDBRANCH   4   6
ENDBRANCH   3   4
ENDBRANCH   1   3
BRANCH   2   8
HETATM    8  C10 UNL     1     -32.336   9.909   0.121  1.00 20.00     0.068 C 
HETATM    9  C6  UNL     1     -33.062  10.600   1.282  1.00 20.00     0.050 C 
HETATM   10  C7  UNL     1     -31.469  10.931  -0.622  1.00 20.00     0.050 C 
BRANCH   8  11
HETATM   11  O11 UNL     1     -33.333   9.458  -0.803  1.00 20.00    -0.387 OA
HETATM   12  H29 UNL     1     -34.185   9.736  -0.437  1.00 20.00     0.211 HD
ENDBRANCH   8  11
ENDBRANCH   2   8
TORSDOF 5
ENDMDL
MODEL 7
REMARK VINA RESULT:      -0.3      1.704      2.720
REMARK  5 active torsions:
REMARK  status: ('A' for Active; 'I' for Inactive)
REMARK    1  A    between atoms: C2_2  and  C9_9 
REMARK    2  A    between atoms: C3_3  and  C8_8 
REMARK    3  A    between atoms: C4_4  and  C10_10 
REMARK    4  A    between atoms: C8_8  and  C9_9 
REMARK    5  A    between atoms: C10_10  and  O11_11 
ROOT
HETATM    1  C3  UNL     1     -32.151   7.546   2.595  1.00 20.00    -0.027 C 
HETATM    2  C4  UNL     1     -31.556   8.436   1.786  1.00 20.00     0.006 C 
ENDROOT
BRANCH   1   3
HETATM    3  C8  UNL     1     -33.557   7.048   2.395  1.00 20.00     0.035 C 
BRANCH   3   4
HETATM    4  C9  UNL     1     -34.463   7.339   3.607  1.00 20.00     0.006 C 
HETATM    5  C5  UNL     1     -33.638   7.949   4.744  1.00 20.00     0.014 C 
BRANCH   4   6
HETATM    6  C2  UNL     1     -35.143   6.084   4.102  1.00 20.00    -0.032 C 
HETATM    7  C1  UNL     1     -34.566   4.877   4.116  1.00 20.00     0.007 C 
ENDBRANCH   4   6
ENDBRANCH   3   4
ENDBRANCH   1   3
BRANCH   2   8
HETATM    8  C10 UNL     1     -32.149   9.095   0.560  1.00 20.00     0.068 C 
HETATM    9  C6  UNL     1     -32.861  10.430   0.803  1.00 20.00     0.050 C 
HETATM   10  C7  UNL     1     -31.051   9.283  -0.492  1.00 20.00     0.050 C 
BRANCH   8  11
HETATM   11  O11 UNL     1     -33.109   8.190   0.003  1.00 20.00    -0.387 OA
HETATM   12  H29 UNL     1     -33.073   8.316  -0.956  1.00 20.00     0.211 HD
ENDBRANCH   8  11
ENDBRANCH   2   8
TORSDOF 5
ENDMDL
MODEL 8
REMARK VINA RESULT:      -0.2      1.613      2.568
REMARK  5 active torsions:
REMARK  status: ('A' for Active; 'I' for Inactive)
REMARK    1  A    between atoms: C2_2  and  C9_9 
REMARK    2  A    between atoms: C3_3  and  C8_8 
REMARK    3  A    between atoms: C4_4  and  C10_10 
REMARK    4  A    between atoms: C8_8  and  C9_9 
REMARK    5  A    between atoms: C10_10  and  O11_11 
ROOT
HETATM    1  C3  UNL     1     -33.065   6.310   1.596  1.00 20.00    -0.027 C 
HETATM    2  C4  UNL     1     -32.583   7.203   0.718  1.00 20.00     0.006 C 
ENDROOT
BRANCH   1   3
HETATM    3  C8  UNL     1     -33.022   6.501   3.088  1.00 20.00     0.035 C 
BRANCH   3   4
HETATM    4  C9  UNL     1     -34.289   7.191   3.631  1.00 20.00     0.006 C 
HETATM    5  C5  UNL     1     -33.932   8.071   4.833  1.00 20.00     0.014 C 
BRANCH   4   6
HETATM    6  C2  UNL     1     -35.333   6.182   4.043  1.00 20.00    -0.032 C 
HETATM    7  C1  UNL     1     -35.055   4.934   4.435  1.00 20.00     0.007 C 
ENDBRANCH   4   6
ENDBRANCH   3   4
ENDBRANCH   1   3
BRANCH   2   8
HETATM    8  C10 UNL     1     -31.924   8.528   1.033  1.00 20.00     0.068 C 
HETATM    9  C6  UNL     1     -32.856   9.744   1.060  1.00 20.00     0.050 C 
HETATM   10  C7  UNL     1     -31.185   8.418   2.370  1.00 20.00     0.050 C 
BRANCH   8  11
HETATM   11  O11 UNL     1     -30.932   8.767   0.028  1.00 20.00    -0.387 OA
HETATM   12  H29 UNL     1     -30.945   9.720  -0.142  1.00 20.00     0.211 HD
ENDBRANCH   8  11
ENDBRANCH   2   8
TORSDOF 5
ENDMDL
MODEL 9
REMARK VINA RESULT:      -0.1      2.225      4.586
REMARK  5 active torsions:
REMARK  status: ('A' for Active; 'I' for Inactive)
REMARK    1  A    between atoms: C2_2  and  C9_9 
REMARK    2  A    between atoms: C3_3  and  C8_8 
REMARK    3  A    between atoms: C4_4  and  C10_10 
REMARK    4  A    between atoms: C8_8  and  C9_9 
REMARK    5  A    between atoms: C10_10  and  O11_11 
ROOT
HETATM    1  C3  UNL     1     -33.580   7.933   4.057  1.00 20.00    -0.027 C 
HETATM    2  C4  UNL     1     -34.246   6.971   4.713  1.00 20.00     0.006 C 
ENDROOT
BRANCH   1   3
HETATM    3  C8  UNL     1     -33.553   8.053   2.557  1.00 20.00     0.035 C 
BRANCH   3   4
HETATM    4  C9  UNL     1     -32.118   8.086   1.994  1.00 20.00     0.006 C 
HETATM    5  C5  UNL     1     -32.036   9.075   0.826  1.00 20.00     0.014 C 
BRANCH   4   6
HETATM    6  C2  UNL     1     -31.678   6.721   1.523  1.00 20.00    -0.032 C 
HETATM    7  C1  UNL     1     -32.516   5.775   1.084  1.00 20.00     0.007 C 
ENDBRANCH   4   6
ENDBRANCH   3   4
ENDBRANCH   1   3
BRANCH   2   8
HETATM    8  C10 UNL     1     -35.070   5.855   4.109  1.00 20.00     0.068 C 
HETATM    9  C6  UNL     1     -36.107   6.286   3.065  1.00 20.00     0.050 C 
HETATM   10  C7  UNL     1     -34.132   4.809   3.498  1.00 20.00     0.050 C 
BRANCH   8  11
HETATM   11  O11 UNL     1     -35.775   5.210   5.176  1.00 20.00    -0.387 OA
HETATM   12  H29 UNL     1     -35.415   4.314   5.233  1.00 20.00     0.211 HD
ENDBRANCH   8  11
ENDBRANCH   2   8
TORSDOF 5
ENDMDL
