MODEL 1
REMARK VINA RESULT:      -1.1      0.000      0.000
REMARK  1 active torsions:
REMARK  status: ('A' for Active; 'I' for Inactive)
REMARK    1  A    between atoms: C1_1  and  C4_4 
ROOT
HETATM    1  C2  UNL     1     -35.619   6.820   3.064  1.00 20.00     0.042 C 
HETATM    2  C3  UNL     1     -33.744   7.518   4.609  1.00 20.00     0.042 C 
HETATM    3  C4  UNL     1     -34.185   6.543   3.517  1.00 20.00     0.105 C 
HETATM    4 CL7  UNL     1     -34.151   4.882   4.225  1.00 20.00    -0.110 Cl
ENDROOT
BRANCH   3   5
HETATM    5  C1  UNL     1     -33.209   6.556   2.326  1.00 20.00     0.241 C 
HETATM    6  O5  UNL     1     -33.082   5.607   1.555  1.00 20.00    -0.278 OA
HETATM    7 CL6  UNL     1     -32.304   8.046   2.181  1.00 20.00    -0.042 Cl
ENDBRANCH   3   5
TORSDOF 1
ENDMDL
MODEL 2
REMARK VINA RESULT:      -1.0      1.246      1.728
REMARK  1 active torsions:
REMARK  status: ('A' for Active; 'I' for Inactive)
REMARK    1  A    between atoms: C1_1  and  C4_4 
ROOT
HETATM    1  C2  UNL     1     -34.197   5.084   4.196  1.00 20.00     0.042 C 
HETATM    2  C3  UNL     1     -35.623   6.850   3.085  1.00 20.00     0.042 C 
HETATM    3  C4  UNL     1     -34.213   6.458   3.524  1.00 20.00     0.105 C 
HETATM    4 CL7  UNL     1     -33.670   7.667   4.751  1.00 20.00    -0.110 Cl
ENDROOT
BRANCH   3   5
HETATM    5  C1  UNL     1     -33.221   6.518   2.349  1.00 20.00     0.241 C 
HETATM    6  O5  UNL     1     -33.055   5.587   1.564  1.00 20.00    -0.278 OA
HETATM    7 CL6  UNL     1     -32.357   8.036   2.241  1.00 20.00    -0.042 Cl
ENDBRANCH   3   5
TORSDOF 1
ENDMDL
MODEL 3
REMARK VINA RESULT:      -0.9      1.258      1.722
REMARK  1 active torsions:
REMARK  status: ('A' for Active; 'I' for Inactive)
REMARK    1  A    between atoms: C1_1  and  C4_4 
ROOT
HETATM    1  C2  UNL     1     -33.859   7.559   4.564  1.00 20.00     0.042 C 
HETATM    2  C3  UNL     1     -34.243   5.094   4.162  1.00 20.00     0.042 C 
HETATM    3  C4  UNL     1     -34.215   6.487   3.534  1.00 20.00     0.105 C 
HETATM    4 CL7  UNL     1     -35.879   6.845   2.932  1.00 20.00    -0.110 Cl
ENDROOT
BRANCH   3   5
HETATM    5  C1  UNL     1     -33.267   6.537   2.321  1.00 20.00     0.241 C 
HETATM    6  O5  UNL     1     -33.166   5.618   1.513  1.00 20.00    -0.278 OA
HETATM    7 CL6  UNL     1     -32.353   8.025   2.210  1.00 20.00    -0.042 Cl
ENDBRANCH   3   5
TORSDOF 1
ENDMDL
MODEL 4
REMARK VINA RESULT:      -0.8      2.049      3.019
REMARK  1 active torsions:
REMARK  status: ('A' for Active; 'I' for Inactive)
REMARK    1  A    between atoms: C1_1  and  C4_4 
ROOT
HETATM    1  C2  UNL     1     -31.714   5.223   1.624  1.00 20.00     0.042 C 
HETATM    2  C3  UNL     1     -32.242   7.691   1.759  1.00 20.00     0.042 C 
HETATM    3  C4  UNL     1     -32.812   6.273   1.796  1.00 20.00     0.105 C 
HETATM    4 CL7  UNL     1     -33.945   6.107   0.399  1.00 20.00    -0.110 Cl
ENDROOT
BRANCH   3   5
HETATM    5  C1  UNL     1     -33.626   6.029   3.080  1.00 20.00     0.241 C 
HETATM    6  O5  UNL     1     -33.903   4.905   3.493  1.00 20.00    -0.278 OA
HETATM    7 CL6  UNL     1     -34.116   7.502   3.887  1.00 20.00    -0.042 Cl
ENDBRANCH   3   5
TORSDOF 1
ENDMDL
MODEL 5
REMARK VINA RESULT:      -0.7      1.809      3.037
REMARK  1 active torsions:
REMARK  status: ('A' for Active; 'I' for Inactive)
REMARK    1  A    between atoms: C1_1  and  C4_4 
ROOT
HETATM    1  C2  UNL     1     -33.815   6.157   0.566  1.00 20.00     0.042 C 
HETATM    2  C3  UNL     1     -31.728   5.187   1.610  1.00 20.00     0.042 C 
HETATM    3  C4  UNL     1     -32.868   6.194   1.766  1.00 20.00     0.105 C 
HETATM    4 CL7  UNL     1     -32.131   7.842   1.824  1.00 20.00    -0.110 Cl
ENDROOT
BRANCH   3   5
HETATM    5  C1  UNL     1     -33.628   5.983   3.088  1.00 20.00     0.241 C 
HETATM    6  O5  UNL     1     -33.878   4.871   3.545  1.00 20.00    -0.278 OA
HETATM    7 CL6  UNL     1     -34.098   7.477   3.869  1.00 20.00    -0.042 Cl
ENDBRANCH   3   5
TORSDOF 1
ENDMDL
MODEL 6
REMARK VINA RESULT:      -0.6      2.034      3.015
REMARK  1 active torsions:
REMARK  status: ('A' for Active; 'I' for Inactive)
REMARK    1  A    between atoms: C1_1  and  C4_4 
ROOT
HETATM    1  C2  UNL     1     -32.193   7.685   1.803  1.00 20.00     0.042 C 
HETATM    2  C3  UNL     1     -33.779   6.168   0.550  1.00 20.00     0.042 C 
HETATM    3  C4  UNL     1     -32.857   6.309   1.762  1.00 20.00     0.105 C 
HETATM    4 CL7  UNL     1     -31.547   5.079   1.592  1.00 20.00    -0.110 Cl
ENDROOT
BRANCH   3   5
HETATM    5  C1  UNL     1     -33.604   6.007   3.074  1.00 20.00     0.241 C 
HETATM    6  O5  UNL     1     -33.785   4.867   3.493  1.00 20.00    -0.278 OA
HETATM    7 CL6  UNL     1     -34.165   7.442   3.904  1.00 20.00    -0.042 Cl
ENDBRANCH   3   5
TORSDOF 1
ENDMDL
MODEL 7
REMARK VINA RESULT:      -0.5      2.370      3.063
REMARK  1 active torsions:
REMARK  status: ('A' for Active; 'I' for Inactive)
REMARK    1  A    between atoms: C1_1  and  C4_4 
ROOT
HETATM    1  C2  UNL     1     -33.557   6.144   2.357  1.00 20.00     0.042 C 
HETATM    2  C3  UNL     1     -33.961   7.402   4.511  1.00 20.00     0.042 C 
HETATM    3  C4  UNL     1     -34.490   6.334   3.553  1.00 20.00     0.105 C 
HETATM    4 CL7  UNL     1     -36.077   6.914   2.916  1.00 20.00    -0.110 Cl
ENDROOT
BRANCH   3   5
HETATM    5  C1  UNL     1     -34.746   5.003   4.282  1.00 20.00     0.241 C 
HETATM    6  O5  UNL     1     -35.745   4.796   4.967  1.00 20.00    -0.278 OA
HETATM    7 CL6  UNL     1     -33.480   3.819   4.040  1.00 20.00    -0.042 Cl
ENDBRANCH   3   5
TORSDOF 1
ENDMDL
MODEL 8
REMARK VINA RESULT:      -0.5      2.017      3.116
REMARK  1 active torsions:
REMARK  status: ('A' for Active; 'I' for Inactive)
REMARK    1  A    between atoms: C1_1  and  C4_4 
ROOT
HETATM    1  C2  UNL     1     -33.854   7.417   4.572  1.00 20.00     0.042 C 
HETATM    2  C3  UNL     1     -35.777   6.982   2.991  1.00 20.00     0.042 C 
HETATM    3  C4  UNL     1     -34.487   6.426   3.594  1.00 20.00     0.105 C 
HETATM    4 CL7  UNL     1     -33.317   6.180   2.240  1.00 20.00    -0.110 Cl
ENDROOT
BRANCH   3   5
HETATM    5  C1  UNL     1     -34.720   5.056   4.255  1.00 20.00     0.241 C 
HETATM    6  O5  UNL     1     -35.714   4.799   4.930  1.00 20.00    -0.278 OA
HETATM    7 CL6  UNL     1     -33.435   3.907   3.952  1.00 20.00    -0.042 Cl
ENDBRANCH   3   5
TORSDOF 1
ENDMDL
MODEL 9
REMARK VINA RESULT:      -0.4      2.178      3.024
REMARK  1 active torsions:
REMARK  status: ('A' for Active; 'I' for Inactive)
REMARK    1  A    between atoms: C1_1  and  C4_4 
ROOT
HETATM    1  C2  UNL     1     -35.763   6.964   3.009  1.00 20.00     0.042 C 
HETATM    2  C3  UNL     1     -33.425   6.193   2.438  1.00 20.00     0.042 C 
HETATM    3  C4  UNL     1     -34.467   6.355   3.545  1.00 20.00     0.105 C 
HETATM    4 CL7  UNL     1     -33.791   7.505   4.762  1.00 20.00    -0.110 Cl
ENDROOT
BRANCH   3   5
HETATM    5  C1  UNL     1     -34.731   5.022   4.268  1.00 20.00     0.241 C 
HETATM    6  O5  UNL     1     -35.748   4.806   4.923  1.00 20.00    -0.278 OA
HETATM    7 CL6  UNL     1     -33.445   3.852   4.066  1.00 20.00    -0.042 Cl
ENDBRANCH   3   5
TORSDOF 1
ENDMDL
