MODEL 1
REMARK VINA RESULT:      -0.6      0.000      0.000
REMARK  0 active torsions:
REMARK  status: ('A' for Active; 'I' for Inactive)
ROOT
HETATM    1  C1  UNL     1     -32.365   8.380   1.403  1.00 20.00     0.102 C 
HETATM    2  C2  UNL     1     -33.868   8.032   3.310  1.00 20.00     0.075 A 
HETATM    3  C3  UNL     1     -33.047   7.526   2.327  1.00 20.00     0.075 A 
HETATM    4  C4  UNL     1     -32.980   6.103   2.364  1.00 20.00     0.084 A 
HETATM    5  C5  UNL     1     -33.753   5.575   3.376  1.00 20.00     0.097 A 
HETATM    6  N6  UNL     1     -31.813   9.072   0.654  1.00 20.00    -0.191 NA
HETATM    7  S7  UNL     1     -34.554   6.792   4.274  1.00 20.00    -0.086 SA
HETATM    8 CL8  UNL     1     -32.038   5.178   1.266  1.00 20.00    -0.080 Cl
HETATM    9 CL9  UNL     1     -33.984   3.929   3.805  1.00 20.00    -0.074 Cl
ENDROOT
TORSDOF 0
ENDMDL
MODEL 2
REMARK VINA RESULT:      -0.1      2.771      3.700
REMARK  0 active torsions:
REMARK  status: ('A' for Active; 'I' for Inactive)
ROOT
HETATM    1  C1  UNL     1     -33.883   4.489   3.840  1.00 20.00     0.102 C 
HETATM    2  C2  UNL     1     -34.294   6.895   4.078  1.00 20.00     0.075 A 
HETATM    3  C3  UNL     1     -33.695   5.843   3.420  1.00 20.00     0.075 A 
HETATM    4  C4  UNL     1     -32.903   6.281   2.319  1.00 20.00     0.084 A 
HETATM    5  C5  UNL     1     -32.928   7.651   2.177  1.00 20.00     0.097 A 
HETATM    6  N6  UNL     1     -34.036   3.390   4.180  1.00 20.00    -0.191 NA
HETATM    7  S7  UNL     1     -33.902   8.404   3.367  1.00 20.00    -0.086 SA
HETATM    8 CL8  UNL     1     -32.031   5.206   1.304  1.00 20.00    -0.080 Cl
HETATM    9 CL9  UNL     1     -32.134   8.625   1.006  1.00 20.00    -0.074 Cl
ENDROOT
TORSDOF 0
ENDMDL
MODEL 3
REMARK VINA RESULT:       0.4      3.386      4.326
REMARK  0 active torsions:
REMARK  status: ('A' for Active; 'I' for Inactive)
ROOT
HETATM    1  C1  UNL     1     -34.661   5.141   4.035  1.00 20.00     0.102 C 
HETATM    2  C2  UNL     1     -33.203   5.024   2.065  1.00 20.00     0.075 A 
HETATM    3  C3  UNL     1     -33.790   5.751   3.077  1.00 20.00     0.075 A 
HETATM    4  C4  UNL     1     -33.420   7.127   3.032  1.00 20.00     0.084 A 
HETATM    5  C5  UNL     1     -32.564   7.398   1.987  1.00 20.00     0.097 A 
HETATM    6  N6  UNL     1     -35.366   4.646   4.811  1.00 20.00    -0.191 NA
HETATM    7  S7  UNL     1     -32.210   6.000   1.067  1.00 20.00    -0.086 SA
HETATM    8 CL8  UNL     1     -33.989   8.289   4.161  1.00 20.00    -0.080 Cl
HETATM    9 CL9  UNL     1     -31.859   8.898   1.537  1.00 20.00    -0.074 Cl
ENDROOT
TORSDOF 0
ENDMDL
MODEL 4
REMARK VINA RESULT:       0.5      2.763      3.684
REMARK  0 active torsions:
REMARK  status: ('A' for Active; 'I' for Inactive)
ROOT
HETATM    1  C1  UNL     1     -34.463   5.538   3.879  1.00 20.00     0.102 C 
HETATM    2  C2  UNL     1     -33.427   7.753   4.067  1.00 20.00     0.075 A 
HETATM    3  C3  UNL     1     -33.655   6.596   3.356  1.00 20.00     0.075 A 
HETATM    4  C4  UNL     1     -33.002   6.609   2.089  1.00 20.00     0.084 A 
HETATM    5  C5  UNL     1     -32.300   7.776   1.880  1.00 20.00     0.097 A 
HETATM    6  N6  UNL     1     -35.119   4.680   4.304  1.00 20.00    -0.191 NA
HETATM    7  S7  UNL     1     -32.430   8.849   3.207  1.00 20.00    -0.086 SA
HETATM    8 CL8  UNL     1     -33.096   5.309   0.971  1.00 20.00    -0.080 Cl
HETATM    9 CL9  UNL     1     -31.367   8.240   0.515  1.00 20.00    -0.074 Cl
ENDROOT
TORSDOF 0
ENDMDL
MODEL 5
REMARK VINA RESULT:       0.5      1.995      2.338
REMARK  0 active torsions:
REMARK  status: ('A' for Active; 'I' for Inactive)
ROOT
HETATM    1  C1  UNL     1     -32.457   8.582   1.433  1.00 20.00     0.102 C 
HETATM    2  C2  UNL     1     -32.049   6.193   1.055  1.00 20.00     0.075 A 
HETATM    3  C3  UNL     1     -32.631   7.206   1.785  1.00 20.00     0.075 A 
HETATM    4  C4  UNL     1     -33.392   6.708   2.882  1.00 20.00     0.084 A 
HETATM    5  C5  UNL     1     -33.363   5.332   2.949  1.00 20.00     0.097 A 
HETATM    6  N6  UNL     1     -32.316   9.697   1.148  1.00 20.00    -0.191 NA
HETATM    7  S7  UNL     1     -32.421   4.647   1.694  1.00 20.00    -0.086 SA
HETATM    8 CL8  UNL     1     -34.238   7.724   3.977  1.00 20.00    -0.080 Cl
HETATM    9 CL9  UNL     1     -34.122   4.295   4.087  1.00 20.00    -0.074 Cl
ENDROOT
TORSDOF 0
ENDMDL
MODEL 6
REMARK VINA RESULT:       0.9      2.115      2.364
REMARK  0 active torsions:
REMARK  status: ('A' for Active; 'I' for Inactive)
ROOT
HETATM    1  C1  UNL     1     -32.075   7.991   1.728  1.00 20.00     0.102 C 
HETATM    2  C2  UNL     1     -32.676   5.614   1.656  1.00 20.00     0.075 A 
HETATM    3  C3  UNL     1     -32.804   6.863   2.221  1.00 20.00     0.075 A 
HETATM    4  C4  UNL     1     -33.722   6.866   3.312  1.00 20.00     0.084 A 
HETATM    5  C5  UNL     1     -34.260   5.618   3.538  1.00 20.00     0.097 A 
HETATM    6  N6  UNL     1     -31.484   8.905   1.328  1.00 20.00    -0.191 NA
HETATM    7  S7  UNL     1     -33.660   4.451   2.439  1.00 20.00    -0.086 SA
HETATM    8 CL8  UNL     1     -34.096   8.273   4.221  1.00 20.00    -0.080 Cl
HETATM    9 CL9  UNL     1     -35.398   5.138   4.730  1.00 20.00    -0.074 Cl
ENDROOT
TORSDOF 0
ENDMDL
MODEL 7
REMARK VINA RESULT:       1.0      2.629      3.169
REMARK  0 active torsions:
REMARK  status: ('A' for Active; 'I' for Inactive)
ROOT
HETATM    1  C1  UNL     1     -32.721   5.204   0.888  1.00 20.00     0.102 C 
HETATM    2  C2  UNL     1     -32.037   7.476   1.509  1.00 20.00     0.075 A 
HETATM    3  C3  UNL     1     -32.737   6.321   1.781  1.00 20.00     0.075 A 
HETATM    4  C4  UNL     1     -33.440   6.400   3.018  1.00 20.00     0.084 A 
HETATM    5  C5  UNL     1     -33.251   7.613   3.644  1.00 20.00     0.097 A 
HETATM    6  N6  UNL     1     -32.707   4.298   0.163  1.00 20.00    -0.191 NA
HETATM    7  S7  UNL     1     -32.230   8.649   2.743  1.00 20.00    -0.086 SA
HETATM    8 CL8  UNL     1     -34.404   5.119   3.633  1.00 20.00    -0.080 Cl
HETATM    9 CL9  UNL     1     -33.892   8.162   5.140  1.00 20.00    -0.074 Cl
ENDROOT
TORSDOF 0
ENDMDL
MODEL 8
REMARK VINA RESULT:       1.2      2.446      3.174
REMARK  0 active torsions:
REMARK  status: ('A' for Active; 'I' for Inactive)
ROOT
HETATM    1  C1  UNL     1     -33.643   7.933   4.459  1.00 20.00     0.102 C 
HETATM    2  C2  UNL     1     -32.355   8.247   2.395  1.00 20.00     0.075 A 
HETATM    3  C3  UNL     1     -33.107   7.445   3.225  1.00 20.00     0.075 A 
HETATM    4  C4  UNL     1     -33.265   6.129   2.701  1.00 20.00     0.084 A 
HETATM    5  C5  UNL     1     -32.627   5.976   1.489  1.00 20.00     0.097 A 
HETATM    6  N6  UNL     1     -34.078   8.329   5.459  1.00 20.00    -0.191 NA
HETATM    7  S7  UNL     1     -31.842   7.412   0.989  1.00 20.00    -0.086 SA
HETATM    8 CL8  UNL     1     -34.152   4.898   3.504  1.00 20.00    -0.080 Cl
HETATM    9 CL9  UNL     1     -32.540   4.582   0.490  1.00 20.00    -0.074 Cl
ENDROOT
TORSDOF 0
ENDMDL
MODEL 9
REMARK VINA RESULT:       1.5      2.572      3.003
REMARK  0 active torsions:
REMARK  status: ('A' for Active; 'I' for Inactive)
ROOT
HETATM    1  C1  UNL     1     -32.305   5.120   1.148  1.00 20.00     0.102 C 
HETATM    2  C2  UNL     1     -33.992   4.914   2.916  1.00 20.00     0.075 A 
HETATM    3  C3  UNL     1     -33.068   5.668   2.227  1.00 20.00     0.075 A 
HETATM    4  C4  UNL     1     -32.989   7.002   2.721  1.00 20.00     0.084 A 
HETATM    5  C5  UNL     1     -33.856   7.217   3.770  1.00 20.00     0.097 A 
HETATM    6  N6  UNL     1     -31.687   4.676   0.273  1.00 20.00    -0.191 NA
HETATM    7  S7  UNL     1     -34.760   5.816   4.154  1.00 20.00    -0.086 SA
HETATM    8 CL8  UNL     1     -31.928   8.184   2.069  1.00 20.00    -0.080 Cl
HETATM    9 CL9  UNL     1     -34.111   8.653   4.677  1.00 20.00    -0.074 Cl
ENDROOT
TORSDOF 0
ENDMDL
