MODEL 1
REMARK VINA RESULT:      -1.9      0.000      0.000
REMARK  1 active torsions:
REMARK  status: ('A' for Active; 'I' for Inactive)
REMARK    1  A    between atoms: C2_2  and  C3_3 
ROOT
HETATM    1  C1  UNL     1     -33.735   6.413   2.994  1.00 20.00     0.112 C 
HETATM    2  C2  UNL     1     -32.755   6.651   2.115  1.00 20.00     0.090 C 
HETATM    3 CL6  UNL     1     -34.383   7.560   4.095  1.00 20.00    -0.095 Cl
HETATM    4 CL7  UNL     1     -32.158   5.435   1.038  1.00 20.00    -0.080 Cl
ENDROOT
BRANCH   2   5
HETATM    5  C3  UNL     1     -32.103   7.995   2.003  1.00 20.00     0.167 C 
HETATM    6  C4  UNL     1     -32.356   8.839   0.777  1.00 20.00     0.097 C 
HETATM    7  O5  UNL     1     -31.367   8.413   2.898  1.00 20.00    -0.292 OA
ENDBRANCH   2   5
TORSDOF 1
ENDMDL
MODEL 2
REMARK VINA RESULT:      -1.8      2.907      3.441
REMARK  1 active torsions:
REMARK  status: ('A' for Active; 'I' for Inactive)
REMARK    1  A    between atoms: C2_2  and  C3_3 
ROOT
HETATM    1  C1  UNL     1     -32.804   5.599   2.293  1.00 20.00     0.112 C 
HETATM    2  C2  UNL     1     -33.688   5.415   3.279  1.00 20.00     0.090 C 
HETATM    3 CL6  UNL     1     -32.529   7.080   1.468  1.00 20.00    -0.095 Cl
HETATM    4 CL7  UNL     1     -33.904   3.885   4.059  1.00 20.00    -0.080 Cl
ENDROOT
BRANCH   2   5
HETATM    5  C3  UNL     1     -34.557   6.527   3.780  1.00 20.00     0.167 C 
HETATM    6  C4  UNL     1     -33.915   7.755   4.378  1.00 20.00     0.097 C 
HETATM    7  O5  UNL     1     -35.785   6.446   3.708  1.00 20.00    -0.292 OA
ENDBRANCH   2   5
TORSDOF 1
ENDMDL
MODEL 3
REMARK VINA RESULT:      -1.6      2.475      3.465
REMARK  1 active torsions:
REMARK  status: ('A' for Active; 'I' for Inactive)
REMARK    1  A    between atoms: C2_2  and  C3_3 
ROOT
HETATM    1  C1  UNL     1     -33.159   7.527   3.440  1.00 20.00     0.112 C 
HETATM    2  C2  UNL     1     -33.536   6.322   2.999  1.00 20.00     0.090 C 
HETATM    3 CL6  UNL     1     -33.625   8.228   4.937  1.00 20.00    -0.095 Cl
HETATM    4 CL7  UNL     1     -33.020   5.689   1.473  1.00 20.00    -0.080 Cl
ENDROOT
BRANCH   2   5
HETATM    5  C3  UNL     1     -34.436   5.433   3.800  1.00 20.00     0.167 C 
HETATM    6  C4  UNL     1     -33.972   4.042   4.159  1.00 20.00     0.097 C 
HETATM    7  O5  UNL     1     -35.545   5.827   4.165  1.00 20.00    -0.292 OA
ENDBRANCH   2   5
TORSDOF 1
ENDMDL
MODEL 4
REMARK VINA RESULT:      -1.6      2.308      4.029
REMARK  1 active torsions:
REMARK  status: ('A' for Active; 'I' for Inactive)
REMARK    1  A    between atoms: C2_2  and  C3_3 
ROOT
HETATM    1  C1  UNL     1     -32.805   7.098   2.567  1.00 20.00     0.112 C 
HETATM    2  C2  UNL     1     -33.610   7.083   3.635  1.00 20.00     0.090 C 
HETATM    3 CL6  UNL     1     -32.844   5.968   1.276  1.00 20.00    -0.095 Cl
HETATM    4 CL7  UNL     1     -33.503   8.263   4.896  1.00 20.00    -0.080 Cl
ENDROOT
BRANCH   2   5
HETATM    5  C3  UNL     1     -34.667   6.036   3.813  1.00 20.00     0.167 C 
HETATM    6  C4  UNL     1     -34.255   4.610   4.083  1.00 20.00     0.097 C 
HETATM    7  O5  UNL     1     -35.861   6.331   3.742  1.00 20.00    -0.292 OA
ENDBRANCH   2   5
TORSDOF 1
ENDMDL
MODEL 5
REMARK VINA RESULT:      -1.5      2.964      3.272
REMARK  1 active torsions:
REMARK  status: ('A' for Active; 'I' for Inactive)
REMARK    1  A    between atoms: C2_2  and  C3_3 
ROOT
HETATM    1  C1  UNL     1     -33.235   4.470   3.200  1.00 20.00     0.112 C 
HETATM    2  C2  UNL     1     -33.505   5.748   2.910  1.00 20.00     0.090 C 
HETATM    3 CL6  UNL     1     -33.878   3.596   4.531  1.00 20.00    -0.095 Cl
HETATM    4 CL7  UNL     1     -32.812   6.557   1.546  1.00 20.00    -0.080 Cl
ENDROOT
BRANCH   2   5
HETATM    5  C3  UNL     1     -34.431   6.571   3.752  1.00 20.00     0.167 C 
HETATM    6  C4  UNL     1     -33.920   7.841   4.388  1.00 20.00     0.097 C 
HETATM    7  O5  UNL     1     -35.600   6.221   3.926  1.00 20.00    -0.292 OA
ENDBRANCH   2   5
TORSDOF 1
ENDMDL
MODEL 6
REMARK VINA RESULT:      -1.3      0.498      2.390
REMARK  1 active torsions:
REMARK  status: ('A' for Active; 'I' for Inactive)
REMARK    1  A    between atoms: C2_2  and  C3_3 
ROOT
HETATM    1  C1  UNL     1     -33.074   5.821   2.100  1.00 20.00     0.112 C 
HETATM    2  C2  UNL     1     -33.110   7.050   2.628  1.00 20.00     0.090 C 
HETATM    3 CL6  UNL     1     -31.980   5.291   0.888  1.00 20.00    -0.095 Cl
HETATM    4 CL7  UNL     1     -34.249   7.504   3.849  1.00 20.00    -0.080 Cl
ENDROOT
BRANCH   2   5
HETATM    5  C3  UNL     1     -32.161   8.124   2.194  1.00 20.00     0.167 C 
HETATM    6  C4  UNL     1     -32.400   8.838   0.886  1.00 20.00     0.097 C 
HETATM    7  O5  UNL     1     -31.193   8.427   2.894  1.00 20.00    -0.292 OA
ENDBRANCH   2   5
TORSDOF 1
ENDMDL
MODEL 7
REMARK VINA RESULT:      -1.2      2.438      3.249
REMARK  1 active torsions:
REMARK  status: ('A' for Active; 'I' for Inactive)
REMARK    1  A    between atoms: C2_2  and  C3_3 
ROOT
HETATM    1  C1  UNL     1     -32.628   5.708   2.100  1.00 20.00     0.112 C 
HETATM    2  C2  UNL     1     -33.479   5.493   3.109  1.00 20.00     0.090 C 
HETATM    3 CL6  UNL     1     -32.318   7.231   1.369  1.00 20.00    -0.095 Cl
HETATM    4 CL7  UNL     1     -33.734   3.922   3.789  1.00 20.00    -0.080 Cl
ENDROOT
BRANCH   2   5
HETATM    5  C3  UNL     1     -34.273   6.603   3.724  1.00 20.00     0.167 C 
HETATM    6  C4  UNL     1     -35.761   6.431   3.915  1.00 20.00     0.097 C 
HETATM    7  O5  UNL     1     -33.724   7.650   4.074  1.00 20.00    -0.292 OA
ENDBRANCH   2   5
TORSDOF 1
ENDMDL
MODEL 8
REMARK VINA RESULT:      -1.2      2.081      2.942
REMARK  1 active torsions:
REMARK  status: ('A' for Active; 'I' for Inactive)
REMARK    1  A    between atoms: C2_2  and  C3_3 
ROOT
HETATM    1  C1  UNL     1     -34.331   5.416   4.121  1.00 20.00     0.112 C 
HETATM    2  C2  UNL     1     -33.958   6.503   3.437  1.00 20.00     0.090 C 
HETATM    3 CL6  UNL     1     -33.825   3.810   3.788  1.00 20.00    -0.095 Cl
HETATM    4 CL7  UNL     1     -34.518   8.091   3.840  1.00 20.00    -0.080 Cl
ENDROOT
BRANCH   2   5
HETATM    5  C3  UNL     1     -33.025   6.421   2.269  1.00 20.00     0.167 C 
HETATM    6  C4  UNL     1     -32.132   7.595   1.952  1.00 20.00     0.097 C 
HETATM    7  O5  UNL     1     -32.983   5.407   1.569  1.00 20.00    -0.292 OA
ENDBRANCH   2   5
TORSDOF 1
ENDMDL
MODEL 9
REMARK VINA RESULT:      -1.2      1.915      2.648
REMARK  1 active torsions:
REMARK  status: ('A' for Active; 'I' for Inactive)
REMARK    1  A    between atoms: C2_2  and  C3_3 
ROOT
HETATM    1  C1  UNL     1     -32.184   8.380   0.659  1.00 20.00     0.112 C 
HETATM    2  C2  UNL     1     -32.272   7.494   1.658  1.00 20.00     0.090 C 
HETATM    3 CL6  UNL     1     -32.468  10.067   0.798  1.00 20.00    -0.095 Cl
HETATM    4 CL7  UNL     1     -31.970   5.805   1.431  1.00 20.00    -0.080 Cl
ENDROOT
BRANCH   2   5
HETATM    5  C3  UNL     1     -32.640   7.907   3.050  1.00 20.00     0.167 C 
HETATM    6  C4  UNL     1     -33.946   7.434   3.640  1.00 20.00     0.097 C 
HETATM    7  O5  UNL     1     -31.888   8.624   3.712  1.00 20.00    -0.292 OA
ENDBRANCH   2   5
TORSDOF 1
ENDMDL
