MODEL 1
REMARK VINA RESULT:      -1.8      0.000      0.000
REMARK  4 active torsions:
REMARK  status: ('A' for Active; 'I' for Inactive)
REMARK    1  A    between atoms: C3_3  and  C7_7 
REMARK    2  A    between atoms: C6_6  and  C7_7 
REMARK    3  A    between atoms: C6_6  and  N9_9 
REMARK    4  A    between atoms: C8_8  and  N9_9 
ROOT
HETATM    1  C6  UNL     1     -31.974   7.600   1.922  1.00 20.00     0.290 C 
ENDROOT
BRANCH   1   2
HETATM    2  C7  UNL     1     -33.159   6.635   1.972  1.00 20.00     0.114 C 
HETATM    3 CL10 UNL     1     -32.742   5.090   1.170  1.00 20.00    -0.123 Cl
BRANCH   2   4
HETATM    4  C3  UNL     1     -33.656   6.362   3.386  1.00 20.00     0.006 A 
HETATM    5  C1  UNL     1     -34.227   7.477   4.217  1.00 20.00     0.006 A 
HETATM    6  C2  UNL     1     -35.128   6.394   3.691  1.00 20.00     0.006 A 
ENDBRANCH   2   4
ENDBRANCH   1   2
BRANCH   1   7
HETATM    7  N9  UNL     1     -32.396   8.968   1.736  1.00 20.00     0.088 N 
HETATM    8  H26 UNL     1     -31.751   9.600   2.219  1.00 20.00     0.316 HD
BRANCH   7   9
HETATM    9  C8  UNL     1     -32.433   9.329   0.321  1.00 20.00     0.212 C 
HETATM   10  C4  UNL     1     -31.124   8.911  -0.334  1.00 20.00     0.042 C 
HETATM   11  C5  UNL     1     -32.670  10.827   0.200  1.00 20.00     0.042 C 
ENDBRANCH   7   9
ENDBRANCH   1   7
TORSDOF 4
ENDMDL
MODEL 2
REMARK VINA RESULT:      -1.7      0.825      1.163
REMARK  4 active torsions:
REMARK  status: ('A' for Active; 'I' for Inactive)
REMARK    1  A    between atoms: C3_3  and  C7_7 
REMARK    2  A    between atoms: C6_6  and  C7_7 
REMARK    3  A    between atoms: C6_6  and  N9_9 
REMARK    4  A    between atoms: C8_8  and  N9_9 
ROOT
HETATM    1  C6  UNL     1     -32.181   7.987   1.997  1.00 20.00     0.290 C 
ENDROOT
BRANCH   1   2
HETATM    2  C7  UNL     1     -33.161   6.813   2.031  1.00 20.00     0.114 C 
HETATM    3 CL10 UNL     1     -32.422   5.360   1.290  1.00 20.00    -0.123 Cl
BRANCH   2   4
HETATM    4  C3  UNL     1     -33.655   6.479   3.433  1.00 20.00     0.006 A 
HETATM    5  C1  UNL     1     -34.240   7.554   4.306  1.00 20.00     0.006 A 
HETATM    6  C2  UNL     1     -35.127   6.482   3.738  1.00 20.00     0.006 A 
ENDBRANCH   2   4
ENDBRANCH   1   2
BRANCH   1   7
HETATM    7  N9  UNL     1     -31.816   8.350   0.648  1.00 20.00     0.088 N 
HETATM    8  H26 UNL     1     -32.357   7.794  -0.020  1.00 20.00     0.316 HD
BRANCH   7   9
HETATM    9  C8  UNL     1     -32.068   9.766   0.389  1.00 20.00     0.212 C 
HETATM   10  C4  UNL     1     -32.888  10.344   1.534  1.00 20.00     0.042 C 
HETATM   11  C5  UNL     1     -32.788   9.902  -0.944  1.00 20.00     0.042 C 
ENDBRANCH   7   9
ENDBRANCH   1   7
TORSDOF 4
ENDMDL
MODEL 3
REMARK VINA RESULT:      -1.6      1.941      4.655
REMARK  4 active torsions:
REMARK  status: ('A' for Active; 'I' for Inactive)
REMARK    1  A    between atoms: C3_3  and  C7_7 
REMARK    2  A    between atoms: C6_6  and  C7_7 
REMARK    3  A    between atoms: C6_6  and  N9_9 
REMARK    4  A    between atoms: C8_8  and  N9_9 
ROOT
HETATM    1  C6  UNL     1     -32.262   6.663   1.730  1.00 20.00     0.290 C 
ENDROOT
BRANCH   1   2
HETATM    2  C7  UNL     1     -32.437   8.171   1.925  1.00 20.00     0.114 C 
HETATM    3 CL10 UNL     1     -31.705   8.690   3.474  1.00 20.00    -0.123 Cl
BRANCH   2   4
HETATM    4  C3  UNL     1     -31.861   8.997   0.782  1.00 20.00     0.006 A 
HETATM    5  C1  UNL     1     -32.652   9.200  -0.480  1.00 20.00     0.006 A 
HETATM    6  C2  UNL     1     -32.433  10.351   0.463  1.00 20.00     0.006 A 
ENDBRANCH   2   4
ENDBRANCH   1   2
BRANCH   1   7
HETATM    7  N9  UNL     1     -33.484   5.939   1.990  1.00 20.00     0.088 N 
HETATM    8  H26 UNL     1     -33.430   5.005   1.573  1.00 20.00     0.316 HD
BRANCH   7   9
HETATM    9  C8  UNL     1     -33.726   5.797   3.424  1.00 20.00     0.212 C 
HETATM   10  C4  UNL     1     -33.905   4.323   3.756  1.00 20.00     0.042 C 
HETATM   11  C5  UNL     1     -34.955   6.612   3.799  1.00 20.00     0.042 C 
ENDBRANCH   7   9
ENDBRANCH   1   7
TORSDOF 4
ENDMDL
MODEL 4
REMARK VINA RESULT:      -1.2      1.296      4.432
REMARK  4 active torsions:
REMARK  status: ('A' for Active; 'I' for Inactive)
REMARK    1  A    between atoms: C3_3  and  C7_7 
REMARK    2  A    between atoms: C6_6  and  C7_7 
REMARK    3  A    between atoms: C6_6  and  N9_9 
REMARK    4  A    between atoms: C8_8  and  N9_9 
ROOT
HETATM    1  C6  UNL     1     -32.649   8.163   2.663  1.00 20.00     0.290 C 
ENDROOT
BRANCH   1   2
HETATM    2  C7  UNL     1     -31.601   7.884   1.584  1.00 20.00     0.114 C 
HETATM    3 CL10 UNL     1     -31.895   6.291   0.823  1.00 20.00    -0.123 Cl
BRANCH   2   4
HETATM    4  C3  UNL     1     -31.541   8.963   0.509  1.00 20.00     0.006 A 
HETATM    5  C1  UNL     1     -32.666   9.114  -0.476  1.00 20.00     0.006 A 
HETATM    6  C2  UNL     1     -32.450  10.158   0.584  1.00 20.00     0.006 A 
ENDBRANCH   2   4
ENDBRANCH   1   2
BRANCH   1   7
HETATM    7  N9  UNL     1     -33.557   7.053   2.835  1.00 20.00     0.088 N 
HETATM    8  H26 UNL     1     -33.034   6.212   3.090  1.00 20.00     0.316 HD
BRANCH   7   9
HETATM    9  C8  UNL     1     -34.541   7.326   3.880  1.00 20.00     0.212 C 
HETATM   10  C4  UNL     1     -33.832   7.906   5.094  1.00 20.00     0.042 C 
HETATM   11  C5  UNL     1     -35.271   6.035   4.218  1.00 20.00     0.042 C 
ENDBRANCH   7   9
ENDBRANCH   1   7
TORSDOF 4
ENDMDL
MODEL 5
REMARK VINA RESULT:      -0.9      1.708      1.917
REMARK  4 active torsions:
REMARK  status: ('A' for Active; 'I' for Inactive)
REMARK    1  A    between atoms: C3_3  and  C7_7 
REMARK    2  A    between atoms: C6_6  and  C7_7 
REMARK    3  A    between atoms: C6_6  and  N9_9 
REMARK    4  A    between atoms: C8_8  and  N9_9 
ROOT
HETATM    1  C6  UNL     1     -32.761   7.018   1.934  1.00 20.00     0.290 C 
ENDROOT
BRANCH   1   2
HETATM    2  C7  UNL     1     -33.281   6.610   3.314  1.00 20.00     0.114 C 
HETATM    3 CL10 UNL     1     -34.032   8.010   4.139  1.00 20.00    -0.123 Cl
BRANCH   2   4
HETATM    4  C3  UNL     1     -34.268   5.450   3.267  1.00 20.00     0.006 A 
HETATM    5  C1  UNL     1     -34.055   4.238   4.131  1.00 20.00     0.006 A 
HETATM    6  C2  UNL     1     -35.182   5.187   4.432  1.00 20.00     0.006 A 
ENDBRANCH   2   4
ENDBRANCH   1   2
BRANCH   1   7
HETATM    7  N9  UNL     1     -32.231   8.362   1.931  1.00 20.00     0.088 N 
HETATM    8  H26 UNL     1     -31.235   8.343   2.163  1.00 20.00     0.316 HD
BRANCH   7   9
HETATM    9  C8  UNL     1     -32.396   8.998   0.626  1.00 20.00     0.212 C 
HETATM   10  C4  UNL     1     -31.115   8.826  -0.177  1.00 20.00     0.042 C 
HETATM   11  C5  UNL     1     -32.738  10.466   0.834  1.00 20.00     0.042 C 
ENDBRANCH   7   9
ENDBRANCH   1   7
TORSDOF 4
ENDMDL
MODEL 6
REMARK VINA RESULT:      -0.9      2.539      5.197
REMARK  4 active torsions:
REMARK  status: ('A' for Active; 'I' for Inactive)
REMARK    1  A    between atoms: C3_3  and  C7_7 
REMARK    2  A    between atoms: C6_6  and  C7_7 
REMARK    3  A    between atoms: C6_6  and  N9_9 
REMARK    4  A    between atoms: C8_8  and  N9_9 
ROOT
HETATM    1  C6  UNL     1     -34.166   6.459   2.956  1.00 20.00     0.290 C 
ENDROOT
BRANCH   1   2
HETATM    2  C7  UNL     1     -33.490   7.796   3.261  1.00 20.00     0.114 C 
HETATM    3 CL10 UNL     1     -33.235   7.981   5.024  1.00 20.00    -0.123 Cl
BRANCH   2   4
HETATM    4  C3  UNL     1     -32.167   7.985   2.529  1.00 20.00     0.006 A 
HETATM    5  C1  UNL     1     -31.889   7.229   1.260  1.00 20.00     0.006 A 
HETATM    6  C2  UNL     1     -32.126   8.713   1.215  1.00 20.00     0.006 A 
ENDBRANCH   2   4
ENDBRANCH   1   2
BRANCH   1   7
HETATM    7  N9  UNL     1     -33.368   5.337   3.390  1.00 20.00     0.088 N 
HETATM    8  H26 UNL     1     -32.718   5.634   4.123  1.00 20.00     0.316 HD
BRANCH   7   9
HETATM    9  C8  UNL     1     -34.202   4.259   3.915  1.00 20.00     0.212 C 
HETATM   10  C4  UNL     1     -35.324   4.858   4.749  1.00 20.00     0.042 C 
HETATM   11  C5  UNL     1     -33.332   3.317   4.734  1.00 20.00     0.042 C 
ENDBRANCH   7   9
ENDBRANCH   1   7
TORSDOF 4
ENDMDL
MODEL 7
REMARK VINA RESULT:      -0.7      1.413      1.901
REMARK  4 active torsions:
REMARK  status: ('A' for Active; 'I' for Inactive)
REMARK    1  A    between atoms: C3_3  and  C7_7 
REMARK    2  A    between atoms: C6_6  and  C7_7 
REMARK    3  A    between atoms: C6_6  and  N9_9 
REMARK    4  A    between atoms: C8_8  and  N9_9 
ROOT
HETATM    1  C6  UNL     1     -32.458   6.051   1.911  1.00 20.00     0.290 C 
ENDROOT
BRANCH   1   2
HETATM    2  C7  UNL     1     -33.738   5.448   2.491  1.00 20.00     0.114 C 
HETATM    3 CL10 UNL     1     -33.346   4.247   3.760  1.00 20.00    -0.123 Cl
BRANCH   2   4
HETATM    4  C3  UNL     1     -34.697   6.492   3.050  1.00 20.00     0.006 A 
HETATM    5  C1  UNL     1     -35.421   6.240   4.344  1.00 20.00     0.006 A 
HETATM    6  C2  UNL     1     -34.331   7.274   4.281  1.00 20.00     0.006 A 
ENDBRANCH   2   4
ENDBRANCH   1   2
BRANCH   1   7
HETATM    7  N9  UNL     1     -32.734   7.147   1.012  1.00 20.00     0.088 N 
HETATM    8  H26 UNL     1     -33.676   7.508   1.183  1.00 20.00     0.316 HD
BRANCH   7   9
HETATM    9  C8  UNL     1     -31.776   8.236   1.188  1.00 20.00     0.212 C 
HETATM   10  C4  UNL     1     -31.532   8.450   2.675  1.00 20.00     0.042 C 
HETATM   11  C5  UNL     1     -32.327   9.488   0.522  1.00 20.00     0.042 C 
ENDBRANCH   7   9
ENDBRANCH   1   7
TORSDOF 4
ENDMDL
MODEL 8
REMARK VINA RESULT:      -0.6      2.248      2.896
REMARK  4 active torsions:
REMARK  status: ('A' for Active; 'I' for Inactive)
REMARK    1  A    between atoms: C3_3  and  C7_7 
REMARK    2  A    between atoms: C6_6  and  C7_7 
REMARK    3  A    between atoms: C6_6  and  N9_9 
REMARK    4  A    between atoms: C8_8  and  N9_9 
ROOT
HETATM    1  C6  UNL     1     -33.214   5.805   1.844  1.00 20.00     0.290 C 
ENDROOT
BRANCH   1   2
HETATM    2  C7  UNL     1     -33.573   5.600   3.316  1.00 20.00     0.114 C 
HETATM    3 CL10 UNL     1     -34.898   6.703   3.797  1.00 20.00    -0.123 Cl
BRANCH   2   4
HETATM    4  C3  UNL     1     -33.955   4.163   3.650  1.00 20.00     0.006 A 
HETATM    5  C1  UNL     1     -32.903   3.180   4.083  1.00 20.00     0.006 A 
HETATM    6  C2  UNL     1     -33.918   3.680   5.073  1.00 20.00     0.006 A 
ENDBRANCH   2   4
ENDBRANCH   1   2
BRANCH   1   7
HETATM    7  N9  UNL     1     -32.050   6.644   1.682  1.00 20.00     0.088 N 
HETATM    8  H26 UNL     1     -31.667   6.529   0.740  1.00 20.00     0.316 HD
BRANCH   7   9
HETATM    9  C8  UNL     1     -32.375   8.053   1.885  1.00 20.00     0.212 C 
HETATM   10  C4  UNL     1     -32.035   8.831   0.623  1.00 20.00     0.042 C 
HETATM   11  C5  UNL     1     -31.600   8.568   3.090  1.00 20.00     0.042 C 
ENDBRANCH   7   9
ENDBRANCH   1   7
TORSDOF 4
ENDMDL
MODEL 9
REMARK VINA RESULT:      -0.5      1.398      1.956
REMARK  4 active torsions:
REMARK  status: ('A' for Active; 'I' for Inactive)
REMARK    1  A    between atoms: C3_3  and  C7_7 
REMARK    2  A    between atoms: C6_6  and  C7_7 
REMARK    3  A    between atoms: C6_6  and  N9_9 
REMARK    4  A    between atoms: C8_8  and  N9_9 
ROOT
HETATM    1  C6  UNL     1     -32.311   6.094   2.043  1.00 20.00     0.290 C 
ENDROOT
BRANCH   1   2
HETATM    2  C7  UNL     1     -33.656   5.508   2.475  1.00 20.00     0.114 C 
HETATM    3 CL10 UNL     1     -33.414   4.210   3.684  1.00 20.00    -0.123 Cl
BRANCH   2   4
HETATM    4  C3  UNL     1     -34.619   6.551   3.028  1.00 20.00     0.006 A 
HETATM    5  C1  UNL     1     -35.385   6.280   4.293  1.00 20.00     0.006 A 
HETATM    6  C2  UNL     1     -34.282   7.302   4.287  1.00 20.00     0.006 A 
ENDBRANCH   2   4
ENDBRANCH   1   2
BRANCH   1   7
HETATM    7  N9  UNL     1     -32.457   7.057   0.978  1.00 20.00     0.088 N 
HETATM    8  H26 UNL     1     -33.366   6.938   0.523  1.00 20.00     0.316 HD
BRANCH   7   9
HETATM    9  C8  UNL     1     -32.361   8.426   1.478  1.00 20.00     0.212 C 
HETATM   10  C4  UNL     1     -32.138   9.371   0.307  1.00 20.00     0.042 C 
HETATM   11  C5  UNL     1     -31.226   8.503   2.489  1.00 20.00     0.042 C 
ENDBRANCH   7   9
ENDBRANCH   1   7
TORSDOF 4
ENDMDL
