MODEL 1
REMARK VINA RESULT:      -1.8      0.000      0.000
REMARK  2 active torsions:
REMARK  status: ('A' for Active; 'I' for Inactive)
REMARK    1  A    between atoms: C1_1  and  C4_4 
REMARK    2  A    between atoms: C4_4  and  C6_6 
ROOT
HETATM    1  C2  UNL     1     -33.528   6.187   0.906  1.00 20.00     0.062 A 
HETATM    2  C3  UNL     1     -32.551   5.358   1.674  1.00 20.00     0.190 A 
HETATM    3  C4  UNL     1     -32.950   6.712   2.206  1.00 20.00     0.081 A 
HETATM    4  F9  UNL     1     -31.282   5.210   1.141  1.00 20.00    -0.248 F 
ENDROOT
BRANCH   3   5
HETATM    5  C1  UNL     1     -33.847   6.711   3.357  1.00 20.00     0.184 C 
HETATM    6  O7  UNL     1     -34.299   5.580   3.688  1.00 20.00    -0.647 OA
HETATM    7  O8  UNL     1     -34.050   7.847   3.870  1.00 20.00    -0.647 OA
ENDBRANCH   3   5
BRANCH   3   8
HETATM    8  C6  UNL     1     -31.940   7.825   2.111  1.00 20.00     0.019 C 
HETATM    9  C5  UNL     1     -32.296   8.834   1.058  1.00 20.00     0.006 C 
ENDBRANCH   3   8
TORSDOF 2
ENDMDL
MODEL 2
REMARK VINA RESULT:      -1.8      2.249      3.154
REMARK  2 active torsions:
REMARK  status: ('A' for Active; 'I' for Inactive)
REMARK    1  A    between atoms: C1_1  and  C4_4 
REMARK    2  A    between atoms: C4_4  and  C6_6 
ROOT
HETATM    1  C2  UNL     1     -32.403   8.519   1.292  1.00 20.00     0.062 A 
HETATM    2  C3  UNL     1     -31.467   7.998   2.334  1.00 20.00     0.190 A 
HETATM    3  C4  UNL     1     -32.773   7.283   2.091  1.00 20.00     0.081 A 
HETATM    4  F9  UNL     1     -31.331   8.737   3.496  1.00 20.00    -0.248 F 
ENDROOT
BRANCH   3   5
HETATM    5  C1  UNL     1     -32.686   6.009   1.385  1.00 20.00     0.184 C 
HETATM    6  O7  UNL     1     -33.674   5.732   0.650  1.00 20.00    -0.647 OA
HETATM    7  O8  UNL     1     -31.630   5.353   1.604  1.00 20.00    -0.647 OA
ENDBRANCH   3   5
BRANCH   3   8
HETATM    8  C6  UNL     1     -33.855   7.431   3.129  1.00 20.00     0.019 C 
HETATM    9  C5  UNL     1     -34.317   6.108   3.668  1.00 20.00     0.006 C 
ENDBRANCH   3   8
TORSDOF 2
ENDMDL
MODEL 3
REMARK VINA RESULT:      -1.7      2.102      2.811
REMARK  2 active torsions:
REMARK  status: ('A' for Active; 'I' for Inactive)
REMARK    1  A    between atoms: C1_1  and  C4_4 
REMARK    2  A    between atoms: C4_4  and  C6_6 
ROOT
HETATM    1  C2  UNL     1     -35.198   6.378   3.596  1.00 20.00     0.062 A 
HETATM    2  C3  UNL     1     -34.121   5.532   4.194  1.00 20.00     0.190 A 
HETATM    3  C4  UNL     1     -33.777   6.482   3.074  1.00 20.00     0.081 A 
HETATM    4  F9  UNL     1     -34.149   4.176   3.918  1.00 20.00    -0.248 F 
ENDROOT
BRANCH   3   5
HETATM    5  C1  UNL     1     -33.037   7.680   3.453  1.00 20.00     0.184 C 
HETATM    6  O7  UNL     1     -32.464   8.283   2.503  1.00 20.00    -0.647 OA
HETATM    7  O8  UNL     1     -33.070   7.955   4.685  1.00 20.00    -0.647 OA
ENDBRANCH   3   5
BRANCH   3   8
HETATM    8  C6  UNL     1     -33.497   5.890   1.717  1.00 20.00     0.019 C 
HETATM    9  C5  UNL     1     -32.081   5.408   1.583  1.00 20.00     0.006 C 
ENDBRANCH   3   8
TORSDOF 2
ENDMDL
MODEL 4
REMARK VINA RESULT:      -1.7      2.110      2.787
REMARK  2 active torsions:
REMARK  status: ('A' for Active; 'I' for Inactive)
REMARK    1  A    between atoms: C1_1  and  C4_4 
REMARK    2  A    between atoms: C4_4  and  C6_6 
ROOT
HETATM    1  C2  UNL     1     -35.217   6.359   3.616  1.00 20.00     0.062 A 
HETATM    2  C3  UNL     1     -34.136   5.508   4.198  1.00 20.00     0.190 A 
HETATM    3  C4  UNL     1     -33.798   6.479   3.095  1.00 20.00     0.081 A 
HETATM    4  F9  UNL     1     -34.158   4.157   3.899  1.00 20.00    -0.248 F 
ENDROOT
BRANCH   3   5
HETATM    5  C1  UNL     1     -33.062   7.674   3.495  1.00 20.00     0.184 C 
HETATM    6  O7  UNL     1     -33.109   7.950   4.726  1.00 20.00    -0.647 OA
HETATM    7  O8  UNL     1     -32.475   8.274   2.552  1.00 20.00    -0.647 OA
ENDBRANCH   3   5
BRANCH   3   8
HETATM    8  C6  UNL     1     -33.515   5.913   1.728  1.00 20.00     0.019 C 
HETATM    9  C5  UNL     1     -32.098   5.438   1.586  1.00 20.00     0.006 C 
ENDBRANCH   3   8
TORSDOF 2
ENDMDL
MODEL 5
REMARK VINA RESULT:      -1.5      1.918      2.700
REMARK  2 active torsions:
REMARK  status: ('A' for Active; 'I' for Inactive)
REMARK    1  A    between atoms: C1_1  and  C4_4 
REMARK    2  A    between atoms: C4_4  and  C6_6 
ROOT
HETATM    1  C2  UNL     1     -31.712   5.527   1.701  1.00 20.00     0.062 A 
HETATM    2  C3  UNL     1     -32.712   5.936   0.669  1.00 20.00     0.190 A 
HETATM    3  C4  UNL     1     -32.704   6.634   2.007  1.00 20.00     0.081 A 
HETATM    4  F9  UNL     1     -33.743   5.054   0.396  1.00 20.00    -0.248 F 
ENDROOT
BRANCH   3   5
HETATM    5  C1  UNL     1     -32.171   7.992   2.020  1.00 20.00     0.184 C 
HETATM    6  O7  UNL     1     -31.524   8.307   3.057  1.00 20.00    -0.647 OA
HETATM    7  O8  UNL     1     -32.428   8.671   0.987  1.00 20.00    -0.647 OA
ENDBRANCH   3   5
BRANCH   3   8
HETATM    8  C6  UNL     1     -33.819   6.314   2.969  1.00 20.00     0.019 C 
HETATM    9  C5  UNL     1     -34.145   7.469   3.871  1.00 20.00     0.006 C 
ENDBRANCH   3   8
TORSDOF 2
ENDMDL
MODEL 6
REMARK VINA RESULT:      -1.4      1.932      2.400
REMARK  2 active torsions:
REMARK  status: ('A' for Active; 'I' for Inactive)
REMARK    1  A    between atoms: C1_1  and  C4_4 
REMARK    2  A    between atoms: C4_4  and  C6_6 
ROOT
HETATM    1  C2  UNL     1     -34.018   5.964   1.578  1.00 20.00     0.062 A 
HETATM    2  C3  UNL     1     -32.696   6.082   2.266  1.00 20.00     0.190 A 
HETATM    3  C4  UNL     1     -33.962   6.125   3.086  1.00 20.00     0.081 A 
HETATM    4  F9  UNL     1     -31.989   7.259   2.090  1.00 20.00    -0.248 F 
ENDROOT
BRANCH   3   5
HETATM    5  C1  UNL     1     -34.258   4.932   3.873  1.00 20.00     0.184 C 
HETATM    6  O7  UNL     1     -33.363   4.042   3.861  1.00 20.00    -0.647 OA
HETATM    7  O8  UNL     1     -35.374   4.952   4.463  1.00 20.00    -0.647 OA
ENDBRANCH   3   5
BRANCH   3   8
HETATM    8  C6  UNL     1     -34.383   7.455   3.653  1.00 20.00     0.019 C 
HETATM    9  C5  UNL     1     -33.538   7.873   4.821  1.00 20.00     0.006 C 
ENDBRANCH   3   8
TORSDOF 2
ENDMDL
MODEL 7
REMARK VINA RESULT:      -1.3      1.417      2.687
REMARK  2 active torsions:
REMARK  status: ('A' for Active; 'I' for Inactive)
REMARK    1  A    between atoms: C1_1  and  C4_4 
REMARK    2  A    between atoms: C4_4  and  C6_6 
ROOT
HETATM    1  C2  UNL     1     -31.527   7.847   2.444  1.00 20.00     0.062 A 
HETATM    2  C3  UNL     1     -32.621   8.616   1.777  1.00 20.00     0.190 A 
HETATM    3  C4  UNL     1     -32.871   7.189   2.197  1.00 20.00     0.081 A 
HETATM    4  F9  UNL     1     -32.477   8.888   0.427  1.00 20.00    -0.248 F 
ENDROOT
BRANCH   3   5
HETATM    5  C1  UNL     1     -33.724   7.004   3.366  1.00 20.00     0.184 C 
HETATM    6  O7  UNL     1     -33.914   8.038   4.064  1.00 20.00    -0.647 OA
HETATM    7  O8  UNL     1     -34.159   5.829   3.523  1.00 20.00    -0.647 OA
ENDBRANCH   3   5
BRANCH   3   8
HETATM    8  C6  UNL     1     -32.939   6.144   1.114  1.00 20.00     0.019 C 
HETATM    9  C5  UNL     1     -31.852   5.117   1.241  1.00 20.00     0.006 C 
ENDBRANCH   3   8
TORSDOF 2
ENDMDL
MODEL 8
REMARK VINA RESULT:      -1.2      1.516      2.792
REMARK  2 active torsions:
REMARK  status: ('A' for Active; 'I' for Inactive)
REMARK    1  A    between atoms: C1_1  and  C4_4 
REMARK    2  A    between atoms: C4_4  and  C6_6 
ROOT
HETATM    1  C2  UNL     1     -32.461   6.939   2.250  1.00 20.00     0.062 A 
HETATM    2  C3  UNL     1     -33.543   6.263   1.472  1.00 20.00     0.190 A 
HETATM    3  C4  UNL     1     -33.486   6.081   2.968  1.00 20.00     0.081 A 
HETATM    4  F9  UNL     1     -33.178   5.197   0.668  1.00 20.00    -0.248 F 
ENDROOT
BRANCH   3   5
HETATM    5  C1  UNL     1     -34.498   6.796   3.740  1.00 20.00     0.184 C 
HETATM    6  O7  UNL     1     -34.055   7.696   4.506  1.00 20.00    -0.647 OA
HETATM    7  O8  UNL     1     -35.684   6.415   3.537  1.00 20.00    -0.647 OA
ENDBRANCH   3   5
BRANCH   3   8
HETATM    8  C6  UNL     1     -33.022   4.748   3.494  1.00 20.00     0.019 C 
HETATM    9  C5  UNL     1     -34.085   4.043   4.286  1.00 20.00     0.006 C 
ENDBRANCH   3   8
TORSDOF 2
ENDMDL
MODEL 9
REMARK VINA RESULT:      -1.1      2.039      2.827
REMARK  2 active torsions:
REMARK  status: ('A' for Active; 'I' for Inactive)
REMARK    1  A    between atoms: C1_1  and  C4_4 
REMARK    2  A    between atoms: C4_4  and  C6_6 
ROOT
HETATM    1  C2  UNL     1     -33.415   7.518   4.547  1.00 20.00     0.062 A 
HETATM    2  C3  UNL     1     -33.821   7.963   3.180  1.00 20.00     0.190 A 
HETATM    3  C4  UNL     1     -33.981   6.513   3.562  1.00 20.00     0.081 A 
HETATM    4  F9  UNL     1     -32.813   8.301   2.294  1.00 20.00    -0.248 F 
ENDROOT
BRANCH   3   5
HETATM    5  C1  UNL     1     -35.346   6.061   3.814  1.00 20.00     0.184 C 
HETATM    6  O7  UNL     1     -35.449   5.037   4.543  1.00 20.00    -0.647 OA
HETATM    7  O8  UNL     1     -36.243   6.760   3.266  1.00 20.00    -0.647 OA
ENDBRANCH   3   5
BRANCH   3   8
HETATM    8  C6  UNL     1     -33.020   5.521   2.960  1.00 20.00     0.019 C 
HETATM    9  C5  UNL     1     -33.002   5.579   1.460  1.00 20.00     0.006 C 
ENDBRANCH   3   8
TORSDOF 2
ENDMDL
