MODEL 1
REMARK VINA RESULT:       2.9      0.000      0.000
REMARK  1 active torsions:
REMARK  status: ('A' for Active; 'I' for Inactive)
REMARK    1  A    between atoms: C5_5  and  C8_8 
ROOT
HETATM    1  C1  UNL     1     -33.352   4.197   2.768  1.00 20.00     0.047 C 
HETATM    2  C2  UNL     1     -33.768   5.421   2.419  1.00 20.00    -0.009 C 
HETATM    3  C3  UNL     1     -33.600   3.682   4.136  1.00 20.00     0.149 C 
HETATM    4  C6  UNL     1     -34.267   4.595   5.139  1.00 20.00     0.084 C 
HETATM    5  C7  UNL     1     -35.230   5.556   4.450  1.00 20.00     0.025 C 
HETATM    6  C8  UNL     1     -34.555   6.357   3.312  1.00 20.00    -0.003 C 
HETATM    7  C11 UNL     1     -35.648   7.056   2.486  1.00 20.00     0.024 C 
HETATM    8  O12 UNL     1     -33.211   2.557   4.444  1.00 20.00    -0.293 OA
ENDROOT
BRANCH   6   9
HETATM    9  C5  UNL     1     -33.642   7.417   3.876  1.00 20.00    -0.076 C 
HETATM   10  C4  UNL     1     -32.614   7.906   3.156  1.00 20.00    -0.027 C 
HETATM   11  C9  UNL     1     -32.211   7.532   1.788  1.00 20.00     0.036 C 
HETATM   12  C10 UNL     1     -33.973   7.865   5.271  1.00 20.00     0.044 C 
ENDBRANCH   6   9
TORSDOF 1
ENDMDL
MODEL 2
REMARK VINA RESULT:       3.1      1.854      3.580
REMARK  1 active torsions:
REMARK  status: ('A' for Active; 'I' for Inactive)
REMARK    1  A    between atoms: C5_5  and  C8_8 
ROOT
HETATM    1  C1  UNL     1     -34.177   7.630   3.838  1.00 20.00     0.047 C 
HETATM    2  C2  UNL     1     -33.259   8.208   3.055  1.00 20.00    -0.009 C 
HETATM    3  C3  UNL     1     -34.484   6.186   3.694  1.00 20.00     0.149 C 
HETATM    4  C6  UNL     1     -33.788   5.407   2.601  1.00 20.00     0.084 C 
HETATM    5  C7  UNL     1     -32.397   5.969   2.329  1.00 20.00     0.025 C 
HETATM    6  C8  UNL     1     -32.420   7.484   2.021  1.00 20.00    -0.003 C 
HETATM    7  C11 UNL     1     -30.978   8.017   2.067  1.00 20.00     0.024 C 
HETATM    8  O12 UNL     1     -35.332   5.667   4.418  1.00 20.00    -0.293 OA
ENDROOT
BRANCH   6   9
HETATM    9  C5  UNL     1     -32.972   7.739   0.641  1.00 20.00    -0.076 C 
HETATM   10  C4  UNL     1     -32.892   8.959   0.074  1.00 20.00    -0.027 C 
HETATM   11  C9  UNL     1     -32.297  10.183   0.642  1.00 20.00     0.036 C 
HETATM   12  C10 UNL     1     -33.601   6.548  -0.022  1.00 20.00     0.044 C 
ENDBRANCH   6   9
TORSDOF 1
ENDMDL
MODEL 3
REMARK VINA RESULT:       3.1      0.937      1.062
REMARK  1 active torsions:
REMARK  status: ('A' for Active; 'I' for Inactive)
REMARK    1  A    between atoms: C5_5  and  C8_8 
ROOT
HETATM    1  C1  UNL     1     -32.740   4.095   3.192  1.00 20.00     0.047 C 
HETATM    2  C2  UNL     1     -32.733   5.188   2.419  1.00 20.00    -0.009 C 
HETATM    3  C3  UNL     1     -33.770   3.929   4.245  1.00 20.00     0.149 C 
HETATM    4  C6  UNL     1     -34.760   5.049   4.469  1.00 20.00     0.084 C 
HETATM    5  C7  UNL     1     -35.046   5.793   3.169  1.00 20.00     0.025 C 
HETATM    6  C8  UNL     1     -33.758   6.302   2.482  1.00 20.00    -0.003 C 
HETATM    7  C11 UNL     1     -34.108   6.757   1.054  1.00 20.00     0.024 C 
HETATM    8  O12 UNL     1     -33.764   2.921   4.950  1.00 20.00    -0.293 OA
ENDROOT
BRANCH   6   9
HETATM    9  C5  UNL     1     -33.188   7.484   3.225  1.00 20.00    -0.076 C 
HETATM   10  C4  UNL     1     -32.157   8.191   2.723  1.00 20.00    -0.027 C 
HETATM   11  C9  UNL     1     -31.442   7.969   1.452  1.00 20.00     0.036 C 
HETATM   12  C10 UNL     1     -33.852   7.791   4.536  1.00 20.00     0.044 C 
ENDBRANCH   6   9
TORSDOF 1
ENDMDL
MODEL 4
REMARK VINA RESULT:       3.2      3.441      5.443
REMARK  1 active torsions:
REMARK  status: ('A' for Active; 'I' for Inactive)
REMARK    1  A    between atoms: C5_5  and  C8_8 
ROOT
HETATM    1  C1  UNL     1     -31.509   8.934  -0.347  1.00 20.00     0.047 C 
HETATM    2  C2  UNL     1     -31.221   8.185   0.724  1.00 20.00    -0.009 C 
HETATM    3  C3  UNL     1     -32.675   9.851  -0.329  1.00 20.00     0.149 C 
HETATM    4  C6  UNL     1     -33.562   9.865   0.895  1.00 20.00     0.084 C 
HETATM    5  C7  UNL     1     -32.762   9.550   2.154  1.00 20.00     0.025 C 
HETATM    6  C8  UNL     1     -31.973   8.225   2.038  1.00 20.00    -0.003 C 
HETATM    7  C11 UNL     1     -30.972   8.144   3.204  1.00 20.00     0.024 C 
HETATM    8  O12 UNL     1     -32.930  10.532  -1.320  1.00 20.00    -0.293 OA
ENDROOT
BRANCH   6   9
HETATM    9  C5  UNL     1     -32.902   7.041   2.134  1.00 20.00    -0.076 C 
HETATM   10  C4  UNL     1     -33.792   6.933   3.140  1.00 20.00    -0.027 C 
HETATM   11  C9  UNL     1     -34.015   7.874   4.253  1.00 20.00     0.036 C 
HETATM   12  C10 UNL     1     -32.750   6.023   1.040  1.00 20.00     0.044 C 
ENDBRANCH   6   9
TORSDOF 1
ENDMDL
MODEL 5
REMARK VINA RESULT:       3.3      1.326      1.902
REMARK  1 active torsions:
REMARK  status: ('A' for Active; 'I' for Inactive)
REMARK    1  A    between atoms: C5_5  and  C8_8 
ROOT
HETATM    1  C1  UNL     1     -33.775   4.490   3.870  1.00 20.00     0.047 C 
HETATM    2  C2  UNL     1     -33.107   5.190   2.945  1.00 20.00    -0.009 C 
HETATM    3  C3  UNL     1     -35.025   5.027   4.459  1.00 20.00     0.149 C 
HETATM    4  C6  UNL     1     -35.484   6.407   4.043  1.00 20.00     0.084 C 
HETATM    5  C7  UNL     1     -35.071   6.709   2.607  1.00 20.00     0.025 C 
HETATM    6  C8  UNL     1     -33.555   6.519   2.372  1.00 20.00    -0.003 C 
HETATM    7  C11 UNL     1     -33.283   6.542   0.858  1.00 20.00     0.024 C 
HETATM    8  O12 UNL     1     -35.628   4.375   5.310  1.00 20.00    -0.293 OA
ENDROOT
BRANCH   6   9
HETATM    9  C5  UNL     1     -32.772   7.641   3.007  1.00 20.00    -0.076 C 
HETATM   10  C4  UNL     1     -31.827   8.309   2.317  1.00 20.00    -0.027 C 
HETATM   11  C9  UNL     1     -31.406   8.093   0.921  1.00 20.00     0.036 C 
HETATM   12  C10 UNL     1     -33.131   7.938   4.435  1.00 20.00     0.044 C 
ENDBRANCH   6   9
TORSDOF 1
ENDMDL
MODEL 6
REMARK VINA RESULT:       3.7      1.834      3.257
REMARK  1 active torsions:
REMARK  status: ('A' for Active; 'I' for Inactive)
REMARK    1  A    between atoms: C5_5  and  C8_8 
ROOT
HETATM    1  C1  UNL     1     -35.180   6.486   3.588  1.00 20.00     0.047 C 
HETATM    2  C2  UNL     1     -34.319   6.961   2.679  1.00 20.00    -0.009 C 
HETATM    3  C3  UNL     1     -34.955   5.159   4.211  1.00 20.00     0.149 C 
HETATM    4  C6  UNL     1     -33.778   4.333   3.743  1.00 20.00     0.084 C 
HETATM    5  C7  UNL     1     -32.623   5.227   3.306  1.00 20.00     0.025 C 
HETATM    6  C8  UNL     1     -33.046   6.266   2.243  1.00 20.00    -0.003 C 
HETATM    7  C11 UNL     1     -31.921   7.304   2.093  1.00 20.00     0.024 C 
HETATM    8  O12 UNL     1     -35.754   4.733   5.043  1.00 20.00    -0.293 OA
ENDROOT
BRANCH   6   9
HETATM    9  C5  UNL     1     -33.256   5.604   0.904  1.00 20.00    -0.076 C 
HETATM   10  C4  UNL     1     -32.347   4.746   0.401  1.00 20.00    -0.027 C 
HETATM   11  C9  UNL     1     -31.073   4.321   1.009  1.00 20.00     0.036 C 
HETATM   12  C10 UNL     1     -34.532   5.976   0.204  1.00 20.00     0.044 C 
ENDBRANCH   6   9
TORSDOF 1
ENDMDL
MODEL 7
REMARK VINA RESULT:       3.8      2.132      3.988
REMARK  1 active torsions:
REMARK  status: ('A' for Active; 'I' for Inactive)
REMARK    1  A    between atoms: C5_5  and  C8_8 
ROOT
HETATM    1  C1  UNL     1     -34.529   7.011   4.058  1.00 20.00     0.047 C 
HETATM    2  C2  UNL     1     -34.528   6.201   2.992  1.00 20.00    -0.009 C 
HETATM    3  C3  UNL     1     -33.398   7.942   4.293  1.00 20.00     0.149 C 
HETATM    4  C6  UNL     1     -32.222   7.902   3.344  1.00 20.00     0.084 C 
HETATM    5  C7  UNL     1     -32.666   7.507   1.940  1.00 20.00     0.025 C 
HETATM    6  C8  UNL     1     -33.459   6.180   1.920  1.00 20.00    -0.003 C 
HETATM    7  C11 UNL     1     -34.121   6.023   0.540  1.00 20.00     0.024 C 
HETATM    8  O12 UNL     1     -33.410   8.679   5.278  1.00 20.00    -0.293 OA
ENDROOT
BRANCH   6   9
HETATM    9  C5  UNL     1     -32.538   5.005   2.136  1.00 20.00    -0.076 C 
HETATM   10  C4  UNL     1     -32.792   4.087   3.088  1.00 20.00    -0.027 C 
HETATM   11  C9  UNL     1     -33.927   4.052   4.030  1.00 20.00     0.036 C 
HETATM   12  C10 UNL     1     -31.348   4.954   1.221  1.00 20.00     0.044 C 
ENDBRANCH   6   9
TORSDOF 1
ENDMDL
MODEL 8
REMARK VINA RESULT:       3.9      3.500      5.292
REMARK  1 active torsions:
REMARK  status: ('A' for Active; 'I' for Inactive)
REMARK    1  A    between atoms: C5_5  and  C8_8 
ROOT
HETATM    1  C1  UNL     1     -31.755   8.753  -0.398  1.00 20.00     0.047 C 
HETATM    2  C2  UNL     1     -31.425   8.039   0.685  1.00 20.00    -0.009 C 
HETATM    3  C3  UNL     1     -32.718   9.876  -0.290  1.00 20.00     0.149 C 
HETATM    4  C6  UNL     1     -33.366  10.144   1.049  1.00 20.00     0.084 C 
HETATM    5  C7  UNL     1     -32.431   9.769   2.193  1.00 20.00     0.025 C 
HETATM    6  C8  UNL     1     -31.921   8.312   2.090  1.00 20.00    -0.003 C 
HETATM    7  C11 UNL     1     -30.767   8.122   3.088  1.00 20.00     0.024 C 
HETATM    8  O12 UNL     1     -33.014  10.523  -1.293  1.00 20.00    -0.293 OA
ENDROOT
BRANCH   6   9
HETATM    9  C5  UNL     1     -33.016   7.338   2.446  1.00 20.00    -0.076 C 
HETATM   10  C4  UNL     1     -33.041   6.096   1.923  1.00 20.00    -0.027 C 
HETATM   11  C9  UNL     1     -32.082   5.495   0.978  1.00 20.00     0.036 C 
HETATM   12  C10 UNL     1     -34.045   7.861   3.407  1.00 20.00     0.044 C 
ENDBRANCH   6   9
TORSDOF 1
ENDMDL
MODEL 9
REMARK VINA RESULT:       4.0      2.265      4.204
REMARK  1 active torsions:
REMARK  status: ('A' for Active; 'I' for Inactive)
REMARK    1  A    between atoms: C5_5  and  C8_8 
ROOT
HETATM    1  C1  UNL     1     -32.890   8.129   4.828  1.00 20.00     0.047 C 
HETATM    2  C2  UNL     1     -33.878   7.283   4.514  1.00 20.00    -0.009 C 
HETATM    3  C3  UNL     1     -31.978   8.641   3.777  1.00 20.00     0.149 C 
HETATM    4  C6  UNL     1     -32.149   8.131   2.364  1.00 20.00     0.084 C 
HETATM    5  C7  UNL     1     -33.609   7.797   2.076  1.00 20.00     0.025 C 
HETATM    6  C8  UNL     1     -34.208   6.816   3.111  1.00 20.00    -0.003 C 
HETATM    7  C11 UNL     1     -35.735   6.780   2.928  1.00 20.00     0.024 C 
HETATM    8  O12 UNL     1     -31.073   9.415   4.079  1.00 20.00    -0.293 OA
ENDROOT
BRANCH   6   9
HETATM    9  C5  UNL     1     -33.676   5.422   2.895  1.00 20.00    -0.076 C 
HETATM   10  C4  UNL     1     -34.016   4.411   3.718  1.00 20.00    -0.027 C 
HETATM   11  C9  UNL     1     -34.902   4.464   4.895  1.00 20.00     0.036 C 
HETATM   12  C10 UNL     1     -32.759   5.267   1.715  1.00 20.00     0.044 C 
ENDBRANCH   6   9
TORSDOF 1
ENDMDL
