MODEL 1
REMARK VINA RESULT:      -3.1      0.000      0.000
REMARK  3 active torsions:
REMARK  status: ('A' for Active; 'I' for Inactive)
REMARK    1  A    between atoms: C2_2  and  C8_8 
REMARK    2  A    between atoms: C4_4  and  C7_7 
REMARK    3  A    between atoms: C7_7  and  C8_8 
ROOT
HETATM    1  C7  UNL     1     -33.153   7.233   3.415  1.00 20.00     0.034 C 
ENDROOT
BRANCH   1   2
HETATM    2  C4  UNL     1     -34.607   7.156   3.793  1.00 20.00    -0.030 C 
HETATM    3  C3  UNL     1     -35.225   6.021   4.151  1.00 20.00    -0.035 C 
HETATM    4  C5  UNL     1     -34.547   4.692   4.221  1.00 20.00     0.035 C 
ENDBRANCH   1   2
BRANCH   1   5
HETATM    5  C8  UNL     1     -32.932   7.187   1.890  1.00 20.00     0.007 C 
HETATM    6  C6  UNL     1     -32.440   5.797   1.475  1.00 20.00     0.014 C 
BRANCH   5   7
HETATM    7  C2  UNL     1     -31.930   8.225   1.444  1.00 20.00    -0.032 C 
HETATM    8  C1  UNL     1     -32.244   9.302   0.713  1.00 20.00     0.007 C 
ENDBRANCH   5   7
ENDBRANCH   1   5
TORSDOF 3
ENDMDL
MODEL 2
REMARK VINA RESULT:      -3.0      0.846      4.304
REMARK  3 active torsions:
REMARK  status: ('A' for Active; 'I' for Inactive)
REMARK    1  A    between atoms: C2_2  and  C8_8 
REMARK    2  A    between atoms: C4_4  and  C7_7 
REMARK    3  A    between atoms: C7_7  and  C8_8 
ROOT
HETATM    1  C7  UNL     1     -32.351   8.307   2.493  1.00 20.00     0.034 C 
ENDROOT
BRANCH   1   2
HETATM    2  C4  UNL     1     -31.840   8.211   1.081  1.00 20.00    -0.030 C 
HETATM    3  C3  UNL     1     -31.996   9.177   0.164  1.00 20.00    -0.035 C 
HETATM    4  C5  UNL     1     -32.693  10.470   0.430  1.00 20.00     0.035 C 
ENDBRANCH   1   2
BRANCH   1   5
HETATM    5  C8  UNL     1     -32.959   6.983   2.997  1.00 20.00     0.007 C 
HETATM    6  C6  UNL     1     -33.142   6.013   1.826  1.00 20.00     0.014 C 
BRANCH   5   7
HETATM    7  C2  UNL     1     -34.290   7.207   3.673  1.00 20.00    -0.032 C 
HETATM    8  C1  UNL     1     -35.158   6.229   3.958  1.00 20.00     0.007 C 
ENDBRANCH   5   7
ENDBRANCH   1   5
TORSDOF 3
ENDMDL
MODEL 3
REMARK VINA RESULT:      -2.3      0.832      4.351
REMARK  3 active torsions:
REMARK  status: ('A' for Active; 'I' for Inactive)
REMARK    1  A    between atoms: C2_2  and  C8_8 
REMARK    2  A    between atoms: C4_4  and  C7_7 
REMARK    3  A    between atoms: C7_7  and  C8_8 
ROOT
HETATM    1  C7  UNL     1     -33.347   7.023   2.225  1.00 20.00     0.034 C 
ENDROOT
BRANCH   1   2
HETATM    2  C4  UNL     1     -31.985   7.660   2.188  1.00 20.00    -0.030 C 
HETATM    3  C3  UNL     1     -31.662   8.684   1.385  1.00 20.00    -0.035 C 
HETATM    4  C5  UNL     1     -32.614   9.322   0.428  1.00 20.00     0.035 C 
ENDBRANCH   1   2
BRANCH   1   5
HETATM    5  C8  UNL     1     -34.175   7.462   3.449  1.00 20.00     0.007 C 
HETATM    6  C6  UNL     1     -33.244   7.953   4.562  1.00 20.00     0.014 C 
BRANCH   5   7
HETATM    7  C2  UNL     1     -35.027   6.331   3.975  1.00 20.00    -0.032 C 
HETATM    8  C1  UNL     1     -34.615   5.061   4.057  1.00 20.00     0.007 C 
ENDBRANCH   5   7
ENDBRANCH   1   5
TORSDOF 3
ENDMDL
MODEL 4
REMARK VINA RESULT:      -2.2      1.363      4.272
REMARK  3 active torsions:
REMARK  status: ('A' for Active; 'I' for Inactive)
REMARK    1  A    between atoms: C2_2  and  C8_8 
REMARK    2  A    between atoms: C4_4  and  C7_7 
REMARK    3  A    between atoms: C7_7  and  C8_8 
ROOT
HETATM    1  C7  UNL     1     -32.062   8.125   2.159  1.00 20.00     0.034 C 
ENDROOT
BRANCH   1   2
HETATM    2  C4  UNL     1     -31.800   8.434   0.710  1.00 20.00    -0.030 C 
HETATM    3  C3  UNL     1     -32.167   9.579   0.114  1.00 20.00    -0.035 C 
HETATM    4  C5  UNL     1     -32.879  10.689   0.814  1.00 20.00     0.035 C 
ENDBRANCH   1   2
BRANCH   1   5
HETATM    5  C8  UNL     1     -33.319   7.256   2.363  1.00 20.00     0.007 C 
HETATM    6  C6  UNL     1     -33.901   7.497   3.759  1.00 20.00     0.014 C 
BRANCH   5   7
HETATM    7  C2  UNL     1     -33.009   5.787   2.198  1.00 20.00    -0.032 C 
HETATM    8  C1  UNL     1     -32.393   5.268   1.129  1.00 20.00     0.007 C 
ENDBRANCH   5   7
ENDBRANCH   1   5
TORSDOF 3
ENDMDL
MODEL 5
REMARK VINA RESULT:      -2.1      1.138      2.016
REMARK  3 active torsions:
REMARK  status: ('A' for Active; 'I' for Inactive)
REMARK    1  A    between atoms: C2_2  and  C8_8 
REMARK    2  A    between atoms: C4_4  and  C7_7 
REMARK    3  A    between atoms: C7_7  and  C8_8 
ROOT
HETATM    1  C7  UNL     1     -34.349   6.716   3.052  1.00 20.00     0.034 C 
ENDROOT
BRANCH   1   2
HETATM    2  C4  UNL     1     -35.224   6.079   4.097  1.00 20.00    -0.030 C 
HETATM    3  C3  UNL     1     -35.031   4.842   4.577  1.00 20.00    -0.035 C 
HETATM    4  C5  UNL     1     -33.925   3.942   4.136  1.00 20.00     0.035 C 
ENDBRANCH   1   2
BRANCH   1   5
HETATM    5  C8  UNL     1     -33.098   7.389   3.653  1.00 20.00     0.007 C 
HETATM    6  C6  UNL     1     -33.499   8.271   4.839  1.00 20.00     0.014 C 
BRANCH   5   7
HETATM    7  C2  UNL     1     -32.375   8.228   2.627  1.00 20.00    -0.032 C 
HETATM    8  C1  UNL     1     -31.879   7.746   1.481  1.00 20.00     0.007 C 
ENDBRANCH   5   7
ENDBRANCH   1   5
TORSDOF 3
ENDMDL
MODEL 6
REMARK VINA RESULT:      -2.1      0.613      1.996
REMARK  3 active torsions:
REMARK  status: ('A' for Active; 'I' for Inactive)
REMARK    1  A    between atoms: C2_2  and  C8_8 
REMARK    2  A    between atoms: C4_4  and  C7_7 
REMARK    3  A    between atoms: C7_7  and  C8_8 
ROOT
HETATM    1  C7  UNL     1     -33.018   7.462   3.655  1.00 20.00     0.034 C 
ENDROOT
BRANCH   1   2
HETATM    2  C4  UNL     1     -34.517   7.385   3.549  1.00 20.00    -0.030 C 
HETATM    3  C3  UNL     1     -35.231   6.291   3.852  1.00 20.00    -0.035 C 
HETATM    4  C5  UNL     1     -34.628   5.013   4.334  1.00 20.00     0.035 C 
ENDBRANCH   1   2
BRANCH   1   5
HETATM    5  C8  UNL     1     -32.318   7.327   2.288  1.00 20.00     0.007 C 
HETATM    6  C6  UNL     1     -32.458   8.632   1.498  1.00 20.00     0.014 C 
BRANCH   5   7
HETATM    7  C2  UNL     1     -32.897   6.190   1.480  1.00 20.00    -0.032 C 
HETATM    8  C1  UNL     1     -32.197   5.117   1.092  1.00 20.00     0.007 C 
ENDBRANCH   5   7
ENDBRANCH   1   5
TORSDOF 3
ENDMDL
MODEL 7
REMARK VINA RESULT:      -2.1      1.099      4.393
REMARK  3 active torsions:
REMARK  status: ('A' for Active; 'I' for Inactive)
REMARK    1  A    between atoms: C2_2  and  C8_8 
REMARK    2  A    between atoms: C4_4  and  C7_7 
REMARK    3  A    between atoms: C7_7  and  C8_8 
ROOT
HETATM    1  C7  UNL     1     -32.273   8.082   2.638  1.00 20.00     0.034 C 
ENDROOT
BRANCH   1   2
HETATM    2  C4  UNL     1     -31.790   7.962   1.218  1.00 20.00    -0.030 C 
HETATM    3  C3  UNL     1     -31.946   8.922   0.294  1.00 20.00    -0.035 C 
HETATM    4  C5  UNL     1     -32.617  10.229   0.559  1.00 20.00     0.035 C 
ENDBRANCH   1   2
BRANCH   1   5
HETATM    5  C8  UNL     1     -33.599   7.334   2.879  1.00 20.00     0.007 C 
HETATM    6  C6  UNL     1     -34.124   7.640   4.285  1.00 20.00     0.014 C 
BRANCH   5   7
HETATM    7  C2  UNL     1     -33.428   5.842   2.724  1.00 20.00    -0.032 C 
HETATM    8  C1  UNL     1     -33.995   4.936   3.531  1.00 20.00     0.007 C 
ENDBRANCH   5   7
ENDBRANCH   1   5
TORSDOF 3
ENDMDL
MODEL 8
REMARK VINA RESULT:      -2.1      0.831      1.464
REMARK  3 active torsions:
REMARK  status: ('A' for Active; 'I' for Inactive)
REMARK    1  A    between atoms: C2_2  and  C8_8 
REMARK    2  A    between atoms: C4_4  and  C7_7 
REMARK    3  A    between atoms: C7_7  and  C8_8 
ROOT
HETATM    1  C7  UNL     1     -33.040   6.741   2.188  1.00 20.00     0.034 C 
ENDROOT
BRANCH   1   2
HETATM    2  C4  UNL     1     -33.981   7.309   3.214  1.00 20.00    -0.030 C 
HETATM    3  C3  UNL     1     -34.717   6.558   4.047  1.00 20.00    -0.035 C 
HETATM    4  C5  UNL     1     -34.693   5.066   4.062  1.00 20.00     0.035 C 
ENDBRANCH   1   2
BRANCH   1   5
HETATM    5  C8  UNL     1     -31.937   7.737   1.777  1.00 20.00     0.007 C 
HETATM    6  C6  UNL     1     -31.635   8.690   2.937  1.00 20.00     0.014 C 
BRANCH   5   7
HETATM    7  C2  UNL     1     -32.341   8.540   0.563  1.00 20.00    -0.032 C 
HETATM    8  C1  UNL     1     -32.322   9.877   0.511  1.00 20.00     0.007 C 
ENDBRANCH   5   7
ENDBRANCH   1   5
TORSDOF 3
ENDMDL
MODEL 9
REMARK VINA RESULT:      -2.1      1.041      3.881
REMARK  3 active torsions:
REMARK  status: ('A' for Active; 'I' for Inactive)
REMARK    1  A    between atoms: C2_2  and  C8_8 
REMARK    2  A    between atoms: C4_4  and  C7_7 
REMARK    3  A    between atoms: C7_7  and  C8_8 
ROOT
HETATM    1  C7  UNL     1     -33.699   6.474   2.142  1.00 20.00     0.034 C 
ENDROOT
BRANCH   1   2
HETATM    2  C4  UNL     1     -32.226   6.613   1.874  1.00 20.00    -0.030 C 
HETATM    3  C3  UNL     1     -31.658   7.726   1.389  1.00 20.00    -0.035 C 
HETATM    4  C5  UNL     1     -32.417   8.968   1.054  1.00 20.00     0.035 C 
ENDBRANCH   1   2
BRANCH   1   5
HETATM    5  C8  UNL     1     -34.036   6.518   3.647  1.00 20.00     0.007 C 
HETATM    6  C6  UNL     1     -35.443   5.962   3.884  1.00 20.00     0.014 C 
BRANCH   5   7
HETATM    7  C2  UNL     1     -33.958   7.925   4.189  1.00 20.00    -0.032 C 
HETATM    8  C1  UNL     1     -33.066   8.325   5.104  1.00 20.00     0.007 C 
ENDBRANCH   5   7
ENDBRANCH   1   5
TORSDOF 3
ENDMDL
