MODEL 1
REMARK VINA RESULT:      -2.4      0.000      0.000
REMARK  0 active torsions:
REMARK  status: ('A' for Active; 'I' for Inactive)
ROOT
HETATM    1  C1  UNL     1     -33.921   7.272   3.382  1.00 20.00     0.001 C 
HETATM    2  C2  UNL     1     -33.061   7.002   2.388  1.00 20.00     0.076 C 
HETATM    3  C3  UNL     1     -34.955   6.364   3.969  1.00 20.00     0.038 C 
HETATM    4 CL4  UNL     1     -33.015   5.470   1.585  1.00 20.00    -0.076 Cl
HETATM    5 BR5  UNL     1     -31.831   8.282   1.789  1.00 20.00    -0.038 Br
ENDROOT
TORSDOF 0
ENDMDL
MODEL 2
REMARK VINA RESULT:      -2.0      2.045      2.069
REMARK  0 active torsions:
REMARK  status: ('A' for Active; 'I' for Inactive)
ROOT
HETATM    1  C1  UNL     1     -34.303   6.467   3.207  1.00 20.00     0.001 C 
HETATM    2  C2  UNL     1     -33.360   7.407   3.382  1.00 20.00     0.076 C 
HETATM    3  C3  UNL     1     -35.329   6.005   4.193  1.00 20.00     0.038 C 
HETATM    4 CL4  UNL     1     -33.178   8.279   4.865  1.00 20.00    -0.076 Cl
HETATM    5 BR5  UNL     1     -32.158   7.848   2.016  1.00 20.00    -0.038 Br
ENDROOT
TORSDOF 0
ENDMDL
MODEL 3
REMARK VINA RESULT:      -2.0      2.891      3.421
REMARK  0 active torsions:
REMARK  status: ('A' for Active; 'I' for Inactive)
ROOT
HETATM    1  C1  UNL     1     -33.161   7.147   2.373  1.00 20.00     0.001 C 
HETATM    2  C2  UNL     1     -33.746   7.199   3.579  1.00 20.00     0.076 C 
HETATM    3  C3  UNL     1     -31.981   7.932   1.893  1.00 20.00     0.038 C 
HETATM    4 CL4  UNL     1     -33.191   8.247   4.840  1.00 20.00    -0.076 Cl
HETATM    5 BR5  UNL     1     -35.227   6.129   3.993  1.00 20.00    -0.038 Br
ENDROOT
TORSDOF 0
ENDMDL
MODEL 4
REMARK VINA RESULT:      -1.9      2.042      2.045
REMARK  0 active torsions:
REMARK  status: ('A' for Active; 'I' for Inactive)
ROOT
HETATM    1  C1  UNL     1     -33.790   6.449   3.125  1.00 20.00     0.001 C 
HETATM    2  C2  UNL     1     -32.864   6.630   2.171  1.00 20.00     0.076 C 
HETATM    3  C3  UNL     1     -34.312   7.458   4.099  1.00 20.00     0.038 C 
HETATM    4 CL4  UNL     1     -32.084   8.153   1.907  1.00 20.00    -0.076 Cl
HETATM    5 BR5  UNL     1     -32.340   5.231   1.041  1.00 20.00    -0.038 Br
ENDROOT
TORSDOF 0
ENDMDL
MODEL 5
REMARK VINA RESULT:      -1.8      2.081      2.820
REMARK  0 active torsions:
REMARK  status: ('A' for Active; 'I' for Inactive)
ROOT
HETATM    1  C1  UNL     1     -32.696   7.968   2.393  1.00 20.00     0.001 C 
HETATM    2  C2  UNL     1     -33.296   6.774   2.524  1.00 20.00     0.076 C 
HETATM    3  C3  UNL     1     -31.632   8.354   1.415  1.00 20.00     0.038 C 
HETATM    4 CL4  UNL     1     -32.905   5.419   1.522  1.00 20.00    -0.076 Cl
HETATM    5 BR5  UNL     1     -34.617   6.484   3.820  1.00 20.00    -0.038 Br
ENDROOT
TORSDOF 0
ENDMDL
MODEL 6
REMARK VINA RESULT:      -1.7      2.373      2.981
REMARK  0 active torsions:
REMARK  status: ('A' for Active; 'I' for Inactive)
ROOT
HETATM    1  C1  UNL     1     -33.007   5.678   1.922  1.00 20.00     0.001 C 
HETATM    2  C2  UNL     1     -33.052   6.903   2.468  1.00 20.00     0.076 C 
HETATM    3  C3  UNL     1     -32.115   5.198   0.821  1.00 20.00     0.038 C 
HETATM    4 CL4  UNL     1     -32.022   8.193   1.948  1.00 20.00    -0.076 Cl
HETATM    5 BR5  UNL     1     -34.249   7.313   3.849  1.00 20.00    -0.038 Br
ENDROOT
TORSDOF 0
ENDMDL
MODEL 7
REMARK VINA RESULT:      -1.7      2.824      3.332
REMARK  0 active torsions:
REMARK  status: ('A' for Active; 'I' for Inactive)
ROOT
HETATM    1  C1  UNL     1     -32.806   6.436   2.210  1.00 20.00     0.001 C 
HETATM    2  C2  UNL     1     -33.644   6.288   3.248  1.00 20.00     0.076 C 
HETATM    3  C3  UNL     1     -32.263   7.710   1.646  1.00 20.00     0.038 C 
HETATM    4 CL4  UNL     1     -34.262   7.633   4.145  1.00 20.00    -0.076 Cl
HETATM    5 BR5  UNL     1     -34.214   4.594   3.808  1.00 20.00    -0.038 Br
ENDROOT
TORSDOF 0
ENDMDL
MODEL 8
REMARK VINA RESULT:      -1.6      2.351      2.897
REMARK  0 active torsions:
REMARK  status: ('A' for Active; 'I' for Inactive)
ROOT
HETATM    1  C1  UNL     1     -32.989   6.203   1.983  1.00 20.00     0.001 C 
HETATM    2  C2  UNL     1     -33.676   5.978   3.114  1.00 20.00     0.076 C 
HETATM    3  C3  UNL     1     -32.340   5.193   1.091  1.00 20.00     0.038 C 
HETATM    4 CL4  UNL     1     -33.929   4.388   3.750  1.00 20.00    -0.076 Cl
HETATM    5 BR5  UNL     1     -34.419   7.386   4.101  1.00 20.00    -0.038 Br
ENDROOT
TORSDOF 0
ENDMDL
MODEL 9
REMARK VINA RESULT:      -1.5      2.969      3.242
REMARK  0 active torsions:
REMARK  status: ('A' for Active; 'I' for Inactive)
ROOT
HETATM    1  C1  UNL     1     -34.008   4.047   4.444  1.00 20.00     0.001 C 
HETATM    2  C2  UNL     1     -34.014   5.101   3.613  1.00 20.00     0.076 C 
HETATM    3  C3  UNL     1     -33.149   2.824   4.365  1.00 20.00     0.038 C 
HETATM    4 CL4  UNL     1     -32.965   5.212   2.241  1.00 20.00    -0.076 Cl
HETATM    5 BR5  UNL     1     -35.172   6.548   3.882  1.00 20.00    -0.038 Br
ENDROOT
TORSDOF 0
ENDMDL
