MODEL 1
REMARK VINA RESULT:       1.8      0.000      0.000
REMARK  1 active torsions:
REMARK  status: ('A' for Active; 'I' for Inactive)
REMARK    1  A    between atoms: C7_7  and  C11_11 
ROOT
HETATM    1  C1  UNL     1     -32.891   5.861   1.192  1.00 20.00     0.004 C 
HETATM    2  C2  UNL     1     -31.685   6.661   1.686  1.00 20.00     0.005 C 
HETATM    3  C3  UNL     1     -32.931   8.441   3.082  1.00 20.00     0.008 C 
HETATM    4  C4  UNL     1     -33.777   5.314   2.307  1.00 20.00     0.040 C 
HETATM    5  C5  UNL     1     -34.303   7.780   2.950  1.00 20.00     0.041 C 
HETATM    6  C6  UNL     1     -34.251   5.941   4.786  1.00 20.00     0.207 A 
HETATM    7  C7  UNL     1     -31.935   8.156   1.947  1.00 20.00    -0.011 C 
HETATM    8  C8  UNL     1     -34.255   6.323   3.316  1.00 20.00     0.082 A 
HETATM    9  O12 UNL     1     -35.444   5.882   4.003  1.00 20.00    -0.375 OA
ENDROOT
BRANCH   7  10
HETATM   10  C11 UNL     1     -32.306   8.916   0.668  1.00 20.00    -0.019 C 
HETATM   11  C9  UNL     1     -32.680  10.357   0.998  1.00 20.00     0.010 C 
HETATM   12  C10 UNL     1     -31.154   8.868  -0.330  1.00 20.00     0.010 C 
ENDBRANCH   7  10
TORSDOF 1
ENDMDL
MODEL 2
REMARK VINA RESULT:       2.2      1.923      4.421
REMARK  1 active torsions:
REMARK  status: ('A' for Active; 'I' for Inactive)
REMARK    1  A    between atoms: C7_7  and  C11_11 
ROOT
HETATM    1  C1  UNL     1     -32.035   5.459   1.764  1.00 20.00     0.004 C 
HETATM    2  C2  UNL     1     -33.549   5.300   1.631  1.00 20.00     0.005 C 
HETATM    3  C3  UNL     1     -34.290   7.345   3.023  1.00 20.00     0.008 C 
HETATM    4  C4  UNL     1     -31.503   6.806   1.281  1.00 20.00     0.040 C 
HETATM    5  C5  UNL     1     -32.879   7.911   3.192  1.00 20.00     0.041 C 
HETATM    6  C6  UNL     1     -32.488   9.192   0.964  1.00 20.00     0.207 A 
HETATM    7  C7  UNL     1     -34.383   5.826   2.812  1.00 20.00    -0.011 C 
HETATM    8  C8  UNL     1     -32.163   8.020   1.875  1.00 20.00     0.082 A 
HETATM    9  O12 UNL     1     -31.324   9.189   1.792  1.00 20.00    -0.375 OA
ENDROOT
BRANCH   7  10
HETATM   10  C11 UNL     1     -34.105   5.058   4.108  1.00 20.00    -0.019 C 
HETATM   11  C9  UNL     1     -35.350   5.037   4.989  1.00 20.00     0.010 C 
HETATM   12  C10 UNL     1     -33.638   3.641   3.795  1.00 20.00     0.010 C 
ENDBRANCH   7  10
TORSDOF 1
ENDMDL
MODEL 3
REMARK VINA RESULT:       4.1      2.068      4.332
REMARK  1 active torsions:
REMARK  status: ('A' for Active; 'I' for Inactive)
REMARK    1  A    between atoms: C7_7  and  C11_11 
ROOT
HETATM    1  C1  UNL     1     -32.320   5.672   1.667  1.00 20.00     0.004 C 
HETATM    2  C2  UNL     1     -33.839   5.843   1.665  1.00 20.00     0.005 C 
HETATM    3  C3  UNL     1     -33.969   8.268   2.547  1.00 20.00     0.008 C 
HETATM    4  C4  UNL     1     -31.573   6.711   0.836  1.00 20.00     0.040 C 
HETATM    5  C5  UNL     1     -32.461   8.513   2.488  1.00 20.00     0.041 C 
HETATM    6  C6  UNL     1     -32.060   9.123  -0.006  1.00 20.00     0.207 A 
HETATM    7  C7  UNL     1     -34.405   6.805   2.725  1.00 20.00    -0.011 C 
HETATM    8  C8  UNL     1     -31.891   8.148   1.147  1.00 20.00     0.082 A 
HETATM    9  O12 UNL     1     -30.837   9.039   0.727  1.00 20.00    -0.375 OA
ENDROOT
BRANCH   7  10
HETATM   10  C11 UNL     1     -34.152   6.310   4.154  1.00 20.00    -0.019 C 
HETATM   11  C9  UNL     1     -34.093   7.489   5.119  1.00 20.00     0.010 C 
HETATM   12  C10 UNL     1     -35.233   5.320   4.571  1.00 20.00     0.010 C 
ENDBRANCH   7  10
TORSDOF 1
ENDMDL
MODEL 4
REMARK VINA RESULT:       4.2      0.507      1.048
REMARK  1 active torsions:
REMARK  status: ('A' for Active; 'I' for Inactive)
REMARK    1  A    between atoms: C7_7  and  C11_11 
ROOT
HETATM    1  C1  UNL     1     -32.689   6.079   1.202  1.00 20.00     0.004 C 
HETATM    2  C2  UNL     1     -31.483   6.851   1.737  1.00 20.00     0.005 C 
HETATM    3  C3  UNL     1     -32.736   8.733   2.987  1.00 20.00     0.008 C 
HETATM    4  C4  UNL     1     -33.662   5.612   2.281  1.00 20.00     0.040 C 
HETATM    5  C5  UNL     1     -34.124   8.120   2.796  1.00 20.00     0.041 C 
HETATM    6  C6  UNL     1     -34.256   6.357   4.701  1.00 20.00     0.207 A 
HETATM    7  C7  UNL     1     -31.687   8.364   1.925  1.00 20.00    -0.011 C 
HETATM    8  C8  UNL     1     -34.158   6.678   3.219  1.00 20.00     0.082 A 
HETATM    9  O12 UNL     1     -35.402   6.311   3.849  1.00 20.00    -0.375 OA
ENDROOT
BRANCH   7  10
HETATM   10  C11 UNL     1     -31.951   9.085   0.598  1.00 20.00    -0.019 C 
HETATM   11  C9  UNL     1     -32.912   8.273  -0.264  1.00 20.00     0.010 C 
HETATM   12  C10 UNL     1     -32.501  10.483   0.855  1.00 20.00     0.010 C 
ENDBRANCH   7  10
TORSDOF 1
ENDMDL
MODEL 5
REMARK VINA RESULT:       4.4      2.103      4.656
REMARK  1 active torsions:
REMARK  status: ('A' for Active; 'I' for Inactive)
REMARK    1  A    between atoms: C7_7  and  C11_11 
ROOT
HETATM    1  C1  UNL     1     -33.932   8.475   3.372  1.00 20.00     0.004 C 
HETATM    2  C2  UNL     1     -32.994   7.452   4.012  1.00 20.00     0.005 C 
HETATM    3  C3  UNL     1     -32.354   6.118   1.895  1.00 20.00     0.008 C 
HETATM    4  C4  UNL     1     -33.295   9.293   2.251  1.00 20.00     0.040 C 
HETATM    5  C5  UNL     1     -33.046   7.071   0.921  1.00 20.00     0.041 C 
HETATM    6  C6  UNL     1     -31.299   8.972   0.615  1.00 20.00     0.207 A 
HETATM    7  C7  UNL     1     -32.928   6.080   3.320  1.00 20.00    -0.011 C 
HETATM    8  C8  UNL     1     -32.638   8.498   1.156  1.00 20.00     0.082 A 
HETATM    9  O12 UNL     1     -32.522   9.254  -0.067  1.00 20.00    -0.375 OA
ENDROOT
BRANCH   7  10
HETATM   10  C11 UNL     1     -34.270   5.340   3.368  1.00 20.00    -0.019 C 
HETATM   11  C9  UNL     1     -34.120   4.018   4.113  1.00 20.00     0.010 C 
HETATM   12  C10 UNL     1     -35.334   6.214   4.021  1.00 20.00     0.010 C 
ENDBRANCH   7  10
TORSDOF 1
ENDMDL
MODEL 6
REMARK VINA RESULT:       4.7      2.163      3.736
REMARK  1 active torsions:
REMARK  status: ('A' for Active; 'I' for Inactive)
REMARK    1  A    between atoms: C7_7  and  C11_11 
ROOT
HETATM    1  C1  UNL     1     -33.859   5.090   3.918  1.00 20.00     0.004 C 
HETATM    2  C2  UNL     1     -34.697   6.366   3.823  1.00 20.00     0.005 C 
HETATM    3  C3  UNL     1     -33.194   7.709   2.207  1.00 20.00     0.008 C 
HETATM    4  C4  UNL     1     -33.583   4.421   2.574  1.00 20.00     0.040 C 
HETATM    5  C5  UNL     1     -32.240   6.550   1.915  1.00 20.00     0.041 C 
HETATM    6  C6  UNL     1     -33.503   5.193   0.092  1.00 20.00     0.207 A 
HETATM    7  C7  UNL     1     -33.911   7.664   3.566  1.00 20.00    -0.011 C 
HETATM    8  C8  UNL     1     -32.984   5.306   1.516  1.00 20.00     0.082 A 
HETATM    9  O12 UNL     1     -32.296   4.547   0.501  1.00 20.00    -0.375 OA
ENDROOT
BRANCH   7  10
HETATM   10  C11 UNL     1     -32.958   8.005   4.717  1.00 20.00    -0.019 C 
HETATM   11  C9  UNL     1     -31.844   8.923   4.228  1.00 20.00     0.010 C 
HETATM   12  C10 UNL     1     -33.726   8.647   5.867  1.00 20.00     0.010 C 
ENDBRANCH   7  10
TORSDOF 1
ENDMDL
MODEL 7
REMARK VINA RESULT:       4.7      1.575      2.807
REMARK  1 active torsions:
REMARK  status: ('A' for Active; 'I' for Inactive)
REMARK    1  A    between atoms: C7_7  and  C11_11 
ROOT
HETATM    1  C1  UNL     1     -34.537   6.894   3.894  1.00 20.00     0.004 C 
HETATM    2  C2  UNL     1     -34.665   6.962   2.372  1.00 20.00     0.005 C 
HETATM    3  C3  UNL     1     -32.651   5.477   1.735  1.00 20.00     0.008 C 
HETATM    4  C4  UNL     1     -34.564   5.477   4.461  1.00 20.00     0.040 C 
HETATM    5  C5  UNL     1     -32.351   5.034   3.167  1.00 20.00     0.041 C 
HETATM    6  C6  UNL     1     -34.041   3.097   3.551  1.00 20.00     0.207 A 
HETATM    7  C7  UNL     1     -33.350   6.837   1.584  1.00 20.00    -0.011 C 
HETATM    8  C8  UNL     1     -33.580   4.513   3.856  1.00 20.00     0.082 A 
HETATM    9  O12 UNL     1     -33.300   3.403   4.733  1.00 20.00    -0.375 OA
ENDROOT
BRANCH   7  10
HETATM   10  C11 UNL     1     -32.390   7.999   1.865  1.00 20.00    -0.019 C 
HETATM   11  C9  UNL     1     -30.946   7.549   1.677  1.00 20.00     0.010 C 
HETATM   12  C10 UNL     1     -32.713   9.183   0.961  1.00 20.00     0.010 C 
ENDBRANCH   7  10
TORSDOF 1
ENDMDL
