MODEL 1
REMARK VINA RESULT:       0.0      0.000      0.000
REMARK  1 active torsions:
REMARK  status: ('A' for Active; 'I' for Inactive)
REMARK    1  A    between atoms: C4_4  and  C8_8 
ROOT
HETATM    1  C5  UNL     1     -34.541   6.751   3.838  1.00 20.00     0.002 C 
HETATM    2  C6  UNL     1     -33.500   7.862   3.717  1.00 20.00     0.011 C 
HETATM    3  C7  UNL     1     -33.874   5.537   3.210  1.00 20.00     0.021 C 
HETATM    4  C8  UNL     1     -32.569   7.454   2.553  1.00 20.00     0.037 C 
HETATM    5  C9  UNL     1     -33.167   6.144   2.008  1.00 20.00     0.090 C 
HETATM    6 CL11 UNL     1     -31.929   5.055   1.351  1.00 20.00    -0.124 Cl
ENDROOT
BRANCH   4   7
HETATM    7  C4  UNL     1     -32.408   8.520   1.491  1.00 20.00    -0.046 A 
HETATM    8  C1  UNL     1     -31.567   8.383   0.348  1.00 20.00     0.015 A 
HETATM    9  C2  UNL     1     -31.603   9.499  -0.458  1.00 20.00     0.050 A 
HETATM   10  S10 UNL     1     -32.647  10.706   0.162  1.00 20.00    -0.113 SA
HETATM   11  C3  UNL     1     -33.054   9.736   1.514  1.00 20.00     0.057 A 
ENDBRANCH   4   7
TORSDOF 1
ENDMDL
MODEL 2
REMARK VINA RESULT:       2.0      2.839      4.679
REMARK  1 active torsions:
REMARK  status: ('A' for Active; 'I' for Inactive)
REMARK    1  A    between atoms: C4_4  and  C8_8 
ROOT
HETATM    1  C5  UNL     1     -31.680   8.465   2.156  1.00 20.00     0.002 C 
HETATM    2  C6  UNL     1     -33.137   8.122   2.459  1.00 20.00     0.011 C 
HETATM    3  C7  UNL     1     -31.265   7.454   1.100  1.00 20.00     0.021 C 
HETATM    4  C8  UNL     1     -33.324   6.642   2.053  1.00 20.00     0.037 C 
HETATM    5  C9  UNL     1     -31.929   6.178   1.595  1.00 20.00     0.090 C 
HETATM    6 CL11 UNL     1     -32.009   4.941   0.325  1.00 20.00    -0.124 Cl
ENDROOT
BRANCH   4   7
HETATM    7  C4  UNL     1     -33.908   5.773   3.146  1.00 20.00    -0.046 A 
HETATM    8  C1  UNL     1     -35.095   6.093   3.866  1.00 20.00     0.015 A 
HETATM    9  C2  UNL     1     -35.405   5.134   4.805  1.00 20.00     0.050 A 
HETATM   10  S10 UNL     1     -34.267   3.854   4.817  1.00 20.00    -0.113 SA
HETATM   11  C3  UNL     1     -33.356   4.582   3.562  1.00 20.00     0.057 A 
ENDBRANCH   4   7
TORSDOF 1
ENDMDL
MODEL 3
REMARK VINA RESULT:       2.2      2.727      4.516
REMARK  1 active torsions:
REMARK  status: ('A' for Active; 'I' for Inactive)
REMARK    1  A    between atoms: C4_4  and  C8_8 
ROOT
HETATM    1  C5  UNL     1     -31.619   8.417   2.127  1.00 20.00     0.002 C 
HETATM    2  C6  UNL     1     -33.091   8.124   2.412  1.00 20.00     0.011 C 
HETATM    3  C7  UNL     1     -31.218   7.373   1.097  1.00 20.00     0.021 C 
HETATM    4  C8  UNL     1     -33.316   6.643   2.032  1.00 20.00     0.037 C 
HETATM    5  C9  UNL     1     -31.929   6.128   1.606  1.00 20.00     0.090 C 
HETATM    6 CL11 UNL     1     -32.026   4.868   0.360  1.00 20.00    -0.124 Cl
ENDROOT
BRANCH   4   7
HETATM    7  C4  UNL     1     -33.944   5.814   3.131  1.00 20.00    -0.046 A 
HETATM    8  C1  UNL     1     -33.462   4.536   3.538  1.00 20.00     0.015 A 
HETATM    9  C2  UNL     1     -34.216   3.999   4.557  1.00 20.00     0.050 A 
HETATM   10  S10 UNL     1     -35.501   5.032   5.020  1.00 20.00    -0.113 SA
HETATM   11  C3  UNL     1     -35.049   6.204   3.856  1.00 20.00     0.057 A 
ENDBRANCH   4   7
TORSDOF 1
ENDMDL
MODEL 4
REMARK VINA RESULT:       2.3      2.215      2.989
REMARK  1 active torsions:
REMARK  status: ('A' for Active; 'I' for Inactive)
REMARK    1  A    between atoms: C4_4  and  C8_8 
ROOT
HETATM    1  C5  UNL     1     -33.946   3.981   4.763  1.00 20.00     0.002 C 
HETATM    2  C6  UNL     1     -33.341   4.198   3.377  1.00 20.00     0.011 C 
HETATM    3  C7  UNL     1     -35.283   4.703   4.710  1.00 20.00     0.021 C 
HETATM    4  C8  UNL     1     -34.014   5.467   2.807  1.00 20.00     0.037 C 
HETATM    5  C9  UNL     1     -34.936   5.966   3.935  1.00 20.00     0.090 C 
HETATM    6 CL11 UNL     1     -36.388   6.779   3.315  1.00 20.00    -0.124 Cl
ENDROOT
BRANCH   4   7
HETATM    7  C4  UNL     1     -33.039   6.520   2.330  1.00 20.00    -0.046 A 
HETATM    8  C1  UNL     1     -32.098   6.315   1.279  1.00 20.00     0.015 A 
HETATM    9  C2  UNL     1     -31.330   7.433   1.045  1.00 20.00     0.050 A 
HETATM   10  S10 UNL     1     -31.742   8.726   2.090  1.00 20.00    -0.113 SA
HETATM   11  C3  UNL     1     -32.953   7.789   2.859  1.00 20.00     0.057 A 
ENDBRANCH   4   7
TORSDOF 1
ENDMDL
MODEL 5
REMARK VINA RESULT:       2.4      2.024      2.503
REMARK  1 active torsions:
REMARK  status: ('A' for Active; 'I' for Inactive)
REMARK    1  A    between atoms: C4_4  and  C8_8 
ROOT
HETATM    1  C5  UNL     1     -35.976   6.322   4.195  1.00 20.00     0.002 C 
HETATM    2  C6  UNL     1     -34.740   7.208   4.052  1.00 20.00     0.011 C 
HETATM    3  C7  UNL     1     -35.421   4.955   4.562  1.00 20.00     0.021 C 
HETATM    4  C8  UNL     1     -33.560   6.255   3.751  1.00 20.00     0.037 C 
HETATM    5  C9  UNL     1     -34.194   4.855   3.668  1.00 20.00     0.090 C 
HETATM    6 CL11 UNL     1     -33.088   3.576   4.207  1.00 20.00    -0.124 Cl
ENDROOT
BRANCH   4   7
HETATM    7  C4  UNL     1     -32.771   6.624   2.514  1.00 20.00    -0.046 A 
HETATM    8  C1  UNL     1     -32.389   5.690   1.507  1.00 20.00     0.015 A 
HETATM    9  C2  UNL     1     -31.677   6.286   0.491  1.00 20.00     0.050 A 
HETATM   10  S10 UNL     1     -31.470   7.967   0.751  1.00 20.00    -0.113 SA
HETATM   11  C3  UNL     1     -32.335   7.899   2.228  1.00 20.00     0.057 A 
ENDBRANCH   4   7
TORSDOF 1
ENDMDL
MODEL 6
REMARK VINA RESULT:       2.4      2.266      3.174
REMARK  1 active torsions:
REMARK  status: ('A' for Active; 'I' for Inactive)
REMARK    1  A    between atoms: C4_4  and  C8_8 
ROOT
HETATM    1  C5  UNL     1     -33.750   3.872   4.623  1.00 20.00     0.002 C 
HETATM    2  C6  UNL     1     -33.217   4.182   3.225  1.00 20.00     0.011 C 
HETATM    3  C7  UNL     1     -35.106   4.557   4.672  1.00 20.00     0.021 C 
HETATM    4  C8  UNL     1     -33.950   5.462   2.760  1.00 20.00     0.037 C 
HETATM    5  C9  UNL     1     -34.830   5.870   3.955  1.00 20.00     0.090 C 
HETATM    6 CL11 UNL     1     -36.330   6.674   3.449  1.00 20.00    -0.124 Cl
ENDROOT
BRANCH   4   7
HETATM    7  C4  UNL     1     -33.025   6.567   2.298  1.00 20.00    -0.046 A 
HETATM    8  C1  UNL     1     -32.832   7.789   3.006  1.00 20.00     0.015 A 
HETATM    9  C2  UNL     1     -31.940   8.621   2.369  1.00 20.00     0.050 A 
HETATM   10  S10 UNL     1     -31.339   7.931   0.921  1.00 20.00    -0.113 SA
HETATM   11  C3  UNL     1     -32.273   6.514   1.145  1.00 20.00     0.057 A 
ENDBRANCH   4   7
TORSDOF 1
ENDMDL
MODEL 7
REMARK VINA RESULT:       2.6      2.905      4.736
REMARK  1 active torsions:
REMARK  status: ('A' for Active; 'I' for Inactive)
REMARK    1  A    between atoms: C4_4  and  C8_8 
ROOT
HETATM    1  C5  UNL     1     -32.675   8.191   0.037  1.00 20.00     0.002 C 
HETATM    2  C6  UNL     1     -32.647   6.785   0.633  1.00 20.00     0.011 C 
HETATM    3  C7  UNL     1     -31.908   9.041   1.038  1.00 20.00     0.021 C 
HETATM    4  C8  UNL     1     -32.420   6.964   2.151  1.00 20.00     0.037 C 
HETATM    5  C9  UNL     1     -32.395   8.488   2.370  1.00 20.00     0.090 C 
HETATM    6 CL11 UNL     1     -31.332   8.964   3.710  1.00 20.00    -0.124 Cl
ENDROOT
BRANCH   4   7
HETATM    7  C4  UNL     1     -33.442   6.258   3.015  1.00 20.00    -0.046 A 
HETATM    8  C1  UNL     1     -34.595   6.892   3.562  1.00 20.00     0.015 A 
HETATM    9  C2  UNL     1     -35.358   6.024   4.310  1.00 20.00     0.050 A 
HETATM   10  S10 UNL     1     -34.684   4.449   4.352  1.00 20.00    -0.113 SA
HETATM   11  C3  UNL     1     -33.368   4.928   3.366  1.00 20.00     0.057 A 
ENDBRANCH   4   7
TORSDOF 1
ENDMDL
MODEL 8
REMARK VINA RESULT:       3.0      2.775      4.623
REMARK  1 active torsions:
REMARK  status: ('A' for Active; 'I' for Inactive)
REMARK    1  A    between atoms: C4_4  and  C8_8 
ROOT
HETATM    1  C5  UNL     1     -32.673   8.207   0.074  1.00 20.00     0.002 C 
HETATM    2  C6  UNL     1     -32.587   6.793   0.647  1.00 20.00     0.011 C 
HETATM    3  C7  UNL     1     -31.960   9.074   1.100  1.00 20.00     0.021 C 
HETATM    4  C8  UNL     1     -32.389   6.958   2.171  1.00 20.00     0.037 C 
HETATM    5  C9  UNL     1     -32.438   8.477   2.415  1.00 20.00     0.090 C 
HETATM    6 CL11 UNL     1     -31.418   8.979   3.778  1.00 20.00    -0.124 Cl
ENDROOT
BRANCH   4   7
HETATM    7  C4  UNL     1     -33.388   6.190   3.009  1.00 20.00    -0.046 A 
HETATM    8  C1  UNL     1     -33.296   4.792   3.272  1.00 20.00     0.015 A 
HETATM    9  C2  UNL     1     -34.333   4.345   4.059  1.00 20.00     0.050 A 
HETATM   10  S10 UNL     1     -35.414   5.606   4.477  1.00 20.00    -0.113 SA
HETATM   11  C3  UNL     1     -34.493   6.757   3.605  1.00 20.00     0.057 A 
ENDBRANCH   4   7
TORSDOF 1
ENDMDL
MODEL 9
REMARK VINA RESULT:       3.0      2.705      4.641
REMARK  1 active torsions:
REMARK  status: ('A' for Active; 'I' for Inactive)
REMARK    1  A    between atoms: C4_4  and  C8_8 
ROOT
HETATM    1  C5  UNL     1     -30.967   8.234  -0.237  1.00 20.00     0.002 C 
HETATM    2  C6  UNL     1     -30.943   7.784   1.223  1.00 20.00     0.011 C 
HETATM    3  C7  UNL     1     -31.698   9.567  -0.210  1.00 20.00     0.021 C 
HETATM    4  C8  UNL     1     -32.116   8.513   1.917  1.00 20.00     0.037 C 
HETATM    5  C9  UNL     1     -32.811   9.305   0.794  1.00 20.00     0.090 C 
HETATM    6 CL11 UNL     1     -33.540  10.813   1.379  1.00 20.00    -0.124 Cl
ENDROOT
BRANCH   4   7
HETATM    7  C4  UNL     1     -33.058   7.593   2.664  1.00 20.00    -0.046 A 
HETATM    8  C1  UNL     1     -33.866   8.004   3.763  1.00 20.00     0.015 A 
HETATM    9  C2  UNL     1     -34.629   6.971   4.260  1.00 20.00     0.050 A 
HETATM   10  S10 UNL     1     -34.370   5.511   3.403  1.00 20.00    -0.113 SA
HETATM   11  C3  UNL     1     -33.234   6.260   2.363  1.00 20.00     0.057 A 
ENDBRANCH   4   7
TORSDOF 1
ENDMDL
