MODEL 1
REMARK VINA RESULT:       2.3      0.000      0.000
REMARK  2 active torsions:
REMARK  status: ('A' for Active; 'I' for Inactive)
REMARK    1  A    between atoms: C5_5  and  S11_11 
REMARK    2  A    between atoms: C9_9  and  S11_11 
ROOT
HETATM    1  C1  UNL     1     -33.467   7.771   4.798  1.00 20.00     0.080 C 
HETATM    2  C2  UNL     1     -34.736   5.119   4.162  1.00 20.00     0.005 C 
HETATM    3  C3  UNL     1     -33.533   5.667   3.365  1.00 20.00     0.036 C 
HETATM    4  C4  UNL     1     -35.452   6.460   3.889  1.00 20.00     0.036 C 
HETATM    5  C5  UNL     1     -34.057   7.094   3.665  1.00 20.00     0.097 C 
HETATM    6  N10 UNL     1     -32.994   8.314   5.707  1.00 20.00    -0.196 NA
ENDROOT
BRANCH   5   7
HETATM    7  S11 UNL     1     -34.012   8.176   2.192  1.00 20.00    -0.135 SA
BRANCH   7   8
HETATM    8  C9  UNL     1     -32.241   7.945   1.770  1.00 20.00    -0.001 C 
HETATM    9  C6  UNL     1     -31.995   6.463   1.477  1.00 20.00     0.026 C 
HETATM   10  C7  UNL     1     -31.926   8.791   0.532  1.00 20.00     0.026 C 
HETATM   11  C8  UNL     1     -31.389   8.404   2.958  1.00 20.00     0.026 C 
ENDBRANCH   7   8
ENDBRANCH   5   7
TORSDOF 2
ENDMDL
MODEL 2
REMARK VINA RESULT:       3.0      2.062      4.225
REMARK  2 active torsions:
REMARK  status: ('A' for Active; 'I' for Inactive)
REMARK    1  A    between atoms: C5_5  and  S11_11 
REMARK    2  A    between atoms: C9_9  and  S11_11 
ROOT
HETATM    1  C1  UNL     1     -31.910   6.232   1.560  1.00 20.00     0.080 C 
HETATM    2  C2  UNL     1     -31.727   9.113   0.715  1.00 20.00     0.005 C 
HETATM    3  C3  UNL     1     -31.131   8.607   2.047  1.00 20.00     0.036 C 
HETATM    4  C4  UNL     1     -33.063   8.463   1.135  1.00 20.00     0.036 C 
HETATM    5  C5  UNL     1     -32.252   7.539   2.076  1.00 20.00     0.097 C 
HETATM    6  N10 UNL     1     -31.636   5.184   1.146  1.00 20.00    -0.196 NA
ENDROOT
BRANCH   5   7
HETATM    7  S11 UNL     1     -33.019   7.381   3.728  1.00 20.00    -0.135 SA
BRANCH   7   8
HETATM    8  C9  UNL     1     -34.228   6.064   3.315  1.00 20.00    -0.001 C 
HETATM    9  C6  UNL     1     -33.697   4.728   3.841  1.00 20.00     0.026 C 
HETATM   10  C7  UNL     1     -35.562   6.406   3.985  1.00 20.00     0.026 C 
HETATM   11  C8  UNL     1     -34.395   6.011   1.793  1.00 20.00     0.026 C 
ENDBRANCH   7   8
ENDBRANCH   5   7
TORSDOF 2
ENDMDL
MODEL 3
REMARK VINA RESULT:       3.4      2.072      3.929
REMARK  2 active torsions:
REMARK  status: ('A' for Active; 'I' for Inactive)
REMARK    1  A    between atoms: C5_5  and  S11_11 
REMARK    2  A    between atoms: C9_9  and  S11_11 
ROOT
HETATM    1  C1  UNL     1     -32.213   7.116   1.791  1.00 20.00     0.080 C 
HETATM    2  C2  UNL     1     -32.289   4.708  -0.010  1.00 20.00     0.005 C 
HETATM    3  C3  UNL     1     -33.520   5.169   0.799  1.00 20.00     0.036 C 
HETATM    4  C4  UNL     1     -31.490   4.722   1.311  1.00 20.00     0.036 C 
HETATM    5  C5  UNL     1     -32.542   5.711   1.871  1.00 20.00     0.097 C 
HETATM    6  N10 UNL     1     -31.948   8.244   1.725  1.00 20.00    -0.196 NA
ENDROOT
BRANCH   5   7
HETATM    7  S11 UNL     1     -33.064   5.284   3.570  1.00 20.00    -0.135 SA
BRANCH   7   8
HETATM    8  C9  UNL     1     -34.453   6.475   3.708  1.00 20.00    -0.001 C 
HETATM    9  C6  UNL     1     -34.919   6.851   2.299  1.00 20.00     0.026 C 
HETATM   10  C7  UNL     1     -35.591   5.802   4.482  1.00 20.00     0.026 C 
HETATM   11  C8  UNL     1     -33.962   7.717   4.458  1.00 20.00     0.026 C 
ENDBRANCH   7   8
ENDBRANCH   5   7
TORSDOF 2
ENDMDL
MODEL 4
REMARK VINA RESULT:       3.6      2.473      4.378
REMARK  2 active torsions:
REMARK  status: ('A' for Active; 'I' for Inactive)
REMARK    1  A    between atoms: C5_5  and  S11_11 
REMARK    2  A    between atoms: C9_9  and  S11_11 
ROOT
HETATM    1  C1  UNL     1     -33.723   5.834   0.578  1.00 20.00     0.080 C 
HETATM    2  C2  UNL     1     -31.722   7.949   1.335  1.00 20.00     0.005 C 
HETATM    3  C3  UNL     1     -31.453   6.444   1.557  1.00 20.00     0.036 C 
HETATM    4  C4  UNL     1     -33.051   7.763   2.098  1.00 20.00     0.036 C 
HETATM    5  C5  UNL     1     -32.980   6.257   1.743  1.00 20.00     0.097 C 
HETATM    6  N10 UNL     1     -34.319   5.494  -0.357  1.00 20.00    -0.196 NA
ENDROOT
BRANCH   5   7
HETATM    7  S11 UNL     1     -33.381   5.186   3.168  1.00 20.00    -0.135 SA
BRANCH   7   8
HETATM    8  C9  UNL     1     -34.719   6.217   3.885  1.00 20.00    -0.001 C 
HETATM    9  C6  UNL     1     -35.642   6.678   2.754  1.00 20.00     0.026 C 
HETATM   10  C7  UNL     1     -35.496   5.367   4.893  1.00 20.00     0.026 C 
HETATM   11  C8  UNL     1     -34.086   7.425   4.584  1.00 20.00     0.026 C 
ENDBRANCH   7   8
ENDBRANCH   5   7
TORSDOF 2
ENDMDL
MODEL 5
REMARK VINA RESULT:       3.7      2.092      3.861
REMARK  2 active torsions:
REMARK  status: ('A' for Active; 'I' for Inactive)
REMARK    1  A    between atoms: C5_5  and  S11_11 
REMARK    2  A    between atoms: C9_9  and  S11_11 
ROOT
HETATM    1  C1  UNL     1     -32.346   8.593   0.919  1.00 20.00     0.080 C 
HETATM    2  C2  UNL     1     -32.503   5.593   0.757  1.00 20.00     0.005 C 
HETATM    3  C3  UNL     1     -33.446   6.418   1.660  1.00 20.00     0.036 C 
HETATM    4  C4  UNL     1     -31.319   6.319   1.431  1.00 20.00     0.036 C 
HETATM    5  C5  UNL     1     -32.303   7.454   1.808  1.00 20.00     0.097 C 
HETATM    6  N10 UNL     1     -32.381   9.506   0.205  1.00 20.00    -0.196 NA
ENDROOT
BRANCH   5   7
HETATM    7  S11 UNL     1     -32.092   8.013   3.536  1.00 20.00    -0.135 SA
BRANCH   7   8
HETATM    8  C9  UNL     1     -33.842   7.858   4.062  1.00 20.00    -0.001 C 
HETATM    9  C6  UNL     1     -34.299   6.415   3.828  1.00 20.00     0.026 C 
HETATM   10  C7  UNL     1     -33.931   8.208   5.551  1.00 20.00     0.026 C 
HETATM   11  C8  UNL     1     -34.692   8.828   3.236  1.00 20.00     0.026 C 
ENDBRANCH   7   8
ENDBRANCH   5   7
TORSDOF 2
ENDMDL
MODEL 6
REMARK VINA RESULT:       3.8      1.823      2.473
REMARK  2 active torsions:
REMARK  status: ('A' for Active; 'I' for Inactive)
REMARK    1  A    between atoms: C5_5  and  S11_11 
REMARK    2  A    between atoms: C9_9  and  S11_11 
ROOT
HETATM    1  C1  UNL     1     -33.653   4.910   3.637  1.00 20.00     0.080 C 
HETATM    2  C2  UNL     1     -34.629   7.628   4.478  1.00 20.00     0.005 C 
HETATM    3  C3  UNL     1     -35.069   6.971   3.152  1.00 20.00     0.036 C 
HETATM    4  C4  UNL     1     -33.167   7.376   4.050  1.00 20.00     0.036 C 
HETATM    5  C5  UNL     1     -33.694   6.258   3.116  1.00 20.00     0.097 C 
HETATM    6  N10 UNL     1     -33.621   3.829   4.056  1.00 20.00    -0.196 NA
ENDROOT
BRANCH   5   7
HETATM    7  S11 UNL     1     -32.924   6.314   1.459  1.00 20.00    -0.135 SA
BRANCH   7   8
HETATM    8  C9  UNL     1     -32.137   7.965   1.608  1.00 20.00    -0.001 C 
HETATM    9  C6  UNL     1     -31.353   8.018   2.922  1.00 20.00     0.026 C 
HETATM   10  C7  UNL     1     -31.193   8.159   0.418  1.00 20.00     0.026 C 
HETATM   11  C8  UNL     1     -33.234   9.034   1.597  1.00 20.00     0.026 C 
ENDBRANCH   7   8
ENDBRANCH   5   7
TORSDOF 2
ENDMDL
MODEL 7
REMARK VINA RESULT:       3.8      2.032      4.234
REMARK  2 active torsions:
REMARK  status: ('A' for Active; 'I' for Inactive)
REMARK    1  A    between atoms: C5_5  and  S11_11 
REMARK    2  A    between atoms: C9_9  and  S11_11 
ROOT
HETATM    1  C1  UNL     1     -32.446   6.641   1.305  1.00 20.00     0.080 C 
HETATM    2  C2  UNL     1     -32.112   9.283  -0.095  1.00 20.00     0.005 C 
HETATM    3  C3  UNL     1     -31.032   8.710   0.848  1.00 20.00     0.036 C 
HETATM    4  C4  UNL     1     -33.132   9.080   1.047  1.00 20.00     0.036 C 
HETATM    5  C5  UNL     1     -32.171   8.020   1.640  1.00 20.00     0.097 C 
HETATM    6  N10 UNL     1     -32.666   5.535   1.035  1.00 20.00    -0.196 NA
ENDROOT
BRANCH   5   7
HETATM    7  S11 UNL     1     -31.968   8.199   3.448  1.00 20.00    -0.135 SA
BRANCH   7   8
HETATM    8  C9  UNL     1     -33.696   7.814   3.931  1.00 20.00    -0.001 C 
HETATM    9  C6  UNL     1     -33.988   6.352   3.586  1.00 20.00     0.026 C 
HETATM   10  C7  UNL     1     -33.839   8.044   5.438  1.00 20.00     0.026 C 
HETATM   11  C8  UNL     1     -34.639   8.743   3.160  1.00 20.00     0.026 C 
ENDBRANCH   7   8
ENDBRANCH   5   7
TORSDOF 2
ENDMDL
MODEL 8
REMARK VINA RESULT:       3.8      2.137      2.944
REMARK  2 active torsions:
REMARK  status: ('A' for Active; 'I' for Inactive)
REMARK    1  A    between atoms: C5_5  and  S11_11 
REMARK    2  A    between atoms: C9_9  and  S11_11 
ROOT
HETATM    1  C1  UNL     1     -32.681   6.187   1.967  1.00 20.00     0.080 C 
HETATM    2  C2  UNL     1     -34.715   7.119   3.978  1.00 20.00     0.005 C 
HETATM    3  C3  UNL     1     -34.398   7.921   2.697  1.00 20.00     0.036 C 
HETATM    4  C4  UNL     1     -33.201   7.118   4.281  1.00 20.00     0.036 C 
HETATM    5  C5  UNL     1     -32.957   7.358   2.770  1.00 20.00     0.097 C 
HETATM    6  N10 UNL     1     -32.461   5.248   1.323  1.00 20.00    -0.196 NA
ENDROOT
BRANCH   5   7
HETATM    7  S11 UNL     1     -31.692   8.641   2.464  1.00 20.00    -0.135 SA
BRANCH   7   8
HETATM    8  C9  UNL     1     -32.154   9.037   0.733  1.00 20.00    -0.001 C 
HETATM    9  C6  UNL     1     -32.746  10.448   0.693  1.00 20.00     0.026 C 
HETATM   10  C7  UNL     1     -30.891   8.966  -0.131  1.00 20.00     0.026 C 
HETATM   11  C8  UNL     1     -33.185   8.010   0.253  1.00 20.00     0.026 C 
ENDBRANCH   7   8
ENDBRANCH   5   7
TORSDOF 2
ENDMDL
MODEL 9
REMARK VINA RESULT:       3.8      2.053      2.895
REMARK  2 active torsions:
REMARK  status: ('A' for Active; 'I' for Inactive)
REMARK    1  A    between atoms: C5_5  and  S11_11 
REMARK    2  A    between atoms: C9_9  and  S11_11 
ROOT
HETATM    1  C1  UNL     1     -34.015   4.596   3.924  1.00 20.00     0.080 C 
HETATM    2  C2  UNL     1     -34.517   7.502   4.518  1.00 20.00     0.005 C 
HETATM    3  C3  UNL     1     -35.400   6.698   3.538  1.00 20.00     0.036 C 
HETATM    4  C4  UNL     1     -33.291   7.028   3.708  1.00 20.00     0.036 C 
HETATM    5  C5  UNL     1     -34.152   5.842   3.206  1.00 20.00     0.097 C 
HETATM    6  N10 UNL     1     -33.906   3.596   4.502  1.00 20.00    -0.196 NA
ENDROOT
BRANCH   5   7
HETATM    7  S11 UNL     1     -33.963   5.557   1.410  1.00 20.00    -0.135 SA
BRANCH   7   8
HETATM    8  C9  UNL     1     -32.129   5.507   1.359  1.00 20.00    -0.001 C 
HETATM    9  C6  UNL     1     -31.622   4.784   2.610  1.00 20.00     0.026 C 
HETATM   10  C7  UNL     1     -31.701   4.751   0.098  1.00 20.00     0.026 C 
HETATM   11  C8  UNL     1     -31.600   6.945   1.322  1.00 20.00     0.026 C 
ENDBRANCH   7   8
ENDBRANCH   5   7
TORSDOF 2
ENDMDL
