MODEL 1
REMARK VINA RESULT:       1.6      0.000      0.000
REMARK  1 active torsions:
REMARK  status: ('A' for Active; 'I' for Inactive)
REMARK    1  A    between atoms: C4_4  and  C9_9 
ROOT
HETATM    1  C5  UNL     1     -32.715   5.510   1.216  1.00 20.00     0.002 C 
HETATM    2  C6  UNL     1     -31.482   6.344   1.576  1.00 20.00     0.009 C 
HETATM    3  C7  UNL     1     -33.708   5.416   2.369  1.00 20.00     0.020 C 
HETATM    4  C8  UNL     1     -32.827   7.574   3.324  1.00 20.00     0.029 C 
HETATM    5  C9  UNL     1     -31.804   7.732   2.175  1.00 20.00     0.020 C 
HETATM    6  C10 UNL     1     -34.075   6.802   2.892  1.00 20.00     0.083 C 
HETATM    7 CL12 UNL     1     -35.197   6.644   4.275  1.00 20.00    -0.125 Cl
ENDROOT
BRANCH   5   8
HETATM    8  C4  UNL     1     -32.192   8.837   1.194  1.00 20.00    -0.047 A 
HETATM    9  C1  UNL     1     -32.002   8.752  -0.215  1.00 20.00     0.015 A 
HETATM   10  C2  UNL     1     -32.435   9.886  -0.866  1.00 20.00     0.050 A 
HETATM   11  S11 UNL     1     -33.070  11.047   0.222  1.00 20.00    -0.113 SA
HETATM   12  C3  UNL     1     -32.764  10.033   1.568  1.00 20.00     0.057 A 
ENDBRANCH   5   8
TORSDOF 1
ENDMDL
MODEL 2
REMARK VINA RESULT:       4.0      2.370      3.403
REMARK  1 active torsions:
REMARK  status: ('A' for Active; 'I' for Inactive)
REMARK    1  A    between atoms: C4_4  and  C9_9 
ROOT
HETATM    1  C5  UNL     1     -35.483   6.078   4.555  1.00 20.00     0.002 C 
HETATM    2  C6  UNL     1     -35.507   6.342   3.046  1.00 20.00     0.009 C 
HETATM    3  C7  UNL     1     -34.992   4.674   4.889  1.00 20.00     0.020 C 
HETATM    4  C8  UNL     1     -33.729   4.581   2.712  1.00 20.00     0.029 C 
HETATM    5  C9  UNL     1     -34.186   6.005   2.320  1.00 20.00     0.020 C 
HETATM    6  C10 UNL     1     -33.646   4.392   4.227  1.00 20.00     0.083 C 
HETATM    7 CL12 UNL     1     -33.134   2.720   4.601  1.00 20.00    -0.125 Cl
ENDROOT
BRANCH   5   8
HETATM    8  C4  UNL     1     -33.057   7.029   2.421  1.00 20.00    -0.047 A 
HETATM    9  C1  UNL     1     -32.034   7.184   1.441  1.00 20.00     0.015 A 
HETATM   10  C2  UNL     1     -31.141   8.178   1.778  1.00 20.00     0.050 A 
HETATM   11  S11 UNL     1     -31.539   8.920   3.269  1.00 20.00    -0.113 SA
HETATM   12  C3  UNL     1     -32.908   7.911   3.469  1.00 20.00     0.057 A 
ENDBRANCH   5   8
TORSDOF 1
ENDMDL
