MODEL 1
REMARK VINA RESULT:      -0.4      0.000      0.000
REMARK  0 active torsions:
REMARK  status: ('A' for Active; 'I' for Inactive)
ROOT
HETATM    1  C1  UNL     1     -32.245   8.960   0.853  1.00 20.00     0.064 C 
HETATM    2  C2  UNL     1     -33.424   8.492   3.901  1.00 20.00     0.002 C 
HETATM    3  C3  UNL     1     -32.071   8.284   3.222  1.00 20.00     0.019 C 
HETATM    4  C4  UNL     1     -33.241   6.793   1.437  1.00 20.00     0.020 C 
HETATM    5  C5  UNL     1     -33.947   7.218   4.569  1.00 20.00     0.008 C 
HETATM    6  C6  UNL     1     -33.496   5.727   2.504  1.00 20.00     0.010 C 
HETATM    7  C7  UNL     1     -32.135   7.804   1.767  1.00 20.00     0.093 C 
HETATM    8  C8  UNL     1     -34.485   6.107   3.638  1.00 20.00    -0.048 C 
HETATM    9  C9  UNL     1     -35.860   6.516   3.072  1.00 20.00     0.015 C 
HETATM   10  C10 UNL     1     -34.707   4.843   4.503  1.00 20.00     0.015 C 
HETATM   11  N11 UNL     1     -32.333   9.869   0.137  1.00 20.00    -0.197 NA
ENDROOT
TORSDOF 0
ENDMDL
MODEL 2
REMARK VINA RESULT:      -0.3      2.580      4.356
REMARK  0 active torsions:
REMARK  status: ('A' for Active; 'I' for Inactive)
ROOT
HETATM    1  C1  UNL     1     -33.731   4.102   3.967  1.00 20.00     0.064 C 
HETATM    2  C2  UNL     1     -33.690   7.400   4.114  1.00 20.00     0.002 C 
HETATM    3  C3  UNL     1     -34.691   6.352   3.628  1.00 20.00     0.019 C 
HETATM    4  C4  UNL     1     -32.852   5.380   2.064  1.00 20.00     0.020 C 
HETATM    5  C5  UNL     1     -33.348   8.429   3.034  1.00 20.00     0.008 C 
HETATM    6  C6  UNL     1     -32.917   6.648   1.209  1.00 20.00     0.010 C 
HETATM    7  C7  UNL     1     -34.074   5.121   2.952  1.00 20.00     0.093 C 
HETATM    8  C8  UNL     1     -32.431   7.959   1.882  1.00 20.00    -0.048 C 
HETATM    9  C9  UNL     1     -30.979   7.828   2.385  1.00 20.00     0.015 C 
HETATM   10  C10 UNL     1     -32.440   9.065   0.799  1.00 20.00     0.015 C 
HETATM   11  N11 UNL     1     -33.461   3.303   4.764  1.00 20.00    -0.197 NA
ENDROOT
TORSDOF 0
ENDMDL
