MODEL 1
REMARK VINA RESULT:       0.8      0.000      0.000
REMARK  1 active torsions:
REMARK  status: ('A' for Active; 'I' for Inactive)
REMARK    1  A    between atoms: C4_4  and  C8_8 
ROOT
HETATM    1  C5  UNL     1     -32.613   6.018   1.660  1.00 20.00     0.011 C 
HETATM    2  C6  UNL     1     -33.564   5.169   2.509  1.00 20.00     0.021 C 
HETATM    3  C7  UNL     1     -33.857   7.449   3.153  1.00 20.00     0.029 C 
HETATM    4  C8  UNL     1     -32.577   7.423   2.302  1.00 20.00     0.020 C 
HETATM    5  C9  UNL     1     -33.904   6.035   3.713  1.00 20.00     0.083 C 
HETATM    6 CL11 UNL     1     -35.480   5.639   4.409  1.00 20.00    -0.125 Cl
ENDROOT
BRANCH   4   7
HETATM    7  C4  UNL     1     -32.381   8.553   1.315  1.00 20.00    -0.047 A 
HETATM    8  C1  UNL     1     -31.519   8.479   0.182  1.00 20.00     0.015 A 
HETATM    9  C2  UNL     1     -31.524   9.645  -0.549  1.00 20.00     0.050 A 
HETATM   10  S10 UNL     1     -32.563  10.825   0.130  1.00 20.00    -0.113 SA
HETATM   11  C3  UNL     1     -33.010   9.776   1.407  1.00 20.00     0.057 A 
ENDBRANCH   4   7
TORSDOF 1
ENDMDL
MODEL 2
REMARK VINA RESULT:       1.6      3.382      5.098
REMARK  1 active torsions:
REMARK  status: ('A' for Active; 'I' for Inactive)
REMARK    1  A    between atoms: C4_4  and  C8_8 
ROOT
HETATM    1  C5  UNL     1     -31.967   8.391   2.863  1.00 20.00     0.011 C 
HETATM    2  C6  UNL     1     -31.816   9.490   1.807  1.00 20.00     0.021 C 
HETATM    3  C7  UNL     1     -33.128   7.739   0.851  1.00 20.00     0.029 C 
HETATM    4  C8  UNL     1     -32.529   7.148   2.137  1.00 20.00     0.020 C 
HETATM    5  C9  UNL     1     -32.111   8.808   0.478  1.00 20.00     0.083 C 
HETATM    6 CL11 UNL     1     -32.731   9.932  -0.738  1.00 20.00    -0.125 Cl
ENDROOT
BRANCH   4   7
HETATM    7  C4  UNL     1     -33.434   6.286   2.989  1.00 20.00    -0.047 A 
HETATM    8  C1  UNL     1     -34.622   6.759   3.617  1.00 20.00     0.015 A 
HETATM    9  C2  UNL     1     -35.257   5.769   4.335  1.00 20.00     0.050 A 
HETATM   10  S10 UNL     1     -34.420   4.277   4.250  1.00 20.00    -0.113 SA
HETATM   11  C3  UNL     1     -33.205   4.952   3.252  1.00 20.00     0.057 A 
ENDBRANCH   4   7
TORSDOF 1
ENDMDL
MODEL 3
REMARK VINA RESULT:       1.6      1.895      2.758
REMARK  1 active torsions:
REMARK  status: ('A' for Active; 'I' for Inactive)
REMARK    1  A    between atoms: C4_4  and  C8_8 
ROOT
HETATM    1  C5  UNL     1     -34.767   6.042   3.721  1.00 20.00     0.011 C 
HETATM    2  C6  UNL     1     -34.808   4.818   4.641  1.00 20.00     0.021 C 
HETATM    3  C7  UNL     1     -32.865   4.629   3.268  1.00 20.00     0.029 C 
HETATM    4  C8  UNL     1     -33.706   5.749   2.637  1.00 20.00     0.020 C 
HETATM    5  C9  UNL     1     -33.919   3.783   3.966  1.00 20.00     0.083 C 
HETATM    6 CL11 UNL     1     -33.212   2.642   5.118  1.00 20.00    -0.125 Cl
ENDROOT
BRANCH   4   7
HETATM    7  C4  UNL     1     -32.968   6.974   2.142  1.00 20.00    -0.047 A 
HETATM    8  C1  UNL     1     -32.958   8.225   2.824  1.00 20.00     0.015 A 
HETATM    9  C2  UNL     1     -32.211   9.171   2.157  1.00 20.00     0.050 A 
HETATM   10  S10 UNL     1     -31.527   8.551   0.714  1.00 20.00    -0.113 SA
HETATM   11  C3  UNL     1     -32.229   7.012   0.979  1.00 20.00     0.057 A 
ENDBRANCH   4   7
TORSDOF 1
ENDMDL
MODEL 4
REMARK VINA RESULT:       1.7      1.672      2.352
REMARK  1 active torsions:
REMARK  status: ('A' for Active; 'I' for Inactive)
REMARK    1  A    between atoms: C4_4  and  C8_8 
ROOT
HETATM    1  C5  UNL     1     -34.762   6.259   3.714  1.00 20.00     0.011 C 
HETATM    2  C6  UNL     1     -34.794   5.038   4.638  1.00 20.00     0.021 C 
HETATM    3  C7  UNL     1     -32.942   4.779   3.154  1.00 20.00     0.029 C 
HETATM    4  C8  UNL     1     -33.778   5.928   2.570  1.00 20.00     0.020 C 
HETATM    5  C9  UNL     1     -33.983   3.972   3.915  1.00 20.00     0.083 C 
HETATM    6 CL11 UNL     1     -33.251   2.807   5.027  1.00 20.00    -0.125 Cl
ENDROOT
BRANCH   4   7
HETATM    7  C4  UNL     1     -33.027   7.125   2.029  1.00 20.00    -0.047 A 
HETATM    8  C1  UNL     1     -31.830   7.032   1.262  1.00 20.00     0.015 A 
HETATM    9  C2  UNL     1     -31.352   8.271   0.897  1.00 20.00     0.050 A 
HETATM   10  S10 UNL     1     -32.344   9.540   1.480  1.00 20.00    -0.113 SA
HETATM   11  C3  UNL     1     -33.418   8.432   2.223  1.00 20.00     0.057 A 
ENDBRANCH   4   7
TORSDOF 1
ENDMDL
MODEL 5
REMARK VINA RESULT:       1.9      3.382      5.107
REMARK  1 active torsions:
REMARK  status: ('A' for Active; 'I' for Inactive)
REMARK    1  A    between atoms: C4_4  and  C8_8 
ROOT
HETATM    1  C5  UNL     1     -33.277   9.269   1.892  1.00 20.00     0.011 C 
HETATM    2  C6  UNL     1     -32.521   9.753   0.651  1.00 20.00     0.021 C 
HETATM    3  C7  UNL     1     -31.710   7.574   1.192  1.00 20.00     0.029 C 
HETATM    4  C8  UNL     1     -32.528   8.022   2.413  1.00 20.00     0.020 C 
HETATM    5  C9  UNL     1     -31.261   8.900   0.596  1.00 20.00     0.083 C 
HETATM    6 CL11 UNL     1     -30.636   8.721  -1.049  1.00 20.00    -0.125 Cl
ENDROOT
BRANCH   4   7
HETATM    7  C4  UNL     1     -33.420   6.989   3.065  1.00 20.00    -0.047 A 
HETATM    8  C1  UNL     1     -34.554   7.309   3.867  1.00 20.00     0.015 A 
HETATM    9  C2  UNL     1     -35.189   6.182   4.339  1.00 20.00     0.050 A 
HETATM   10  S10 UNL     1     -34.417   4.744   3.818  1.00 20.00    -0.113 SA
HETATM   11  C3  UNL     1     -33.230   5.628   2.957  1.00 20.00     0.057 A 
ENDBRANCH   4   7
TORSDOF 1
ENDMDL
MODEL 6
REMARK VINA RESULT:       3.3      3.267      4.813
REMARK  1 active torsions:
REMARK  status: ('A' for Active; 'I' for Inactive)
REMARK    1  A    between atoms: C4_4  and  C8_8 
ROOT
HETATM    1  C5  UNL     1     -31.521   7.290   1.159  1.00 20.00     0.011 C 
HETATM    2  C6  UNL     1     -31.017   8.631   0.618  1.00 20.00     0.021 C 
HETATM    3  C7  UNL     1     -33.292   8.924   1.282  1.00 20.00     0.029 C 
HETATM    4  C8  UNL     1     -33.057   7.405   1.278  1.00 20.00     0.020 C 
HETATM    5  C9  UNL     1     -32.274   9.414   0.263  1.00 20.00     0.083 C 
HETATM    6 CL11 UNL     1     -32.028  11.164   0.345  1.00 20.00    -0.125 Cl
ENDROOT
BRANCH   4   7
HETATM    7  C4  UNL     1     -33.654   6.610   2.418  1.00 20.00    -0.047 A 
HETATM    8  C1  UNL     1     -33.467   5.208   2.593  1.00 20.00     0.015 A 
HETATM    9  C2  UNL     1     -34.120   4.734   3.710  1.00 20.00     0.050 A 
HETATM   10  S10 UNL     1     -34.955   5.977   4.542  1.00 20.00    -0.113 SA
HETATM   11  C3  UNL     1     -34.444   7.154   3.408  1.00 20.00     0.057 A 
ENDBRANCH   4   7
TORSDOF 1
ENDMDL
MODEL 7
REMARK VINA RESULT:       3.4      3.468      5.218
REMARK  1 active torsions:
REMARK  status: ('A' for Active; 'I' for Inactive)
REMARK    1  A    between atoms: C4_4  and  C8_8 
ROOT
HETATM    1  C5  UNL     1     -31.758   6.085   1.641  1.00 20.00     0.011 C 
HETATM    2  C6  UNL     1     -31.196   7.448   1.227  1.00 20.00     0.021 C 
HETATM    3  C7  UNL     1     -33.301   7.822   2.290  1.00 20.00     0.029 C 
HETATM    4  C8  UNL     1     -33.238   6.310   2.025  1.00 20.00     0.020 C 
HETATM    5  C9  UNL     1     -32.398   8.382   1.201  1.00 20.00     0.083 C 
HETATM    6 CL11 UNL     1     -31.953  10.068   1.497  1.00 20.00    -0.125 Cl
ENDROOT
BRANCH   4   7
HETATM    7  C4  UNL     1     -33.742   5.395   3.119  1.00 20.00    -0.047 A 
HETATM    8  C1  UNL     1     -34.803   5.730   4.010  1.00 20.00     0.015 A 
HETATM    9  C2  UNL     1     -35.061   4.719   4.910  1.00 20.00     0.050 A 
HETATM   10  S10 UNL     1     -34.027   3.373   4.680  1.00 20.00    -0.113 SA
HETATM   11  C3  UNL     1     -33.229   4.141   3.373  1.00 20.00     0.057 A 
ENDBRANCH   4   7
TORSDOF 1
ENDMDL
