MODEL 1
REMARK VINA RESULT:      -2.1      0.000      0.000
REMARK  2 active torsions:
REMARK  status: ('A' for Active; 'I' for Inactive)
REMARK    1  A    between atoms: C6_6  and  C9_9 
REMARK    2  A    between atoms: C9_9  and  C10_10 
ROOT
HETATM    1  C1  UNL     1     -34.829   6.911   3.684  1.00 20.00     0.002 C 
HETATM    2  C2  UNL     1     -33.555   7.702   3.407  1.00 20.00     0.005 C 
HETATM    3  C3  UNL     1     -32.303   6.041   1.882  1.00 20.00     0.006 C 
HETATM    4  C4  UNL     1     -34.627   5.511   4.259  1.00 20.00     0.020 C 
HETATM    5  C5  UNL     1     -33.177   4.837   2.239  1.00 20.00     0.020 C 
HETATM    6  C6  UNL     1     -32.966   7.419   2.016  1.00 20.00    -0.014 C 
HETATM    7  C7  UNL     1     -33.425   4.720   3.744  1.00 20.00     0.082 C 
HETATM    8 CL11 UNL     1     -33.669   2.989   4.178  1.00 20.00    -0.125 Cl
ENDROOT
BRANCH   6   9
HETATM    9  C9  UNL     1     -31.941   8.504   1.660  1.00 20.00     0.004 C 
BRANCH   9  10
HETATM   10  C10 UNL     1     -32.168   9.027   0.249  1.00 20.00    -0.004 C 
HETATM   11  C8  UNL     1     -32.627  10.476   0.271  1.00 20.00     0.005 C 
ENDBRANCH   9  10
ENDBRANCH   6   9
TORSDOF 2
ENDMDL
MODEL 2
REMARK VINA RESULT:      -1.5      1.357      2.338
REMARK  2 active torsions:
REMARK  status: ('A' for Active; 'I' for Inactive)
REMARK    1  A    between atoms: C6_6  and  C9_9 
REMARK    2  A    between atoms: C9_9  and  C10_10 
ROOT
HETATM    1  C1  UNL     1     -32.335   5.298   1.989  1.00 20.00     0.002 C 
HETATM    2  C2  UNL     1     -32.289   6.513   1.068  1.00 20.00     0.005 C 
HETATM    3  C3  UNL     1     -32.908   8.379   2.737  1.00 20.00     0.006 C 
HETATM    4  C4  UNL     1     -33.642   5.095   2.750  1.00 20.00     0.020 C 
HETATM    5  C5  UNL     1     -33.445   7.432   3.813  1.00 20.00     0.020 C 
HETATM    6  C6  UNL     1     -31.849   7.795   1.793  1.00 20.00    -0.014 C 
HETATM    7  C7  UNL     1     -34.362   6.353   3.237  1.00 20.00     0.082 C 
HETATM    8 CL11 UNL     1     -35.566   5.861   4.482  1.00 20.00    -0.125 Cl
ENDROOT
BRANCH   6   9
HETATM    9  C9  UNL     1     -31.455   8.860   0.761  1.00 20.00     0.004 C 
BRANCH   9  10
HETATM   10  C10 UNL     1     -32.486   9.980   0.713  1.00 20.00    -0.004 C 
HETATM   11  C8  UNL     1     -32.918  10.261  -0.717  1.00 20.00     0.005 C 
ENDBRANCH   9  10
ENDBRANCH   6   9
TORSDOF 2
ENDMDL
MODEL 3
REMARK VINA RESULT:      -0.6      2.629      4.942
REMARK  2 active torsions:
REMARK  status: ('A' for Active; 'I' for Inactive)
REMARK    1  A    between atoms: C6_6  and  C9_9 
REMARK    2  A    between atoms: C9_9  and  C10_10 
ROOT
HETATM    1  C1  UNL     1     -33.160   8.103   3.929  1.00 20.00     0.002 C 
HETATM    2  C2  UNL     1     -34.059   6.898   3.673  1.00 20.00     0.005 C 
HETATM    3  C3  UNL     1     -32.769   5.762   1.749  1.00 20.00     0.006 C 
HETATM    4  C4  UNL     1     -32.873   8.985   2.716  1.00 20.00     0.020 C 
HETATM    5  C5  UNL     1     -31.899   6.980   1.426  1.00 20.00     0.020 C 
HETATM    6  C6  UNL     1     -33.280   5.663   3.193  1.00 20.00    -0.014 C 
HETATM    7  C7  UNL     1     -32.707   8.277   1.371  1.00 20.00     0.082 C 
HETATM    8 CL11 UNL     1     -31.919   9.426   0.231  1.00 20.00    -0.125 Cl
ENDROOT
BRANCH   6   9
HETATM    9  C9  UNL     1     -34.162   4.414   3.328  1.00 20.00     0.004 C 
BRANCH   9  10
HETATM   10  C10 UNL     1     -34.057   3.821   4.726  1.00 20.00    -0.004 C 
HETATM   11  C8  UNL     1     -32.971   2.760   4.787  1.00 20.00     0.005 C 
ENDBRANCH   9  10
ENDBRANCH   6   9
TORSDOF 2
ENDMDL
MODEL 4
REMARK VINA RESULT:      -0.4      2.591      5.210
REMARK  2 active torsions:
REMARK  status: ('A' for Active; 'I' for Inactive)
REMARK    1  A    between atoms: C6_6  and  C9_9 
REMARK    2  A    between atoms: C9_9  and  C10_10 
ROOT
HETATM    1  C1  UNL     1     -32.766   5.530   1.188  1.00 20.00     0.002 C 
HETATM    2  C2  UNL     1     -32.888   4.933   2.586  1.00 20.00     0.005 C 
HETATM    3  C3  UNL     1     -34.157   6.829   3.788  1.00 20.00     0.006 C 
HETATM    4  C4  UNL     1     -32.116   6.910   1.113  1.00 20.00     0.020 C 
HETATM    5  C5  UNL     1     -33.883   7.884   2.714  1.00 20.00     0.020 C 
HETATM    6  C6  UNL     1     -34.170   5.370   3.312  1.00 20.00    -0.014 C 
HETATM    7  C7  UNL     1     -32.425   7.882   2.251  1.00 20.00     0.082 C 
HETATM    8 CL11 UNL     1     -31.966   9.538   1.711  1.00 20.00    -0.125 Cl
ENDROOT
BRANCH   6   9
HETATM    9  C9  UNL     1     -34.416   4.452   4.517  1.00 20.00     0.004 C 
BRANCH   9  10
HETATM   10  C10 UNL     1     -33.582   3.183   4.416  1.00 20.00    -0.004 C 
HETATM   11  C8  UNL     1     -32.717   3.000   5.652  1.00 20.00     0.005 C 
ENDBRANCH   9  10
ENDBRANCH   6   9
TORSDOF 2
ENDMDL
