MODEL 1
REMARK VINA RESULT:      -0.6      0.000      0.000
REMARK  3 active torsions:
REMARK  status: ('A' for Active; 'I' for Inactive)
REMARK    1  A    between atoms: C4_4  and  C9_9 
REMARK    2  A    between atoms: C8_8  and  C9_9 
REMARK    3  A    between atoms: C9_9  and  O10_10 
ROOT
HETATM    1  C9  UNL     1     -32.162   8.152   2.112  1.00 20.00     0.155 C 
ENDROOT
BRANCH   1   2
HETATM    2  C4  UNL     1     -33.123   7.210   2.804  1.00 20.00    -0.022 A 
HETATM    3  C1  UNL     1     -34.089   7.626   3.765  1.00 20.00     0.017 A 
HETATM    4  C2  UNL     1     -34.834   6.569   4.239  1.00 20.00     0.050 A 
HETATM    5  S11 UNL     1     -34.369   5.083   3.526  1.00 20.00    -0.113 SA
HETATM    6  C3  UNL     1     -33.166   5.852   2.580  1.00 20.00     0.059 A 
ENDBRANCH   1   2
BRANCH   1   7
HETATM    7  C8  UNL     1     -32.817   8.940   0.996  1.00 20.00     0.019 C 
HETATM    8  C6  UNL     1     -31.997   9.109  -0.309  1.00 20.00     0.007 C 
HETATM    9  C5  UNL     1     -32.593  10.529  -0.411  1.00 20.00     0.001 C 
HETATM   10  C7  UNL     1     -32.779  10.485   1.121  1.00 20.00     0.007 C 
ENDBRANCH   1   7
BRANCH   1  11
HETATM   11  O10 UNL     1     -31.091   7.376   1.573  1.00 20.00    -0.391 OA
HETATM   12  H23 UNL     1     -30.767   7.859   0.798  1.00 20.00     0.210 HD
ENDBRANCH   1  11
TORSDOF 3
ENDMDL
MODEL 2
REMARK VINA RESULT:      -0.5      0.592      1.231
REMARK  3 active torsions:
REMARK  status: ('A' for Active; 'I' for Inactive)
REMARK    1  A    between atoms: C4_4  and  C9_9 
REMARK    2  A    between atoms: C8_8  and  C9_9 
REMARK    3  A    between atoms: C9_9  and  O10_10 
ROOT
HETATM    1  C9  UNL     1     -32.169   8.203   2.109  1.00 20.00     0.155 C 
ENDROOT
BRANCH   1   2
HETATM    2  C4  UNL     1     -33.113   7.203   2.741  1.00 20.00    -0.022 A 
HETATM    3  C1  UNL     1     -33.134   5.816   2.416  1.00 20.00     0.017 A 
HETATM    4  C2  UNL     1     -34.089   5.131   3.135  1.00 20.00     0.050 A 
HETATM    5  S11 UNL     1     -34.954   6.159   4.196  1.00 20.00    -0.113 SA
HETATM    6  C3  UNL     1     -34.052   7.526   3.695  1.00 20.00     0.059 A 
ENDBRANCH   1   2
BRANCH   1   7
HETATM    7  C8  UNL     1     -32.810   8.975   0.974  1.00 20.00     0.019 C 
HETATM    8  C6  UNL     1     -31.980   9.115  -0.328  1.00 20.00     0.007 C 
HETATM    9  C5  UNL     1     -32.564  10.537  -0.459  1.00 20.00     0.001 C 
HETATM   10  C7  UNL     1     -32.760  10.521   1.071  1.00 20.00     0.007 C 
ENDBRANCH   1   7
BRANCH   1  11
HETATM   11  O10 UNL     1     -31.036   7.489   1.610  1.00 20.00    -0.391 OA
HETATM   12  H23 UNL     1     -30.780   7.927   0.784  1.00 20.00     0.210 HD
ENDBRANCH   1  11
TORSDOF 3
ENDMDL
MODEL 3
REMARK VINA RESULT:       0.3      0.971      1.309
REMARK  3 active torsions:
REMARK  status: ('A' for Active; 'I' for Inactive)
REMARK    1  A    between atoms: C4_4  and  C9_9 
REMARK    2  A    between atoms: C8_8  and  C9_9 
REMARK    3  A    between atoms: C9_9  and  O10_10 
ROOT
HETATM    1  C9  UNL     1     -31.813   7.315   1.944  1.00 20.00     0.155 C 
ENDROOT
BRANCH   1   2
HETATM    2  C4  UNL     1     -32.989   7.125   2.878  1.00 20.00    -0.022 A 
HETATM    3  C1  UNL     1     -33.286   7.994   3.968  1.00 20.00     0.017 A 
HETATM    4  C2  UNL     1     -34.409   7.593   4.657  1.00 20.00     0.050 A 
HETATM    5  S11 UNL     1     -35.100   6.175   3.991  1.00 20.00    -0.113 SA
HETATM    6  C3  UNL     1     -33.896   6.093   2.776  1.00 20.00     0.059 A 
ENDBRANCH   1   2
BRANCH   1   7
HETATM    7  C8  UNL     1     -31.736   8.719   1.381  1.00 20.00     0.019 C 
HETATM    8  C6  UNL     1     -33.080   9.388   0.995  1.00 20.00     0.007 C 
HETATM    9  C5  UNL     1     -32.336  10.024  -0.198  1.00 20.00     0.001 C 
HETATM   10  C7  UNL     1     -31.341   8.847  -0.112  1.00 20.00     0.007 C 
ENDBRANCH   1   7
BRANCH   1  11
HETATM   11  O10 UNL     1     -31.947   6.384   0.869  1.00 20.00    -0.391 OA
HETATM   12  H23 UNL     1     -32.694   5.810   1.096  1.00 20.00     0.210 HD
ENDBRANCH   1  11
TORSDOF 3
ENDMDL
MODEL 4
REMARK VINA RESULT:       0.4      2.340      4.769
REMARK  3 active torsions:
REMARK  status: ('A' for Active; 'I' for Inactive)
REMARK    1  A    between atoms: C4_4  and  C9_9 
REMARK    2  A    between atoms: C8_8  and  C9_9 
REMARK    3  A    between atoms: C9_9  and  O10_10 
ROOT
HETATM    1  C9  UNL     1     -32.400   7.626   2.682  1.00 20.00     0.155 C 
ENDROOT
BRANCH   1   2
HETATM    2  C4  UNL     1     -32.301   8.576   1.507  1.00 20.00    -0.022 A 
HETATM    3  C1  UNL     1     -31.545   8.307   0.330  1.00 20.00     0.017 A 
HETATM    4  C2  UNL     1     -31.625   9.337  -0.581  1.00 20.00     0.050 A 
HETATM    5  S11 UNL     1     -32.607  10.620  -0.017  1.00 20.00    -0.113 SA
HETATM    6  C3  UNL     1     -32.929   9.800   1.452  1.00 20.00     0.059 A 
ENDBRANCH   1   2
BRANCH   1   7
HETATM    7  C8  UNL     1     -33.797   7.073   2.868  1.00 20.00     0.019 C 
HETATM    8  C6  UNL     1     -34.517   7.434   4.194  1.00 20.00     0.007 C 
HETATM    9  C5  UNL     1     -35.118   6.013   4.169  1.00 20.00     0.001 C 
HETATM   10  C7  UNL     1     -33.904   5.592   3.315  1.00 20.00     0.007 C 
ENDBRANCH   1   7
BRANCH   1  11
HETATM   11  O10 UNL     1     -32.015   8.337   3.860  1.00 20.00    -0.391 OA
HETATM   12  H23 UNL     1     -32.832   8.677   4.252  1.00 20.00     0.210 HD
ENDBRANCH   1  11
TORSDOF 3
ENDMDL
MODEL 5
REMARK VINA RESULT:       0.5      2.314      4.617
REMARK  3 active torsions:
REMARK  status: ('A' for Active; 'I' for Inactive)
REMARK    1  A    between atoms: C4_4  and  C9_9 
REMARK    2  A    between atoms: C8_8  and  C9_9 
REMARK    3  A    between atoms: C9_9  and  O10_10 
ROOT
HETATM    1  C9  UNL     1     -32.367   7.755   2.621  1.00 20.00     0.155 C 
ENDROOT
BRANCH   1   2
HETATM    2  C4  UNL     1     -32.284   8.698   1.440  1.00 20.00    -0.022 A 
HETATM    3  C1  UNL     1     -32.893   9.985   1.407  1.00 20.00     0.017 A 
HETATM    4  C2  UNL     1     -32.664  10.635   0.214  1.00 20.00     0.050 A 
HETATM    5  S11 UNL     1     -31.719   9.693  -0.860  1.00 20.00    -0.113 SA
HETATM    6  C3  UNL     1     -31.614   8.411   0.271  1.00 20.00     0.059 A 
ENDBRANCH   1   2
BRANCH   1   7
HETATM    7  C8  UNL     1     -33.777   7.264   2.878  1.00 20.00     0.019 C 
HETATM    8  C6  UNL     1     -34.361   7.536   4.288  1.00 20.00     0.007 C 
HETATM    9  C5  UNL     1     -35.050   6.159   4.187  1.00 20.00     0.001 C 
HETATM   10  C7  UNL     1     -33.939   5.755   3.195  1.00 20.00     0.007 C 
ENDBRANCH   1   7
BRANCH   1  11
HETATM   11  O10 UNL     1     -31.893   8.449   3.776  1.00 20.00    -0.391 OA
HETATM   12  H23 UNL     1     -31.171   7.914   4.138  1.00 20.00     0.210 HD
ENDBRANCH   1  11
TORSDOF 3
ENDMDL
MODEL 6
REMARK VINA RESULT:       0.6      1.251      1.645
REMARK  3 active torsions:
REMARK  status: ('A' for Active; 'I' for Inactive)
REMARK    1  A    between atoms: C4_4  and  C9_9 
REMARK    2  A    between atoms: C8_8  and  C9_9 
REMARK    3  A    between atoms: C9_9  and  O10_10 
ROOT
HETATM    1  C9  UNL     1     -33.246   8.028   3.053  1.00 20.00     0.155 C 
ENDROOT
BRANCH   1   2
HETATM    2  C4  UNL     1     -33.836   6.704   3.488  1.00 20.00    -0.022 A 
HETATM    3  C1  UNL     1     -35.098   6.571   4.135  1.00 20.00     0.017 A 
HETATM    4  C2  UNL     1     -35.396   5.257   4.423  1.00 20.00     0.050 A 
HETATM    5  S11 UNL     1     -34.157   4.191   3.914  1.00 20.00    -0.113 SA
HETATM    6  C3  UNL     1     -33.216   5.488   3.305  1.00 20.00     0.059 A 
ENDBRANCH   1   2
BRANCH   1   7
HETATM    7  C8  UNL     1     -32.726   7.997   1.630  1.00 20.00     0.019 C 
HETATM    8  C6  UNL     1     -31.189   7.890   1.455  1.00 20.00     0.007 C 
HETATM    9  C5  UNL     1     -31.338   8.829   0.239  1.00 20.00     0.001 C 
HETATM   10  C7  UNL     1     -32.631   9.358   0.895  1.00 20.00     0.007 C 
ENDBRANCH   1   7
BRANCH   1  11
HETATM   11  O10 UNL     1     -32.172   8.347   3.939  1.00 20.00    -0.391 OA
HETATM   12  H23 UNL     1     -31.921   7.518   4.373  1.00 20.00     0.210 HD
ENDBRANCH   1  11
TORSDOF 3
ENDMDL
MODEL 7
REMARK VINA RESULT:       0.7      2.925      5.445
REMARK  3 active torsions:
REMARK  status: ('A' for Active; 'I' for Inactive)
REMARK    1  A    between atoms: C4_4  and  C9_9 
REMARK    2  A    between atoms: C8_8  and  C9_9 
REMARK    3  A    between atoms: C9_9  and  O10_10 
ROOT
HETATM    1  C9  UNL     1     -34.470   5.867   4.074  1.00 20.00     0.155 C 
ENDROOT
BRANCH   1   2
HETATM    2  C4  UNL     1     -33.544   6.499   3.057  1.00 20.00    -0.022 A 
HETATM    3  C1  UNL     1     -33.139   5.865   1.848  1.00 20.00     0.017 A 
HETATM    4  C2  UNL     1     -32.294   6.659   1.105  1.00 20.00     0.050 A 
HETATM    5  S11 UNL     1     -31.992   8.163   1.865  1.00 20.00    -0.113 SA
HETATM    6  C3  UNL     1     -32.993   7.755   3.194  1.00 20.00     0.059 A 
ENDBRANCH   1   2
BRANCH   1   7
HETATM    7  C8  UNL     1     -34.359   4.356   4.104  1.00 20.00     0.019 C 
HETATM    8  C6  UNL     1     -33.901   3.720   5.442  1.00 20.00     0.007 C 
HETATM    9  C5  UNL     1     -33.125   2.686   4.598  1.00 20.00     0.001 C 
HETATM   10  C7  UNL     1     -33.083   3.741   3.473  1.00 20.00     0.007 C 
ENDBRANCH   1   7
BRANCH   1  11
HETATM   11  O10 UNL     1     -35.810   6.232   3.741  1.00 20.00    -0.391 OA
HETATM   12  H23 UNL     1     -36.298   6.272   4.577  1.00 20.00     0.210 HD
ENDBRANCH   1  11
TORSDOF 3
ENDMDL
MODEL 8
REMARK VINA RESULT:       1.1      2.324      4.596
REMARK  3 active torsions:
REMARK  status: ('A' for Active; 'I' for Inactive)
REMARK    1  A    between atoms: C4_4  and  C9_9 
REMARK    2  A    between atoms: C8_8  and  C9_9 
REMARK    3  A    between atoms: C9_9  and  O10_10 
ROOT
HETATM    1  C9  UNL     1     -33.074   6.019   1.790  1.00 20.00     0.155 C 
ENDROOT
BRANCH   1   2
HETATM    2  C4  UNL     1     -32.683   7.441   1.446  1.00 20.00    -0.022 A 
HETATM    3  C1  UNL     1     -32.028   8.325   2.350  1.00 20.00     0.017 A 
HETATM    4  C2  UNL     1     -31.789   9.558   1.785  1.00 20.00     0.050 A 
HETATM    5  S11 UNL     1     -32.355   9.646   0.172  1.00 20.00    -0.113 SA
HETATM    6  C3  UNL     1     -32.922   8.031   0.225  1.00 20.00     0.059 A 
ENDBRANCH   1   2
BRANCH   1   7
HETATM    7  C8  UNL     1     -33.533   5.871   3.226  1.00 20.00     0.019 C 
HETATM    8  C6  UNL     1     -34.098   4.486   3.635  1.00 20.00     0.007 C 
HETATM    9  C5  UNL     1     -35.111   5.244   4.519  1.00 20.00     0.001 C 
HETATM   10  C7  UNL     1     -34.929   6.448   3.571  1.00 20.00     0.007 C 
ENDBRANCH   1   7
BRANCH   1  11
HETATM   11  O10 UNL     1     -31.937   5.182   1.571  1.00 20.00    -0.391 OA
HETATM   12  H23 UNL     1     -31.455   5.152   2.411  1.00 20.00     0.210 HD
ENDBRANCH   1  11
TORSDOF 3
ENDMDL
MODEL 9
REMARK VINA RESULT:       1.5      1.026      1.697
REMARK  3 active torsions:
REMARK  status: ('A' for Active; 'I' for Inactive)
REMARK    1  A    between atoms: C4_4  and  C9_9 
REMARK    2  A    between atoms: C8_8  and  C9_9 
REMARK    3  A    between atoms: C9_9  and  O10_10 
ROOT
HETATM    1  C9  UNL     1     -32.266   8.756   2.677  1.00 20.00     0.155 C 
ENDROOT
BRANCH   1   2
HETATM    2  C4  UNL     1     -33.091   7.512   2.924  1.00 20.00    -0.022 A 
HETATM    3  C1  UNL     1     -32.893   6.279   2.241  1.00 20.00     0.017 A 
HETATM    4  C2  UNL     1     -33.780   5.310   2.655  1.00 20.00     0.050 A 
HETATM    5  S11 UNL     1     -34.847   5.888   3.862  1.00 20.00    -0.113 SA
HETATM    6  C3  UNL     1     -34.123   7.440   3.834  1.00 20.00     0.059 A 
ENDBRANCH   1   2
BRANCH   1   7
HETATM    7  C8  UNL     1     -31.956   8.969   1.209  1.00 20.00     0.019 C 
HETATM    8  C6  UNL     1     -32.230  10.386   0.640  1.00 20.00     0.007 C 
HETATM    9  C5  UNL     1     -32.685   9.693  -0.662  1.00 20.00     0.001 C 
HETATM   10  C7  UNL     1     -33.009   8.451   0.195  1.00 20.00     0.007 C 
ENDBRANCH   1   7
BRANCH   1  11
HETATM   11  O10 UNL     1     -31.041   8.627   3.401  1.00 20.00    -0.391 OA
HETATM   12  H23 UNL     1     -30.664   9.518   3.460  1.00 20.00     0.210 HD
ENDBRANCH   1  11
TORSDOF 3
ENDMDL
