MODEL 1
REMARK VINA RESULT:       1.6      0.000      0.000
REMARK  1 active torsions:
REMARK  status: ('A' for Active; 'I' for Inactive)
REMARK    1  A    between atoms: C4_4  and  C10_10 
ROOT
HETATM    1  C5  UNL     1     -32.773   7.847   3.571  1.00 20.00     0.135 C 
HETATM    2  C6  UNL     1     -34.171   7.278   3.473  1.00 20.00     0.079 C 
HETATM    3  C7  UNL     1     -34.111   5.827   3.027  1.00 20.00     0.007 C 
HETATM    4  C8  UNL     1     -33.326   5.676   1.729  1.00 20.00     0.001 C 
HETATM    5  C9  UNL     1     -31.917   6.263   1.858  1.00 20.00     0.017 C 
HETATM    6  C10 UNL     1     -31.889   7.729   2.332  1.00 20.00     0.088 C 
HETATM    7  O11 UNL     1     -32.395   8.440   4.581  1.00 20.00    -0.297 OA
ENDROOT
BRANCH   6   8
HETATM    8  C4  UNL     1     -32.211   8.816   1.316  1.00 20.00    -0.040 A 
HETATM    9  C1  UNL     1     -32.807  10.065   1.650  1.00 20.00     0.015 A 
HETATM   10  C2  UNL     1     -32.990  10.865   0.544  1.00 20.00     0.050 A 
HETATM   11  S12 UNL     1     -32.445  10.107  -0.892  1.00 20.00    -0.113 SA
HETATM   12  C3  UNL     1     -31.961   8.707  -0.034  1.00 20.00     0.057 A 
ENDBRANCH   6   8
TORSDOF 1
ENDMDL
MODEL 2
REMARK VINA RESULT:       1.6      0.614      1.174
REMARK  1 active torsions:
REMARK  status: ('A' for Active; 'I' for Inactive)
REMARK    1  A    between atoms: C4_4  and  C10_10 
ROOT
HETATM    1  C5  UNL     1     -32.772   7.795   3.537  1.00 20.00     0.135 C 
HETATM    2  C6  UNL     1     -34.159   7.202   3.430  1.00 20.00     0.079 C 
HETATM    3  C7  UNL     1     -34.071   5.756   2.970  1.00 20.00     0.007 C 
HETATM    4  C8  UNL     1     -33.280   5.632   1.672  1.00 20.00     0.001 C 
HETATM    5  C9  UNL     1     -31.882   6.244   1.811  1.00 20.00     0.017 C 
HETATM    6  C10 UNL     1     -31.883   7.706   2.299  1.00 20.00     0.088 C 
HETATM    7  O11 UNL     1     -32.407   8.385   4.553  1.00 20.00    -0.297 OA
ENDROOT
BRANCH   6   8
HETATM    8  C4  UNL     1     -32.223   8.796   1.293  1.00 20.00    -0.040 A 
HETATM    9  C1  UNL     1     -32.066   8.654  -0.116  1.00 20.00     0.015 A 
HETATM   10  C2  UNL     1     -32.447   9.789  -0.796  1.00 20.00     0.050 A 
HETATM   11  S12 UNL     1     -32.992  11.020   0.263  1.00 20.00    -0.113 SA
HETATM   12  C3  UNL     1     -32.719  10.034   1.636  1.00 20.00     0.057 A 
ENDBRANCH   6   8
TORSDOF 1
ENDMDL
MODEL 3
REMARK VINA RESULT:       3.5      3.068      4.950
REMARK  1 active torsions:
REMARK  status: ('A' for Active; 'I' for Inactive)
REMARK    1  A    between atoms: C4_4  and  C10_10 
ROOT
HETATM    1  C5  UNL     1     -33.864   7.385   3.440  1.00 20.00     0.135 C 
HETATM    2  C6  UNL     1     -32.463   7.938   3.578  1.00 20.00     0.079 C 
HETATM    3  C7  UNL     1     -31.837   8.113   2.204  1.00 20.00     0.007 C 
HETATM    4  C8  UNL     1     -31.877   6.816   1.404  1.00 20.00     0.001 C 
HETATM    5  C9  UNL     1     -33.308   6.280   1.284  1.00 20.00     0.017 C 
HETATM    6  C10 UNL     1     -34.024   6.097   2.637  1.00 20.00     0.088 C 
HETATM    7  O11 UNL     1     -34.817   7.914   4.011  1.00 20.00    -0.297 OA
ENDROOT
BRANCH   6   8
HETATM    8  C4  UNL     1     -33.673   4.875   3.473  1.00 20.00    -0.040 A 
HETATM    9  C1  UNL     1     -34.430   4.437   4.597  1.00 20.00     0.015 A 
HETATM   10  C2  UNL     1     -33.894   3.306   5.174  1.00 20.00     0.050 A 
HETATM   11  S12 UNL     1     -32.482   2.778   4.360  1.00 20.00    -0.113 SA
HETATM   12  C3  UNL     1     -32.586   4.063   3.232  1.00 20.00     0.057 A 
ENDBRANCH   6   8
TORSDOF 1
ENDMDL
MODEL 4
REMARK VINA RESULT:       4.1      2.446      4.521
REMARK  1 active torsions:
REMARK  status: ('A' for Active; 'I' for Inactive)
REMARK    1  A    between atoms: C4_4  and  C10_10 
ROOT
HETATM    1  C5  UNL     1     -31.488   8.637   0.099  1.00 20.00     0.135 C 
HETATM    2  C6  UNL     1     -32.608   9.175  -0.762  1.00 20.00     0.079 C 
HETATM    3  C7  UNL     1     -32.927  10.607  -0.364  1.00 20.00     0.007 C 
HETATM    4  C8  UNL     1     -33.230  10.716   1.126  1.00 20.00     0.001 C 
HETATM    5  C9  UNL     1     -32.079  10.160   1.971  1.00 20.00     0.017 C 
HETATM    6  C10 UNL     1     -31.676   8.716   1.611  1.00 20.00     0.088 C 
HETATM    7  O11 UNL     1     -30.502   8.095  -0.402  1.00 20.00    -0.297 OA
ENDROOT
BRANCH   6   8
HETATM    8  C4  UNL     1     -32.553   7.581   2.121  1.00 20.00    -0.040 A 
HETATM    9  C1  UNL     1     -32.581   6.279   1.546  1.00 20.00     0.015 A 
HETATM   10  C2  UNL     1     -33.460   5.443   2.199  1.00 20.00     0.050 A 
HETATM   11  S12 UNL     1     -34.247   6.229   3.500  1.00 20.00    -0.113 SA
HETATM   12  C3  UNL     1     -33.411   7.692   3.193  1.00 20.00     0.057 A 
ENDBRANCH   6   8
TORSDOF 1
ENDMDL
MODEL 5
REMARK VINA RESULT:       4.4      2.920      4.485
REMARK  1 active torsions:
REMARK  status: ('A' for Active; 'I' for Inactive)
REMARK    1  A    between atoms: C4_4  and  C10_10 
ROOT
HETATM    1  C5  UNL     1     -32.323   6.209   0.867  1.00 20.00     0.135 C 
HETATM    2  C6  UNL     1     -33.122   7.128  -0.030  1.00 20.00     0.079 C 
HETATM    3  C7  UNL     1     -32.544   8.532   0.020  1.00 20.00     0.007 C 
HETATM    4  C8  UNL     1     -32.453   9.046   1.452  1.00 20.00     0.001 C 
HETATM    5  C9  UNL     1     -31.641   8.094   2.335  1.00 20.00     0.017 C 
HETATM    6  C10 UNL     1     -32.149   6.639   2.321  1.00 20.00     0.088 C 
HETATM    7  O11 UNL     1     -31.896   5.130   0.456  1.00 20.00    -0.297 OA
ENDROOT
BRANCH   6   8
HETATM    8  C4  UNL     1     -33.381   6.303   3.150  1.00 20.00    -0.040 A 
HETATM    9  C1  UNL     1     -34.281   7.277   3.666  1.00 20.00     0.015 A 
HETATM   10  C2  UNL     1     -35.311   6.705   4.380  1.00 20.00     0.050 A 
HETATM   11  S12 UNL     1     -35.189   4.998   4.426  1.00 20.00    -0.113 SA
HETATM   12  C3  UNL     1     -33.756   5.021   3.488  1.00 20.00     0.057 A 
ENDBRANCH   6   8
TORSDOF 1
ENDMDL
