MODEL 1
REMARK VINA RESULT:       2.4      0.000      0.000
REMARK  1 active torsions:
REMARK  status: ('A' for Active; 'I' for Inactive)
REMARK    1  A    between atoms: C3_3  and  C8_8 
ROOT
HETATM    1  C1  UNL     1     -32.916   5.699   3.264  1.00 20.00     0.022 A 
HETATM    2  C2  UNL     1     -34.449   7.408   3.631  1.00 20.00     0.057 A 
HETATM    3  C3  UNL     1     -33.197   7.091   3.150  1.00 20.00    -0.046 A 
HETATM    4  C4  UNL     1     -33.964   5.004   3.829  1.00 20.00    -0.021 A 
HETATM    5  C10 UNL     1     -34.060   3.556   4.115  1.00 20.00     0.056 C 
HETATM    6  S11 UNL     1     -35.279   6.029   4.219  1.00 20.00    -0.106 SA
ENDROOT
BRANCH   3   7
HETATM    7  C8  UNL     1     -32.235   8.101   2.568  1.00 20.00     0.020 C 
HETATM    8  C5  UNL     1     -31.256   7.522   1.524  1.00 20.00     0.010 C 
HETATM    9  C6  UNL     1     -31.564   8.248   0.218  1.00 20.00     0.016 C 
HETATM   10  C9  UNL     1     -32.057   9.604   0.686  1.00 20.00     0.058 C 
HETATM   11  C7  UNL     1     -32.956   9.266   1.863  1.00 20.00     0.025 C 
HETATM   12 BR12 UNL     1     -33.020  10.530  -0.710  1.00 20.00    -0.091 Br
ENDBRANCH   3   7
TORSDOF 1
ENDMDL
MODEL 2
REMARK VINA RESULT:       3.6      1.094      1.443
REMARK  1 active torsions:
REMARK  status: ('A' for Active; 'I' for Inactive)
REMARK    1  A    between atoms: C3_3  and  C8_8 
ROOT
HETATM    1  C1  UNL     1     -34.030   6.980   3.699  1.00 20.00     0.022 A 
HETATM    2  C2  UNL     1     -32.751   5.697   2.243  1.00 20.00     0.057 A 
HETATM    3  C3  UNL     1     -32.969   6.960   2.750  1.00 20.00    -0.046 A 
HETATM    4  C4  UNL     1     -34.585   5.732   3.883  1.00 20.00    -0.021 A 
HETATM    5  C10 UNL     1     -35.698   5.341   4.775  1.00 20.00     0.056 C 
HETATM    6  S11 UNL     1     -33.826   4.543   2.912  1.00 20.00    -0.106 SA
ENDROOT
BRANCH   3   7
HETATM    7  C8  UNL     1     -32.174   8.181   2.346  1.00 20.00     0.020 C 
HETATM    8  C5  UNL     1     -30.999   7.889   1.388  1.00 20.00     0.010 C 
HETATM    9  C6  UNL     1     -31.313   8.648   0.102  1.00 20.00     0.016 C 
HETATM   10  C9  UNL     1     -32.111   9.840   0.592  1.00 20.00     0.058 C 
HETATM   11  C7  UNL     1     -33.039   9.240   1.635  1.00 20.00     0.025 C 
HETATM   12 BR12 UNL     1     -33.094  10.676  -0.845  1.00 20.00    -0.091 Br
ENDBRANCH   3   7
TORSDOF 1
ENDMDL
MODEL 3
REMARK VINA RESULT:       4.0      3.166      5.405
REMARK  1 active torsions:
REMARK  status: ('A' for Active; 'I' for Inactive)
REMARK    1  A    between atoms: C3_3  and  C8_8 
ROOT
HETATM    1  C1  UNL     1     -33.150   9.374   1.646  1.00 20.00     0.022 A 
HETATM    2  C2  UNL     1     -31.696   7.570   1.466  1.00 20.00     0.057 A 
HETATM    3  C3  UNL     1     -32.687   8.157   2.223  1.00 20.00    -0.046 A 
HETATM    4  C4  UNL     1     -32.496   9.672   0.470  1.00 20.00    -0.021 A 
HETATM    5  C10 UNL     1     -32.687  10.837  -0.421  1.00 20.00     0.056 C 
HETATM    6  S11 UNL     1     -31.329   8.485   0.066  1.00 20.00    -0.106 SA
ENDROOT
BRANCH   3   7
HETATM    7  C8  UNL     1     -33.220   7.578   3.514  1.00 20.00     0.020 C 
HETATM    8  C5  UNL     1     -34.757   7.614   3.642  1.00 20.00     0.010 C 
HETATM    9  C6  UNL     1     -35.201   6.157   3.733  1.00 20.00     0.016 C 
HETATM   10  C9  UNL     1     -34.020   5.479   4.399  1.00 20.00     0.058 C 
HETATM   11  C7  UNL     1     -32.818   6.104   3.710  1.00 20.00     0.025 C 
HETATM   12 BR12 UNL     1     -34.070   3.563   4.155  1.00 20.00    -0.091 Br
ENDBRANCH   3   7
TORSDOF 1
ENDMDL
MODEL 4
REMARK VINA RESULT:       5.0      3.119      5.145
REMARK  1 active torsions:
REMARK  status: ('A' for Active; 'I' for Inactive)
REMARK    1  A    between atoms: C3_3  and  C8_8 
ROOT
HETATM    1  C1  UNL     1     -31.807   7.969   1.343  1.00 20.00     0.022 A 
HETATM    2  C2  UNL     1     -33.310   9.684   1.793  1.00 20.00     0.057 A 
HETATM    3  C3  UNL     1     -32.796   8.482   2.229  1.00 20.00    -0.046 A 
HETATM    4  C4  UNL     1     -31.601   8.798   0.261  1.00 20.00    -0.021 A 
HETATM    5  C10 UNL     1     -30.667   8.619  -0.872  1.00 20.00     0.056 C 
HETATM    6  S11 UNL     1     -32.599  10.188   0.318  1.00 20.00    -0.106 SA
ENDROOT
BRANCH   3   7
HETATM    7  C8  UNL     1     -33.231   7.789   3.501  1.00 20.00     0.020 C 
HETATM    8  C5  UNL     1     -34.756   7.793   3.739  1.00 20.00     0.010 C 
HETATM    9  C6  UNL     1     -35.180   6.327   3.737  1.00 20.00     0.016 C 
HETATM   10  C9  UNL     1     -33.950   5.611   4.258  1.00 20.00     0.058 C 
HETATM   11  C7  UNL     1     -32.805   6.309   3.541  1.00 20.00     0.025 C 
HETATM   12 BR12 UNL     1     -34.003   3.723   3.855  1.00 20.00    -0.091 Br
ENDBRANCH   3   7
TORSDOF 1
ENDMDL
