MODEL 1
REMARK VINA RESULT:       2.2      0.000      0.000
REMARK  1 active torsions:
REMARK  status: ('A' for Active; 'I' for Inactive)
REMARK    1  A    between atoms: C3_3  and  C8_8 
ROOT
HETATM    1  C1  UNL     1     -32.978   9.097   1.537  1.00 20.00     0.022 A 
HETATM    2  C2  UNL     1     -31.417   7.451   1.030  1.00 20.00     0.057 A 
HETATM    3  C3  UNL     1     -32.426   7.830   1.887  1.00 20.00    -0.045 A 
HETATM    4  C4  UNL     1     -32.368   9.637   0.427  1.00 20.00    -0.021 A 
HETATM    5  C10 UNL     1     -32.652  10.926  -0.243  1.00 20.00     0.056 C 
HETATM    6  S11 UNL     1     -31.137   8.620  -0.190  1.00 20.00    -0.106 SA
ENDROOT
BRANCH   3   7
HETATM    7  C8  UNL     1     -32.896   7.000   3.062  1.00 20.00     0.033 C 
HETATM    8  C6  UNL     1     -33.384   5.600   2.648  1.00 20.00     0.010 C 
HETATM    9  C5  UNL     1     -34.383   5.228   3.732  1.00 20.00     0.002 C 
HETATM   10  C7  UNL     1     -35.140   6.530   3.958  1.00 20.00     0.016 C 
HETATM   11  C9  UNL     1     -34.081   7.623   3.831  1.00 20.00     0.066 C 
HETATM   12 BR12 UNL     1     -33.492   8.183   5.616  1.00 20.00    -0.090 Br
ENDBRANCH   3   7
TORSDOF 1
ENDMDL
MODEL 2
REMARK VINA RESULT:       3.5      2.709      4.956
REMARK  1 active torsions:
REMARK  status: ('A' for Active; 'I' for Inactive)
REMARK    1  A    between atoms: C3_3  and  C8_8 
ROOT
HETATM    1  C1  UNL     1     -33.837   7.583   2.987  1.00 20.00     0.022 A 
HETATM    2  C2  UNL     1     -32.443   6.237   1.705  1.00 20.00     0.057 A 
HETATM    3  C3  UNL     1     -32.805   7.530   2.006  1.00 20.00    -0.045 A 
HETATM    4  C4  UNL     1     -34.225   6.327   3.397  1.00 20.00    -0.021 A 
HETATM    5  C10 UNL     1     -35.258   5.961   4.391  1.00 20.00     0.056 C 
HETATM    6  S11 UNL     1     -33.346   5.091   2.602  1.00 20.00    -0.106 SA
ENDROOT
BRANCH   3   7
HETATM    7  C8  UNL     1     -32.180   8.755   1.372  1.00 20.00     0.033 C 
HETATM    8  C6  UNL     1     -32.875  10.064   1.785  1.00 20.00     0.010 C 
HETATM    9  C5  UNL     1     -32.610  11.000   0.617  1.00 20.00     0.002 C 
HETATM   10  C7  UNL     1     -32.806  10.098  -0.594  1.00 20.00     0.016 C 
HETATM   11  C9  UNL     1     -32.226   8.749  -0.171  1.00 20.00     0.066 C 
HETATM   12 BR12 UNL     1     -30.412   8.557  -0.889  1.00 20.00    -0.090 Br
ENDBRANCH   3   7
TORSDOF 1
ENDMDL
MODEL 3
REMARK VINA RESULT:       4.7      2.798      5.136
REMARK  1 active torsions:
REMARK  status: ('A' for Active; 'I' for Inactive)
REMARK    1  A    between atoms: C3_3  and  C8_8 
ROOT
HETATM    1  C1  UNL     1     -32.820   6.426   2.197  1.00 20.00     0.022 A 
HETATM    2  C2  UNL     1     -33.903   8.111   3.375  1.00 20.00     0.057 A 
HETATM    3  C3  UNL     1     -33.003   7.828   2.372  1.00 20.00    -0.045 A 
HETATM    4  C4  UNL     1     -33.588   5.691   3.074  1.00 20.00    -0.021 A 
HETATM    5  C10 UNL     1     -33.680   4.221   3.207  1.00 20.00     0.056 C 
HETATM    6  S11 UNL     1     -34.524   6.690   4.101  1.00 20.00    -0.106 SA
ENDROOT
BRANCH   3   7
HETATM    7  C8  UNL     1     -32.290   8.881   1.551  1.00 20.00     0.033 C 
HETATM    8  C6  UNL     1     -32.900  10.284   1.719  1.00 20.00     0.010 C 
HETATM    9  C5  UNL     1     -32.561  10.985   0.413  1.00 20.00     0.002 C 
HETATM   10  C7  UNL     1     -32.805   9.902  -0.629  1.00 20.00     0.016 C 
HETATM   11  C9  UNL     1     -32.321   8.612   0.031  1.00 20.00     0.066 C 
HETATM   12 BR12 UNL     1     -30.516   8.183  -0.604  1.00 20.00    -0.090 Br
ENDBRANCH   3   7
TORSDOF 1
ENDMDL
MODEL 4
REMARK VINA RESULT:       4.8      2.837      5.155
REMARK  1 active torsions:
REMARK  status: ('A' for Active; 'I' for Inactive)
REMARK    1  A    between atoms: C3_3  and  C8_8 
ROOT
HETATM    1  C1  UNL     1     -33.119   4.732   3.236  1.00 20.00     0.022 A 
HETATM    2  C2  UNL     1     -34.835   6.244   3.652  1.00 20.00     0.057 A 
HETATM    3  C3  UNL     1     -33.704   5.989   2.908  1.00 20.00    -0.045 A 
HETATM    4  C4  UNL     1     -33.824   4.075   4.219  1.00 20.00    -0.021 A 
HETATM    5  C10 UNL     1     -33.541   2.757   4.830  1.00 20.00     0.056 C 
HETATM    6  S11 UNL     1     -35.186   4.970   4.742  1.00 20.00    -0.106 SA
ENDROOT
BRANCH   3   7
HETATM    7  C8  UNL     1     -33.149   6.933   1.863  1.00 20.00     0.033 C 
HETATM    8  C6  UNL     1     -32.038   6.294   1.010  1.00 20.00     0.010 C 
HETATM    9  C5  UNL     1     -31.197   7.479   0.564  1.00 20.00     0.002 C 
HETATM   10  C7  UNL     1     -31.130   8.341   1.817  1.00 20.00     0.016 C 
HETATM   11  C9  UNL     1     -32.513   8.211   2.452  1.00 20.00     0.066 C 
HETATM   12 BR12 UNL     1     -33.605   9.771   1.984  1.00 20.00    -0.090 Br
ENDBRANCH   3   7
TORSDOF 1
ENDMDL
