MODEL 1
REMARK VINA RESULT:       1.5      0.000      0.000
REMARK  1 active torsions:
REMARK  status: ('A' for Active; 'I' for Inactive)
REMARK    1  A    between atoms: C4_4  and  C8_8 
ROOT
HETATM    1  C5  UNL     1     -31.305   7.936   0.712  1.00 20.00     0.002 C 
HETATM    2  C6  UNL     1     -31.861   6.641   1.308  1.00 20.00     0.011 C 
HETATM    3  C7  UNL     1     -32.205   9.062   1.217  1.00 20.00     0.021 C 
HETATM    4  C8  UNL     1     -33.215   7.018   1.935  1.00 20.00     0.037 C 
HETATM    5  C9  UNL     1     -32.974   8.470   2.395  1.00 20.00     0.090 C 
HETATM    6 CL11 UNL     1     -31.980   8.564   3.883  1.00 20.00    -0.124 Cl
ENDROOT
BRANCH   4   7
HETATM    7  C4  UNL     1     -33.795   6.071   2.965  1.00 20.00    -0.046 A 
HETATM    8  C1  UNL     1     -34.949   6.360   3.750  1.00 20.00     0.015 A 
HETATM    9  C2  UNL     1     -35.263   5.330   4.609  1.00 20.00     0.050 A 
HETATM   10  S10 UNL     1     -34.168   4.020   4.467  1.00 20.00    -0.113 SA
HETATM   11  C3  UNL     1     -33.271   4.829   3.254  1.00 20.00     0.057 A 
ENDBRANCH   4   7
TORSDOF 1
ENDMDL
MODEL 2
REMARK VINA RESULT:       1.9      0.675      1.228
REMARK  1 active torsions:
REMARK  status: ('A' for Active; 'I' for Inactive)
REMARK    1  A    between atoms: C4_4  and  C8_8 
ROOT
HETATM    1  C5  UNL     1     -31.286   7.826   0.766  1.00 20.00     0.002 C 
HETATM    2  C6  UNL     1     -31.870   6.547   1.371  1.00 20.00     0.011 C 
HETATM    3  C7  UNL     1     -32.179   8.971   1.239  1.00 20.00     0.021 C 
HETATM    4  C8  UNL     1     -33.229   6.952   1.968  1.00 20.00     0.037 C 
HETATM    5  C9  UNL     1     -32.976   8.407   2.411  1.00 20.00     0.090 C 
HETATM    6 CL11 UNL     1     -32.007   8.510   3.915  1.00 20.00    -0.124 Cl
ENDROOT
BRANCH   4   7
HETATM    7  C4  UNL     1     -33.841   6.028   3.002  1.00 20.00    -0.046 A 
HETATM    8  C1  UNL     1     -33.345   4.724   3.294  1.00 20.00     0.015 A 
HETATM    9  C2  UNL     1     -34.084   4.097   4.272  1.00 20.00     0.050 A 
HETATM   10  S10 UNL     1     -35.370   5.079   4.835  1.00 20.00    -0.113 SA
HETATM   11  C3  UNL     1     -34.940   6.348   3.769  1.00 20.00     0.057 A 
ENDBRANCH   4   7
TORSDOF 1
ENDMDL
MODEL 3
REMARK VINA RESULT:       2.5      1.465      1.879
REMARK  1 active torsions:
REMARK  status: ('A' for Active; 'I' for Inactive)
REMARK    1  A    between atoms: C4_4  and  C8_8 
ROOT
HETATM    1  C5  UNL     1     -32.340   9.146   0.872  1.00 20.00     0.002 C 
HETATM    2  C6  UNL     1     -33.379   8.659   1.885  1.00 20.00     0.011 C 
HETATM    3  C7  UNL     1     -31.234   8.093   0.852  1.00 20.00     0.021 C 
HETATM    4  C8  UNL     1     -32.727   7.467   2.610  1.00 20.00     0.037 C 
HETATM    5  C9  UNL     1     -31.839   6.855   1.509  1.00 20.00     0.090 C 
HETATM    6 CL11 UNL     1     -32.782   5.923   0.304  1.00 20.00    -0.124 Cl
ENDROOT
BRANCH   4   7
HETATM    7  C4  UNL     1     -33.644   6.513   3.347  1.00 20.00    -0.046 A 
HETATM    8  C1  UNL     1     -34.903   6.887   3.901  1.00 20.00     0.015 A 
HETATM    9  C2  UNL     1     -35.533   5.829   4.518  1.00 20.00     0.050 A 
HETATM   10  S10 UNL     1     -34.608   4.390   4.428  1.00 20.00    -0.113 SA
HETATM   11  C3  UNL     1     -33.360   5.181   3.562  1.00 20.00     0.057 A 
ENDBRANCH   4   7
TORSDOF 1
ENDMDL
MODEL 4
REMARK VINA RESULT:       2.7      1.627      2.249
REMARK  1 active torsions:
REMARK  status: ('A' for Active; 'I' for Inactive)
REMARK    1  A    between atoms: C4_4  and  C8_8 
ROOT
HETATM    1  C5  UNL     1     -32.357   9.020   1.027  1.00 20.00     0.002 C 
HETATM    2  C6  UNL     1     -33.338   8.512   2.086  1.00 20.00     0.011 C 
HETATM    3  C7  UNL     1     -31.328   7.909   0.827  1.00 20.00     0.021 C 
HETATM    4  C8  UNL     1     -32.709   7.227   2.655  1.00 20.00     0.037 C 
HETATM    5  C9  UNL     1     -31.956   6.658   1.435  1.00 20.00     0.090 C 
HETATM    6 CL11 UNL     1     -33.056   5.888   0.248  1.00 20.00    -0.124 Cl
ENDROOT
BRANCH   4   7
HETATM    7  C4  UNL     1     -33.622   6.270   3.392  1.00 20.00    -0.046 A 
HETATM    8  C1  UNL     1     -33.340   4.885   3.578  1.00 20.00     0.015 A 
HETATM    9  C2  UNL     1     -34.335   4.243   4.281  1.00 20.00     0.050 A 
HETATM   10  S10 UNL     1     -35.604   5.308   4.715  1.00 20.00    -0.113 SA
HETATM   11  C3  UNL     1     -34.823   6.633   3.962  1.00 20.00     0.057 A 
ENDBRANCH   4   7
TORSDOF 1
ENDMDL
MODEL 5
REMARK VINA RESULT:       3.0      2.548      4.546
REMARK  1 active torsions:
REMARK  status: ('A' for Active; 'I' for Inactive)
REMARK    1  A    between atoms: C4_4  and  C8_8 
ROOT
HETATM    1  C5  UNL     1     -34.438   4.386   4.106  1.00 20.00     0.002 C 
HETATM    2  C6  UNL     1     -33.455   5.043   3.135  1.00 20.00     0.011 C 
HETATM    3  C7  UNL     1     -35.170   5.524   4.814  1.00 20.00     0.021 C 
HETATM    4  C8  UNL     1     -33.461   6.542   3.488  1.00 20.00     0.037 C 
HETATM    5  C9  UNL     1     -34.911   6.764   3.963  1.00 20.00     0.090 C 
HETATM    6 CL11 UNL     1     -36.078   6.827   2.605  1.00 20.00    -0.124 Cl
ENDROOT
BRANCH   4   7
HETATM    7  C4  UNL     1     -32.937   7.507   2.444  1.00 20.00    -0.046 A 
HETATM    8  C1  UNL     1     -31.994   7.151   1.436  1.00 20.00     0.015 A 
HETATM    9  C2  UNL     1     -31.686   8.215   0.617  1.00 20.00     0.050 A 
HETATM   10  S10 UNL     1     -32.531   9.636   1.065  1.00 20.00    -0.113 SA
HETATM   11  C3  UNL     1     -33.313   8.829   2.357  1.00 20.00     0.057 A 
ENDBRANCH   4   7
TORSDOF 1
ENDMDL
MODEL 6
REMARK VINA RESULT:       3.6      2.728      4.675
REMARK  1 active torsions:
REMARK  status: ('A' for Active; 'I' for Inactive)
REMARK    1  A    between atoms: C4_4  and  C8_8 
ROOT
HETATM    1  C5  UNL     1     -33.962   7.216   4.904  1.00 20.00     0.002 C 
HETATM    2  C6  UNL     1     -33.087   8.177   4.097  1.00 20.00     0.011 C 
HETATM    3  C7  UNL     1     -34.871   6.515   3.898  1.00 20.00     0.021 C 
HETATM    4  C8  UNL     1     -33.686   8.195   2.679  1.00 20.00     0.037 C 
HETATM    5  C9  UNL     1     -34.234   6.761   2.533  1.00 20.00     0.090 C 
HETATM    6 CL11 UNL     1     -32.939   5.557   2.238  1.00 20.00    -0.124 Cl
ENDROOT
BRANCH   4   7
HETATM    7  C4  UNL     1     -32.804   8.699   1.555  1.00 20.00    -0.046 A 
HETATM    8  C1  UNL     1     -33.070   9.882   0.806  1.00 20.00     0.015 A 
HETATM    9  C2  UNL     1     -32.113  10.111  -0.157  1.00 20.00     0.050 A 
HETATM   10  S10 UNL     1     -30.899   8.902  -0.157  1.00 20.00    -0.113 SA
HETATM   11  C3  UNL     1     -31.653   8.068   1.135  1.00 20.00     0.057 A 
ENDBRANCH   4   7
TORSDOF 1
ENDMDL
MODEL 7
REMARK VINA RESULT:       3.6      2.838      4.583
REMARK  1 active torsions:
REMARK  status: ('A' for Active; 'I' for Inactive)
REMARK    1  A    between atoms: C4_4  and  C8_8 
ROOT
HETATM    1  C5  UNL     1     -33.211   4.708   2.336  1.00 20.00     0.002 C 
HETATM    2  C6  UNL     1     -32.829   5.777   1.310  1.00 20.00     0.011 C 
HETATM    3  C7  UNL     1     -33.332   5.426   3.679  1.00 20.00     0.021 C 
HETATM    4  C8  UNL     1     -32.490   7.037   2.127  1.00 20.00     0.037 C 
HETATM    5  C9  UNL     1     -33.435   6.910   3.339  1.00 20.00     0.090 C 
HETATM    6 CL11 UNL     1     -35.130   7.327   2.935  1.00 20.00    -0.124 Cl
ENDROOT
BRANCH   4   7
HETATM    7  C4  UNL     1     -32.501   8.365   1.398  1.00 20.00    -0.046 A 
HETATM    8  C1  UNL     1     -32.256   8.507   0.001  1.00 20.00     0.015 A 
HETATM    9  C2  UNL     1     -32.324   9.821  -0.406  1.00 20.00     0.050 A 
HETATM   10  S10 UNL     1     -32.683  10.878   0.894  1.00 20.00    -0.113 SA
HETATM   11  C3  UNL     1     -32.748   9.577   2.005  1.00 20.00     0.057 A 
ENDBRANCH   4   7
TORSDOF 1
ENDMDL
MODEL 8
REMARK VINA RESULT:       3.7      2.903      4.821
REMARK  1 active torsions:
REMARK  status: ('A' for Active; 'I' for Inactive)
REMARK    1  A    between atoms: C4_4  and  C8_8 
ROOT
HETATM    1  C5  UNL     1     -33.754   7.292   4.979  1.00 20.00     0.002 C 
HETATM    2  C6  UNL     1     -32.908   8.236   4.122  1.00 20.00     0.011 C 
HETATM    3  C7  UNL     1     -34.746   6.623   4.031  1.00 20.00     0.021 C 
HETATM    4  C8  UNL     1     -33.598   8.280   2.747  1.00 20.00     0.037 C 
HETATM    5  C9  UNL     1     -34.193   6.863   2.629  1.00 20.00     0.090 C 
HETATM    6 CL11 UNL     1     -32.954   5.627   2.242  1.00 20.00    -0.124 Cl
ENDROOT
BRANCH   4   7
HETATM    7  C4  UNL     1     -32.779   8.769   1.570  1.00 20.00    -0.046 A 
HETATM    8  C1  UNL     1     -31.597   8.124   1.102  1.00 20.00     0.015 A 
HETATM    9  C2  UNL     1     -31.046   8.775   0.020  1.00 20.00     0.050 A 
HETATM   10  S10 UNL     1     -31.952  10.158  -0.428  1.00 20.00    -0.113 SA
HETATM   11  C3  UNL     1     -33.086   9.888   0.827  1.00 20.00     0.057 A 
ENDBRANCH   4   7
TORSDOF 1
ENDMDL
MODEL 9
REMARK VINA RESULT:       3.9      2.607      3.785
REMARK  1 active torsions:
REMARK  status: ('A' for Active; 'I' for Inactive)
REMARK    1  A    between atoms: C4_4  and  C8_8 
ROOT
HETATM    1  C5  UNL     1     -33.648   7.936   4.493  1.00 20.00     0.002 C 
HETATM    2  C6  UNL     1     -32.744   7.441   3.362  1.00 20.00     0.011 C 
HETATM    3  C7  UNL     1     -34.986   7.220   4.319  1.00 20.00     0.021 C 
HETATM    4  C8  UNL     1     -33.661   6.646   2.414  1.00 20.00     0.037 C 
HETATM    5  C9  UNL     1     -34.701   6.049   3.383  1.00 20.00     0.090 C 
HETATM    6 CL11 UNL     1     -34.054   4.664   4.318  1.00 20.00    -0.124 Cl
ENDROOT
BRANCH   4   7
HETATM    7  C4  UNL     1     -33.000   5.679   1.452  1.00 20.00    -0.046 A 
HETATM    8  C1  UNL     1     -33.691   5.006   0.403  1.00 20.00     0.015 A 
HETATM    9  C2  UNL     1     -32.856   4.185  -0.322  1.00 20.00     0.050 A 
HETATM   10  S10 UNL     1     -31.246   4.228   0.262  1.00 20.00    -0.113 SA
HETATM   11  C3  UNL     1     -31.663   5.347   1.488  1.00 20.00     0.057 A 
ENDBRANCH   4   7
TORSDOF 1
ENDMDL
