MODEL 1
REMARK VINA RESULT:       0.6      0.000      0.000
REMARK  0 active torsions:
REMARK  status: ('A' for Active; 'I' for Inactive)
ROOT
HETATM    1  C1  UNL     1     -33.092   5.734   1.442  1.00 20.00     0.004 C 
HETATM    2  C2  UNL     1     -33.730   5.171   2.713  1.00 20.00     0.040 C 
HETATM    3  C3  UNL     1     -33.645   7.401   4.010  1.00 20.00     0.041 C 
HETATM    4  C4  UNL     1     -31.860   6.593   1.738  1.00 20.00     0.009 C 
HETATM    5  C5  UNL     1     -33.387   8.384   2.866  1.00 20.00     0.012 C 
HETATM    6  C6  UNL     1     -35.944   6.309   3.466  1.00 20.00     0.207 A 
HETATM    7  C7  UNL     1     -34.434   6.213   3.530  1.00 20.00     0.082 A 
HETATM    8  C8  UNL     1     -32.127   8.096   2.010  1.00 20.00    -0.048 C 
HETATM    9  C9  UNL     1     -30.884   8.678   2.718  1.00 20.00     0.015 C 
HETATM   10  C10 UNL     1     -32.286   8.840   0.665  1.00 20.00     0.015 C 
HETATM   11  O11 UNL     1     -35.278   5.646   4.548  1.00 20.00    -0.375 OA
ENDROOT
TORSDOF 0
ENDMDL
MODEL 2
REMARK VINA RESULT:       0.8      2.020      4.218
REMARK  0 active torsions:
REMARK  status: ('A' for Active; 'I' for Inactive)
ROOT
HETATM    1  C1  UNL     1     -33.266   8.353   4.077  1.00 20.00     0.004 C 
HETATM    2  C2  UNL     1     -32.008   8.543   3.229  1.00 20.00     0.040 C 
HETATM    3  C3  UNL     1     -32.446   6.495   1.721  1.00 20.00     0.041 C 
HETATM    4  C4  UNL     1     -33.463   6.899   4.514  1.00 20.00     0.009 C 
HETATM    5  C5  UNL     1     -33.919   6.221   2.035  1.00 20.00     0.012 C 
HETATM    6  C6  UNL     1     -32.402   8.881   0.680  1.00 20.00     0.207 A 
HETATM    7  C7  UNL     1     -32.132   7.961   1.852  1.00 20.00     0.082 A 
HETATM    8  C8  UNL     1     -34.250   5.992   3.532  1.00 20.00    -0.048 C 
HETATM    9  C9  UNL     1     -33.954   4.523   3.902  1.00 20.00     0.015 C 
HETATM   10  C10 UNL     1     -35.765   6.224   3.725  1.00 20.00     0.015 C 
HETATM   11  O11 UNL     1     -31.084   8.396   0.967  1.00 20.00    -0.375 OA
ENDROOT
TORSDOF 0
ENDMDL
MODEL 3
REMARK VINA RESULT:       1.4      0.945      2.479
REMARK  0 active torsions:
REMARK  status: ('A' for Active; 'I' for Inactive)
ROOT
HETATM    1  C1  UNL     1     -33.849   7.638   4.178  1.00 20.00     0.004 C 
HETATM    2  C2  UNL     1     -34.671   6.360   4.005  1.00 20.00     0.040 C 
HETATM    3  C3  UNL     1     -33.316   5.498   1.984  1.00 20.00     0.041 C 
HETATM    4  C4  UNL     1     -33.598   8.356   2.850  1.00 20.00     0.009 C 
HETATM    5  C5  UNL     1     -32.072   6.385   2.077  1.00 20.00     0.012 C 
HETATM    6  C6  UNL     1     -33.346   4.129   4.197  1.00 20.00     0.207 A 
HETATM    7  C7  UNL     1     -33.904   5.251   3.347  1.00 20.00     0.082 A 
HETATM    8  C8  UNL     1     -32.339   7.912   2.061  1.00 20.00    -0.048 C 
HETATM    9  C9  UNL     1     -32.502   8.387   0.601  1.00 20.00     0.015 C 
HETATM   10  C10 UNL     1     -31.094   8.618   2.644  1.00 20.00     0.015 C 
HETATM   11  O11 UNL     1     -34.563   3.977   3.455  1.00 20.00    -0.375 OA
ENDROOT
TORSDOF 0
ENDMDL
MODEL 4
REMARK VINA RESULT:       2.4      1.332      3.148
REMARK  0 active torsions:
REMARK  status: ('A' for Active; 'I' for Inactive)
ROOT
HETATM    1  C1  UNL     1     -31.712   7.914   1.967  1.00 20.00     0.004 C 
HETATM    2  C2  UNL     1     -32.758   8.624   2.827  1.00 20.00     0.040 C 
HETATM    3  C3  UNL     1     -34.220   6.526   3.175  1.00 20.00     0.041 C 
HETATM    4  C4  UNL     1     -32.344   7.030   0.889  1.00 20.00     0.009 C 
HETATM    5  C5  UNL     1     -33.248   5.427   2.740  1.00 20.00     0.012 C 
HETATM    6  C6  UNL     1     -33.091   7.668   5.223  1.00 20.00     0.207 A 
HETATM    7  C7  UNL     1     -33.481   7.698   3.760  1.00 20.00     0.082 A 
HETATM    8  C8  UNL     1     -32.673   5.573   1.308  1.00 20.00    -0.048 C 
HETATM    9  C9  UNL     1     -33.685   5.004   0.290  1.00 20.00     0.015 C 
HETATM   10  C10 UNL     1     -31.392   4.713   1.220  1.00 20.00     0.015 C 
HETATM   11  O11 UNL     1     -34.236   8.398   4.765  1.00 20.00    -0.375 OA
ENDROOT
TORSDOF 0
ENDMDL
MODEL 5
REMARK VINA RESULT:       2.5      1.918      3.984
REMARK  0 active torsions:
REMARK  status: ('A' for Active; 'I' for Inactive)
ROOT
HETATM    1  C1  UNL     1     -32.572   5.490   1.591  1.00 20.00     0.004 C 
HETATM    2  C2  UNL     1     -32.321   6.872   0.987  1.00 20.00     0.040 C 
HETATM    3  C3  UNL     1     -33.465   8.164   2.907  1.00 20.00     0.041 C 
HETATM    4  C4  UNL     1     -34.008   5.326   2.100  1.00 20.00     0.009 C 
HETATM    5  C5  UNL     1     -33.536   7.075   3.979  1.00 20.00     0.012 C 
HETATM    6  C6  UNL     1     -30.926   8.509   2.450  1.00 20.00     0.207 A 
HETATM    7  C7  UNL     1     -32.270   7.964   2.015  1.00 20.00     0.082 A 
HETATM    8  C8  UNL     1     -34.268   5.774   3.561  1.00 20.00    -0.048 C 
HETATM    9  C9  UNL     1     -35.790   5.966   3.734  1.00 20.00     0.015 C 
HETATM   10  C10 UNL     1     -33.829   4.650   4.527  1.00 20.00     0.015 C 
HETATM   11  O11 UNL     1     -31.742   9.196   1.492  1.00 20.00    -0.375 OA
ENDROOT
TORSDOF 0
ENDMDL
MODEL 6
REMARK VINA RESULT:       3.2      1.940      3.473
REMARK  0 active torsions:
REMARK  status: ('A' for Active; 'I' for Inactive)
ROOT
HETATM    1  C1  UNL     1     -33.982   5.176   3.819  1.00 20.00     0.004 C 
HETATM    2  C2  UNL     1     -33.742   4.693   2.388  1.00 20.00     0.040 C 
HETATM    3  C3  UNL     1     -32.917   6.979   1.518  1.00 20.00     0.041 C 
HETATM    4  C4  UNL     1     -34.724   6.515   3.867  1.00 20.00     0.009 C 
HETATM    5  C5  UNL     1     -32.639   7.701   2.838  1.00 20.00     0.012 C 
HETATM    6  C6  UNL     1     -31.307   4.934   1.507  1.00 20.00     0.207 A 
HETATM    7  C7  UNL     1     -32.704   5.496   1.662  1.00 20.00     0.082 A 
HETATM    8  C8  UNL     1     -33.839   7.787   3.817  1.00 20.00    -0.048 C 
HETATM    9  C9  UNL     1     -34.739   8.976   3.418  1.00 20.00     0.015 C 
HETATM   10  C10 UNL     1     -33.281   8.079   5.228  1.00 20.00     0.015 C 
HETATM   11  O11 UNL     1     -32.266   4.868   0.444  1.00 20.00    -0.375 OA
ENDROOT
TORSDOF 0
ENDMDL
MODEL 7
REMARK VINA RESULT:       3.2      1.754      3.217
REMARK  0 active torsions:
REMARK  status: ('A' for Active; 'I' for Inactive)
ROOT
HETATM    1  C1  UNL     1     -32.264   8.230   1.569  1.00 20.00     0.004 C 
HETATM    2  C2  UNL     1     -31.701   6.858   1.197  1.00 20.00     0.040 C 
HETATM    3  C3  UNL     1     -33.182   5.552   2.859  1.00 20.00     0.041 C 
HETATM    4  C4  UNL     1     -32.363   8.429   3.084  1.00 20.00     0.009 C 
HETATM    5  C5  UNL     1     -34.233   6.612   3.195  1.00 20.00     0.012 C 
HETATM    6  C6  UNL     1     -33.428   5.131   0.303  1.00 20.00     0.207 A 
HETATM    7  C7  UNL     1     -32.661   5.736   1.460  1.00 20.00     0.082 A 
HETATM    8  C8  UNL     1     -33.679   7.950   3.750  1.00 20.00    -0.048 C 
HETATM    9  C9  UNL     1     -33.419   7.806   5.265  1.00 20.00     0.015 C 
HETATM   10  C10 UNL     1     -34.770   9.029   3.566  1.00 20.00     0.015 C 
HETATM   11  O11 UNL     1     -32.258   4.501   0.840  1.00 20.00    -0.375 OA
ENDROOT
TORSDOF 0
ENDMDL
