MODEL 1
REMARK VINA RESULT:      -2.6      0.000      0.000
REMARK  2 active torsions:
REMARK  status: ('A' for Active; 'I' for Inactive)
REMARK    1  A    between atoms: C8_8  and  C10_10 
REMARK    2  A    between atoms: C10_10  and  C11_11 
ROOT
HETATM    1  C1  UNL     1     -32.258   9.007   0.773  1.00 20.00     0.064 C 
HETATM    2  C2  UNL     1     -33.755   8.418   3.713  1.00 20.00     0.002 C 
HETATM    3  C3  UNL     1     -32.305   8.442   3.234  1.00 20.00     0.019 C 
HETATM    4  C4  UNL     1     -32.916   6.681   1.423  1.00 20.00     0.019 C 
HETATM    5  C5  UNL     1     -34.135   7.092   4.375  1.00 20.00     0.005 C 
HETATM    6  C6  UNL     1     -33.090   5.631   2.519  1.00 20.00     0.006 C 
HETATM    7  C7  UNL     1     -32.070   7.900   1.816  1.00 20.00     0.093 C 
HETATM    8  C8  UNL     1     -34.306   5.904   3.420  1.00 20.00    -0.014 C 
HETATM    9  N12 UNL     1     -32.399   9.846  -0.017  1.00 20.00    -0.197 NA
ENDROOT
BRANCH   8  10
HETATM   10  C10 UNL     1     -34.613   4.692   4.209  1.00 20.00     0.004 C 
BRANCH  10  11
HETATM   11  C11 UNL     1     -33.642   3.567   3.880  1.00 20.00    -0.004 C 
HETATM   12  C9  UNL     1     -33.063   2.958   5.147  1.00 20.00     0.005 C 
ENDBRANCH  10  11
ENDBRANCH   8  10
TORSDOF 2
ENDMDL
MODEL 2
REMARK VINA RESULT:      -2.1      2.533      5.169
REMARK  2 active torsions:
REMARK  status: ('A' for Active; 'I' for Inactive)
REMARK    1  A    between atoms: C8_8  and  C10_10 
REMARK    2  A    between atoms: C10_10  and  C11_11 
ROOT
HETATM    1  C1  UNL     1     -33.870   4.108   4.003  1.00 20.00     0.064 C 
HETATM    2  C2  UNL     1     -33.327   7.414   4.111  1.00 20.00     0.002 C 
HETATM    3  C3  UNL     1     -34.465   6.530   3.603  1.00 20.00     0.019 C 
HETATM    4  C4  UNL     1     -32.762   5.280   2.089  1.00 20.00     0.019 C 
HETATM    5  C5  UNL     1     -32.788   8.357   3.035  1.00 20.00     0.005 C 
HETATM    6  C6  UNL     1     -32.637   6.529   1.218  1.00 20.00     0.006 C 
HETATM    7  C7  UNL     1     -34.031   5.210   2.950  1.00 20.00     0.093 C 
HETATM    8  C8  UNL     1     -31.942   7.694   1.941  1.00 20.00    -0.014 C 
HETATM    9  N12 UNL     1     -33.749   3.274   4.802  1.00 20.00    -0.197 NA
ENDROOT
BRANCH   8  10
HETATM   10  C10 UNL     1     -31.546   8.718   0.951  1.00 20.00     0.004 C 
BRANCH  10  11
HETATM   11  C11 UNL     1     -32.625   9.783   0.807  1.00 20.00    -0.004 C 
HETATM   12  C9  UNL     1     -32.752  10.238  -0.639  1.00 20.00     0.005 C 
ENDBRANCH  10  11
ENDBRANCH   8  10
TORSDOF 2
ENDMDL
