MODEL 1
REMARK VINA RESULT:       3.1      0.000      0.000
REMARK  1 active torsions:
REMARK  status: ('A' for Active; 'I' for Inactive)
REMARK    1  A    between atoms: C4_4  and  C10_10 
ROOT
HETATM    1  C5  UNL     1     -34.155   7.044   4.201  1.00 20.00     0.001 C 
HETATM    2  C6  UNL     1     -34.598   5.655   3.756  1.00 20.00     0.001 C 
HETATM    3  C7  UNL     1     -33.977   8.012   3.035  1.00 20.00     0.009 C 
HETATM    4  C8  UNL     1     -33.515   4.828   3.073  1.00 20.00     0.020 C 
HETATM    5  C9  UNL     1     -31.970   6.614   2.045  1.00 20.00     0.029 C 
HETATM    6  C10 UNL     1     -32.573   7.990   2.408  1.00 20.00     0.020 C 
HETATM    7  C11 UNL     1     -32.877   5.402   1.805  1.00 20.00     0.083 C 
HETATM    8 CL13 UNL     1     -34.068   5.671   0.509  1.00 20.00    -0.125 Cl
ENDROOT
BRANCH   6   9
HETATM    9  C4  UNL     1     -32.409   8.981   1.255  1.00 20.00    -0.047 A 
HETATM   10  C1  UNL     1     -32.926  10.309   1.269  1.00 20.00     0.015 A 
HETATM   11  C2  UNL     1     -32.637  10.989   0.107  1.00 20.00     0.050 A 
HETATM   12  S12 UNL     1     -31.745  10.027  -0.996  1.00 20.00    -0.113 SA
HETATM   13  C3  UNL     1     -31.744   8.697   0.083  1.00 20.00     0.057 A 
ENDBRANCH   6   9
TORSDOF 1
ENDMDL
MODEL 2
REMARK VINA RESULT:       3.6      0.595      1.166
REMARK  1 active torsions:
REMARK  status: ('A' for Active; 'I' for Inactive)
REMARK    1  A    between atoms: C4_4  and  C10_10 
ROOT
HETATM    1  C5  UNL     1     -34.113   7.339   4.143  1.00 20.00     0.001 C 
HETATM    2  C6  UNL     1     -34.724   6.002   3.740  1.00 20.00     0.001 C 
HETATM    3  C7  UNL     1     -33.827   8.245   2.949  1.00 20.00     0.009 C 
HETATM    4  C8  UNL     1     -33.753   5.031   3.079  1.00 20.00     0.020 C 
HETATM    5  C9  UNL     1     -32.010   6.586   1.996  1.00 20.00     0.029 C 
HETATM    6  C10 UNL     1     -32.440   8.036   2.320  1.00 20.00     0.020 C 
HETATM    7  C11 UNL     1     -33.058   5.487   1.793  1.00 20.00     0.083 C 
HETATM    8 CL13 UNL     1     -34.215   5.861   0.493  1.00 20.00    -0.125 Cl
ENDROOT
BRANCH   6   9
HETATM    9  C4  UNL     1     -32.164   8.966   1.139  1.00 20.00    -0.047 A 
HETATM   10  C1  UNL     1     -31.212   8.689   0.114  1.00 20.00     0.015 A 
HETATM   11  C2  UNL     1     -31.162   9.691  -0.830  1.00 20.00     0.050 A 
HETATM   12  S12 UNL     1     -32.258  10.960  -0.479  1.00 20.00    -0.113 SA
HETATM   13  C3  UNL     1     -32.804  10.170   0.939  1.00 20.00     0.057 A 
ENDBRANCH   6   9
TORSDOF 1
ENDMDL
MODEL 3
REMARK VINA RESULT:       4.8      1.903      2.789
REMARK  1 active torsions:
REMARK  status: ('A' for Active; 'I' for Inactive)
REMARK    1  A    between atoms: C4_4  and  C10_10 
ROOT
HETATM    1  C5  UNL     1     -33.506   4.120   3.157  1.00 20.00     0.001 C 
HETATM    2  C6  UNL     1     -34.111   4.332   4.540  1.00 20.00     0.001 C 
HETATM    3  C7  UNL     1     -32.724   5.331   2.659  1.00 20.00     0.009 C 
HETATM    4  C8  UNL     1     -35.307   5.276   4.576  1.00 20.00     0.020 C 
HETATM    5  C9  UNL     1     -34.896   6.825   2.561  1.00 20.00     0.029 C 
HETATM    6  C10 UNL     1     -33.576   6.363   1.902  1.00 20.00     0.020 C 
HETATM    7  C11 UNL     1     -35.098   6.707   4.075  1.00 20.00     0.083 C 
HETATM    8 CL13 UNL     1     -33.858   7.579   5.011  1.00 20.00    -0.125 Cl
ENDROOT
BRANCH   6   9
HETATM    9  C4  UNL     1     -32.770   7.559   1.394  1.00 20.00    -0.047 A 
HETATM   10  C1  UNL     1     -31.349   7.646   1.460  1.00 20.00     0.015 A 
HETATM   11  C2  UNL     1     -30.878   8.827   0.932  1.00 20.00     0.050 A 
HETATM   12  S12 UNL     1     -32.147   9.827   0.361  1.00 20.00    -0.113 SA
HETATM   13  C3  UNL     1     -33.331   8.678   0.818  1.00 20.00     0.057 A 
ENDBRANCH   6   9
TORSDOF 1
ENDMDL
