MODEL 1
REMARK VINA RESULT:      -1.8      0.000      0.000
REMARK  4 active torsions:
REMARK  status: ('A' for Active; 'I' for Inactive)
REMARK    1  A    between atoms: C5_5  and  C7_7 
REMARK    2  A    between atoms: C5_5  and  O10_10 
REMARK    3  A    between atoms: C6_6  and  C7_7 
REMARK    4  A    between atoms: C7_7  and  N8_8 
ROOT
HETATM    1  C1  UNL     1     -33.504   3.641   4.179  1.00 20.00     0.332 C 
HETATM    2  N8  UNL     1     -34.035   4.304   3.375  1.00 20.00    -0.240 NA
HETATM    3  O9  UNL     1     -32.978   2.965   4.987  1.00 20.00    -0.260 OA
ENDROOT
BRANCH   2   4
HETATM    4  C7  UNL     1     -33.425   5.632   3.197  1.00 20.00     0.139 C 
BRANCH   4   5
HETATM    5  C5  UNL     1     -32.964   5.751   1.745  1.00 20.00     0.194 C 
BRANCH   5   6
HETATM    6  O10 UNL     1     -31.716   6.437   1.709  1.00 20.00    -0.394 OA
HETATM    7  C4  UNL     1     -31.895   7.827   1.482  1.00 20.00     0.201 C 
ENDBRANCH   5   6
ENDBRANCH   4   5
BRANCH   4   8
HETATM    8  C6  UNL     1     -34.432   6.731   3.603  1.00 20.00     0.004 C 
HETATM    9  C2  UNL     1     -33.792   7.737   4.566  1.00 20.00     0.012 C 
HETATM   10  C3  UNL     1     -35.730   6.185   4.205  1.00 20.00     0.012 C 
ENDBRANCH   4   8
ENDBRANCH   2   4
TORSDOF 4
ENDMDL
MODEL 2
REMARK VINA RESULT:      -1.8      2.241      2.611
REMARK  4 active torsions:
REMARK  status: ('A' for Active; 'I' for Inactive)
REMARK    1  A    between atoms: C5_5  and  C7_7 
REMARK    2  A    between atoms: C5_5  and  O10_10 
REMARK    3  A    between atoms: C6_6  and  C7_7 
REMARK    4  A    between atoms: C7_7  and  N8_8 
ROOT
HETATM    1  C1  UNL     1     -32.354   5.394   1.197  1.00 20.00     0.332 C 
HETATM    2  N8  UNL     1     -33.202   6.010   1.717  1.00 20.00    -0.240 NA
HETATM    3  O9  UNL     1     -31.509   4.770   0.667  1.00 20.00    -0.260 OA
ENDROOT
BRANCH   2   4
HETATM    4  C7  UNL     1     -32.713   6.992   2.699  1.00 20.00     0.139 C 
BRANCH   4   5
HETATM    5  C5  UNL     1     -31.947   8.077   1.944  1.00 20.00     0.194 C 
BRANCH   5   6
HETATM    6  O10 UNL     1     -32.876   9.015   1.410  1.00 20.00    -0.394 OA
HETATM    7  C4  UNL     1     -32.336   9.698   0.289  1.00 20.00     0.201 C 
ENDBRANCH   5   6
ENDBRANCH   4   5
BRANCH   4   8
HETATM    8  C6  UNL     1     -33.898   7.548   3.520  1.00 20.00     0.004 C 
HETATM    9  C2  UNL     1     -33.414   8.169   4.835  1.00 20.00     0.012 C 
HETATM   10  C3  UNL     1     -34.991   6.514   3.803  1.00 20.00     0.012 C 
ENDBRANCH   4   8
ENDBRANCH   2   4
TORSDOF 4
ENDMDL
MODEL 3
REMARK VINA RESULT:      -1.6      0.422      1.181
REMARK  4 active torsions:
REMARK  status: ('A' for Active; 'I' for Inactive)
REMARK    1  A    between atoms: C5_5  and  C7_7 
REMARK    2  A    between atoms: C5_5  and  O10_10 
REMARK    3  A    between atoms: C6_6  and  C7_7 
REMARK    4  A    between atoms: C7_7  and  N8_8 
ROOT
HETATM    1  C1  UNL     1     -33.510   3.535   4.307  1.00 20.00     0.332 C 
HETATM    2  N8  UNL     1     -34.057   4.192   3.510  1.00 20.00    -0.240 NA
HETATM    3  O9  UNL     1     -32.966   2.865   5.108  1.00 20.00    -0.260 OA
ENDROOT
BRANCH   2   4
HETATM    4  C7  UNL     1     -33.535   5.565   3.404  1.00 20.00     0.139 C 
BRANCH   4   5
HETATM    5  C5  UNL     1     -33.352   5.891   1.923  1.00 20.00     0.194 C 
BRANCH   5   6
HETATM    6  O10 UNL     1     -32.007   6.301   1.700  1.00 20.00    -0.394 OA
HETATM    7  C4  UNL     1     -31.911   7.712   1.569  1.00 20.00     0.201 C 
ENDBRANCH   5   6
ENDBRANCH   4   5
BRANCH   4   8
HETATM    8  C6  UNL     1     -34.487   6.545   4.125  1.00 20.00     0.004 C 
HETATM    9  C2  UNL     1     -35.827   6.656   3.388  1.00 20.00     0.012 C 
HETATM   10  C3  UNL     1     -33.891   7.940   4.335  1.00 20.00     0.012 C 
ENDBRANCH   4   8
ENDBRANCH   2   4
TORSDOF 4
ENDMDL
MODEL 4
REMARK VINA RESULT:      -1.6      2.270      3.276
REMARK  4 active torsions:
REMARK  status: ('A' for Active; 'I' for Inactive)
REMARK    1  A    between atoms: C5_5  and  C7_7 
REMARK    2  A    between atoms: C5_5  and  O10_10 
REMARK    3  A    between atoms: C6_6  and  C7_7 
REMARK    4  A    between atoms: C7_7  and  N8_8 
ROOT
HETATM    1  C1  UNL     1     -34.489   6.780   3.766  1.00 20.00     0.332 C 
HETATM    2  N8  UNL     1     -33.518   7.365   3.477  1.00 20.00    -0.240 NA
HETATM    3  O9  UNL     1     -35.465   6.196   4.069  1.00 20.00    -0.260 OA
ENDROOT
BRANCH   2   4
HETATM    4  C7  UNL     1     -33.159   7.262   2.053  1.00 20.00     0.139 C 
BRANCH   4   5
HETATM    5  C5  UNL     1     -31.913   8.114   1.814  1.00 20.00     0.194 C 
BRANCH   5   6
HETATM    6  O10 UNL     1     -31.972   8.665   0.503  1.00 20.00    -0.394 OA
HETATM    7  C4  UNL     1     -32.520   9.975   0.516  1.00 20.00     0.201 C 
ENDBRANCH   5   6
ENDBRANCH   4   5
BRANCH   4   8
HETATM    8  C6  UNL     1     -32.960   5.779   1.667  1.00 20.00     0.004 C 
HETATM    9  C2  UNL     1     -31.471   5.429   1.574  1.00 20.00     0.012 C 
HETATM   10  C3  UNL     1     -33.672   5.378   0.372  1.00 20.00     0.012 C 
ENDBRANCH   4   8
ENDBRANCH   2   4
TORSDOF 4
ENDMDL
MODEL 5
REMARK VINA RESULT:      -1.5      1.863      4.007
REMARK  4 active torsions:
REMARK  status: ('A' for Active; 'I' for Inactive)
REMARK    1  A    between atoms: C5_5  and  C7_7 
REMARK    2  A    between atoms: C5_5  and  O10_10 
REMARK    3  A    between atoms: C6_6  and  C7_7 
REMARK    4  A    between atoms: C7_7  and  N8_8 
ROOT
HETATM    1  C1  UNL     1     -34.195   7.468   4.342  1.00 20.00     0.332 C 
HETATM    2  N8  UNL     1     -34.518   6.617   3.607  1.00 20.00    -0.240 NA
HETATM    3  O9  UNL     1     -33.882   8.328   5.082  1.00 20.00    -0.260 OA
ENDROOT
BRANCH   2   4
HETATM    4  C7  UNL     1     -33.401   5.788   3.124  1.00 20.00     0.139 C 
BRANCH   4   5
HETATM    5  C5  UNL     1     -33.867   4.333   3.098  1.00 20.00     0.194 C 
BRANCH   5   6
HETATM    6  O10 UNL     1     -34.101   3.896   4.433  1.00 20.00    -0.394 OA
HETATM    7  C4  UNL     1     -33.160   2.908   4.828  1.00 20.00     0.201 C 
ENDBRANCH   5   6
ENDBRANCH   4   5
BRANCH   4   8
HETATM    8  C6  UNL     1     -32.928   6.296   1.744  1.00 20.00     0.004 C 
HETATM    9  C2  UNL     1     -32.194   5.194   0.972  1.00 20.00     0.012 C 
HETATM   10  C3  UNL     1     -32.056   7.552   1.815  1.00 20.00     0.012 C 
ENDBRANCH   4   8
ENDBRANCH   2   4
TORSDOF 4
ENDMDL
MODEL 6
REMARK VINA RESULT:      -1.3      2.341      3.857
REMARK  4 active torsions:
REMARK  status: ('A' for Active; 'I' for Inactive)
REMARK    1  A    between atoms: C5_5  and  C7_7 
REMARK    2  A    between atoms: C5_5  and  O10_10 
REMARK    3  A    between atoms: C6_6  and  C7_7 
REMARK    4  A    between atoms: C7_7  and  N8_8 
ROOT
HETATM    1  C1  UNL     1     -32.211   8.730   1.265  1.00 20.00     0.332 C 
HETATM    2  N8  UNL     1     -32.175   7.940   2.127  1.00 20.00    -0.240 NA
HETATM    3  O9  UNL     1     -32.238   9.528   0.401  1.00 20.00    -0.260 OA
ENDROOT
BRANCH   2   4
HETATM    4  C7  UNL     1     -33.388   7.112   2.232  1.00 20.00     0.139 C 
BRANCH   4   5
HETATM    5  C5  UNL     1     -33.133   5.802   1.489  1.00 20.00     0.194 C 
BRANCH   5   6
HETATM    6  O10 UNL     1     -31.730   5.572   1.420  1.00 20.00    -0.394 OA
HETATM    7  C4  UNL     1     -31.425   4.479   0.566  1.00 20.00     0.201 C 
ENDBRANCH   5   6
ENDBRANCH   4   5
BRANCH   4   8
HETATM    8  C6  UNL     1     -33.754   6.902   3.719  1.00 20.00     0.004 C 
HETATM    9  C2  UNL     1     -35.186   6.378   3.866  1.00 20.00     0.012 C 
HETATM   10  C3  UNL     1     -33.566   8.153   4.582  1.00 20.00     0.012 C 
ENDBRANCH   4   8
ENDBRANCH   2   4
TORSDOF 4
ENDMDL
MODEL 7
REMARK VINA RESULT:      -1.3      2.361      3.697
REMARK  4 active torsions:
REMARK  status: ('A' for Active; 'I' for Inactive)
REMARK    1  A    between atoms: C5_5  and  C7_7 
REMARK    2  A    between atoms: C5_5  and  O10_10 
REMARK    3  A    between atoms: C6_6  and  C7_7 
REMARK    4  A    between atoms: C7_7  and  N8_8 
ROOT
HETATM    1  C1  UNL     1     -32.222   8.727   1.302  1.00 20.00     0.332 C 
HETATM    2  N8  UNL     1     -32.228   8.024   2.237  1.00 20.00    -0.240 NA
HETATM    3  O9  UNL     1     -32.205   9.439   0.365  1.00 20.00    -0.260 OA
ENDROOT
BRANCH   2   4
HETATM    4  C7  UNL     1     -33.411   7.151   2.322  1.00 20.00     0.139 C 
BRANCH   4   5
HETATM    5  C5  UNL     1     -32.934   5.701   2.263  1.00 20.00     0.194 C 
BRANCH   5   6
HETATM    6  O10 UNL     1     -32.844   5.296   0.901  1.00 20.00    -0.394 OA
HETATM    7  C4  UNL     1     -31.590   4.690   0.622  1.00 20.00     0.201 C 
ENDBRANCH   5   6
ENDBRANCH   4   5
BRANCH   4   8
HETATM    8  C6  UNL     1     -34.210   7.473   3.604  1.00 20.00     0.004 C 
HETATM    9  C2  UNL     1     -33.281   7.934   4.732  1.00 20.00     0.012 C 
HETATM   10  C3  UNL     1     -35.086   6.315   4.091  1.00 20.00     0.012 C 
ENDBRANCH   4   8
ENDBRANCH   2   4
TORSDOF 4
ENDMDL
MODEL 8
REMARK VINA RESULT:      -0.9      2.270      2.873
REMARK  4 active torsions:
REMARK  status: ('A' for Active; 'I' for Inactive)
REMARK    1  A    between atoms: C5_5  and  C7_7 
REMARK    2  A    between atoms: C5_5  and  O10_10 
REMARK    3  A    between atoms: C6_6  and  C7_7 
REMARK    4  A    between atoms: C7_7  and  N8_8 
ROOT
HETATM    1  C1  UNL     1     -32.349   5.557   1.293  1.00 20.00     0.332 C 
HETATM    2  N8  UNL     1     -33.164   6.339   1.598  1.00 20.00    -0.240 NA
HETATM    3  O9  UNL     1     -31.537   4.766   0.979  1.00 20.00    -0.260 OA
ENDROOT
BRANCH   2   4
HETATM    4  C7  UNL     1     -32.721   7.296   2.626  1.00 20.00     0.139 C 
BRANCH   4   5
HETATM    5  C5  UNL     1     -32.869   8.706   2.056  1.00 20.00     0.194 C 
BRANCH   5   6
HETATM    6  O10 UNL     1     -32.049   8.827   0.899  1.00 20.00    -0.394 OA
HETATM    7  C4  UNL     1     -32.464   9.912   0.081  1.00 20.00     0.201 C 
ENDBRANCH   5   6
ENDBRANCH   4   5
BRANCH   4   8
HETATM    8  C6  UNL     1     -33.528   7.081   3.925  1.00 20.00     0.004 C 
HETATM    9  C2  UNL     1     -34.966   6.650   3.617  1.00 20.00     0.012 C 
HETATM   10  C3  UNL     1     -33.537   8.299   4.853  1.00 20.00     0.012 C 
ENDBRANCH   4   8
ENDBRANCH   2   4
TORSDOF 4
ENDMDL
MODEL 9
REMARK VINA RESULT:      -0.7      1.981      3.530
REMARK  4 active torsions:
REMARK  status: ('A' for Active; 'I' for Inactive)
REMARK    1  A    between atoms: C5_5  and  C7_7 
REMARK    2  A    between atoms: C5_5  and  O10_10 
REMARK    3  A    between atoms: C6_6  and  C7_7 
REMARK    4  A    between atoms: C7_7  and  N8_8 
ROOT
HETATM    1  C1  UNL     1     -32.394   6.880   1.718  1.00 20.00     0.332 C 
HETATM    2  N8  UNL     1     -33.056   5.961   2.013  1.00 20.00    -0.240 NA
HETATM    3  O9  UNL     1     -31.727   7.799   1.410  1.00 20.00    -0.260 OA
ENDROOT
BRANCH   2   4
HETATM    4  C7  UNL     1     -33.551   6.001   3.399  1.00 20.00     0.139 C 
BRANCH   4   5
HETATM    5  C5  UNL     1     -34.374   7.276   3.573  1.00 20.00     0.194 C 
BRANCH   5   6
HETATM    6  O10 UNL     1     -34.051   7.871   4.825  1.00 20.00    -0.394 OA
HETATM    7  C4  UNL     1     -32.731   8.396   4.825  1.00 20.00     0.201 C 
ENDBRANCH   5   6
ENDBRANCH   4   5
BRANCH   4   8
HETATM    8  C6  UNL     1     -34.353   4.717   3.707  1.00 20.00     0.004 C 
HETATM    9  C2  UNL     1     -35.510   5.007   4.671  1.00 20.00     0.012 C 
HETATM   10  C3  UNL     1     -33.496   3.571   4.252  1.00 20.00     0.012 C 
ENDBRANCH   4   8
ENDBRANCH   2   4
TORSDOF 4
ENDMDL
