MODEL 1
REMARK VINA RESULT:       1.4      0.000      0.000
REMARK  0 active torsions:
REMARK  status: ('A' for Active; 'I' for Inactive)
ROOT
HETATM    1  C1  UNL     1     -32.322   9.049   1.030  1.00 20.00     0.085 C 
HETATM    2  C2  UNL     1     -33.260   5.924   1.371  1.00 20.00     0.004 C 
HETATM    3  C3  UNL     1     -32.012   6.712   1.771  1.00 20.00     0.041 C 
HETATM    4  C4  UNL     1     -33.544   8.376   3.053  1.00 20.00     0.042 C 
HETATM    5  C5  UNL     1     -33.897   5.200   2.561  1.00 20.00     0.009 C 
HETATM    6  C6  UNL     1     -33.845   7.289   4.091  1.00 20.00     0.011 C 
HETATM    7  C7  UNL     1     -32.276   8.162   2.210  1.00 20.00     0.125 C 
HETATM    8  C8  UNL     1     -34.660   6.068   3.588  1.00 20.00    -0.048 C 
HETATM    9  C9  UNL     1     -34.964   5.178   4.817  1.00 20.00     0.015 C 
HETATM   10  C10 UNL     1     -36.019   6.503   2.998  1.00 20.00     0.015 C 
HETATM   11  N11 UNL     1     -32.359   9.746   0.103  1.00 20.00    -0.195 NA
HETATM   12 CL12 UNL     1     -30.837   8.717   3.154  1.00 20.00    -0.103 Cl
ENDROOT
TORSDOF 0
ENDMDL
MODEL 2
REMARK VINA RESULT:       2.3      2.929      4.474
REMARK  0 active torsions:
REMARK  status: ('A' for Active; 'I' for Inactive)
ROOT
HETATM    1  C1  UNL     1     -33.911   4.681   4.192  1.00 20.00     0.085 C 
HETATM    2  C2  UNL     1     -32.451   5.680   1.429  1.00 20.00     0.004 C 
HETATM    3  C3  UNL     1     -33.906   5.461   1.848  1.00 20.00     0.041 C 
HETATM    4  C4  UNL     1     -33.515   7.081   3.844  1.00 20.00     0.042 C 
HETATM    5  C5  UNL     1     -32.207   7.091   0.887  1.00 20.00     0.009 C 
HETATM    6  C6  UNL     1     -33.411   8.254   2.863  1.00 20.00     0.011 C 
HETATM    7  C7  UNL     1     -34.220   5.824   3.308  1.00 20.00     0.125 C 
HETATM    8  C8  UNL     1     -32.183   8.247   1.913  1.00 20.00    -0.048 C 
HETATM    9  C9  UNL     1     -32.206   9.575   1.119  1.00 20.00     0.015 C 
HETATM   10  C10 UNL     1     -30.858   8.216   2.705  1.00 20.00     0.015 C 
HETATM   11  N11 UNL     1     -33.668   3.783   4.887  1.00 20.00    -0.195 NA
HETATM   12 CL12 UNL     1     -36.009   6.047   3.443  1.00 20.00    -0.103 Cl
ENDROOT
TORSDOF 0
ENDMDL
