MODEL 1
REMARK VINA RESULT:      -0.9      0.000      0.000
REMARK  1 active torsions:
REMARK  status: ('A' for Active; 'I' for Inactive)
REMARK    1  A    between atoms: C7_7  and  C10_10 
ROOT
HETATM    1  C1  UNL     1     -32.611   8.241   4.285  1.00 20.00     0.004 C 
HETATM    2  C2  UNL     1     -32.520   8.742   2.844  1.00 20.00     0.005 C 
HETATM    3  C3  UNL     1     -33.033   6.524   1.628  1.00 20.00     0.007 C 
HETATM    4  C4  UNL     1     -33.952   7.608   4.646  1.00 20.00     0.040 C 
HETATM    5  C5  UNL     1     -33.428   5.764   2.894  1.00 20.00     0.040 C 
HETATM    6  C6  UNL     1     -35.884   6.527   3.279  1.00 20.00     0.207 A 
HETATM    7  C7  UNL     1     -32.035   7.670   1.854  1.00 20.00    -0.015 C 
HETATM    8  C8  UNL     1     -34.429   6.529   3.713  1.00 20.00     0.082 A 
HETATM    9  O11 UNL     1     -35.417   5.678   4.328  1.00 20.00    -0.375 OA
ENDROOT
BRANCH   7  10
HETATM   10  C10 UNL     1     -31.708   8.326   0.508  1.00 20.00     0.000 C 
HETATM   11  C9  UNL     1     -32.362   9.660   0.376  1.00 20.00     0.005 C 
ENDBRANCH   7  10
TORSDOF 1
ENDMDL
MODEL 2
REMARK VINA RESULT:      -0.6      2.237      4.550
REMARK  1 active torsions:
REMARK  status: ('A' for Active; 'I' for Inactive)
REMARK    1  A    between atoms: C7_7  and  C10_10 
ROOT
HETATM    1  C1  UNL     1     -32.270   5.646   1.618  1.00 20.00     0.004 C 
HETATM    2  C2  UNL     1     -33.705   5.755   2.132  1.00 20.00     0.005 C 
HETATM    3  C3  UNL     1     -33.496   7.994   3.398  1.00 20.00     0.007 C 
HETATM    4  C4  UNL     1     -31.819   6.826   0.763  1.00 20.00     0.040 C 
HETATM    5  C5  UNL     1     -32.100   8.320   2.868  1.00 20.00     0.040 C 
HETATM    6  C6  UNL     1     -32.595   9.297   0.510  1.00 20.00     0.207 A 
HETATM    7  C7  UNL     1     -33.819   6.494   3.476  1.00 20.00    -0.015 C 
HETATM    8  C8  UNL     1     -32.026   8.184   1.374  1.00 20.00     0.082 A 
HETATM    9  O11 UNL     1     -31.193   9.188   0.761  1.00 20.00    -0.375 OA
ENDROOT
BRANCH   7  10
HETATM   10  C10 UNL     1     -35.231   6.311   4.044  1.00 20.00     0.000 C 
HETATM   11  C9  UNL     1     -35.402   4.962   4.659  1.00 20.00     0.005 C 
ENDBRANCH   7  10
TORSDOF 1
ENDMDL
MODEL 3
REMARK VINA RESULT:      -0.2      2.234      4.344
REMARK  1 active torsions:
REMARK  status: ('A' for Active; 'I' for Inactive)
REMARK    1  A    between atoms: C7_7  and  C10_10 
ROOT
HETATM    1  C1  UNL     1     -35.069   6.515   3.829  1.00 20.00     0.004 C 
HETATM    2  C2  UNL     1     -34.331   5.315   4.423  1.00 20.00     0.005 C 
HETATM    3  C3  UNL     1     -32.791   4.776   2.423  1.00 20.00     0.007 C 
HETATM    4  C4  UNL     1     -34.158   7.659   3.395  1.00 20.00     0.040 C 
HETATM    5  C5  UNL     1     -33.142   6.039   1.638  1.00 20.00     0.040 C 
HETATM    6  C6  UNL     1     -31.643   7.845   2.755  1.00 20.00     0.207 A 
HETATM    7  C7  UNL     1     -33.896   4.282   3.370  1.00 20.00    -0.015 C 
HETATM    8  C8  UNL     1     -33.024   7.273   2.486  1.00 20.00     0.082 A 
HETATM    9  O11 UNL     1     -32.502   8.404   1.760  1.00 20.00    -0.375 OA
ENDROOT
BRANCH   7  10
HETATM   10  C10 UNL     1     -33.425   3.003   4.071  1.00 20.00     0.000 C 
HETATM   11  C9  UNL     1     -32.830   3.299   5.407  1.00 20.00     0.005 C 
ENDBRANCH   7  10
TORSDOF 1
ENDMDL
MODEL 4
REMARK VINA RESULT:       1.5      1.387      2.662
REMARK  1 active torsions:
REMARK  status: ('A' for Active; 'I' for Inactive)
REMARK    1  A    between atoms: C7_7  and  C10_10 
ROOT
HETATM    1  C1  UNL     1     -33.312   5.176   1.099  1.00 20.00     0.004 C 
HETATM    2  C2  UNL     1     -32.323   6.297   1.419  1.00 20.00     0.005 C 
HETATM    3  C3  UNL     1     -33.508   7.282   3.490  1.00 20.00     0.007 C 
HETATM    4  C4  UNL     1     -33.533   4.189   2.241  1.00 20.00     0.040 C 
HETATM    5  C5  UNL     1     -34.538   6.158   3.604  1.00 20.00     0.040 C 
HETATM    6  C6  UNL     1     -33.208   4.284   4.821  1.00 20.00     0.207 A 
HETATM    7  C7  UNL     1     -32.981   7.526   2.067  1.00 20.00    -0.015 C 
HETATM    8  C8  UNL     1     -33.889   4.803   3.567  1.00 20.00     0.082 A 
HETATM    9  O11 UNL     1     -34.520   3.856   4.451  1.00 20.00    -0.375 OA
ENDROOT
BRANCH   7  10
HETATM   10  C10 UNL     1     -31.983   8.689   2.093  1.00 20.00     0.000 C 
HETATM   11  C9  UNL     1     -32.006   9.458   0.815  1.00 20.00     0.005 C 
ENDBRANCH   7  10
TORSDOF 1
ENDMDL
MODEL 5
REMARK VINA RESULT:       1.7      1.655      2.451
REMARK  1 active torsions:
REMARK  status: ('A' for Active; 'I' for Inactive)
REMARK    1  A    between atoms: C7_7  and  C10_10 
ROOT
HETATM    1  C1  UNL     1     -33.576   7.685   3.575  1.00 20.00     0.004 C 
HETATM    2  C2  UNL     1     -33.775   8.779   2.527  1.00 20.00     0.005 C 
HETATM    3  C3  UNL     1     -31.869   8.124   0.914  1.00 20.00     0.007 C 
HETATM    4  C4  UNL     1     -33.662   6.265   3.024  1.00 20.00     0.040 C 
HETATM    5  C5  UNL     1     -31.550   6.802   1.611  1.00 20.00     0.040 C 
HETATM    6  C6  UNL     1     -33.371   5.203   0.667  1.00 20.00     0.207 A 
HETATM    7  C7  UNL     1     -32.472   9.202   1.829  1.00 20.00    -0.015 C 
HETATM    8  C8  UNL     1     -32.788   5.979   1.835  1.00 20.00     0.082 A 
HETATM    9  O11 UNL     1     -32.560   4.567   1.655  1.00 20.00    -0.375 OA
ENDROOT
BRANCH   7  10
HETATM   10  C10 UNL     1     -32.717  10.476   1.013  1.00 20.00     0.000 C 
HETATM   11  C9  UNL     1     -32.693  10.200  -0.453  1.00 20.00     0.005 C 
ENDBRANCH   7  10
TORSDOF 1
ENDMDL
MODEL 6
REMARK VINA RESULT:       2.0      2.173      3.663
REMARK  1 active torsions:
REMARK  status: ('A' for Active; 'I' for Inactive)
REMARK    1  A    between atoms: C7_7  and  C10_10 
ROOT
HETATM    1  C1  UNL     1     -33.193   5.465   1.877  1.00 20.00     0.004 C 
HETATM    2  C2  UNL     1     -33.033   6.699   2.764  1.00 20.00     0.005 C 
HETATM    3  C3  UNL     1     -34.728   6.077   4.608  1.00 20.00     0.007 C 
HETATM    4  C4  UNL     1     -32.913   4.143   2.586  1.00 20.00     0.040 C 
HETATM    5  C5  UNL     1     -34.954   4.650   4.108  1.00 20.00     0.040 C 
HETATM    6  C6  UNL     1     -32.905   3.372   5.071  1.00 20.00     0.207 A 
HETATM    7  C7  UNL     1     -34.317   7.080   3.520  1.00 20.00    -0.015 C 
HETATM    8  C8  UNL     1     -33.657   3.930   3.875  1.00 20.00     0.082 A 
HETATM    9  O11 UNL     1     -33.716   2.537   4.243  1.00 20.00    -0.375 OA
ENDROOT
BRANCH   7  10
HETATM   10  C10 UNL     1     -34.148   8.467   4.150  1.00 20.00     0.000 C 
HETATM   11  C9  UNL     1     -33.092   8.464   5.204  1.00 20.00     0.005 C 
ENDBRANCH   7  10
TORSDOF 1
ENDMDL
