MODEL 1
REMARK VINA RESULT:       1.4      0.000      0.000
REMARK  1 active torsions:
REMARK  status: ('A' for Active; 'I' for Inactive)
REMARK    1  A    between atoms: C6_6  and  S9_9 
ROOT
HETATM    1  C1  UNL     1     -33.265   7.683   4.476  1.00 20.00     0.080 C 
HETATM    2  C2  UNL     1     -34.693   4.964   4.368  1.00 20.00     0.003 C 
HETATM    3  C3  UNL     1     -35.776   5.981   4.007  1.00 20.00     0.003 C 
HETATM    4  C4  UNL     1     -33.444   5.372   3.585  1.00 20.00     0.036 C 
HETATM    5  C5  UNL     1     -35.133   6.953   3.015  1.00 20.00     0.036 C 
HETATM    6  C6  UNL     1     -33.631   6.866   3.304  1.00 20.00     0.096 C 
HETATM    7  N8  UNL     1     -32.975   8.325   5.398  1.00 20.00    -0.196 NA
ENDROOT
BRANCH   6   8
HETATM    8  S9  UNL     1     -32.656   7.390   1.854  1.00 20.00    -0.148 SA
HETATM    9  C7  UNL     1     -32.272   5.750   1.202  1.00 20.00     0.091 C 
ENDBRANCH   6   8
TORSDOF 1
ENDMDL
MODEL 2
REMARK VINA RESULT:       1.5      1.965      2.568
REMARK  1 active torsions:
REMARK  status: ('A' for Active; 'I' for Inactive)
REMARK    1  A    between atoms: C6_6  and  S9_9 
ROOT
HETATM    1  C1  UNL     1     -33.564   4.698   3.637  1.00 20.00     0.080 C 
HETATM    2  C2  UNL     1     -35.544   7.038   3.843  1.00 20.00     0.003 C 
HETATM    3  C3  UNL     1     -34.333   7.487   4.661  1.00 20.00     0.003 C 
HETATM    4  C4  UNL     1     -34.989   6.421   2.558  1.00 20.00     0.036 C 
HETATM    5  C5  UNL     1     -33.101   7.128   3.828  1.00 20.00     0.036 C 
HETATM    6  C6  UNL     1     -33.565   5.986   2.920  1.00 20.00     0.096 C 
HETATM    7  N8  UNL     1     -33.563   3.684   4.201  1.00 20.00    -0.196 NA
ENDROOT
BRANCH   6   8
HETATM    8  S9  UNL     1     -32.516   5.867   1.432  1.00 20.00    -0.148 SA
HETATM    9  C7  UNL     1     -31.842   7.543   1.465  1.00 20.00     0.091 C 
ENDBRANCH   6   8
TORSDOF 1
ENDMDL
MODEL 3
REMARK VINA RESULT:       1.8      2.915      4.192
REMARK  1 active torsions:
REMARK  status: ('A' for Active; 'I' for Inactive)
REMARK    1  A    between atoms: C6_6  and  S9_9 
ROOT
HETATM    1  C1  UNL     1     -32.767   6.489   1.683  1.00 20.00     0.080 C 
HETATM    2  C2  UNL     1     -31.031   8.868   0.805  1.00 20.00     0.003 C 
HETATM    3  C3  UNL     1     -32.436   9.216   0.314  1.00 20.00     0.003 C 
HETATM    4  C4  UNL     1     -31.195   8.332   2.229  1.00 20.00     0.036 C 
HETATM    5  C5  UNL     1     -33.385   8.883   1.467  1.00 20.00     0.036 C 
HETATM    6  C6  UNL     1     -32.640   7.827   2.289  1.00 20.00     0.096 C 
HETATM    7  N8  UNL     1     -32.866   5.436   1.206  1.00 20.00    -0.196 NA
ENDROOT
BRANCH   6   8
HETATM    8  S9  UNL     1     -33.252   7.788   4.008  1.00 20.00    -0.148 SA
HETATM    9  C7  UNL     1     -34.684   6.721   3.742  1.00 20.00     0.091 C 
ENDBRANCH   6   8
TORSDOF 1
ENDMDL
MODEL 4
REMARK VINA RESULT:       1.8      2.192      3.614
REMARK  1 active torsions:
REMARK  status: ('A' for Active; 'I' for Inactive)
REMARK    1  A    between atoms: C6_6  and  S9_9 
ROOT
HETATM    1  C1  UNL     1     -32.415   8.166   1.359  1.00 20.00     0.080 C 
HETATM    2  C2  UNL     1     -33.256   5.383   0.366  1.00 20.00     0.003 C 
HETATM    3  C3  UNL     1     -31.838   5.187   0.903  1.00 20.00     0.003 C 
HETATM    4  C4  UNL     1     -33.988   6.246   1.395  1.00 20.00     0.036 C 
HETATM    5  C5  UNL     1     -31.781   5.934   2.237  1.00 20.00     0.036 C 
HETATM    6  C6  UNL     1     -32.877   6.999   2.132  1.00 20.00     0.096 C 
HETATM    7  N8  UNL     1     -32.052   9.085   0.750  1.00 20.00    -0.196 NA
ENDROOT
BRANCH   6   8
HETATM    8  S9  UNL     1     -33.430   7.532   3.788  1.00 20.00    -0.148 SA
HETATM    9  C7  UNL     1     -34.899   6.489   3.910  1.00 20.00     0.091 C 
ENDBRANCH   6   8
TORSDOF 1
ENDMDL
MODEL 5
REMARK VINA RESULT:       2.0      2.634      3.526
REMARK  1 active torsions:
REMARK  status: ('A' for Active; 'I' for Inactive)
REMARK    1  A    between atoms: C6_6  and  S9_9 
ROOT
HETATM    1  C1  UNL     1     -32.124   6.469   1.697  1.00 20.00     0.080 C 
HETATM    2  C2  UNL     1     -34.024   7.728   3.757  1.00 20.00     0.003 C 
HETATM    3  C3  UNL     1     -32.630   7.915   4.356  1.00 20.00     0.003 C 
HETATM    4  C4  UNL     1     -33.908   8.096   2.277  1.00 20.00     0.036 C 
HETATM    5  C5  UNL     1     -31.737   8.397   3.211  1.00 20.00     0.036 C 
HETATM    6  C6  UNL     1     -32.427   7.891   1.941  1.00 20.00     0.096 C 
HETATM    7  N8  UNL     1     -31.885   5.350   1.504  1.00 20.00    -0.196 NA
ENDROOT
BRANCH   6   8
HETATM    8  S9  UNL     1     -31.938   8.887   0.492  1.00 20.00    -0.148 SA
HETATM    9  C7  UNL     1     -32.843  10.394   0.906  1.00 20.00     0.091 C 
ENDBRANCH   6   8
TORSDOF 1
ENDMDL
MODEL 6
REMARK VINA RESULT:       2.1      1.896      2.984
REMARK  1 active torsions:
REMARK  status: ('A' for Active; 'I' for Inactive)
REMARK    1  A    between atoms: C6_6  and  S9_9 
ROOT
HETATM    1  C1  UNL     1     -33.725   6.619   2.983  1.00 20.00     0.080 C 
HETATM    2  C2  UNL     1     -32.459   4.613   1.029  1.00 20.00     0.003 C 
HETATM    3  C3  UNL     1     -33.556   5.301   0.217  1.00 20.00     0.003 C 
HETATM    4  C4  UNL     1     -31.736   5.721   1.797  1.00 20.00     0.036 C 
HETATM    5  C5  UNL     1     -33.440   6.795   0.524  1.00 20.00     0.036 C 
HETATM    6  C6  UNL     1     -32.759   6.857   1.895  1.00 20.00     0.096 C 
HETATM    7  N8  UNL     1     -34.484   6.431   3.840  1.00 20.00    -0.196 NA
ENDROOT
BRANCH   6   8
HETATM    8  S9  UNL     1     -31.933   8.466   2.140  1.00 20.00    -0.148 SA
HETATM    9  C7  UNL     1     -32.368   9.217   0.556  1.00 20.00     0.091 C 
ENDBRANCH   6   8
TORSDOF 1
ENDMDL
MODEL 7
REMARK VINA RESULT:       2.1      2.419      2.994
REMARK  1 active torsions:
REMARK  status: ('A' for Active; 'I' for Inactive)
REMARK    1  A    between atoms: C6_6  and  S9_9 
ROOT
HETATM    1  C1  UNL     1     -33.775   6.013   1.062  1.00 20.00     0.080 C 
HETATM    2  C2  UNL     1     -35.139   6.243   3.806  1.00 20.00     0.003 C 
HETATM    3  C3  UNL     1     -34.332   4.947   3.885  1.00 20.00     0.003 C 
HETATM    4  C4  UNL     1     -34.223   7.278   3.151  1.00 20.00     0.036 C 
HETATM    5  C5  UNL     1     -32.961   5.261   3.282  1.00 20.00     0.036 C 
HETATM    6  C6  UNL     1     -33.211   6.451   2.351  1.00 20.00     0.096 C 
HETATM    7  N8  UNL     1     -34.219   5.669   0.046  1.00 20.00    -0.196 NA
ENDROOT
BRANCH   6   8
HETATM    8  S9  UNL     1     -31.673   7.391   2.067  1.00 20.00    -0.148 SA
HETATM    9  C7  UNL     1     -32.381   8.754   1.118  1.00 20.00     0.091 C 
ENDBRANCH   6   8
TORSDOF 1
ENDMDL
MODEL 8
REMARK VINA RESULT:       2.6      2.454      3.320
REMARK  1 active torsions:
REMARK  status: ('A' for Active; 'I' for Inactive)
REMARK    1  A    between atoms: C6_6  and  S9_9 
ROOT
HETATM    1  C1  UNL     1     -35.760   6.606   3.144  1.00 20.00     0.080 C 
HETATM    2  C2  UNL     1     -32.959   6.983   1.939  1.00 20.00     0.003 C 
HETATM    3  C3  UNL     1     -33.019   7.986   3.091  1.00 20.00     0.003 C 
HETATM    4  C4  UNL     1     -33.556   5.680   2.473  1.00 20.00     0.036 C 
HETATM    5  C5  UNL     1     -33.643   7.240   4.272  1.00 20.00     0.036 C 
HETATM    6  C6  UNL     1     -34.460   6.113   3.632  1.00 20.00     0.096 C 
HETATM    7  N8  UNL     1     -36.784   6.993   2.759  1.00 20.00    -0.196 NA
ENDROOT
BRANCH   6   8
HETATM    8  S9  UNL     1     -34.718   4.744   4.811  1.00 20.00    -0.148 SA
HETATM    9  C7  UNL     1     -33.558   3.565   4.087  1.00 20.00     0.091 C 
ENDBRANCH   6   8
TORSDOF 1
ENDMDL
MODEL 9
REMARK VINA RESULT:       2.6      2.274      3.496
REMARK  1 active torsions:
REMARK  status: ('A' for Active; 'I' for Inactive)
REMARK    1  A    between atoms: C6_6  and  S9_9 
ROOT
HETATM    1  C1  UNL     1     -33.665   4.579   3.588  1.00 20.00     0.080 C 
HETATM    2  C2  UNL     1     -31.766   5.884   1.555  1.00 20.00     0.003 C 
HETATM    3  C3  UNL     1     -32.888   5.288   0.705  1.00 20.00     0.003 C 
HETATM    4  C4  UNL     1     -32.446   6.570   2.741  1.00 20.00     0.036 C 
HETATM    5  C5  UNL     1     -34.196   5.649   1.412  1.00 20.00     0.036 C 
HETATM    6  C6  UNL     1     -33.798   5.863   2.876  1.00 20.00     0.096 C 
HETATM    7  N8  UNL     1     -33.560   3.569   4.149  1.00 20.00    -0.196 NA
ENDROOT
BRANCH   6   8
HETATM    8  S9  UNL     1     -35.012   6.924   3.732  1.00 20.00    -0.148 SA
HETATM    9  C7  UNL     1     -33.843   7.998   4.594  1.00 20.00     0.091 C 
ENDBRANCH   6   8
TORSDOF 1
ENDMDL
