MODEL 1
REMARK VINA RESULT:       1.0      0.000      0.000
REMARK  5 active torsions:
REMARK  status: ('A' for Active; 'I' for Inactive)
REMARK    1  A    between atoms: C5_5  and  C7_7 
REMARK    2  A    between atoms: C6_6  and  C8_8 
REMARK    3  A    between atoms: C7_7  and  C9_9 
REMARK    4  A    between atoms: C8_8  and  C9_9 
REMARK    5  A    between atoms: C9_9  and  S11_11 
ROOT
HETATM    1  C1  UNL     1     -33.653   5.725   1.209  1.00 20.00     0.080 C 
HETATM    2  C9  UNL     1     -33.384   6.055   2.627  1.00 20.00     0.096 C 
HETATM    3  N10 UNL     1     -33.859   5.466   0.097  1.00 20.00    -0.196 NA
ENDROOT
BRANCH   2   4
HETATM    4  C7  UNL     1     -32.425   7.275   2.711  1.00 20.00     0.035 C 
BRANCH   4   5
HETATM    5  C5  UNL     1     -31.789   7.700   1.377  1.00 20.00    -0.002 C 
HETATM    6  C2  UNL     1     -32.250   9.092   0.966  1.00 20.00     0.005 C 
ENDBRANCH   4   5
ENDBRANCH   2   4
BRANCH   2   7
HETATM    7  C8  UNL     1     -32.807   4.825   3.372  1.00 20.00     0.035 C 
BRANCH   7   8
HETATM    8  C6  UNL     1     -33.823   3.947   4.122  1.00 20.00    -0.002 C 
HETATM    9  C3  UNL     1     -33.127   2.820   4.873  1.00 20.00     0.005 C 
ENDBRANCH   7   8
ENDBRANCH   2   7
BRANCH   2  10
HETATM   10  S11 UNL     1     -34.972   6.598   3.412  1.00 20.00    -0.148 SA
HETATM   11  C4  UNL     1     -34.261   7.803   4.548  1.00 20.00     0.091 C 
ENDBRANCH   2  10
TORSDOF 5
ENDMDL
MODEL 2
REMARK VINA RESULT:       1.1      1.761      4.616
REMARK  5 active torsions:
REMARK  status: ('A' for Active; 'I' for Inactive)
REMARK    1  A    between atoms: C5_5  and  C7_7 
REMARK    2  A    between atoms: C6_6  and  C8_8 
REMARK    3  A    between atoms: C7_7  and  C9_9 
REMARK    4  A    between atoms: C8_8  and  C9_9 
REMARK    5  A    between atoms: C9_9  and  S11_11 
ROOT
HETATM    1  C1  UNL     1     -34.866   6.410   3.309  1.00 20.00     0.080 C 
HETATM    2  C9  UNL     1     -33.502   6.195   2.778  1.00 20.00     0.096 C 
HETATM    3  N10 UNL     1     -35.935   6.578   3.730  1.00 20.00    -0.196 NA
ENDROOT
BRANCH   2   4
HETATM    4  C7  UNL     1     -32.845   4.979   3.488  1.00 20.00     0.035 C 
BRANCH   4   5
HETATM    5  C5  UNL     1     -33.829   3.956   4.079  1.00 20.00    -0.002 C 
HETATM    6  C2  UNL     1     -33.093   2.849   4.821  1.00 20.00     0.005 C 
ENDBRANCH   4   5
ENDBRANCH   2   4
BRANCH   2   7
HETATM    7  C8  UNL     1     -32.647   7.478   2.940  1.00 20.00     0.035 C 
BRANCH   7   8
HETATM    8  C6  UNL     1     -31.792   7.883   1.727  1.00 20.00    -0.002 C 
HETATM    9  C3  UNL     1     -32.358   9.119   1.043  1.00 20.00     0.005 C 
ENDBRANCH   7   8
ENDBRANCH   2   7
BRANCH   2  10
HETATM   10  S11 UNL     1     -33.636   5.732   0.990  1.00 20.00    -0.148 SA
HETATM   11  C4  UNL     1     -32.106   4.785   0.885  1.00 20.00     0.091 C 
ENDBRANCH   2  10
TORSDOF 5
ENDMDL
MODEL 3
REMARK VINA RESULT:       1.3      2.600      3.300
REMARK  5 active torsions:
REMARK  status: ('A' for Active; 'I' for Inactive)
REMARK    1  A    between atoms: C5_5  and  C7_7 
REMARK    2  A    between atoms: C6_6  and  C8_8 
REMARK    3  A    between atoms: C7_7  and  C9_9 
REMARK    4  A    between atoms: C8_8  and  C9_9 
REMARK    5  A    between atoms: C9_9  and  S11_11 
ROOT
HETATM    1  C1  UNL     1     -32.818   8.075   4.079  1.00 20.00     0.080 C 
HETATM    2  C9  UNL     1     -33.102   7.678   2.682  1.00 20.00     0.096 C 
HETATM    3  N10 UNL     1     -32.600   8.388   5.175  1.00 20.00    -0.196 NA
ENDROOT
BRANCH   2   4
HETATM    4  C7  UNL     1     -33.306   8.945   1.805  1.00 20.00     0.035 C 
BRANCH   4   5
HETATM    5  C5  UNL     1     -32.192   9.220   0.782  1.00 20.00    -0.002 C 
HETATM    6  C2  UNL     1     -32.643  10.227  -0.266  1.00 20.00     0.005 C 
ENDBRANCH   4   5
ENDBRANCH   2   4
BRANCH   2   7
HETATM    7  C8  UNL     1     -34.335   6.740   2.622  1.00 20.00     0.035 C 
BRANCH   7   8
HETATM    8  C6  UNL     1     -35.075   6.505   3.950  1.00 20.00    -0.002 C 
HETATM    9  C3  UNL     1     -35.007   5.043   4.366  1.00 20.00     0.005 C 
ENDBRANCH   7   8
ENDBRANCH   2   7
BRANCH   2  10
HETATM   10  S11 UNL     1     -31.607   6.822   2.002  1.00 20.00    -0.148 SA
HETATM   11  C4  UNL     1     -32.466   5.424   1.255  1.00 20.00     0.091 C 
ENDBRANCH   2  10
TORSDOF 5
ENDMDL
MODEL 4
REMARK VINA RESULT:       1.4      2.159      4.609
REMARK  5 active torsions:
REMARK  status: ('A' for Active; 'I' for Inactive)
REMARK    1  A    between atoms: C5_5  and  C7_7 
REMARK    2  A    between atoms: C6_6  and  C8_8 
REMARK    3  A    between atoms: C7_7  and  C9_9 
REMARK    4  A    between atoms: C8_8  and  C9_9 
REMARK    5  A    between atoms: C9_9  and  S11_11 
ROOT
HETATM    1  C1  UNL     1     -32.161   6.264   1.685  1.00 20.00     0.080 C 
HETATM    2  C9  UNL     1     -32.722   7.563   2.119  1.00 20.00     0.096 C 
HETATM    3  N10 UNL     1     -31.725   5.244   1.343  1.00 20.00    -0.196 NA
ENDROOT
BRANCH   2   4
HETATM    4  C7  UNL     1     -33.968   7.325   3.017  1.00 20.00     0.035 C 
BRANCH   4   5
HETATM    5  C5  UNL     1     -34.263   5.853   3.350  1.00 20.00    -0.002 C 
HETATM    6  C2  UNL     1     -35.413   5.732   4.340  1.00 20.00     0.005 C 
ENDBRANCH   4   5
ENDBRANCH   2   4
BRANCH   2   7
HETATM    7  C8  UNL     1     -33.066   8.445   0.891  1.00 20.00     0.035 C 
BRANCH   7   8
HETATM    8  C6  UNL     1     -32.019   9.502   0.499  1.00 20.00    -0.002 C 
HETATM    9  C3  UNL     1     -32.684  10.751  -0.063  1.00 20.00     0.005 C 
ENDBRANCH   7   8
ENDBRANCH   2   7
BRANCH   2  10
HETATM   10  S11 UNL     1     -31.473   8.411   3.192  1.00 20.00    -0.148 SA
HETATM   11  C4  UNL     1     -32.497   8.545   4.669  1.00 20.00     0.091 C 
ENDBRANCH   2  10
TORSDOF 5
ENDMDL
MODEL 5
REMARK VINA RESULT:       1.5      1.844      2.670
REMARK  5 active torsions:
REMARK  status: ('A' for Active; 'I' for Inactive)
REMARK    1  A    between atoms: C5_5  and  C7_7 
REMARK    2  A    between atoms: C6_6  and  C8_8 
REMARK    3  A    between atoms: C7_7  and  C9_9 
REMARK    4  A    between atoms: C8_8  and  C9_9 
REMARK    5  A    between atoms: C9_9  and  S11_11 
ROOT
HETATM    1  C1  UNL     1     -34.944   6.388   3.403  1.00 20.00     0.080 C 
HETATM    2  C9  UNL     1     -33.536   6.238   2.971  1.00 20.00     0.096 C 
HETATM    3  N10 UNL     1     -36.049   6.502   3.739  1.00 20.00    -0.196 NA
ENDROOT
BRANCH   2   4
HETATM    4  C7  UNL     1     -33.462   6.208   1.419  1.00 20.00     0.035 C 
BRANCH   4   5
HETATM    5  C5  UNL     1     -33.025   4.865   0.811  1.00 20.00    -0.002 C 
HETATM    6  C2  UNL     1     -31.520   4.824   0.588  1.00 20.00     0.005 C 
ENDBRANCH   4   5
ENDBRANCH   2   4
BRANCH   2   7
HETATM    7  C8  UNL     1     -32.908   4.966   3.595  1.00 20.00     0.035 C 
BRANCH   7   8
HETATM    8  C6  UNL     1     -33.892   3.943   4.189  1.00 20.00    -0.002 C 
HETATM    9  C3  UNL     1     -33.152   2.797   4.863  1.00 20.00     0.005 C 
ENDBRANCH   7   8
ENDBRANCH   2   7
BRANCH   2  10
HETATM   10  S11 UNL     1     -32.599   7.746   3.498  1.00 20.00    -0.148 SA
HETATM   11  C4  UNL     1     -32.000   8.223   1.866  1.00 20.00     0.091 C 
ENDBRANCH   2  10
TORSDOF 5
ENDMDL
MODEL 6
REMARK VINA RESULT:       1.5      1.662      1.761
REMARK  5 active torsions:
REMARK  status: ('A' for Active; 'I' for Inactive)
REMARK    1  A    between atoms: C5_5  and  C7_7 
REMARK    2  A    between atoms: C6_6  and  C8_8 
REMARK    3  A    between atoms: C7_7  and  C9_9 
REMARK    4  A    between atoms: C8_8  and  C9_9 
REMARK    5  A    between atoms: C9_9  and  S11_11 
ROOT
HETATM    1  C1  UNL     1     -34.939   6.522   3.284  1.00 20.00     0.080 C 
HETATM    2  C9  UNL     1     -33.479   6.415   3.066  1.00 20.00     0.096 C 
HETATM    3  N10 UNL     1     -36.085   6.602   3.452  1.00 20.00    -0.196 NA
ENDROOT
BRANCH   2   4
HETATM    4  C7  UNL     1     -33.131   6.845   1.614  1.00 20.00     0.035 C 
BRANCH   4   5
HETATM    5  C5  UNL     1     -31.935   7.803   1.484  1.00 20.00    -0.002 C 
HETATM    6  C2  UNL     1     -32.326   9.074   0.743  1.00 20.00     0.005 C 
ENDBRANCH   4   5
ENDBRANCH   2   4
BRANCH   2   7
HETATM    7  C8  UNL     1     -32.987   4.976   3.367  1.00 20.00     0.035 C 
BRANCH   7   8
HETATM    8  C6  UNL     1     -33.956   4.078   4.155  1.00 20.00    -0.002 C 
HETATM    9  C3  UNL     1     -33.226   2.893   4.772  1.00 20.00     0.005 C 
ENDBRANCH   7   8
ENDBRANCH   2   7
BRANCH   2  10
HETATM   10  S11 UNL     1     -32.631   7.631   4.177  1.00 20.00    -0.148 SA
HETATM   11  C4  UNL     1     -34.086   8.134   5.114  1.00 20.00     0.091 C 
ENDBRANCH   2  10
TORSDOF 5
ENDMDL
MODEL 7
REMARK VINA RESULT:       1.7      1.322      3.768
REMARK  5 active torsions:
REMARK  status: ('A' for Active; 'I' for Inactive)
REMARK    1  A    between atoms: C5_5  and  C7_7 
REMARK    2  A    between atoms: C6_6  and  C8_8 
REMARK    3  A    between atoms: C7_7  and  C9_9 
REMARK    4  A    between atoms: C8_8  and  C9_9 
REMARK    5  A    between atoms: C9_9  and  S11_11 
ROOT
HETATM    1  C1  UNL     1     -33.474   5.408   0.981  1.00 20.00     0.080 C 
HETATM    2  C9  UNL     1     -33.130   6.106   2.239  1.00 20.00     0.096 C 
HETATM    3  N10 UNL     1     -33.747   4.857  -0.004  1.00 20.00    -0.196 NA
ENDROOT
BRANCH   2   4
HETATM    4  C7  UNL     1     -32.751   5.068   3.331  1.00 20.00     0.035 C 
BRANCH   4   5
HETATM    5  C5  UNL     1     -33.870   4.086   3.717  1.00 20.00    -0.002 C 
HETATM    6  C2  UNL     1     -33.352   3.001   4.651  1.00 20.00     0.005 C 
ENDBRANCH   4   5
ENDBRANCH   2   4
BRANCH   2   7
HETATM    7  C8  UNL     1     -34.302   7.011   2.697  1.00 20.00     0.035 C 
BRANCH   7   8
HETATM    8  C6  UNL     1     -34.525   7.119   4.216  1.00 20.00    -0.002 C 
HETATM    9  C3  UNL     1     -33.626   8.184   4.828  1.00 20.00     0.005 C 
ENDBRANCH   7   8
ENDBRANCH   2   7
BRANCH   2  10
HETATM   10  S11 UNL     1     -31.608   7.121   1.948  1.00 20.00    -0.148 SA
HETATM   11  C4  UNL     1     -32.434   8.588   1.306  1.00 20.00     0.091 C 
ENDBRANCH   2  10
TORSDOF 5
ENDMDL
MODEL 8
REMARK VINA RESULT:       1.7      1.779      3.076
REMARK  5 active torsions:
REMARK  status: ('A' for Active; 'I' for Inactive)
REMARK    1  A    between atoms: C5_5  and  C7_7 
REMARK    2  A    between atoms: C6_6  and  C8_8 
REMARK    3  A    between atoms: C7_7  and  C9_9 
REMARK    4  A    between atoms: C8_8  and  C9_9 
REMARK    5  A    between atoms: C9_9  and  S11_11 
ROOT
HETATM    1  C1  UNL     1     -32.299   7.088   2.058  1.00 20.00     0.080 C 
HETATM    2  C9  UNL     1     -33.312   6.033   2.284  1.00 20.00     0.096 C 
HETATM    3  N10 UNL     1     -31.504   7.917   1.885  1.00 20.00    -0.196 NA
ENDROOT
BRANCH   2   4
HETATM    4  C7  UNL     1     -34.650   6.678   2.741  1.00 20.00     0.035 C 
BRANCH   4   5
HETATM    5  C5  UNL     1     -34.767   6.942   4.252  1.00 20.00    -0.002 C 
HETATM    6  C2  UNL     1     -33.843   8.072   4.686  1.00 20.00     0.005 C 
ENDBRANCH   4   5
ENDBRANCH   2   4
BRANCH   2   7
HETATM    7  C8  UNL     1     -32.798   4.997   3.316  1.00 20.00     0.035 C 
BRANCH   7   8
HETATM    8  C6  UNL     1     -33.822   3.959   3.805  1.00 20.00    -0.002 C 
HETATM    9  C3  UNL     1     -33.182   2.965   4.764  1.00 20.00     0.005 C 
ENDBRANCH   7   8
ENDBRANCH   2   7
BRANCH   2  10
HETATM   10  S11 UNL     1     -33.669   5.208   0.665  1.00 20.00    -0.148 SA
HETATM   11  C4  UNL     1     -32.018   4.541   0.383  1.00 20.00     0.091 C 
ENDBRANCH   2  10
TORSDOF 5
ENDMDL
MODEL 9
REMARK VINA RESULT:       1.7      1.540      3.801
REMARK  5 active torsions:
REMARK  status: ('A' for Active; 'I' for Inactive)
REMARK    1  A    between atoms: C5_5  and  C7_7 
REMARK    2  A    between atoms: C6_6  and  C8_8 
REMARK    3  A    between atoms: C7_7  and  C9_9 
REMARK    4  A    between atoms: C8_8  and  C9_9 
REMARK    5  A    between atoms: C9_9  and  S11_11 
ROOT
HETATM    1  C1  UNL     1     -32.448   7.212   2.270  1.00 20.00     0.080 C 
HETATM    2  C9  UNL     1     -33.450   6.133   2.419  1.00 20.00     0.096 C 
HETATM    3  N10 UNL     1     -31.659   8.055   2.150  1.00 20.00    -0.196 NA
ENDROOT
BRANCH   2   4
HETATM    4  C7  UNL     1     -32.841   4.958   3.232  1.00 20.00     0.035 C 
BRANCH   4   5
HETATM    5  C5  UNL     1     -33.861   4.070   3.965  1.00 20.00    -0.002 C 
HETATM    6  C2  UNL     1     -33.170   2.943   4.719  1.00 20.00     0.005 C 
ENDBRANCH   4   5
ENDBRANCH   2   4
BRANCH   2   7
HETATM    7  C8  UNL     1     -33.955   5.663   1.031  1.00 20.00     0.035 C 
BRANCH   7   8
HETATM    8  C6  UNL     1     -33.073   4.637   0.299  1.00 20.00    -0.002 C 
HETATM    9  C3  UNL     1     -33.895   3.800  -0.671  1.00 20.00     0.005 C 
ENDBRANCH   7   8
ENDBRANCH   2   7
BRANCH   2  10
HETATM   10  S11 UNL     1     -34.859   6.780   3.433  1.00 20.00    -0.148 SA
HETATM   11  C4  UNL     1     -33.883   7.803   4.551  1.00 20.00     0.091 C 
ENDBRANCH   2  10
TORSDOF 5
ENDMDL
