MODEL 1
REMARK VINA RESULT:      -0.9      0.000      0.000
REMARK  2 active torsions:
REMARK  status: ('A' for Active; 'I' for Inactive)
REMARK    1  A    between atoms: C7_7  and  C10_10 
REMARK    2  A    between atoms: C10_10  and  C11_11 
ROOT
HETATM    1  C1  UNL     1     -33.046   5.680   1.636  1.00 20.00     0.004 C 
HETATM    2  C2  UNL     1     -31.845   6.618   1.545  1.00 20.00     0.005 C 
HETATM    3  C3  UNL     1     -32.269   8.055   3.618  1.00 20.00     0.007 C 
HETATM    4  C4  UNL     1     -33.543   5.434   3.058  1.00 20.00     0.040 C 
HETATM    5  C5  UNL     1     -33.698   7.813   4.099  1.00 20.00     0.040 C 
HETATM    6  C6  UNL     1     -35.827   6.670   3.134  1.00 20.00     0.207 A 
HETATM    7  C7  UNL     1     -32.027   8.040   2.100  1.00 20.00    -0.014 C 
HETATM    8  C8  UNL     1     -34.373   6.579   3.565  1.00 20.00     0.082 A 
HETATM    9  O12 UNL     1     -35.459   6.146   4.410  1.00 20.00    -0.375 OA
ENDROOT
BRANCH   7  10
HETATM   10  C10 UNL     1     -33.056   8.851   1.312  1.00 20.00     0.004 C 
BRANCH  10  11
HETATM   11  C11 UNL     1     -32.408  10.064   0.657  1.00 20.00    -0.004 C 
HETATM   12  C9  UNL     1     -32.712  10.108  -0.832  1.00 20.00     0.005 C 
ENDBRANCH  10  11
ENDBRANCH   7  10
TORSDOF 2
ENDMDL
