MODEL 1
REMARK VINA RESULT:      -1.6      0.000      0.000
REMARK  2 active torsions:
REMARK  status: ('A' for Active; 'I' for Inactive)
REMARK    1  A    between atoms: C8_8  and  C10_10 
REMARK    2  A    between atoms: C10_10  and  C11_11 
ROOT
HETATM    1  C1  UNL     1     -33.566   3.755   4.127  1.00 20.00     0.064 C 
HETATM    2  C2  UNL     1     -34.065   7.489   3.978  1.00 20.00     0.002 C 
HETATM    3  C3  UNL     1     -34.456   6.027   3.771  1.00 20.00     0.019 C 
HETATM    4  C4  UNL     1     -32.712   4.992   2.189  1.00 20.00     0.019 C 
HETATM    5  C5  UNL     1     -33.519   8.209   2.749  1.00 20.00     0.005 C 
HETATM    6  C6  UNL     1     -32.697   6.261   1.338  1.00 20.00     0.006 C 
HETATM    7  C7  UNL     1     -33.237   5.107   3.625  1.00 20.00     0.093 C 
HETATM    8  C8  UNL     1     -32.303   7.548   2.077  1.00 20.00    -0.014 C 
HETATM    9  N12 UNL     1     -33.822   2.694   4.521  1.00 20.00    -0.197 NA
ENDROOT
BRANCH   8  10
HETATM   10  C10 UNL     1     -31.696   8.542   1.076  1.00 20.00     0.004 C 
BRANCH  10  11
HETATM   11  C11 UNL     1     -32.616   9.737   0.867  1.00 20.00    -0.004 C 
HETATM   12  C9  UNL     1     -32.714  10.098  -0.606  1.00 20.00     0.005 C 
ENDBRANCH  10  11
ENDBRANCH   8  10
TORSDOF 2
ENDMDL
MODEL 2
REMARK VINA RESULT:      -1.3      1.234      2.215
REMARK  2 active torsions:
REMARK  status: ('A' for Active; 'I' for Inactive)
REMARK    1  A    between atoms: C8_8  and  C10_10 
REMARK    2  A    between atoms: C10_10  and  C11_11 
ROOT
HETATM    1  C1  UNL     1     -35.131   5.452   4.182  1.00 20.00     0.064 C 
HETATM    2  C2  UNL     1     -32.640   5.479   1.351  1.00 20.00     0.002 C 
HETATM    3  C3  UNL     1     -33.126   5.190   2.771  1.00 20.00     0.019 C 
HETATM    4  C4  UNL     1     -33.747   7.447   3.836  1.00 20.00     0.019 C 
HETATM    5  C5  UNL     1     -31.802   6.743   1.184  1.00 20.00     0.005 C 
HETATM    6  C6  UNL     1     -32.524   8.110   3.201  1.00 20.00     0.006 C 
HETATM    7  C7  UNL     1     -34.247   6.138   3.214  1.00 20.00     0.093 C 
HETATM    8  C8  UNL     1     -32.459   8.046   1.668  1.00 20.00    -0.014 C 
HETATM    9  N12 UNL     1     -35.824   4.915   4.941  1.00 20.00    -0.197 NA
ENDROOT
BRANCH   8  10
HETATM   10  C10 UNL     1     -31.637   9.233   1.147  1.00 20.00     0.004 C 
BRANCH  10  11
HETATM   11  C11 UNL     1     -32.546  10.343   0.634  1.00 20.00    -0.004 C 
HETATM   12  C9  UNL     1     -32.926  10.108  -0.819  1.00 20.00     0.005 C 
ENDBRANCH  10  11
ENDBRANCH   8  10
TORSDOF 2
ENDMDL
MODEL 3
REMARK VINA RESULT:      -0.1      2.623      5.180
REMARK  2 active torsions:
REMARK  status: ('A' for Active; 'I' for Inactive)
REMARK    1  A    between atoms: C8_8  and  C10_10 
REMARK    2  A    between atoms: C10_10  and  C11_11 
ROOT
HETATM    1  C1  UNL     1     -32.233   8.868   0.694  1.00 20.00     0.064 C 
HETATM    2  C2  UNL     1     -33.651   8.301   4.140  1.00 20.00     0.002 C 
HETATM    3  C3  UNL     1     -32.541   8.535   3.117  1.00 20.00     0.019 C 
HETATM    4  C4  UNL     1     -32.611   6.569   1.459  1.00 20.00     0.019 C 
HETATM    5  C5  UNL     1     -33.862   6.852   4.569  1.00 20.00     0.005 C 
HETATM    6  C6  UNL     1     -32.871   5.586   2.600  1.00 20.00     0.006 C 
HETATM    7  C7  UNL     1     -32.924   8.049   1.713  1.00 20.00     0.093 C 
HETATM    8  C8  UNL     1     -34.135   5.855   3.430  1.00 20.00    -0.014 C 
HETATM    9  N12 UNL     1     -31.691   9.510  -0.107  1.00 20.00    -0.197 NA
ENDROOT
BRANCH   8  10
HETATM   10  C10 UNL     1     -34.631   4.537   4.040  1.00 20.00     0.004 C 
BRANCH  10  11
HETATM   11  C11 UNL     1     -33.587   3.439   3.887  1.00 20.00    -0.004 C 
HETATM   12  C9  UNL     1     -33.045   3.008   5.241  1.00 20.00     0.005 C 
ENDBRANCH  10  11
ENDBRANCH   8  10
TORSDOF 2
ENDMDL
MODEL 4
REMARK VINA RESULT:       0.5      2.606      5.560
REMARK  2 active torsions:
REMARK  status: ('A' for Active; 'I' for Inactive)
REMARK    1  A    between atoms: C8_8  and  C10_10 
REMARK    2  A    between atoms: C10_10  and  C11_11 
ROOT
HETATM    1  C1  UNL     1     -32.336   9.020   1.249  1.00 20.00     0.064 C 
HETATM    2  C2  UNL     1     -32.357   5.250   1.255  1.00 20.00     0.002 C 
HETATM    3  C3  UNL     1     -32.792   6.640   0.795  1.00 20.00     0.019 C 
HETATM    4  C4  UNL     1     -33.782   7.843   2.842  1.00 20.00     0.019 C 
HETATM    5  C5  UNL     1     -33.278   4.568   2.262  1.00 20.00     0.005 C 
HETATM    6  C6  UNL     1     -34.481   6.558   3.288  1.00 20.00     0.006 C 
HETATM    7  C7  UNL     1     -32.596   7.707   1.879  1.00 20.00     0.093 C 
HETATM    8  C8  UNL     1     -33.557   5.360   3.551  1.00 20.00    -0.014 C 
HETATM    9  N12 UNL     1     -32.131  10.051   0.756  1.00 20.00    -0.197 NA
ENDROOT
BRANCH   8  10
HETATM   10  C10 UNL     1     -34.222   4.423   4.569  1.00 20.00     0.004 C 
BRANCH  10  11
HETATM   11  C11 UNL     1     -33.550   3.057   4.572  1.00 20.00    -0.004 C 
HETATM   12  C9  UNL     1     -32.552   2.943   5.714  1.00 20.00     0.005 C 
ENDBRANCH  10  11
ENDBRANCH   8  10
TORSDOF 2
ENDMDL
