MODEL 1
REMARK VINA RESULT:       2.3      0.000      0.000
REMARK  2 active torsions:
REMARK  status: ('A' for Active; 'I' for Inactive)
REMARK    1  A    between atoms: C4_4  and  C9_9 
REMARK    2  A    between atoms: C5_5  and  S11_11 
ROOT
HETATM    1  C1  UNL     1     -32.524   5.875   1.921  1.00 20.00     0.080 C 
HETATM    2  C2  UNL     1     -33.530   8.095   1.182  1.00 20.00     0.041 C 
HETATM    3  C3  UNL     1     -31.575   8.232   2.057  1.00 20.00     0.041 C 
HETATM    4  C4  UNL     1     -32.155   8.592   0.664  1.00 20.00    -0.006 C 
HETATM    5  C5  UNL     1     -32.768   7.262   2.244  1.00 20.00     0.097 C 
HETATM    6  N10 UNL     1     -32.329   4.761   1.660  1.00 20.00    -0.196 NA
ENDROOT
BRANCH   5   7
HETATM    7  S11 UNL     1     -33.521   7.396   3.904  1.00 20.00    -0.148 SA
HETATM    8  C8  UNL     1     -34.829   6.171   3.685  1.00 20.00     0.091 C 
ENDBRANCH   5   7
BRANCH   4   9
HETATM    9  C9  UNL     1     -32.072  10.048   0.252  1.00 20.00    -0.019 C 
HETATM   10  C6  UNL     1     -32.806  10.287  -1.070  1.00 20.00     0.010 C 
HETATM   11  C7  UNL     1     -32.642  10.960   1.342  1.00 20.00     0.010 C 
ENDBRANCH   4   9
TORSDOF 2
ENDMDL
MODEL 2
REMARK VINA RESULT:       2.5      1.926      2.450
REMARK  2 active torsions:
REMARK  status: ('A' for Active; 'I' for Inactive)
REMARK    1  A    between atoms: C4_4  and  C9_9 
REMARK    2  A    between atoms: C5_5  and  S11_11 
ROOT
HETATM    1  C1  UNL     1     -34.515   6.451   3.513  1.00 20.00     0.080 C 
HETATM    2  C2  UNL     1     -32.289   7.591   3.033  1.00 20.00     0.041 C 
HETATM    3  C3  UNL     1     -33.406   7.016   1.293  1.00 20.00     0.041 C 
HETATM    4  C4  UNL     1     -32.900   8.376   1.843  1.00 20.00    -0.006 C 
HETATM    5  C5  UNL     1     -33.299   6.455   2.733  1.00 20.00     0.097 C 
HETATM    6  N10 UNL     1     -35.492   6.450   4.141  1.00 20.00    -0.196 NA
ENDROOT
BRANCH   5   7
HETATM    7  S11 UNL     1     -32.519   4.802   2.779  1.00 20.00    -0.148 SA
HETATM    8  C8  UNL     1     -33.720   3.989   3.856  1.00 20.00     0.091 C 
ENDBRANCH   5   7
BRANCH   4   9
HETATM    9  C9  UNL     1     -31.931   9.141   0.966  1.00 20.00    -0.019 C 
HETATM   10  C6  UNL     1     -31.196   8.199   0.008  1.00 20.00     0.010 C 
HETATM   11  C7  UNL     1     -32.654  10.236   0.176  1.00 20.00     0.010 C 
ENDBRANCH   4   9
TORSDOF 2
ENDMDL
MODEL 3
REMARK VINA RESULT:       2.8      2.026      2.445
REMARK  2 active torsions:
REMARK  status: ('A' for Active; 'I' for Inactive)
REMARK    1  A    between atoms: C4_4  and  C9_9 
REMARK    2  A    between atoms: C5_5  and  S11_11 
ROOT
HETATM    1  C1  UNL     1     -33.007   7.930   4.456  1.00 20.00     0.080 C 
HETATM    2  C2  UNL     1     -31.890   7.589   2.194  1.00 20.00     0.041 C 
HETATM    3  C3  UNL     1     -33.872   8.409   2.110  1.00 20.00     0.041 C 
HETATM    4  C4  UNL     1     -32.479   8.920   1.656  1.00 20.00    -0.006 C 
HETATM    5  C5  UNL     1     -33.143   7.462   3.096  1.00 20.00     0.097 C 
HETATM    6  N10 UNL     1     -32.897   8.307   5.549  1.00 20.00    -0.196 NA
ENDROOT
BRANCH   5   7
HETATM    7  S11 UNL     1     -33.841   5.772   3.081  1.00 20.00    -0.148 SA
HETATM    8  C8  UNL     1     -35.291   6.091   4.110  1.00 20.00     0.091 C 
ENDBRANCH   5   7
BRANCH   4   9
HETATM    9  C9  UNL     1     -32.307   9.187   0.175  1.00 20.00    -0.019 C 
HETATM   10  C6  UNL     1     -32.709  10.624  -0.173  1.00 20.00     0.010 C 
HETATM   11  C7  UNL     1     -30.865   8.923  -0.267  1.00 20.00     0.010 C 
ENDBRANCH   4   9
TORSDOF 2
ENDMDL
MODEL 4
REMARK VINA RESULT:       3.0      2.103      4.810
REMARK  2 active torsions:
REMARK  status: ('A' for Active; 'I' for Inactive)
REMARK    1  A    between atoms: C4_4  and  C9_9 
REMARK    2  A    between atoms: C5_5  and  S11_11 
ROOT
HETATM    1  C1  UNL     1     -31.401   8.154   2.323  1.00 20.00     0.080 C 
HETATM    2  C2  UNL     1     -33.788   7.451   2.865  1.00 20.00     0.041 C 
HETATM    3  C3  UNL     1     -32.595   5.945   1.908  1.00 20.00     0.041 C 
HETATM    4  C4  UNL     1     -33.319   6.030   3.277  1.00 20.00    -0.006 C 
HETATM    5  C5  UNL     1     -32.602   7.493   1.868  1.00 20.00     0.097 C 
HETATM    6  N10 UNL     1     -30.436   8.685   2.690  1.00 20.00    -0.196 NA
ENDROOT
BRANCH   5   7
HETATM    7  S11 UNL     1     -33.094   8.144   0.231  1.00 20.00    -0.148 SA
HETATM    8  C8  UNL     1     -32.461   9.823   0.429  1.00 20.00     0.091 C 
ENDBRANCH   5   7
BRANCH   4   9
HETATM    9  C9  UNL     1     -34.406   5.006   3.533  1.00 20.00    -0.019 C 
HETATM   10  C6  UNL     1     -33.841   3.774   4.247  1.00 20.00     0.010 C 
HETATM   11  C7  UNL     1     -35.548   5.611   4.353  1.00 20.00     0.010 C 
ENDBRANCH   4   9
TORSDOF 2
ENDMDL
MODEL 5
REMARK VINA RESULT:       3.0      1.919      2.453
REMARK  2 active torsions:
REMARK  status: ('A' for Active; 'I' for Inactive)
REMARK    1  A    between atoms: C4_4  and  C9_9 
REMARK    2  A    between atoms: C5_5  and  S11_11 
ROOT
HETATM    1  C1  UNL     1     -34.368   6.472   3.487  1.00 20.00     0.080 C 
HETATM    2  C2  UNL     1     -32.275   7.597   2.571  1.00 20.00     0.041 C 
HETATM    3  C3  UNL     1     -33.612   6.820   1.081  1.00 20.00     0.041 C 
HETATM    4  C4  UNL     1     -33.079   8.240   1.410  1.00 20.00    -0.006 C 
HETATM    5  C5  UNL     1     -33.279   6.416   2.539  1.00 20.00     0.097 C 
HETATM    6  N10 UNL     1     -35.243   6.518   4.249  1.00 20.00    -0.196 NA
ENDROOT
BRANCH   5   7
HETATM    7  S11 UNL     1     -32.443   4.793   2.638  1.00 20.00    -0.148 SA
HETATM    8  C8  UNL     1     -33.570   4.002   3.807  1.00 20.00     0.091 C 
ENDBRANCH   5   7
BRANCH   4   9
HETATM    9  C9  UNL     1     -32.274   8.928   0.327  1.00 20.00    -0.019 C 
HETATM   10  C6  UNL     1     -32.584  10.427   0.281  1.00 20.00     0.010 C 
HETATM   11  C7  UNL     1     -30.773   8.707   0.535  1.00 20.00     0.010 C 
ENDBRANCH   4   9
TORSDOF 2
ENDMDL
MODEL 6
REMARK VINA RESULT:       3.4      0.881      1.327
REMARK  2 active torsions:
REMARK  status: ('A' for Active; 'I' for Inactive)
REMARK    1  A    between atoms: C4_4  and  C9_9 
REMARK    2  A    between atoms: C5_5  and  S11_11 
ROOT
HETATM    1  C1  UNL     1     -31.959   5.638   1.778  1.00 20.00     0.080 C 
HETATM    2  C2  UNL     1     -33.495   7.385   0.741  1.00 20.00     0.041 C 
HETATM    3  C3  UNL     1     -31.993   8.167   2.060  1.00 20.00     0.041 C 
HETATM    4  C4  UNL     1     -32.314   8.373   0.556  1.00 20.00    -0.006 C 
HETATM    5  C5  UNL     1     -32.759   6.823   1.984  1.00 20.00     0.097 C 
HETATM    6  N10 UNL     1     -31.317   4.686   1.611  1.00 20.00    -0.196 NA
ENDROOT
BRANCH   5   7
HETATM    7  S11 UNL     1     -33.883   6.582   3.406  1.00 20.00    -0.148 SA
HETATM    8  C8  UNL     1     -33.855   4.777   3.444  1.00 20.00     0.091 C 
ENDBRANCH   5   7
BRANCH   4   9
HETATM    9  C9  UNL     1     -32.669   9.781   0.126  1.00 20.00    -0.019 C 
HETATM   10  C6  UNL     1     -32.766  10.716   1.336  1.00 20.00     0.010 C 
HETATM   11  C7  UNL     1     -31.647  10.323  -0.877  1.00 20.00     0.010 C 
ENDBRANCH   4   9
TORSDOF 2
ENDMDL
MODEL 7
REMARK VINA RESULT:       3.7      0.940      1.331
REMARK  2 active torsions:
REMARK  status: ('A' for Active; 'I' for Inactive)
REMARK    1  A    between atoms: C4_4  and  C9_9 
REMARK    2  A    between atoms: C5_5  and  S11_11 
ROOT
HETATM    1  C1  UNL     1     -32.877   5.541   2.733  1.00 20.00     0.080 C 
HETATM    2  C2  UNL     1     -33.757   7.418   1.254  1.00 20.00     0.041 C 
HETATM    3  C3  UNL     1     -31.960   7.882   2.334  1.00 20.00     0.041 C 
HETATM    4  C4  UNL     1     -32.318   7.810   0.826  1.00 20.00    -0.006 C 
HETATM    5  C5  UNL     1     -33.167   6.950   2.609  1.00 20.00     0.097 C 
HETATM    6  N10 UNL     1     -32.643   4.408   2.831  1.00 20.00    -0.196 NA
ENDROOT
BRANCH   5   7
HETATM    7  S11 UNL     1     -34.169   7.512   4.032  1.00 20.00    -0.148 SA
HETATM    8  C8  UNL     1     -35.334   6.133   4.078  1.00 20.00     0.091 C 
ENDBRANCH   5   7
BRANCH   4   9
HETATM    9  C9  UNL     1     -32.173   9.094   0.035  1.00 20.00    -0.019 C 
HETATM   10  C6  UNL     1     -32.646  10.299   0.853  1.00 20.00     0.010 C 
HETATM   11  C7  UNL     1     -30.724   9.300  -0.415  1.00 20.00     0.010 C 
ENDBRANCH   4   9
TORSDOF 2
ENDMDL
MODEL 8
REMARK VINA RESULT:       3.9      2.404      4.135
REMARK  2 active torsions:
REMARK  status: ('A' for Active; 'I' for Inactive)
REMARK    1  A    between atoms: C4_4  and  C9_9 
REMARK    2  A    between atoms: C5_5  and  S11_11 
ROOT
HETATM    1  C1  UNL     1     -32.352   9.107   0.642  1.00 20.00     0.080 C 
HETATM    2  C2  UNL     1     -33.721   7.385   1.924  1.00 20.00     0.041 C 
HETATM    3  C3  UNL     1     -32.273   8.448   3.099  1.00 20.00     0.041 C 
HETATM    4  C4  UNL     1     -33.819   8.321   3.158  1.00 20.00    -0.006 C 
HETATM    5  C5  UNL     1     -32.349   8.034   1.609  1.00 20.00     0.097 C 
HETATM    6  N10 UNL     1     -32.355   9.970  -0.135  1.00 20.00    -0.196 NA
ENDROOT
BRANCH   5   7
HETATM    7  S11 UNL     1     -31.081   6.793   1.166  1.00 20.00    -0.148 SA
HETATM    8  C8  UNL     1     -32.141   5.332   1.190  1.00 20.00     0.091 C 
ENDBRANCH   5   7
BRANCH   4   9
HETATM    9  C9  UNL     1     -34.400   7.720   4.421  1.00 20.00    -0.019 C 
HETATM   10  C6  UNL     1     -34.855   6.277   4.183  1.00 20.00     0.010 C 
HETATM   11  C7  UNL     1     -33.388   7.770   5.569  1.00 20.00     0.010 C 
ENDBRANCH   4   9
TORSDOF 2
ENDMDL
MODEL 9
REMARK VINA RESULT:       4.0      2.365      3.264
REMARK  2 active torsions:
REMARK  status: ('A' for Active; 'I' for Inactive)
REMARK    1  A    between atoms: C4_4  and  C9_9 
REMARK    2  A    between atoms: C5_5  and  S11_11 
ROOT
HETATM    1  C1  UNL     1     -36.120   6.567   3.135  1.00 20.00     0.080 C 
HETATM    2  C2  UNL     1     -33.889   7.522   3.905  1.00 20.00     0.041 C 
HETATM    3  C3  UNL     1     -33.754   6.042   2.356  1.00 20.00     0.041 C 
HETATM    4  C4  UNL     1     -33.346   7.536   2.451  1.00 20.00    -0.006 C 
HETATM    5  C5  UNL     1     -34.752   6.296   3.513  1.00 20.00     0.097 C 
HETATM    6  N10 UNL     1     -37.219   6.786   2.831  1.00 20.00    -0.196 NA
ENDROOT
BRANCH   5   7
HETATM    7  S11 UNL     1     -34.700   4.978   4.779  1.00 20.00    -0.148 SA
HETATM    8  C8  UNL     1     -33.718   3.779   3.852  1.00 20.00     0.091 C 
ENDBRANCH   5   7
BRANCH   4   9
HETATM    9  C9  UNL     1     -31.874   7.847   2.280  1.00 20.00    -0.019 C 
HETATM   10  C6  UNL     1     -31.600   8.468   0.907  1.00 20.00     0.010 C 
HETATM   11  C7  UNL     1     -31.378   8.781   3.387  1.00 20.00     0.010 C 
ENDBRANCH   4   9
TORSDOF 2
ENDMDL
