MODEL 1
REMARK VINA RESULT:       3.4      0.000      0.000
REMARK  1 active torsions:
REMARK  status: ('A' for Active; 'I' for Inactive)
REMARK    1  A    between atoms: C3_3  and  C8_8 
ROOT
HETATM    1  C1  UNL     1     -33.147   9.389   1.731  1.00 20.00     0.022 A 
HETATM    2  C2  UNL     1     -31.693   7.576   1.658  1.00 20.00     0.057 A 
HETATM    3  C3  UNL     1     -32.653   8.230   2.398  1.00 20.00    -0.046 A 
HETATM    4  C4  UNL     1     -32.545   9.576   0.507  1.00 20.00    -0.021 A 
HETATM    5  C10 UNL     1     -32.779  10.653  -0.479  1.00 20.00     0.056 C 
HETATM    6  S11 UNL     1     -31.390   8.358   0.165  1.00 20.00    -0.106 SA
ENDROOT
BRANCH   3   7
HETATM    7  C8  UNL     1     -33.130   7.772   3.766  1.00 20.00     0.020 C 
HETATM    8  C5  UNL     1     -34.646   7.755   4.011  1.00 20.00     0.010 C 
HETATM    9  C6  UNL     1     -35.134   6.353   3.628  1.00 20.00     0.016 C 
HETATM   10  C9  UNL     1     -33.877   5.512   3.436  1.00 20.00     0.058 C 
HETATM   11  C7  UNL     1     -32.741   6.317   4.051  1.00 20.00     0.025 C 
HETATM   12 BR12 UNL     1     -34.039   3.776   4.282  1.00 20.00    -0.091 Br
ENDBRANCH   3   7
TORSDOF 1
ENDMDL
MODEL 2
REMARK VINA RESULT:       3.4      3.105      5.130
REMARK  1 active torsions:
REMARK  status: ('A' for Active; 'I' for Inactive)
REMARK    1  A    between atoms: C3_3  and  C8_8 
ROOT
HETATM    1  C1  UNL     1     -32.888   5.929   3.242  1.00 20.00     0.022 A 
HETATM    2  C2  UNL     1     -34.366   7.664   3.696  1.00 20.00     0.057 A 
HETATM    3  C3  UNL     1     -33.110   7.336   3.238  1.00 20.00    -0.046 A 
HETATM    4  C4  UNL     1     -33.984   5.234   3.704  1.00 20.00    -0.021 A 
HETATM    5  C10 UNL     1     -34.149   3.773   3.860  1.00 20.00     0.056 C 
HETATM    6  S11 UNL     1     -35.274   6.278   4.129  1.00 20.00    -0.106 SA
ENDROOT
BRANCH   3   7
HETATM    7  C8  UNL     1     -32.079   8.355   2.782  1.00 20.00     0.020 C 
HETATM    8  C5  UNL     1     -31.009   7.876   1.790  1.00 20.00     0.010 C 
HETATM    9  C6  UNL     1     -31.561   8.150   0.387  1.00 20.00     0.016 C 
HETATM   10  C9  UNL     1     -32.796   9.021   0.587  1.00 20.00     0.058 C 
HETATM   11  C7  UNL     1     -32.723   9.521   2.022  1.00 20.00     0.025 C 
HETATM   12 BR12 UNL     1     -32.842  10.500  -0.665  1.00 20.00    -0.091 Br
ENDBRANCH   3   7
TORSDOF 1
ENDMDL
MODEL 3
REMARK VINA RESULT:       3.9      3.076      4.998
REMARK  1 active torsions:
REMARK  status: ('A' for Active; 'I' for Inactive)
REMARK    1  A    between atoms: C3_3  and  C8_8 
ROOT
HETATM    1  C1  UNL     1     -33.910   7.178   3.695  1.00 20.00     0.022 A 
HETATM    2  C2  UNL     1     -32.693   5.991   2.110  1.00 20.00     0.057 A 
HETATM    3  C3  UNL     1     -32.843   7.201   2.751  1.00 20.00    -0.046 A 
HETATM    4  C4  UNL     1     -34.535   5.952   3.740  1.00 20.00    -0.021 A 
HETATM    5  C10 UNL     1     -35.675   5.530   4.582  1.00 20.00     0.056 C 
HETATM    6  S11 UNL     1     -33.836   4.834   2.646  1.00 20.00    -0.106 SA
ENDROOT
BRANCH   3   7
HETATM    7  C8  UNL     1     -31.974   8.418   2.483  1.00 20.00     0.020 C 
HETATM    8  C5  UNL     1     -30.776   8.231   1.541  1.00 20.00     0.010 C 
HETATM    9  C6  UNL     1     -31.275   8.564   0.130  1.00 20.00     0.016 C 
HETATM   10  C9  UNL     1     -32.651   9.195   0.312  1.00 20.00     0.058 C 
HETATM   11  C7  UNL     1     -32.757   9.540   1.790  1.00 20.00     0.025 C 
HETATM   12 BR12 UNL     1     -32.867  10.775  -0.790  1.00 20.00    -0.091 Br
ENDBRANCH   3   7
TORSDOF 1
ENDMDL
MODEL 4
REMARK VINA RESULT:       4.6      3.117      4.957
REMARK  1 active torsions:
REMARK  status: ('A' for Active; 'I' for Inactive)
REMARK    1  A    between atoms: C3_3  and  C8_8 
ROOT
HETATM    1  C1  UNL     1     -33.464   7.232   2.953  1.00 20.00     0.022 A 
HETATM    2  C2  UNL     1     -32.444   5.542   1.727  1.00 20.00     0.057 A 
HETATM    3  C3  UNL     1     -32.428   6.883   2.040  1.00 20.00    -0.046 A 
HETATM    4  C4  UNL     1     -34.233   6.144   3.303  1.00 20.00    -0.021 A 
HETATM    5  C10 UNL     1     -35.394   6.093   4.218  1.00 20.00     0.056 C 
HETATM    6  S11 UNL     1     -33.704   4.709   2.532  1.00 20.00    -0.106 SA
ENDROOT
BRANCH   3   7
HETATM    7  C8  UNL     1     -31.424   7.875   1.477  1.00 20.00     0.020 C 
HETATM    8  C5  UNL     1     -31.379   8.037  -0.049  1.00 20.00     0.010 C 
HETATM    9  C6  UNL     1     -32.347   9.174  -0.396  1.00 20.00     0.016 C 
HETATM   10  C9  UNL     1     -32.720   9.825   0.932  1.00 20.00     0.058 C 
HETATM   11  C7  UNL     1     -31.709   9.307   1.945  1.00 20.00     0.025 C 
HETATM   12 BR12 UNL     1     -32.670  11.759   0.823  1.00 20.00    -0.091 Br
ENDBRANCH   3   7
TORSDOF 1
ENDMDL
MODEL 5
REMARK VINA RESULT:       4.6      1.451      1.907
REMARK  1 active torsions:
REMARK  status: ('A' for Active; 'I' for Inactive)
REMARK    1  A    between atoms: C3_3  and  C8_8 
ROOT
HETATM    1  C1  UNL     1     -31.834   8.242   0.562  1.00 20.00     0.022 A 
HETATM    2  C2  UNL     1     -32.847   9.867   1.880  1.00 20.00     0.057 A 
HETATM    3  C3  UNL     1     -32.289   8.608   1.862  1.00 20.00    -0.046 A 
HETATM    4  C4  UNL     1     -32.062   9.236  -0.364  1.00 20.00    -0.021 A 
HETATM    5  C10 UNL     1     -31.739   9.241  -1.807  1.00 20.00     0.056 C 
HETATM    6  S11 UNL     1     -32.822  10.603   0.334  1.00 20.00    -0.106 SA
ENDROOT
BRANCH   3   7
HETATM    7  C8  UNL     1     -32.172   7.713   3.084  1.00 20.00     0.020 C 
HETATM    8  C5  UNL     1     -32.613   8.304   4.431  1.00 20.00     0.010 C 
HETATM    9  C6  UNL     1     -34.095   7.948   4.599  1.00 20.00     0.016 C 
HETATM   10  C9  UNL     1     -34.409   6.939   3.500  1.00 20.00     0.058 C 
HETATM   11  C7  UNL     1     -33.062   6.470   2.971  1.00 20.00     0.025 C 
HETATM   12 BR12 UNL     1     -35.453   5.450   4.170  1.00 20.00    -0.091 Br
ENDBRANCH   3   7
TORSDOF 1
ENDMDL
MODEL 6
REMARK VINA RESULT:       5.8      3.412      5.546
REMARK  1 active torsions:
REMARK  status: ('A' for Active; 'I' for Inactive)
REMARK    1  A    between atoms: C3_3  and  C8_8 
ROOT
HETATM    1  C1  UNL     1     -33.324   4.678   5.239  1.00 20.00     0.022 A 
HETATM    2  C2  UNL     1     -33.773   3.327   3.402  1.00 20.00     0.057 A 
HETATM    3  C3  UNL     1     -33.866   4.598   3.924  1.00 20.00    -0.046 A 
HETATM    4  C4  UNL     1     -32.836   3.465   5.672  1.00 20.00    -0.021 A 
HETATM    5  C10 UNL     1     -32.200   3.137   6.966  1.00 20.00     0.056 C 
HETATM    6  S11 UNL     1     -33.032   2.236   4.495  1.00 20.00    -0.106 SA
ENDROOT
BRANCH   3   7
HETATM    7  C8  UNL     1     -34.478   5.776   3.186  1.00 20.00     0.020 C 
HETATM    8  C5  UNL     1     -34.689   7.071   3.984  1.00 20.00     0.010 C 
HETATM    9  C6  UNL     1     -33.420   7.910   3.797  1.00 20.00     0.016 C 
HETATM   10  C9  UNL     1     -32.625   7.225   2.691  1.00 20.00     0.058 C 
HETATM   11  C7  UNL     1     -33.590   6.252   2.030  1.00 20.00     0.025 C 
HETATM   12 BR12 UNL     1     -31.934   8.502   1.407  1.00 20.00    -0.091 Br
ENDBRANCH   3   7
TORSDOF 1
ENDMDL
