MODEL 1
REMARK VINA RESULT:       0.2      0.000      0.000
REMARK  1 active torsions:
REMARK  status: ('A' for Active; 'I' for Inactive)
REMARK    1  A    between atoms: C8_8  and  C11_11 
ROOT
HETATM    1  C1  UNL     1     -32.481   9.355   0.914  1.00 20.00     0.064 C 
HETATM    2  C2  UNL     1     -31.994   5.558   1.180  1.00 20.00     0.002 C 
HETATM    3  C3  UNL     1     -31.678   7.043   1.031  1.00 20.00     0.019 C 
HETATM    4  C4  UNL     1     -33.047   8.054   2.917  1.00 20.00     0.019 C 
HETATM    5  C5  UNL     1     -32.473   5.115   2.563  1.00 20.00     0.005 C 
HETATM    6  C6  UNL     1     -33.985   6.985   3.478  1.00 20.00     0.006 C 
HETATM    7  C7  UNL     1     -32.822   8.000   1.400  1.00 20.00     0.093 C 
HETATM    8  C8  UNL     1     -33.904   5.577   2.871  1.00 20.00    -0.011 C 
HETATM    9  N12 UNL     1     -32.213  10.417   0.532  1.00 20.00    -0.197 NA
ENDROOT
BRANCH   8  10
HETATM   10  C11 UNL     1     -34.590   4.584   3.817  1.00 20.00    -0.019 C 
HETATM   11  C9  UNL     1     -33.550   3.718   4.520  1.00 20.00     0.010 C 
HETATM   12  C10 UNL     1     -35.454   5.325   4.830  1.00 20.00     0.010 C 
ENDBRANCH   8  10
TORSDOF 1
ENDMDL
MODEL 2
REMARK VINA RESULT:       0.6      1.060      2.048
REMARK  1 active torsions:
REMARK  status: ('A' for Active; 'I' for Inactive)
REMARK    1  A    between atoms: C8_8  and  C11_11 
ROOT
HETATM    1  C1  UNL     1     -31.505   8.416   0.826  1.00 20.00     0.064 C 
HETATM    2  C2  UNL     1     -33.604   7.902   3.997  1.00 20.00     0.002 C 
HETATM    3  C3  UNL     1     -33.066   8.522   2.712  1.00 20.00     0.019 C 
HETATM    4  C4  UNL     1     -33.032   6.521   1.148  1.00 20.00     0.019 C 
HETATM    5  C5  UNL     1     -34.409   6.613   3.828  1.00 20.00     0.005 C 
HETATM    6  C6  UNL     1     -33.279   5.250   1.961  1.00 20.00     0.006 C 
HETATM    7  C7  UNL     1     -32.194   7.598   1.849  1.00 20.00     0.093 C 
HETATM    8  C8  UNL     1     -33.529   5.407   3.468  1.00 20.00    -0.011 C 
HETATM    9  N12 UNL     1     -30.965   9.058   0.025  1.00 20.00    -0.197 NA
ENDROOT
BRANCH   8  10
HETATM   10  C11 UNL     1     -34.153   4.115   4.009  1.00 20.00    -0.019 C 
HETATM   11  C9  UNL     1     -33.102   3.284   4.738  1.00 20.00     0.010 C 
HETATM   12  C10 UNL     1     -35.325   4.436   4.929  1.00 20.00     0.010 C 
ENDBRANCH   8  10
TORSDOF 1
ENDMDL
MODEL 3
REMARK VINA RESULT:       1.2      1.122      2.549
REMARK  1 active torsions:
REMARK  status: ('A' for Active; 'I' for Inactive)
REMARK    1  A    between atoms: C8_8  and  C11_11 
ROOT
HETATM    1  C1  UNL     1     -32.316   8.208   1.499  1.00 20.00     0.064 C 
HETATM    2  C2  UNL     1     -34.704   7.033   4.263  1.00 20.00     0.002 C 
HETATM    3  C3  UNL     1     -34.180   7.745   3.020  1.00 20.00     0.019 C 
HETATM    4  C4  UNL     1     -32.965   5.863   1.823  1.00 20.00     0.019 C 
HETATM    5  C5  UNL     1     -34.849   5.516   4.151  1.00 20.00     0.005 C 
HETATM    6  C6  UNL     1     -32.856   4.663   2.764  1.00 20.00     0.006 C 
HETATM    7  C7  UNL     1     -32.831   7.237   2.490  1.00 20.00     0.093 C 
HETATM    8  C8  UNL     1     -33.496   4.789   4.154  1.00 20.00    -0.011 C 
HETATM    9  N12 UNL     1     -31.913   8.969   0.722  1.00 20.00    -0.197 NA
ENDROOT
BRANCH   8  10
HETATM   10  C11 UNL     1     -33.647   3.391   4.765  1.00 20.00    -0.019 C 
HETATM   11  C9  UNL     1     -33.271   2.323   3.742  1.00 20.00     0.010 C 
HETATM   12  C10 UNL     1     -32.792   3.264   6.020  1.00 20.00     0.010 C 
ENDBRANCH   8  10
TORSDOF 1
ENDMDL
MODEL 4
REMARK VINA RESULT:       1.2      2.562      5.121
REMARK  1 active torsions:
REMARK  status: ('A' for Active; 'I' for Inactive)
REMARK    1  A    between atoms: C8_8  and  C11_11 
ROOT
HETATM    1  C1  UNL     1     -35.024   5.632   4.188  1.00 20.00     0.064 C 
HETATM    2  C2  UNL     1     -32.735   8.703   4.402  1.00 20.00     0.002 C 
HETATM    3  C3  UNL     1     -33.402   7.378   4.755  1.00 20.00     0.019 C 
HETATM    4  C4  UNL     1     -33.269   6.130   2.546  1.00 20.00     0.019 C 
HETATM    5  C5  UNL     1     -31.790   8.674   3.200  1.00 20.00     0.005 C 
HETATM    6  C6  UNL     1     -32.835   7.104   1.450  1.00 20.00     0.006 C 
HETATM    7  C7  UNL     1     -34.196   6.717   3.618  1.00 20.00     0.093 C 
HETATM    8  C8  UNL     1     -32.536   8.552   1.863  1.00 20.00    -0.011 C 
HETATM    9  N12 UNL     1     -35.674   4.781   4.636  1.00 20.00    -0.197 NA
ENDROOT
BRANCH   8  10
HETATM   10  C11 UNL     1     -31.738   9.236   0.747  1.00 20.00    -0.019 C 
HETATM   11  C9  UNL     1     -31.059   8.193  -0.136  1.00 20.00     0.010 C 
HETATM   12  C10 UNL     1     -32.647  10.137  -0.081  1.00 20.00     0.010 C 
ENDBRANCH   8  10
TORSDOF 1
ENDMDL
MODEL 5
REMARK VINA RESULT:       1.4      2.517      5.271
REMARK  1 active torsions:
REMARK  status: ('A' for Active; 'I' for Inactive)
REMARK    1  A    between atoms: C8_8  and  C11_11 
ROOT
HETATM    1  C1  UNL     1     -33.983   4.538   3.771  1.00 20.00     0.064 C 
HETATM    2  C2  UNL     1     -33.636   8.359   3.739  1.00 20.00     0.002 C 
HETATM    3  C3  UNL     1     -33.600   6.914   4.227  1.00 20.00     0.019 C 
HETATM    4  C4  UNL     1     -32.438   5.746   2.294  1.00 20.00     0.019 C 
HETATM    5  C5  UNL     1     -32.594   8.731   2.683  1.00 20.00     0.005 C 
HETATM    6  C6  UNL     1     -32.351   6.709   1.110  1.00 20.00     0.006 C 
HETATM    7  C7  UNL     1     -33.721   5.845   3.130  1.00 20.00     0.093 C 
HETATM    8  C8  UNL     1     -32.905   8.128   1.306  1.00 20.00    -0.011 C 
HETATM    9  N12 UNL     1     -34.189   3.513   4.273  1.00 20.00    -0.197 NA
ENDROOT
BRANCH   8  10
HETATM   10  C11 UNL     1     -32.361   9.035   0.195  1.00 20.00    -0.019 C 
HETATM   11  C9  UNL     1     -32.690  10.494   0.494  1.00 20.00     0.010 C 
HETATM   12  C10 UNL     1     -30.857   8.839   0.039  1.00 20.00     0.010 C 
ENDBRANCH   8  10
TORSDOF 1
ENDMDL
MODEL 6
REMARK VINA RESULT:       1.6      2.500      5.210
REMARK  1 active torsions:
REMARK  status: ('A' for Active; 'I' for Inactive)
REMARK    1  A    between atoms: C8_8  and  C11_11 
ROOT
HETATM    1  C1  UNL     1     -34.002   4.601   3.640  1.00 20.00     0.064 C 
HETATM    2  C2  UNL     1     -33.621   8.408   3.937  1.00 20.00     0.002 C 
HETATM    3  C3  UNL     1     -33.624   6.928   4.307  1.00 20.00     0.019 C 
HETATM    4  C4  UNL     1     -32.369   5.904   2.351  1.00 20.00     0.019 C 
HETATM    5  C5  UNL     1     -32.520   8.850   2.973  1.00 20.00     0.005 C 
HETATM    6  C6  UNL     1     -32.209   6.959   1.256  1.00 20.00     0.006 C 
HETATM    7  C7  UNL     1     -33.694   5.953   3.122  1.00 20.00     0.093 C 
HETATM    8  C8  UNL     1     -32.761   8.364   1.536  1.00 20.00    -0.011 C 
HETATM    9  N12 UNL     1     -34.244   3.542   4.046  1.00 20.00    -0.197 NA
ENDROOT
BRANCH   8  10
HETATM   10  C11 UNL     1     -32.149   9.351   0.533  1.00 20.00    -0.019 C 
HETATM   11  C9  UNL     1     -32.405   8.881  -0.895  1.00 20.00     0.010 C 
HETATM   12  C10 UNL     1     -32.714  10.749   0.754  1.00 20.00     0.010 C 
ENDBRANCH   8  10
TORSDOF 1
ENDMDL
MODEL 7
REMARK VINA RESULT:       2.3      2.487      4.804
REMARK  1 active torsions:
REMARK  status: ('A' for Active; 'I' for Inactive)
REMARK    1  A    between atoms: C8_8  and  C11_11 
ROOT
HETATM    1  C1  UNL     1     -34.705   5.135   4.309  1.00 20.00     0.064 C 
HETATM    2  C2  UNL     1     -32.260   5.441   1.368  1.00 20.00     0.002 C 
HETATM    3  C3  UNL     1     -33.423   4.958   2.229  1.00 20.00     0.019 C 
HETATM    4  C4  UNL     1     -34.490   7.154   2.930  1.00 20.00     0.019 C 
HETATM    5  C5  UNL     1     -32.408   6.841   0.773  1.00 20.00     0.005 C 
HETATM    6  C6  UNL     1     -33.557   8.304   2.550  1.00 20.00     0.006 C 
HETATM    7  C7  UNL     1     -33.794   5.872   3.406  1.00 20.00     0.093 C 
HETATM    8  C8  UNL     1     -32.252   7.950   1.823  1.00 20.00    -0.011 C 
HETATM    9  N12 UNL     1     -35.418   4.555   5.017  1.00 20.00    -0.197 NA
ENDROOT
BRANCH   8  10
HETATM   10  C11 UNL     1     -31.681   9.218   1.175  1.00 20.00    -0.019 C 
HETATM   11  C9  UNL     1     -30.958   8.870  -0.122  1.00 20.00     0.010 C 
HETATM   12  C10 UNL     1     -32.792  10.231   0.921  1.00 20.00     0.010 C 
ENDBRANCH   8  10
TORSDOF 1
ENDMDL
