MODEL 1
REMARK VINA RESULT:      -1.6      0.000      0.000
REMARK  4 active torsions:
REMARK  status: ('A' for Active; 'I' for Inactive)
REMARK    1  A    between atoms: C2_2  and  C8_8 
REMARK    2  A    between atoms: C8_8  and  C11_11 
REMARK    3  A    between atoms: C9_9  and  C10_10 
REMARK    4  A    between atoms: C10_10  and  C11_11 
ROOT
HETATM    1  C1  UNL     1     -33.550   5.302   2.962  1.00 20.00    -0.004 C 
HETATM    2  C2  UNL     1     -33.679   6.586   3.317  1.00 20.00    -0.082 C 
HETATM    3  C3  UNL     1     -34.687   6.756   4.411  1.00 20.00     0.036 C 
HETATM    4  C4  UNL     1     -35.415   5.409   4.402  1.00 20.00     0.028 C 
HETATM    5  C5  UNL     1     -34.447   4.412   3.758  1.00 20.00     0.105 C 
HETATM    6 CL12 UNL     1     -33.495   3.541   4.981  1.00 20.00    -0.121 Cl
ENDROOT
BRANCH   2   7
HETATM    7  C8  UNL     1     -32.931   7.746   2.769  1.00 20.00     0.038 C 
BRANCH   7   8
HETATM    8  C11 UNL     1     -32.398   7.553   1.336  1.00 20.00    -0.015 C 
HETATM    9  C7  UNL     1     -31.569   6.268   1.219  1.00 20.00     0.010 C 
BRANCH   8  10
HETATM   10  C10 UNL     1     -31.581   8.749   0.802  1.00 20.00     0.004 C 
BRANCH  10  11
HETATM   11  C9  UNL     1     -32.372   9.657  -0.143  1.00 20.00    -0.004 C 
HETATM   12  C6  UNL     1     -32.842  10.919   0.565  1.00 20.00     0.005 C 
ENDBRANCH  10  11
ENDBRANCH   8  10
ENDBRANCH   7   8
ENDBRANCH   2   7
TORSDOF 4
ENDMDL
MODEL 2
REMARK VINA RESULT:      -1.6      0.825      1.059
REMARK  4 active torsions:
REMARK  status: ('A' for Active; 'I' for Inactive)
REMARK    1  A    between atoms: C2_2  and  C8_8 
REMARK    2  A    between atoms: C8_8  and  C11_11 
REMARK    3  A    between atoms: C9_9  and  C10_10 
REMARK    4  A    between atoms: C10_10  and  C11_11 
ROOT
HETATM    1  C1  UNL     1     -33.529   5.316   2.940  1.00 20.00    -0.004 C 
HETATM    2  C2  UNL     1     -33.920   6.533   3.339  1.00 20.00    -0.082 C 
HETATM    3  C3  UNL     1     -34.924   6.451   4.447  1.00 20.00     0.036 C 
HETATM    4  C4  UNL     1     -35.351   4.982   4.399  1.00 20.00     0.028 C 
HETATM    5  C5  UNL     1     -34.205   4.233   3.714  1.00 20.00     0.105 C 
HETATM    6 CL12 UNL     1     -33.071   3.546   4.898  1.00 20.00    -0.121 Cl
ENDROOT
BRANCH   2   7
HETATM    7  C8  UNL     1     -33.443   7.841   2.824  1.00 20.00     0.038 C 
BRANCH   7   8
HETATM    8  C11 UNL     1     -32.058   7.803   2.147  1.00 20.00    -0.015 C 
HETATM    9  C7  UNL     1     -30.997   8.495   3.012  1.00 20.00     0.010 C 
BRANCH   8  10
HETATM   10  C10 UNL     1     -32.037   8.397   0.724  1.00 20.00     0.004 C 
BRANCH  10  11
HETATM   11  C9  UNL     1     -32.464   9.865   0.666  1.00 20.00    -0.004 C 
HETATM   12  C6  UNL     1     -32.837  10.281  -0.749  1.00 20.00     0.005 C 
ENDBRANCH  10  11
ENDBRANCH   8  10
ENDBRANCH   7   8
ENDBRANCH   2   7
TORSDOF 4
ENDMDL
MODEL 3
REMARK VINA RESULT:      -1.5      2.620      5.489
REMARK  4 active torsions:
REMARK  status: ('A' for Active; 'I' for Inactive)
REMARK    1  A    between atoms: C2_2  and  C8_8 
REMARK    2  A    between atoms: C8_8  and  C11_11 
REMARK    3  A    between atoms: C9_9  and  C10_10 
REMARK    4  A    between atoms: C10_10  and  C11_11 
ROOT
HETATM    1  C1  UNL     1     -33.029   7.517   1.691  1.00 20.00    -0.004 C 
HETATM    2  C2  UNL     1     -33.104   7.714   3.013  1.00 20.00    -0.082 C 
HETATM    3  C3  UNL     1     -31.979   8.570   3.506  1.00 20.00     0.036 C 
HETATM    4  C4  UNL     1     -31.006   8.550   2.324  1.00 20.00     0.028 C 
HETATM    5  C5  UNL     1     -31.847   8.206   1.092  1.00 20.00     0.105 C 
HETATM    6 CL12 UNL     1     -32.379   9.668   0.233  1.00 20.00    -0.121 Cl
ENDROOT
BRANCH   2   7
HETATM    7  C8  UNL     1     -34.154   7.212   3.935  1.00 20.00     0.038 C 
BRANCH   7   8
HETATM    8  C11 UNL     1     -34.626   5.772   3.654  1.00 20.00    -0.015 C 
HETATM    9  C7  UNL     1     -35.658   5.312   4.691  1.00 20.00     0.010 C 
BRANCH   8  10
HETATM   10  C10 UNL     1     -33.482   4.740   3.567  1.00 20.00     0.004 C 
BRANCH  10  11
HETATM   11  C9  UNL     1     -33.799   3.414   4.263  1.00 20.00    -0.004 C 
HETATM   12  C6  UNL     1     -32.658   2.977   5.169  1.00 20.00     0.005 C 
ENDBRANCH  10  11
ENDBRANCH   8  10
ENDBRANCH   7   8
ENDBRANCH   2   7
TORSDOF 4
ENDMDL
MODEL 4
REMARK VINA RESULT:      -1.3      2.764      5.751
REMARK  4 active torsions:
REMARK  status: ('A' for Active; 'I' for Inactive)
REMARK    1  A    between atoms: C2_2  and  C8_8 
REMARK    2  A    between atoms: C8_8  and  C11_11 
REMARK    3  A    between atoms: C9_9  and  C10_10 
REMARK    4  A    between atoms: C10_10  and  C11_11 
ROOT
HETATM    1  C1  UNL     1     -33.343   8.776   1.306  1.00 20.00    -0.004 C 
HETATM    2  C2  UNL     1     -32.637   8.085   2.210  1.00 20.00    -0.082 C 
HETATM    3  C3  UNL     1     -31.177   8.076   1.878  1.00 20.00     0.036 C 
HETATM    4  C4  UNL     1     -31.165   8.562   0.426  1.00 20.00     0.028 C 
HETATM    5  C5  UNL     1     -32.471   9.336   0.230  1.00 20.00     0.105 C 
HETATM    6 CL12 UNL     1     -32.245  11.080   0.492  1.00 20.00    -0.121 Cl
ENDROOT
BRANCH   2   7
HETATM    7  C8  UNL     1     -33.156   7.415   3.429  1.00 20.00     0.038 C 
BRANCH   7   8
HETATM    8  C11 UNL     1     -34.131   6.251   3.162  1.00 20.00    -0.015 C 
HETATM    9  C7  UNL     1     -35.350   6.321   4.090  1.00 20.00     0.010 C 
BRANCH   8  10
HETATM   10  C10 UNL     1     -33.484   4.853   3.258  1.00 20.00     0.004 C 
BRANCH  10  11
HETATM   11  C9  UNL     1     -34.055   3.991   4.385  1.00 20.00    -0.004 C 
HETATM   12  C6  UNL     1     -33.104   2.862   4.758  1.00 20.00     0.005 C 
ENDBRANCH  10  11
ENDBRANCH   8  10
ENDBRANCH   7   8
ENDBRANCH   2   7
TORSDOF 4
ENDMDL
MODEL 5
REMARK VINA RESULT:      -1.2      2.576      5.523
REMARK  4 active torsions:
REMARK  status: ('A' for Active; 'I' for Inactive)
REMARK    1  A    between atoms: C2_2  and  C8_8 
REMARK    2  A    between atoms: C8_8  and  C11_11 
REMARK    3  A    between atoms: C9_9  and  C10_10 
REMARK    4  A    between atoms: C10_10  and  C11_11 
ROOT
HETATM    1  C1  UNL     1     -32.238   7.403   0.880  1.00 20.00    -0.004 C 
HETATM    2  C2  UNL     1     -32.668   6.970   2.072  1.00 20.00    -0.082 C 
HETATM    3  C3  UNL     1     -32.348   7.946   3.160  1.00 20.00     0.036 C 
HETATM    4  C4  UNL     1     -31.326   8.867   2.488  1.00 20.00     0.028 C 
HETATM    5  C5  UNL     1     -31.564   8.731   0.982  1.00 20.00     0.105 C 
HETATM    6 CL12 UNL     1     -32.649  10.001   0.373  1.00 20.00    -0.121 Cl
ENDROOT
BRANCH   2   7
HETATM    7  C8  UNL     1     -33.406   5.712   2.354  1.00 20.00     0.038 C 
BRANCH   7   8
HETATM    8  C11 UNL     1     -34.548   5.849   3.381  1.00 20.00    -0.015 C 
HETATM    9  C7  UNL     1     -34.494   7.205   4.095  1.00 20.00     0.010 C 
BRANCH   8  10
HETATM   10  C10 UNL     1     -34.595   4.714   4.424  1.00 20.00     0.004 C 
BRANCH  10  11
HETATM   11  C9  UNL     1     -33.740   3.501   4.050  1.00 20.00    -0.004 C 
HETATM   12  C6  UNL     1     -32.896   3.032   5.226  1.00 20.00     0.005 C 
ENDBRANCH  10  11
ENDBRANCH   8  10
ENDBRANCH   7   8
ENDBRANCH   2   7
TORSDOF 4
ENDMDL
MODEL 6
REMARK VINA RESULT:      -0.6      2.841      5.731
REMARK  4 active torsions:
REMARK  status: ('A' for Active; 'I' for Inactive)
REMARK    1  A    between atoms: C2_2  and  C8_8 
REMARK    2  A    between atoms: C8_8  and  C11_11 
REMARK    3  A    between atoms: C9_9  and  C10_10 
REMARK    4  A    between atoms: C10_10  and  C11_11 
ROOT
HETATM    1  C1  UNL     1     -33.249   9.309   1.409  1.00 20.00    -0.004 C 
HETATM    2  C2  UNL     1     -32.437   8.287   1.705  1.00 20.00    -0.082 C 
HETATM    3  C3  UNL     1     -31.247   8.249   0.797  1.00 20.00     0.036 C 
HETATM    4  C4  UNL     1     -31.663   9.196  -0.332  1.00 20.00     0.028 C 
HETATM    5  C5  UNL     1     -32.735  10.114   0.262  1.00 20.00     0.105 C 
HETATM    6 CL12 UNL     1     -32.035  11.634   0.863  1.00 20.00    -0.121 Cl
ENDROOT
BRANCH   2   7
HETATM    7  C8  UNL     1     -32.607   7.296   2.798  1.00 20.00     0.038 C 
BRANCH   7   8
HETATM    8  C11 UNL     1     -33.906   7.448   3.613  1.00 20.00    -0.015 C 
HETATM    9  C7  UNL     1     -33.633   8.084   4.982  1.00 20.00     0.010 C 
BRANCH   8  10
HETATM   10  C10 UNL     1     -34.690   6.132   3.799  1.00 20.00     0.004 C 
BRANCH  10  11
HETATM   11  C9  UNL     1     -33.930   4.894   3.320  1.00 20.00    -0.004 C 
HETATM   12  C6  UNL     1     -33.888   3.818   4.395  1.00 20.00     0.005 C 
ENDBRANCH  10  11
ENDBRANCH   8  10
ENDBRANCH   7   8
ENDBRANCH   2   7
TORSDOF 4
ENDMDL
MODEL 7
REMARK VINA RESULT:      -0.5      1.639      2.146
REMARK  4 active torsions:
REMARK  status: ('A' for Active; 'I' for Inactive)
REMARK    1  A    between atoms: C2_2  and  C8_8 
REMARK    2  A    between atoms: C8_8  and  C11_11 
REMARK    3  A    between atoms: C9_9  and  C10_10 
REMARK    4  A    between atoms: C10_10  and  C11_11 
ROOT
HETATM    1  C1  UNL     1     -34.122   7.071   3.140  1.00 20.00    -0.004 C 
HETATM    2  C2  UNL     1     -33.365   6.063   2.688  1.00 20.00    -0.082 C 
HETATM    3  C3  UNL     1     -33.859   4.739   3.182  1.00 20.00     0.036 C 
HETATM    4  C4  UNL     1     -34.816   5.142   4.307  1.00 20.00     0.028 C 
HETATM    5  C5  UNL     1     -35.238   6.583   4.005  1.00 20.00     0.105 C 
HETATM    6 CL12 UNL     1     -36.766   6.642   3.100  1.00 20.00    -0.121 Cl
ENDROOT
BRANCH   2   7
HETATM    7  C8  UNL     1     -32.192   6.161   1.782  1.00 20.00     0.038 C 
BRANCH   7   8
HETATM    8  C11 UNL     1     -31.537   7.556   1.721  1.00 20.00    -0.015 C 
HETATM    9  C7  UNL     1     -31.850   8.373   2.980  1.00 20.00     0.010 C 
BRANCH   8  10
HETATM   10  C10 UNL     1     -31.910   8.371   0.466  1.00 20.00     0.004 C 
BRANCH  10  11
HETATM   11  C9  UNL     1     -32.442   9.771   0.781  1.00 20.00    -0.004 C 
HETATM   12  C6  UNL     1     -32.914  10.482  -0.479  1.00 20.00     0.005 C 
ENDBRANCH  10  11
ENDBRANCH   8  10
ENDBRANCH   7   8
ENDBRANCH   2   7
TORSDOF 4
ENDMDL
MODEL 8
REMARK VINA RESULT:      -0.3      2.564      4.886
REMARK  4 active torsions:
REMARK  status: ('A' for Active; 'I' for Inactive)
REMARK    1  A    between atoms: C2_2  and  C8_8 
REMARK    2  A    between atoms: C8_8  and  C11_11 
REMARK    3  A    between atoms: C9_9  and  C10_10 
REMARK    4  A    between atoms: C10_10  and  C11_11 
ROOT
HETATM    1  C1  UNL     1     -32.945   7.763   0.360  1.00 20.00    -0.004 C 
HETATM    2  C2  UNL     1     -32.622   7.011   1.420  1.00 20.00    -0.082 C 
HETATM    3  C3  UNL     1     -31.508   7.623   2.210  1.00 20.00     0.036 C 
HETATM    4  C4  UNL     1     -30.961   8.680   1.246  1.00 20.00     0.028 C 
HETATM    5  C5  UNL     1     -32.101   8.992   0.273  1.00 20.00     0.105 C 
HETATM    6 CL12 UNL     1     -33.044  10.403   0.799  1.00 20.00    -0.121 Cl
ENDROOT
BRANCH   2   7
HETATM    7  C8  UNL     1     -33.262   5.740   1.844  1.00 20.00     0.038 C 
BRANCH   7   8
HETATM    8  C11 UNL     1     -33.617   5.663   3.342  1.00 20.00    -0.015 C 
HETATM    9  C7  UNL     1     -33.821   4.211   3.792  1.00 20.00     0.010 C 
BRANCH   8  10
HETATM   10  C10 UNL     1     -34.844   6.509   3.743  1.00 20.00     0.004 C 
BRANCH  10  11
HETATM   11  C9  UNL     1     -34.500   7.957   4.097  1.00 20.00    -0.004 C 
HETATM   12  C6  UNL     1     -33.350   8.028   5.092  1.00 20.00     0.005 C 
ENDBRANCH  10  11
ENDBRANCH   8  10
ENDBRANCH   7   8
ENDBRANCH   2   7
TORSDOF 4
ENDMDL
MODEL 9
REMARK VINA RESULT:      -0.2      2.893      5.357
REMARK  4 active torsions:
REMARK  status: ('A' for Active; 'I' for Inactive)
REMARK    1  A    between atoms: C2_2  and  C8_8 
REMARK    2  A    between atoms: C8_8  and  C11_11 
REMARK    3  A    between atoms: C9_9  and  C10_10 
REMARK    4  A    between atoms: C10_10  and  C11_11 
ROOT
HETATM    1  C1  UNL     1     -32.779   9.424   1.745  1.00 20.00    -0.004 C 
HETATM    2  C2  UNL     1     -31.985   8.480   1.223  1.00 20.00    -0.082 C 
HETATM    3  C3  UNL     1     -31.601   8.803  -0.187  1.00 20.00     0.036 C 
HETATM    4  C4  UNL     1     -32.594   9.909  -0.556  1.00 20.00     0.028 C 
HETATM    5  C5  UNL     1     -33.051  10.522   0.771  1.00 20.00     0.105 C 
HETATM    6 CL12 UNL     1     -32.088  11.953   1.197  1.00 20.00    -0.121 Cl
ENDROOT
BRANCH   2   7
HETATM    7  C8  UNL     1     -31.479   7.261   1.903  1.00 20.00     0.038 C 
BRANCH   7   8
HETATM    8  C11 UNL     1     -32.492   6.102   1.992  1.00 20.00    -0.015 C 
HETATM    9  C7  UNL     1     -32.453   5.230   0.732  1.00 20.00     0.010 C 
BRANCH   8  10
HETATM   10  C10 UNL     1     -33.942   6.554   2.267  1.00 20.00     0.004 C 
BRANCH  10  11
HETATM   11  C9  UNL     1     -34.234   6.808   3.747  1.00 20.00    -0.004 C 
HETATM   12  C6  UNL     1     -35.396   5.957   4.238  1.00 20.00     0.005 C 
ENDBRANCH  10  11
ENDBRANCH   8  10
ENDBRANCH   7   8
ENDBRANCH   2   7
TORSDOF 4
ENDMDL
