MODEL 1
REMARK VINA RESULT:      -3.0      0.000      0.000
REMARK  1 active torsions:
REMARK  status: ('A' for Active; 'I' for Inactive)
REMARK    1  A    between atoms: C4_4  and  C8_8 
ROOT
HETATM    1  C1  UNL     1     -33.845   3.538   4.437  1.00 20.00     0.012 C 
HETATM    2  C2  UNL     1     -34.168   4.640   4.088  1.00 20.00    -0.113 C 
HETATM    3  C8  UNL     1     -34.569   5.986   3.664  1.00 20.00     0.126 C 
ENDROOT
BRANCH   3   4
HETATM    4  C4  UNL     1     -33.506   6.599   2.829  1.00 20.00    -0.071 C 
HETATM    5  C3  UNL     1     -32.938   7.800   2.999  1.00 20.00    -0.003 C 
HETATM    6  C7  UNL     1     -31.929   8.092   1.938  1.00 20.00     0.105 C 
HETATM    7  C6  UNL     1     -31.708   6.716   1.304  1.00 20.00     0.028 C 
HETATM    8 CL9  UNL     1     -32.604   9.252   0.773  1.00 20.00    -0.121 Cl
HETATM    9  C5  UNL     1     -32.962   5.899   1.623  1.00 20.00     0.036 C 
ENDBRANCH   3   4
TORSDOF 1
ENDMDL
MODEL 2
REMARK VINA RESULT:      -2.5      0.996      1.169
REMARK  1 active torsions:
REMARK  status: ('A' for Active; 'I' for Inactive)
REMARK    1  A    between atoms: C4_4  and  C8_8 
ROOT
HETATM    1  C1  UNL     1     -35.335   4.998   4.442  1.00 20.00     0.012 C 
HETATM    2  C2  UNL     1     -34.897   6.105   4.286  1.00 20.00    -0.113 C 
HETATM    3  C8  UNL     1     -34.367   7.459   4.098  1.00 20.00     0.126 C 
ENDROOT
BRANCH   3   4
HETATM    4  C4  UNL     1     -33.354   7.468   3.013  1.00 20.00    -0.071 C 
HETATM    5  C3  UNL     1     -32.408   8.391   2.799  1.00 20.00    -0.003 C 
HETATM    6  C7  UNL     1     -31.594   8.082   1.587  1.00 20.00     0.105 C 
HETATM    7  C6  UNL     1     -31.959   6.622   1.307  1.00 20.00     0.028 C 
HETATM    8 CL9  UNL     1     -32.080   9.148   0.250  1.00 20.00    -0.121 Cl
HETATM    9  C5  UNL     1     -33.318   6.392   1.972  1.00 20.00     0.036 C 
ENDBRANCH   3   4
TORSDOF 1
ENDMDL
MODEL 3
REMARK VINA RESULT:      -2.2      2.126      4.479
REMARK  1 active torsions:
REMARK  status: ('A' for Active; 'I' for Inactive)
REMARK    1  A    between atoms: C4_4  and  C8_8 
ROOT
HETATM    1  C1  UNL     1     -32.525  10.088   0.281  1.00 20.00     0.012 C 
HETATM    2  C2  UNL     1     -32.220   9.054   0.808  1.00 20.00    -0.113 C 
HETATM    3  C8  UNL     1     -31.842   7.790   1.449  1.00 20.00     0.126 C 
ENDROOT
BRANCH   3   4
HETATM    4  C4  UNL     1     -32.822   7.438   2.507  1.00 20.00    -0.071 C 
HETATM    5  C3  UNL     1     -33.516   6.298   2.618  1.00 20.00    -0.003 C 
HETATM    6  C7  UNL     1     -34.435   6.319   3.794  1.00 20.00     0.105 C 
HETATM    7  C6  UNL     1     -33.917   7.515   4.597  1.00 20.00     0.028 C 
HETATM    8 CL9  UNL     1     -36.106   6.570   3.243  1.00 20.00    -0.121 Cl
HETATM    9  C5  UNL     1     -33.172   8.403   3.597  1.00 20.00     0.036 C 
ENDBRANCH   3   4
TORSDOF 1
ENDMDL
MODEL 4
REMARK VINA RESULT:      -1.7      1.289      2.009
REMARK  1 active torsions:
REMARK  status: ('A' for Active; 'I' for Inactive)
REMARK    1  A    between atoms: C4_4  and  C8_8 
ROOT
HETATM    1  C1  UNL     1     -33.120   2.939   4.618  1.00 20.00     0.012 C 
HETATM    2  C2  UNL     1     -33.892   3.843   4.452  1.00 20.00    -0.113 C 
HETATM    3  C8  UNL     1     -34.839   4.945   4.251  1.00 20.00     0.126 C 
ENDROOT
BRANCH   3   4
HETATM    4  C4  UNL     1     -34.188   6.052   3.505  1.00 20.00    -0.071 C 
HETATM    5  C3  UNL     1     -33.676   6.001   2.270  1.00 20.00    -0.003 C 
HETATM    6  C7  UNL     1     -33.070   7.304   1.865  1.00 20.00     0.105 C 
HETATM    7  C6  UNL     1     -33.626   8.267   2.917  1.00 20.00     0.028 C 
HETATM    8 CL9  UNL     1     -31.298   7.191   1.948  1.00 20.00    -0.121 Cl
HETATM    9  C5  UNL     1     -34.004   7.403   4.122  1.00 20.00     0.036 C 
ENDBRANCH   3   4
TORSDOF 1
ENDMDL
MODEL 5
REMARK VINA RESULT:      -1.4      2.322      4.352
REMARK  1 active torsions:
REMARK  status: ('A' for Active; 'I' for Inactive)
REMARK    1  A    between atoms: C4_4  and  C8_8 
ROOT
HETATM    1  C1  UNL     1     -32.487   9.936  -0.063  1.00 20.00     0.012 C 
HETATM    2  C2  UNL     1     -32.141   9.274   0.876  1.00 20.00    -0.113 C 
HETATM    3  C8  UNL     1     -31.715   8.468   2.025  1.00 20.00     0.126 C 
ENDROOT
BRANCH   3   4
HETATM    4  C4  UNL     1     -32.470   7.190   2.065  1.00 20.00    -0.071 C 
HETATM    5  C3  UNL     1     -33.535   6.906   2.824  1.00 20.00    -0.003 C 
HETATM    6  C7  UNL     1     -34.005   5.504   2.619  1.00 20.00     0.105 C 
HETATM    7  C6  UNL     1     -33.277   5.095   1.336  1.00 20.00     0.028 C 
HETATM    8 CL9  UNL     1     -33.514   4.500   4.001  1.00 20.00    -0.121 Cl
HETATM    9  C5  UNL     1     -32.060   6.017   1.231  1.00 20.00     0.036 C 
ENDBRANCH   3   4
TORSDOF 1
ENDMDL
MODEL 6
REMARK VINA RESULT:      -1.3      2.201      4.387
REMARK  1 active torsions:
REMARK  status: ('A' for Active; 'I' for Inactive)
REMARK    1  A    between atoms: C4_4  and  C8_8 
ROOT
HETATM    1  C1  UNL     1     -32.500  10.271  -0.108  1.00 20.00     0.012 C 
HETATM    2  C2  UNL     1     -32.180   9.218   0.371  1.00 20.00    -0.113 C 
HETATM    3  C8  UNL     1     -31.786   7.931   0.953  1.00 20.00     0.126 C 
ENDROOT
BRANCH   3   4
HETATM    4  C4  UNL     1     -32.684   7.582   2.083  1.00 20.00    -0.071 C 
HETATM    5  C3  UNL     1     -33.325   8.430   2.897  1.00 20.00    -0.003 C 
HETATM    6  C7  UNL     1     -34.110   7.710   3.942  1.00 20.00     0.105 C 
HETATM    7  C6  UNL     1     -34.140   6.277   3.405  1.00 20.00     0.028 C 
HETATM    8 CL9  UNL     1     -33.264   7.810   5.502  1.00 20.00    -0.121 Cl
HETATM    9  C5  UNL     1     -32.942   6.156   2.460  1.00 20.00     0.036 C 
ENDBRANCH   3   4
TORSDOF 1
ENDMDL
MODEL 7
REMARK VINA RESULT:      -1.2      2.058      4.432
REMARK  1 active torsions:
REMARK  status: ('A' for Active; 'I' for Inactive)
REMARK    1  A    between atoms: C4_4  and  C8_8 
ROOT
HETATM    1  C1  UNL     1     -32.722  10.187  -0.430  1.00 20.00     0.012 C 
HETATM    2  C2  UNL     1     -32.357   9.684   0.597  1.00 20.00    -0.113 C 
HETATM    3  C8  UNL     1     -31.908   9.074   1.853  1.00 20.00     0.126 C 
ENDROOT
BRANCH   3   4
HETATM    4  C4  UNL     1     -32.400   7.677   1.950  1.00 20.00    -0.071 C 
HETATM    5  C3  UNL     1     -31.922   6.606   1.303  1.00 20.00    -0.003 C 
HETATM    6  C7  UNL     1     -32.697   5.371   1.626  1.00 20.00     0.105 C 
HETATM    7  C6  UNL     1     -33.494   5.794   2.862  1.00 20.00     0.028 C 
HETATM    8 CL9  UNL     1     -33.763   4.960   0.265  1.00 20.00    -0.121 Cl
HETATM    9  C5  UNL     1     -33.573   7.322   2.810  1.00 20.00     0.036 C 
ENDBRANCH   3   4
TORSDOF 1
ENDMDL
MODEL 8
REMARK VINA RESULT:      -1.2      1.848      2.264
REMARK  1 active torsions:
REMARK  status: ('A' for Active; 'I' for Inactive)
REMARK    1  A    between atoms: C4_4  and  C8_8 
ROOT
HETATM    1  C1  UNL     1     -35.513   5.085   4.620  1.00 20.00     0.012 C 
HETATM    2  C2  UNL     1     -34.999   6.129   4.324  1.00 20.00    -0.113 C 
HETATM    3  C8  UNL     1     -34.375   7.407   3.968  1.00 20.00     0.126 C 
ENDROOT
BRANCH   3   4
HETATM    4  C4  UNL     1     -33.399   7.212   2.866  1.00 20.00    -0.071 C 
HETATM    5  C3  UNL     1     -33.455   6.297   1.890  1.00 20.00    -0.003 C 
HETATM    6  C7  UNL     1     -32.274   6.381   0.982  1.00 20.00     0.105 C 
HETATM    7  C6  UNL     1     -31.672   7.740   1.346  1.00 20.00     0.028 C 
HETATM    8 CL9  UNL     1     -31.151   5.049   1.335  1.00 20.00    -0.121 Cl
HETATM    9  C5  UNL     1     -32.166   8.054   2.760  1.00 20.00     0.036 C 
ENDBRANCH   3   4
TORSDOF 1
ENDMDL
MODEL 9
REMARK VINA RESULT:      -0.9      2.068      2.991
REMARK  1 active torsions:
REMARK  status: ('A' for Active; 'I' for Inactive)
REMARK    1  A    between atoms: C4_4  and  C8_8 
ROOT
HETATM    1  C1  UNL     1     -32.591   2.852   5.979  1.00 20.00     0.012 C 
HETATM    2  C2  UNL     1     -33.109   3.167   4.943  1.00 20.00    -0.113 C 
HETATM    3  C8  UNL     1     -33.741   3.547   3.676  1.00 20.00     0.126 C 
ENDROOT
BRANCH   3   4
HETATM    4  C4  UNL     1     -34.094   4.988   3.690  1.00 20.00    -0.071 C 
HETATM    5  C3  UNL     1     -33.367   6.003   3.205  1.00 20.00    -0.003 C 
HETATM    6  C7  UNL     1     -34.030   7.320   3.432  1.00 20.00     0.105 C 
HETATM    7  C6  UNL     1     -35.457   6.912   3.807  1.00 20.00     0.028 C 
HETATM    8 CL9  UNL     1     -33.221   8.176   4.763  1.00 20.00    -0.121 Cl
HETATM    9  C5  UNL     1     -35.363   5.473   4.319  1.00 20.00     0.036 C 
ENDBRANCH   3   4
TORSDOF 1
ENDMDL
