MODEL 1
REMARK VINA RESULT:      -3.4      0.000      0.000
REMARK  2 active torsions:
REMARK  status: ('A' for Active; 'I' for Inactive)
REMARK    1  A    between atoms: C4_4  and  C10_10 
REMARK    2  A    between atoms: C9_9  and  C10_10 
ROOT
HETATM    1  C1  UNL     1     -32.555   9.896  -0.077  1.00 20.00     0.012 C 
HETATM    2  C2  UNL     1     -32.335   9.185   0.866  1.00 20.00    -0.117 C 
HETATM    3  C9  UNL     1     -32.064   8.317   2.022  1.00 20.00     0.097 C 
ENDROOT
BRANCH   3   4
HETATM    4  C10 UNL     1     -32.209   6.842   1.674  1.00 20.00     0.046 C 
BRANCH   4   5
HETATM    5  C4  UNL     1     -33.157   6.175   2.598  1.00 20.00    -0.081 C 
HETATM    6  C3  UNL     1     -33.170   4.845   2.816  1.00 20.00    -0.004 C 
HETATM    7  C8  UNL     1     -34.124   4.156   3.748  1.00 20.00     0.105 C 
HETATM    8  C7  UNL     1     -34.869   5.119   4.676  1.00 20.00     0.024 C 
HETATM    9 CL11 UNL     1     -33.244   2.949   4.729  1.00 20.00    -0.121 Cl
HETATM   10  C6  UNL     1     -35.344   6.344   3.903  1.00 20.00     0.006 C 
HETATM   11  C5  UNL     1     -34.158   7.084   3.280  1.00 20.00     0.034 C 
ENDBRANCH   4   5
ENDBRANCH   3   4
TORSDOF 2
ENDMDL
MODEL 2
REMARK VINA RESULT:      -1.2      2.540      4.884
REMARK  2 active torsions:
REMARK  status: ('A' for Active; 'I' for Inactive)
REMARK    1  A    between atoms: C4_4  and  C10_10 
REMARK    2  A    between atoms: C9_9  and  C10_10 
ROOT
HETATM    1  C1  UNL     1     -33.424   3.302   4.324  1.00 20.00     0.012 C 
HETATM    2  C2  UNL     1     -34.277   4.130   4.495  1.00 20.00    -0.117 C 
HETATM    3  C9  UNL     1     -35.323   5.142   4.707  1.00 20.00     0.097 C 
ENDROOT
BRANCH   3   4
HETATM    4  C10 UNL     1     -35.414   6.122   3.545  1.00 20.00     0.046 C 
BRANCH   4   5
HETATM    5  C4  UNL     1     -34.188   6.951   3.459  1.00 20.00    -0.081 C 
HETATM    6  C3  UNL     1     -33.348   6.926   2.406  1.00 20.00    -0.004 C 
HETATM    7  C8  UNL     1     -32.103   7.759   2.304  1.00 20.00     0.105 C 
HETATM    8  C7  UNL     1     -32.033   8.876   3.349  1.00 20.00     0.024 C 
HETATM    9 CL11 UNL     1     -31.983   8.469   0.668  1.00 20.00    -0.121 Cl
HETATM   10  C6  UNL     1     -32.467   8.356   4.714  1.00 20.00     0.006 C 
HETATM   11  C5  UNL     1     -33.902   7.826   4.660  1.00 20.00     0.034 C 
ENDBRANCH   4   5
ENDBRANCH   3   4
TORSDOF 2
ENDMDL
MODEL 3
REMARK VINA RESULT:      -0.7      1.931      4.621
REMARK  2 active torsions:
REMARK  status: ('A' for Active; 'I' for Inactive)
REMARK    1  A    between atoms: C4_4  and  C10_10 
REMARK    2  A    between atoms: C9_9  and  C10_10 
ROOT
HETATM    1  C1  UNL     1     -33.331   3.305   4.819  1.00 20.00     0.012 C 
HETATM    2  C2  UNL     1     -34.231   4.074   4.617  1.00 20.00    -0.117 C 
HETATM    3  C9  UNL     1     -35.336   5.013   4.368  1.00 20.00     0.097 C 
ENDROOT
BRANCH   3   4
HETATM    4  C10 UNL     1     -34.854   6.456   4.301  1.00 20.00     0.046 C 
BRANCH   4   5
HETATM    5  C4  UNL     1     -33.800   6.611   3.270  1.00 20.00    -0.081 C 
HETATM    6  C3  UNL     1     -33.289   5.579   2.569  1.00 20.00    -0.004 C 
HETATM    7  C8  UNL     1     -32.222   5.721   1.523  1.00 20.00     0.105 C 
HETATM    8  C7  UNL     1     -31.988   7.170   1.087  1.00 20.00     0.024 C 
HETATM    9 CL11 UNL     1     -32.642   4.732   0.094  1.00 20.00    -0.121 Cl
HETATM   10  C6  UNL     1     -31.964   8.093   2.299  1.00 20.00     0.006 C 
HETATM   11  C5  UNL     1     -33.289   8.021   3.061  1.00 20.00     0.034 C 
ENDBRANCH   4   5
ENDBRANCH   3   4
TORSDOF 2
ENDMDL
MODEL 4
REMARK VINA RESULT:      -0.6      1.636      2.514
REMARK  2 active torsions:
REMARK  status: ('A' for Active; 'I' for Inactive)
REMARK    1  A    between atoms: C4_4  and  C10_10 
REMARK    2  A    between atoms: C9_9  and  C10_10 
ROOT
HETATM    1  C1  UNL     1     -33.106  10.653  -0.771  1.00 20.00     0.012 C 
HETATM    2  C2  UNL     1     -32.350   9.942  -0.167  1.00 20.00    -0.117 C 
HETATM    3  C9  UNL     1     -31.422   9.069   0.570  1.00 20.00     0.097 C 
ENDROOT
BRANCH   3   4
HETATM    4  C10 UNL     1     -31.818   8.920   2.032  1.00 20.00     0.046 C 
BRANCH   4   5
HETATM    5  C4  UNL     1     -32.439   7.596   2.276  1.00 20.00    -0.081 C 
HETATM    6  C3  UNL     1     -33.233   7.332   3.332  1.00 20.00    -0.004 C 
HETATM    7  C8  UNL     1     -33.869   5.997   3.592  1.00 20.00     0.105 C 
HETATM    8  C7  UNL     1     -33.805   5.050   2.391  1.00 20.00     0.024 C 
HETATM    9 CL11 UNL     1     -35.574   6.225   4.078  1.00 20.00    -0.121 Cl
HETATM   10  C6  UNL     1     -32.425   5.100   1.747  1.00 20.00     0.006 C 
HETATM   11  C5  UNL     1     -32.102   6.518   1.269  1.00 20.00     0.034 C 
ENDBRANCH   4   5
ENDBRANCH   3   4
TORSDOF 2
ENDMDL
MODEL 5
REMARK VINA RESULT:      -0.4      2.378      5.058
REMARK  2 active torsions:
REMARK  status: ('A' for Active; 'I' for Inactive)
REMARK    1  A    between atoms: C4_4  and  C10_10 
REMARK    2  A    between atoms: C9_9  and  C10_10 
ROOT
HETATM    1  C1  UNL     1     -32.777   3.097   5.104  1.00 20.00     0.012 C 
HETATM    2  C2  UNL     1     -33.766   3.634   4.686  1.00 20.00    -0.117 C 
HETATM    3  C9  UNL     1     -34.980   4.289   4.173  1.00 20.00     0.097 C 
ENDROOT
BRANCH   3   4
HETATM    4  C10 UNL     1     -34.915   5.804   4.315  1.00 20.00     0.046 C 
BRANCH   4   5
HETATM    5  C4  UNL     1     -33.924   6.378   3.375  1.00 20.00    -0.081 C 
HETATM    6  C3  UNL     1     -33.447   7.634   3.474  1.00 20.00    -0.004 C 
HETATM    7  C8  UNL     1     -32.443   8.229   2.529  1.00 20.00     0.105 C 
HETATM    8  C7  UNL     1     -31.763   7.191   1.633  1.00 20.00     0.024 C 
HETATM    9 CL11 UNL     1     -31.200   9.122   3.452  1.00 20.00    -0.121 Cl
HETATM   10  C6  UNL     1     -32.786   6.198   1.097  1.00 20.00     0.006 C 
HETATM   11  C5  UNL     1     -33.486   5.468   2.246  1.00 20.00     0.034 C 
ENDBRANCH   4   5
ENDBRANCH   3   4
TORSDOF 2
ENDMDL
