MODEL 1
REMARK VINA RESULT:      -0.3      0.000      0.000
REMARK  0 active torsions:
REMARK  status: ('A' for Active; 'I' for Inactive)
ROOT
HETATM    1  C1  UNL     1     -34.079   4.838   3.763  1.00 20.00     0.067 C 
HETATM    2  C2  UNL     1     -34.001   5.987   2.857  1.00 20.00     0.127 C 
HETATM    3  C3  UNL     1     -32.642   6.145   2.189  1.00 20.00     0.030 C 
HETATM    4  C4  UNL     1     -34.188   7.349   3.532  1.00 20.00     0.136 C 
HETATM    5  C5  UNL     1     -32.717   7.595   1.721  1.00 20.00     0.123 C 
HETATM    6  C6  UNL     1     -32.386   5.160   1.057  1.00 20.00     0.014 C 
HETATM    7  C7  UNL     1     -33.640   7.477   4.951  1.00 20.00     0.041 C 
HETATM    8  C8  UNL     1     -31.360   8.259   1.560  1.00 20.00     0.040 C 
HETATM    9  N9  UNL     1     -34.139   3.928   4.481  1.00 20.00    -0.197 NA
HETATM   10  O10 UNL     1     -33.473   8.302   2.719  1.00 20.00    -0.380 OA
ENDROOT
TORSDOF 0
ENDMDL
MODEL 2
REMARK VINA RESULT:      -0.2      1.756      2.938
REMARK  0 active torsions:
REMARK  status: ('A' for Active; 'I' for Inactive)
ROOT
HETATM    1  C1  UNL     1     -32.488   5.346   1.358  1.00 20.00     0.067 C 
HETATM    2  C2  UNL     1     -33.417   6.244   2.051  1.00 20.00     0.127 C 
HETATM    3  C3  UNL     1     -32.722   7.301   2.899  1.00 20.00     0.030 C 
HETATM    4  C4  UNL     1     -34.327   5.558   3.074  1.00 20.00     0.136 C 
HETATM    5  C5  UNL     1     -33.866   7.738   3.809  1.00 20.00     0.123 C 
HETATM    6  C6  UNL     1     -32.120   8.447   2.097  1.00 20.00     0.014 C 
HETATM    7  C7  UNL     1     -33.720   4.380   3.831  1.00 20.00     0.041 C 
HETATM    8  C8  UNL     1     -33.407   8.317   5.136  1.00 20.00     0.040 C 
HETATM    9  N9  UNL     1     -31.752   4.636   0.810  1.00 20.00    -0.197 NA
HETATM   10  O10 UNL     1     -34.657   6.563   4.055  1.00 20.00    -0.380 OA
ENDROOT
TORSDOF 0
ENDMDL
MODEL 3
REMARK VINA RESULT:       0.6      2.420      4.107
REMARK  0 active torsions:
REMARK  status: ('A' for Active; 'I' for Inactive)
ROOT
HETATM    1  C1  UNL     1     -32.264   7.939   1.807  1.00 20.00     0.067 C 
HETATM    2  C2  UNL     1     -33.281   6.901   1.997  1.00 20.00     0.127 C 
HETATM    3  C3  UNL     1     -33.506   6.530   3.456  1.00 20.00     0.030 C 
HETATM    4  C4  UNL     1     -32.938   5.547   1.370  1.00 20.00     0.136 C 
HETATM    5  C5  UNL     1     -34.212   5.185   3.307  1.00 20.00     0.123 C 
HETATM    6  C6  UNL     1     -34.317   7.551   4.242  1.00 20.00     0.014 C 
HETATM    7  C7  UNL     1     -31.462   5.158   1.373  1.00 20.00     0.041 C 
HETATM    8  C8  UNL     1     -34.048   4.270   4.508  1.00 20.00     0.040 C 
HETATM    9  N9  UNL     1     -31.459   8.762   1.657  1.00 20.00    -0.197 NA
HETATM   10  O10 UNL     1     -33.635   4.554   2.151  1.00 20.00    -0.380 OA
ENDROOT
TORSDOF 0
ENDMDL
MODEL 4
REMARK VINA RESULT:       0.6      1.299      2.607
REMARK  0 active torsions:
REMARK  status: ('A' for Active; 'I' for Inactive)
ROOT
HETATM    1  C1  UNL     1     -34.242   5.332   3.721  1.00 20.00     0.067 C 
HETATM    2  C2  UNL     1     -33.073   6.068   3.230  1.00 20.00     0.127 C 
HETATM    3  C3  UNL     1     -33.335   7.553   3.016  1.00 20.00     0.030 C 
HETATM    4  C4  UNL     1     -32.573   5.627   1.851  1.00 20.00     0.136 C 
HETATM    5  C5  UNL     1     -32.165   7.924   2.108  1.00 20.00     0.123 C 
HETATM    6  C6  UNL     1     -33.382   8.369   4.300  1.00 20.00     0.014 C 
HETATM    7  C7  UNL     1     -33.642   5.174   0.860  1.00 20.00     0.041 C 
HETATM    8  C8  UNL     1     -32.430   9.136   1.231  1.00 20.00     0.040 C 
HETATM    9  N9  UNL     1     -35.168   4.751   4.110  1.00 20.00    -0.197 NA
HETATM   10  O10 UNL     1     -31.926   6.780   1.271  1.00 20.00    -0.380 OA
ENDROOT
TORSDOF 0
ENDMDL
MODEL 5
REMARK VINA RESULT:       1.3      1.739      2.845
REMARK  0 active torsions:
REMARK  status: ('A' for Active; 'I' for Inactive)
ROOT
HETATM    1  C1  UNL     1     -33.656   7.831   4.406  1.00 20.00     0.067 C 
HETATM    2  C2  UNL     1     -33.692   7.254   3.058  1.00 20.00     0.127 C 
HETATM    3  C3  UNL     1     -33.185   5.820   2.996  1.00 20.00     0.030 C 
HETATM    4  C4  UNL     1     -32.792   7.958   2.037  1.00 20.00     0.136 C 
HETATM    5  C5  UNL     1     -32.908   5.676   1.502  1.00 20.00     0.123 C 
HETATM    6  C6  UNL     1     -34.170   4.787   3.527  1.00 20.00     0.014 C 
HETATM    7  C7  UNL     1     -31.480   8.525   2.574  1.00 20.00     0.041 C 
HETATM    8  C8  UNL     1     -31.861   4.627   1.171  1.00 20.00     0.040 C 
HETATM    9  N9  UNL     1     -33.627   8.286   5.473  1.00 20.00    -0.197 NA
HETATM   10  O10 UNL     1     -32.447   6.961   1.053  1.00 20.00    -0.380 OA
ENDROOT
TORSDOF 0
ENDMDL
MODEL 6
REMARK VINA RESULT:       1.4      1.747      3.156
REMARK  0 active torsions:
REMARK  status: ('A' for Active; 'I' for Inactive)
ROOT
HETATM    1  C1  UNL     1     -33.173   5.555   0.917  1.00 20.00     0.067 C 
HETATM    2  C2  UNL     1     -32.703   6.148   2.172  1.00 20.00     0.127 C 
HETATM    3  C3  UNL     1     -33.828   6.530   3.124  1.00 20.00     0.030 C 
HETATM    4  C4  UNL     1     -31.954   7.475   2.011  1.00 20.00     0.136 C 
HETATM    5  C5  UNL     1     -33.102   7.494   4.058  1.00 20.00     0.123 C 
HETATM    6  C6  UNL     1     -34.457   5.348   3.851  1.00 20.00     0.014 C 
HETATM    7  C7  UNL     1     -32.435   8.387   0.886  1.00 20.00     0.041 C 
HETATM    8  C8  UNL     1     -34.017   8.501   4.732  1.00 20.00     0.040 C 
HETATM    9  N9  UNL     1     -33.547   5.085  -0.076  1.00 20.00    -0.197 NA
HETATM   10  O10 UNL     1     -32.145   8.196   3.247  1.00 20.00    -0.380 OA
ENDROOT
TORSDOF 0
ENDMDL
MODEL 7
REMARK VINA RESULT:       1.9      2.478      3.495
REMARK  0 active torsions:
REMARK  status: ('A' for Active; 'I' for Inactive)
ROOT
HETATM    1  C1  UNL     1     -32.362   8.606   1.226  1.00 20.00     0.067 C 
HETATM    2  C2  UNL     1     -32.350   7.641   2.330  1.00 20.00     0.127 C 
HETATM    3  C3  UNL     1     -32.960   6.294   1.968  1.00 20.00     0.030 C 
HETATM    4  C4  UNL     1     -33.181   8.054   3.549  1.00 20.00     0.136 C 
HETATM    5  C5  UNL     1     -33.227   5.715   3.355  1.00 20.00     0.123 C 
HETATM    6  C6  UNL     1     -32.062   5.413   1.111  1.00 20.00     0.014 C 
HETATM    7  C7  UNL     1     -34.455   8.843   3.259  1.00 20.00     0.041 C 
HETATM    8  C8  UNL     1     -34.344   4.686   3.386  1.00 20.00     0.040 C 
HETATM    9  N9  UNL     1     -32.372   9.368   0.352  1.00 20.00    -0.197 NA
HETATM   10  O10 UNL     1     -33.586   6.827   4.193  1.00 20.00    -0.380 OA
ENDROOT
TORSDOF 0
ENDMDL
MODEL 8
REMARK VINA RESULT:       2.2      2.133      2.960
REMARK  0 active torsions:
REMARK  status: ('A' for Active; 'I' for Inactive)
ROOT
HETATM    1  C1  UNL     1     -33.590   7.954   4.509  1.00 20.00     0.067 C 
HETATM    2  C2  UNL     1     -33.076   6.828   3.723  1.00 20.00     0.127 C 
HETATM    3  C3  UNL     1     -33.064   7.088   2.224  1.00 20.00     0.030 C 
HETATM    4  C4  UNL     1     -33.910   5.547   3.821  1.00 20.00     0.136 C 
HETATM    5  C5  UNL     1     -32.947   5.665   1.684  1.00 20.00     0.123 C 
HETATM    6  C6  UNL     1     -31.938   8.001   1.758  1.00 20.00     0.014 C 
HETATM    7  C7  UNL     1     -35.419   5.735   3.962  1.00 20.00     0.041 C 
HETATM    8  C8  UNL     1     -33.498   5.493   0.280  1.00 20.00     0.040 C 
HETATM    9  N9  UNL     1     -33.996   8.846   5.130  1.00 20.00    -0.197 NA
HETATM   10  O10 UNL     1     -33.691   4.830   2.588  1.00 20.00    -0.380 OA
ENDROOT
TORSDOF 0
ENDMDL
