MODEL 1
REMARK VINA RESULT:      -2.2      0.000      0.000
REMARK  1 active torsions:
REMARK  status: ('A' for Active; 'I' for Inactive)
REMARK    1  A    between atoms: C2_2  and  C8_8 
ROOT
HETATM    1  C1  UNL     1     -32.722   7.802   3.023  1.00 20.00    -0.004 C 
HETATM    2  C2  UNL     1     -33.385   6.641   2.951  1.00 20.00    -0.079 C 
HETATM    3  C3  UNL     1     -33.050   5.893   1.698  1.00 20.00     0.036 C 
HETATM    4  C4  UNL     1     -31.797   6.619   1.204  1.00 20.00     0.028 C 
HETATM    5  C5  UNL     1     -31.842   8.013   1.835  1.00 20.00     0.105 C 
HETATM    6 CL9  UNL     1     -32.584   9.204   0.745  1.00 20.00    -0.121 Cl
ENDROOT
BRANCH   2   7
HETATM    7  C8  UNL     1     -34.369   6.111   3.928  1.00 20.00     0.006 C 
HETATM    8  C6  UNL     1     -35.787   6.562   3.569  1.00 20.00     0.014 C 
HETATM    9  C7  UNL     1     -34.302   4.583   4.012  1.00 20.00     0.014 C 
ENDBRANCH   2   7
TORSDOF 1
ENDMDL
MODEL 2
REMARK VINA RESULT:      -2.1      1.039      1.413
REMARK  1 active torsions:
REMARK  status: ('A' for Active; 'I' for Inactive)
REMARK    1  A    between atoms: C2_2  and  C8_8 
ROOT
HETATM    1  C1  UNL     1     -32.412   8.297   2.654  1.00 20.00    -0.004 C 
HETATM    2  C2  UNL     1     -33.367   7.380   2.861  1.00 20.00    -0.079 C 
HETATM    3  C3  UNL     1     -33.298   6.278   1.851  1.00 20.00     0.036 C 
HETATM    4  C4  UNL     1     -31.917   6.487   1.226  1.00 20.00     0.028 C 
HETATM    5  C5  UNL     1     -31.558   7.953   1.478  1.00 20.00     0.105 C 
HETATM    6 CL9  UNL     1     -31.996   8.983   0.099  1.00 20.00    -0.121 Cl
ENDROOT
BRANCH   2   7
HETATM    7  C8  UNL     1     -34.416   7.403   3.911  1.00 20.00     0.006 C 
HETATM    8  C6  UNL     1     -35.030   6.013   4.094  1.00 20.00     0.014 C 
HETATM    9  C7  UNL     1     -33.860   7.919   5.241  1.00 20.00     0.014 C 
ENDBRANCH   2   7
TORSDOF 1
ENDMDL
MODEL 3
REMARK VINA RESULT:      -1.4      1.877      2.436
REMARK  1 active torsions:
REMARK  status: ('A' for Active; 'I' for Inactive)
REMARK    1  A    between atoms: C2_2  and  C8_8 
ROOT
HETATM    1  C1  UNL     1     -33.478   6.106   1.896  1.00 20.00    -0.004 C 
HETATM    2  C2  UNL     1     -33.425   7.124   2.765  1.00 20.00    -0.079 C 
HETATM    3  C3  UNL     1     -32.203   7.963   2.556  1.00 20.00     0.036 C 
HETATM    4  C4  UNL     1     -31.718   7.502   1.179  1.00 20.00     0.028 C 
HETATM    5  C5  UNL     1     -32.305   6.105   0.971  1.00 20.00     0.105 C 
HETATM    6 CL9  UNL     1     -31.163   4.833   1.456  1.00 20.00    -0.121 Cl
ENDROOT
BRANCH   2   7
HETATM    7  C8  UNL     1     -34.394   7.425   3.849  1.00 20.00     0.006 C 
HETATM    8  C6  UNL     1     -35.212   6.182   4.208  1.00 20.00     0.014 C 
HETATM    9  C7  UNL     1     -33.685   7.973   5.091  1.00 20.00     0.014 C 
ENDBRANCH   2   7
TORSDOF 1
ENDMDL
MODEL 4
REMARK VINA RESULT:      -0.8      1.996      3.931
REMARK  1 active torsions:
REMARK  status: ('A' for Active; 'I' for Inactive)
REMARK    1  A    between atoms: C2_2  and  C8_8 
ROOT
HETATM    1  C1  UNL     1     -33.977   5.887   2.999  1.00 20.00    -0.004 C 
HETATM    2  C2  UNL     1     -33.083   6.861   2.787  1.00 20.00    -0.079 C 
HETATM    3  C3  UNL     1     -33.383   8.073   3.613  1.00 20.00     0.036 C 
HETATM    4  C4  UNL     1     -34.390   7.537   4.633  1.00 20.00     0.028 C 
HETATM    5  C5  UNL     1     -35.013   6.292   3.997  1.00 20.00     0.105 C 
HETATM    6 CL9  UNL     1     -36.533   6.672   3.160  1.00 20.00    -0.121 Cl
ENDROOT
BRANCH   2   7
HETATM    7  C8  UNL     1     -31.935   6.832   1.845  1.00 20.00     0.006 C 
HETATM    8  C6  UNL     1     -32.035   5.627   0.906  1.00 20.00     0.014 C 
HETATM    9  C7  UNL     1     -31.848   8.131   1.037  1.00 20.00     0.014 C 
ENDBRANCH   2   7
TORSDOF 1
ENDMDL
MODEL 5
REMARK VINA RESULT:      -0.4      1.969      3.524
REMARK  1 active torsions:
REMARK  status: ('A' for Active; 'I' for Inactive)
REMARK    1  A    between atoms: C2_2  and  C8_8 
ROOT
HETATM    1  C1  UNL     1     -33.652   7.842   2.968  1.00 20.00    -0.004 C 
HETATM    2  C2  UNL     1     -33.344   6.649   2.442  1.00 20.00    -0.079 C 
HETATM    3  C3  UNL     1     -33.900   5.526   3.262  1.00 20.00     0.036 C 
HETATM    4  C4  UNL     1     -34.907   6.243   4.165  1.00 20.00     0.028 C 
HETATM    5  C5  UNL     1     -34.459   7.706   4.217  1.00 20.00     0.105 C 
HETATM    6 CL9  UNL     1     -33.432   8.028   5.631  1.00 20.00    -0.121 Cl
ENDROOT
BRANCH   2   7
HETATM    7  C8  UNL     1     -32.531   6.390   1.227  1.00 20.00     0.006 C 
HETATM    8  C6  UNL     1     -31.457   7.467   1.054  1.00 20.00     0.014 C 
HETATM    9  C7  UNL     1     -31.890   5.000   1.274  1.00 20.00     0.014 C 
ENDBRANCH   2   7
TORSDOF 1
ENDMDL
MODEL 6
REMARK VINA RESULT:      -0.1      1.360      2.279
REMARK  1 active torsions:
REMARK  status: ('A' for Active; 'I' for Inactive)
REMARK    1  A    between atoms: C2_2  and  C8_8 
ROOT
HETATM    1  C1  UNL     1     -33.215   6.088   1.952  1.00 20.00    -0.004 C 
HETATM    2  C2  UNL     1     -33.849   5.953   3.124  1.00 20.00    -0.079 C 
HETATM    3  C3  UNL     1     -33.890   7.245   3.879  1.00 20.00     0.036 C 
HETATM    4  C4  UNL     1     -33.503   8.267   2.807  1.00 20.00     0.028 C 
HETATM    5  C5  UNL     1     -32.735   7.486   1.738  1.00 20.00     0.105 C 
HETATM    6 CL9  UNL     1     -30.980   7.562   2.003  1.00 20.00    -0.121 Cl
ENDROOT
BRANCH   2   7
HETATM    7  C8  UNL     1     -34.431   4.709   3.689  1.00 20.00     0.006 C 
HETATM    8  C6  UNL     1     -33.329   3.786   4.216  1.00 20.00     0.014 C 
HETATM    9  C7  UNL     1     -35.441   5.021   4.797  1.00 20.00     0.014 C 
ENDBRANCH   2   7
TORSDOF 1
ENDMDL
MODEL 7
REMARK VINA RESULT:       0.2      1.999      3.990
REMARK  1 active torsions:
REMARK  status: ('A' for Active; 'I' for Inactive)
REMARK    1  A    between atoms: C2_2  and  C8_8 
ROOT
HETATM    1  C1  UNL     1     -33.658   6.322   2.600  1.00 20.00    -0.004 C 
HETATM    2  C2  UNL     1     -32.994   7.484   2.549  1.00 20.00    -0.079 C 
HETATM    3  C3  UNL     1     -33.364   8.380   3.690  1.00 20.00     0.036 C 
HETATM    4  C4  UNL     1     -34.082   7.422   4.643  1.00 20.00     0.028 C 
HETATM    5  C5  UNL     1     -34.572   6.257   3.779  1.00 20.00     0.105 C 
HETATM    6 CL9  UNL     1     -36.251   6.494   3.248  1.00 20.00    -0.121 Cl
ENDROOT
BRANCH   2   7
HETATM    7  C8  UNL     1     -32.028   7.918   1.508  1.00 20.00     0.006 C 
HETATM    8  C6  UNL     1     -32.548   9.151   0.765  1.00 20.00     0.014 C 
HETATM    9  C7  UNL     1     -30.650   8.202   2.113  1.00 20.00     0.014 C 
ENDBRANCH   2   7
TORSDOF 1
ENDMDL
MODEL 8
REMARK VINA RESULT:       0.4      2.366      3.758
REMARK  1 active torsions:
REMARK  status: ('A' for Active; 'I' for Inactive)
REMARK    1  A    between atoms: C2_2  and  C8_8 
ROOT
HETATM    1  C1  UNL     1     -33.504   6.713   2.689  1.00 20.00    -0.004 C 
HETATM    2  C2  UNL     1     -32.411   6.966   1.956  1.00 20.00    -0.079 C 
HETATM    3  C3  UNL     1     -31.988   5.766   1.167  1.00 20.00     0.036 C 
HETATM    4  C4  UNL     1     -33.219   4.860   1.258  1.00 20.00     0.028 C 
HETATM    5  C5  UNL     1     -33.983   5.311   2.506  1.00 20.00     0.105 C 
HETATM    6 CL9  UNL     1     -33.547   4.340   3.929  1.00 20.00    -0.121 Cl
ENDROOT
BRANCH   2   7
HETATM    7  C8  UNL     1     -31.641   8.234   1.907  1.00 20.00     0.006 C 
HETATM    8  C6  UNL     1     -32.225   9.183   0.858  1.00 20.00     0.014 C 
HETATM    9  C7  UNL     1     -31.602   8.915   3.278  1.00 20.00     0.014 C 
ENDBRANCH   2   7
TORSDOF 1
ENDMDL
MODEL 9
REMARK VINA RESULT:       0.5      2.654      3.834
REMARK  1 active torsions:
REMARK  status: ('A' for Active; 'I' for Inactive)
REMARK    1  A    between atoms: C2_2  and  C8_8 
ROOT
HETATM    1  C1  UNL     1     -34.399   5.525   4.159  1.00 20.00    -0.004 C 
HETATM    2  C2  UNL     1     -33.696   6.331   3.352  1.00 20.00    -0.079 C 
HETATM    3  C3  UNL     1     -32.940   5.552   2.321  1.00 20.00     0.036 C 
HETATM    4  C4  UNL     1     -33.594   4.171   2.405  1.00 20.00     0.028 C 
HETATM    5  C5  UNL     1     -34.226   4.087   3.796  1.00 20.00     0.105 C 
HETATM    6 CL9  UNL     1     -33.141   3.302   4.964  1.00 20.00    -0.121 Cl
ENDROOT
BRANCH   2   7
HETATM    7  C8  UNL     1     -33.598   7.810   3.428  1.00 20.00     0.006 C 
HETATM    8  C6  UNL     1     -33.418   8.268   4.878  1.00 20.00     0.014 C 
HETATM    9  C7  UNL     1     -32.454   8.337   2.558  1.00 20.00     0.014 C 
ENDBRANCH   2   7
TORSDOF 1
ENDMDL
