MODEL 1
REMARK VINA RESULT:      -0.5      0.000      0.000
REMARK  2 active torsions:
REMARK  status: ('A' for Active; 'I' for Inactive)
REMARK    1  A    between atoms: C4_4  and  C12_12 
REMARK    2  A    between atoms: C11_11  and  C12_12 
ROOT
HETATM    1  C1  UNL     1     -33.382   3.205   4.813  1.00 20.00     0.012 C 
HETATM    2  C2  UNL     1     -34.192   4.056   4.565  1.00 20.00    -0.117 C 
HETATM    3  C11 UNL     1     -35.186   5.096   4.258  1.00 20.00     0.097 C 
ENDROOT
BRANCH   3   4
HETATM    4  C12 UNL     1     -34.596   6.495   4.353  1.00 20.00     0.046 C 
BRANCH   4   5
HETATM    5  C4  UNL     1     -33.667   6.759   3.202  1.00 20.00    -0.075 C 
HETATM    6  C3  UNL     1     -33.426   8.007   2.776  1.00 20.00     0.053 C 
HETATM    7  C5  UNL     1     -32.463   8.257   1.676  1.00 20.00     0.150 C 
HETATM    8  C7  UNL     1     -31.694   7.086   1.102  1.00 20.00     0.092 C 
HETATM    9  O13 UNL     1     -32.262   9.408   1.293  1.00 20.00    -0.293 OA
HETATM   10  C8  UNL     1     -32.493   5.773   1.151  1.00 20.00    -0.037 C 
HETATM   11  C6  UNL     1     -33.026   5.542   2.583  1.00 20.00     0.043 C 
HETATM   12  C9  UNL     1     -31.573   4.604   0.760  1.00 20.00     0.015 C 
HETATM   13  C10 UNL     1     -33.660   5.820   0.141  1.00 20.00     0.015 C 
ENDBRANCH   4   5
ENDBRANCH   3   4
TORSDOF 2
ENDMDL
MODEL 2
REMARK VINA RESULT:      -0.4      1.459      2.680
REMARK  2 active torsions:
REMARK  status: ('A' for Active; 'I' for Inactive)
REMARK    1  A    between atoms: C4_4  and  C12_12 
REMARK    2  A    between atoms: C11_11  and  C12_12 
ROOT
HETATM    1  C1  UNL     1     -33.411   3.239   4.830  1.00 20.00     0.012 C 
HETATM    2  C2  UNL     1     -34.214   4.086   4.552  1.00 20.00    -0.117 C 
HETATM    3  C11 UNL     1     -35.202   5.122   4.210  1.00 20.00     0.097 C 
ENDROOT
BRANCH   3   4
HETATM    4  C12 UNL     1     -34.590   6.514   4.205  1.00 20.00     0.046 C 
BRANCH   4   5
HETATM    5  C4  UNL     1     -33.682   6.691   3.021  1.00 20.00    -0.075 C 
HETATM    6  C3  UNL     1     -33.052   5.646   2.466  1.00 20.00     0.053 C 
HETATM    7  C5  UNL     1     -32.204   5.827   1.262  1.00 20.00     0.150 C 
HETATM    8  C7  UNL     1     -32.132   7.198   0.623  1.00 20.00     0.092 C 
HETATM    9  O13 UNL     1     -31.627   4.857   0.773  1.00 20.00    -0.293 OA
HETATM   10  C8  UNL     1     -32.282   8.336   1.646  1.00 20.00    -0.037 C 
HETATM   11  C6  UNL     1     -33.545   8.101   2.503  1.00 20.00     0.043 C 
HETATM   12  C9  UNL     1     -32.419   9.674   0.899  1.00 20.00     0.015 C 
HETATM   13  C10 UNL     1     -31.027   8.416   2.542  1.00 20.00     0.015 C 
ENDBRANCH   4   5
ENDBRANCH   3   4
TORSDOF 2
ENDMDL
MODEL 3
REMARK VINA RESULT:       0.3      2.278      5.144
REMARK  2 active torsions:
REMARK  status: ('A' for Active; 'I' for Inactive)
REMARK    1  A    between atoms: C4_4  and  C12_12 
REMARK    2  A    between atoms: C11_11  and  C12_12 
ROOT
HETATM    1  C1  UNL     1     -32.758  10.226  -0.372  1.00 20.00     0.012 C 
HETATM    2  C2  UNL     1     -32.199   9.390   0.285  1.00 20.00    -0.117 C 
HETATM    3  C11 UNL     1     -31.512   8.368   1.090  1.00 20.00     0.097 C 
ENDROOT
BRANCH   3   4
HETATM    4  C12 UNL     1     -32.064   6.974   0.835  1.00 20.00     0.046 C 
BRANCH   4   5
HETATM    5  C4  UNL     1     -32.782   6.457   2.050  1.00 20.00    -0.075 C 
HETATM    6  C3  UNL     1     -33.041   5.150   2.200  1.00 20.00     0.053 C 
HETATM    7  C5  UNL     1     -33.698   4.647   3.431  1.00 20.00     0.150 C 
HETATM    8  C7  UNL     1     -33.995   5.624   4.549  1.00 20.00     0.092 C 
HETATM    9  O13 UNL     1     -33.935   3.446   3.546  1.00 20.00    -0.293 OA
HETATM   10  C8  UNL     1     -34.295   7.041   4.031  1.00 20.00    -0.037 C 
HETATM   11  C6  UNL     1     -33.170   7.494   3.074  1.00 20.00     0.043 C 
HETATM   12  C9  UNL     1     -34.367   8.011   5.223  1.00 20.00     0.015 C 
HETATM   13  C10 UNL     1     -35.661   7.068   3.311  1.00 20.00     0.015 C 
ENDBRANCH   4   5
ENDBRANCH   3   4
TORSDOF 2
ENDMDL
MODEL 4
REMARK VINA RESULT:       0.6      1.988      4.875
REMARK  2 active torsions:
REMARK  status: ('A' for Active; 'I' for Inactive)
REMARK    1  A    between atoms: C4_4  and  C12_12 
REMARK    2  A    between atoms: C11_11  and  C12_12 
ROOT
HETATM    1  C1  UNL     1     -33.118  10.480  -0.374  1.00 20.00     0.012 C 
HETATM    2  C2  UNL     1     -32.281   9.765   0.105  1.00 20.00    -0.117 C 
HETATM    3  C11 UNL     1     -31.252   8.891   0.690  1.00 20.00     0.097 C 
ENDROOT
BRANCH   3   4
HETATM    4  C12 UNL     1     -31.789   7.499   0.991  1.00 20.00     0.046 C 
BRANCH   4   5
HETATM    5  C4  UNL     1     -32.582   7.501   2.267  1.00 20.00    -0.075 C 
HETATM    6  C3  UNL     1     -32.109   8.082   3.379  1.00 20.00     0.053 C 
HETATM    7  C5  UNL     1     -32.928   8.127   4.614  1.00 20.00     0.150 C 
HETATM    8  C7  UNL     1     -34.339   7.580   4.573  1.00 20.00     0.092 C 
HETATM    9  O13 UNL     1     -32.472   8.656   5.627  1.00 20.00    -0.293 OA
HETATM   10  C8  UNL     1     -34.492   6.415   3.581  1.00 20.00    -0.037 C 
HETATM   11  C6  UNL     1     -33.930   6.828   2.202  1.00 20.00     0.043 C 
HETATM   12  C9  UNL     1     -35.983   6.065   3.435  1.00 20.00     0.015 C 
HETATM   13  C10 UNL     1     -33.759   5.163   4.111  1.00 20.00     0.015 C 
ENDBRANCH   4   5
ENDBRANCH   3   4
TORSDOF 2
ENDMDL
MODEL 5
REMARK VINA RESULT:       0.6      1.744      2.232
REMARK  2 active torsions:
REMARK  status: ('A' for Active; 'I' for Inactive)
REMARK    1  A    between atoms: C4_4  and  C12_12 
REMARK    2  A    between atoms: C11_11  and  C12_12 
ROOT
HETATM    1  C1  UNL     1     -33.501   3.355   4.340  1.00 20.00     0.012 C 
HETATM    2  C2  UNL     1     -34.349   4.193   4.480  1.00 20.00    -0.117 C 
HETATM    3  C11 UNL     1     -35.390   5.218   4.653  1.00 20.00     0.097 C 
ENDROOT
BRANCH   3   4
HETATM    4  C12 UNL     1     -35.408   6.214   3.504  1.00 20.00     0.046 C 
BRANCH   4   5
HETATM    5  C4  UNL     1     -34.114   6.976   3.442  1.00 20.00    -0.075 C 
HETATM    6  C3  UNL     1     -33.707   7.739   4.467  1.00 20.00     0.053 C 
HETATM    7  C5  UNL     1     -32.401   8.440   4.414  1.00 20.00     0.150 C 
HETATM    8  C7  UNL     1     -31.499   8.210   3.220  1.00 20.00     0.092 C 
HETATM    9  O13 UNL     1     -32.049   9.142   5.361  1.00 20.00    -0.293 OA
HETATM   10  C8  UNL     1     -32.288   7.940   1.928  1.00 20.00    -0.037 C 
HETATM   11  C6  UNL     1     -33.316   6.813   2.172  1.00 20.00     0.043 C 
HETATM   12  C9  UNL     1     -31.313   7.503   0.821  1.00 20.00     0.015 C 
HETATM   13  C10 UNL     1     -32.998   9.227   1.456  1.00 20.00     0.015 C 
ENDBRANCH   4   5
ENDBRANCH   3   4
TORSDOF 2
ENDMDL
MODEL 6
REMARK VINA RESULT:       0.8      2.055      4.883
REMARK  2 active torsions:
REMARK  status: ('A' for Active; 'I' for Inactive)
REMARK    1  A    between atoms: C4_4  and  C12_12 
REMARK    2  A    between atoms: C11_11  and  C12_12 
ROOT
HETATM    1  C1  UNL     1     -33.142  10.616  -0.426  1.00 20.00     0.012 C 
HETATM    2  C2  UNL     1     -32.351   9.945   0.179  1.00 20.00    -0.117 C 
HETATM    3  C11 UNL     1     -31.381   9.121   0.916  1.00 20.00     0.097 C 
ENDROOT
BRANCH   3   4
HETATM    4  C12 UNL     1     -31.826   8.858   2.347  1.00 20.00     0.046 C 
BRANCH   4   5
HETATM    5  C4  UNL     1     -32.565   7.554   2.442  1.00 20.00    -0.075 C 
HETATM    6  C3  UNL     1     -32.447   6.617   1.491  1.00 20.00     0.053 C 
HETATM    7  C5  UNL     1     -33.138   5.311   1.627  1.00 20.00     0.150 C 
HETATM    8  C7  UNL     1     -33.909   5.024   2.898  1.00 20.00     0.092 C 
HETATM    9  O13 UNL     1     -33.024   4.468   0.738  1.00 20.00    -0.293 OA
HETATM   10  C8  UNL     1     -34.516   6.293   3.519  1.00 20.00    -0.037 C 
HETATM   11  C6  UNL     1     -33.422   7.373   3.670  1.00 20.00     0.043 C 
HETATM   12  C9  UNL     1     -35.087   5.954   4.907  1.00 20.00     0.015 C 
HETATM   13  C10 UNL     1     -35.674   6.815   2.642  1.00 20.00     0.015 C 
ENDBRANCH   4   5
ENDBRANCH   3   4
TORSDOF 2
ENDMDL
MODEL 7
REMARK VINA RESULT:       0.9      0.795      1.049
REMARK  2 active torsions:
REMARK  status: ('A' for Active; 'I' for Inactive)
REMARK    1  A    between atoms: C4_4  and  C12_12 
REMARK    2  A    between atoms: C11_11  and  C12_12 
ROOT
HETATM    1  C1  UNL     1     -34.935   4.187   4.533  1.00 20.00     0.012 C 
HETATM    2  C2  UNL     1     -35.136   5.358   4.363  1.00 20.00    -0.117 C 
HETATM    3  C11 UNL     1     -35.386   6.793   4.154  1.00 20.00     0.097 C 
ENDROOT
BRANCH   3   4
HETATM    4  C12 UNL     1     -34.115   7.619   4.282  1.00 20.00     0.046 C 
BRANCH   4   5
HETATM    5  C4  UNL     1     -33.296   7.530   3.026  1.00 20.00    -0.075 C 
HETATM    6  C3  UNL     1     -33.063   8.612   2.269  1.00 20.00     0.053 C 
HETATM    7  C5  UNL     1     -32.205   8.520   1.063  1.00 20.00     0.150 C 
HETATM    8  C7  UNL     1     -31.527   7.203   0.750  1.00 20.00     0.092 C 
HETATM    9  O13 UNL     1     -32.012   9.522   0.377  1.00 20.00    -0.293 OA
HETATM   10  C8  UNL     1     -32.353   5.990   1.210  1.00 20.00    -0.037 C 
HETATM   11  C6  UNL     1     -32.751   6.163   2.693  1.00 20.00     0.043 C 
HETATM   12  C9  UNL     1     -31.507   4.714   1.059  1.00 20.00     0.015 C 
HETATM   13  C10 UNL     1     -33.610   5.835   0.327  1.00 20.00     0.015 C 
ENDBRANCH   4   5
ENDBRANCH   3   4
TORSDOF 2
ENDMDL
MODEL 8
REMARK VINA RESULT:       1.1      1.933      4.746
REMARK  2 active torsions:
REMARK  status: ('A' for Active; 'I' for Inactive)
REMARK    1  A    between atoms: C4_4  and  C12_12 
REMARK    2  A    between atoms: C11_11  and  C12_12 
ROOT
HETATM    1  C1  UNL     1     -32.357   9.628   0.062  1.00 20.00     0.012 C 
HETATM    2  C2  UNL     1     -32.092   8.801   0.891  1.00 20.00    -0.117 C 
HETATM    3  C11 UNL     1     -31.765   7.790   1.908  1.00 20.00     0.097 C 
ENDROOT
BRANCH   3   4
HETATM    4  C12 UNL     1     -32.202   6.395   1.487  1.00 20.00     0.046 C 
BRANCH   4   5
HETATM    5  C4  UNL     1     -33.083   5.776   2.536  1.00 20.00    -0.075 C 
HETATM    6  C3  UNL     1     -34.013   6.498   3.177  1.00 20.00     0.053 C 
HETATM    7  C5  UNL     1     -34.913   5.861   4.168  1.00 20.00     0.150 C 
HETATM    8  C7  UNL     1     -34.820   4.364   4.380  1.00 20.00     0.092 C 
HETATM    9  O13 UNL     1     -35.754   6.542   4.753  1.00 20.00    -0.293 OA
HETATM   10  C8  UNL     1     -33.396   3.825   4.165  1.00 20.00    -0.037 C 
HETATM   11  C6  UNL     1     -32.858   4.308   2.799  1.00 20.00     0.043 C 
HETATM   12  C9  UNL     1     -33.428   2.287   4.180  1.00 20.00     0.015 C 
HETATM   13  C10 UNL     1     -32.469   4.294   5.307  1.00 20.00     0.015 C 
ENDBRANCH   4   5
ENDBRANCH   3   4
TORSDOF 2
ENDMDL
MODEL 9
REMARK VINA RESULT:       1.5      2.058      4.598
REMARK  2 active torsions:
REMARK  status: ('A' for Active; 'I' for Inactive)
REMARK    1  A    between atoms: C4_4  and  C12_12 
REMARK    2  A    between atoms: C11_11  and  C12_12 
ROOT
HETATM    1  C1  UNL     1     -33.226  10.639  -0.415  1.00 20.00     0.012 C 
HETATM    2  C2  UNL     1     -32.326   9.974   0.020  1.00 20.00    -0.117 C 
HETATM    3  C11 UNL     1     -31.222   9.159   0.550  1.00 20.00     0.097 C 
ENDROOT
BRANCH   3   4
HETATM    4  C12 UNL     1     -31.394   8.858   2.031  1.00 20.00     0.046 C 
BRANCH   4   5
HETATM    5  C4  UNL     1     -32.356   7.722   2.234  1.00 20.00    -0.075 C 
HETATM    6  C3  UNL     1     -33.172   7.684   3.298  1.00 20.00     0.053 C 
HETATM    7  C5  UNL     1     -34.156   6.586   3.455  1.00 20.00     0.150 C 
HETATM    8  C7  UNL     1     -34.282   5.557   2.352  1.00 20.00     0.092 C 
HETATM    9  O13 UNL     1     -34.889   6.564   4.443  1.00 20.00    -0.293 OA
HETATM   10  C8  UNL     1     -32.952   5.309   1.622  1.00 20.00    -0.037 C 
HETATM   11  C6  UNL     1     -32.348   6.656   1.167  1.00 20.00     0.043 C 
HETATM   12  C9  UNL     1     -33.208   4.428   0.387  1.00 20.00     0.015 C 
HETATM   13  C10 UNL     1     -31.967   4.560   2.545  1.00 20.00     0.015 C 
ENDBRANCH   4   5
ENDBRANCH   3   4
TORSDOF 2
ENDMDL
