MODEL 1
REMARK VINA RESULT:      -0.2      0.000      0.000
REMARK  1 active torsions:
REMARK  status: ('A' for Active; 'I' for Inactive)
REMARK    1  A    between atoms: C2_2  and  C8_8 
ROOT
HETATM    1  C1  UNL     1     -33.829   7.644   3.178  1.00 20.00     0.018 C 
HETATM    2  C2  UNL     1     -33.147   7.534   1.811  1.00 20.00     0.034 C 
HETATM    3  C3  UNL     1     -34.661   6.359   3.166  1.00 20.00     0.122 C 
HETATM    4  C4  UNL     1     -32.953   6.023   1.612  1.00 20.00     0.123 C 
HETATM    5  C5  UNL     1     -32.867   7.755   4.361  1.00 20.00     0.013 C 
HETATM    6  C6  UNL     1     -35.151   5.848   4.509  1.00 20.00     0.040 C 
HETATM    7  C7  UNL     1     -31.549   5.472   1.804  1.00 20.00     0.040 C 
HETATM    8  O9  UNL     1     -33.826   5.365   2.552  1.00 20.00    -0.381 OA
ENDROOT
BRANCH   2   9
HETATM    9  C8  UNL     1     -31.926   8.413   1.584  1.00 20.00     0.122 C 
HETATM   10 CL10 UNL     1     -32.276   9.632   0.347  1.00 20.00    -0.130 Cl
ENDBRANCH   2   9
TORSDOF 1
ENDMDL
MODEL 2
REMARK VINA RESULT:       1.1      2.781      3.717
REMARK  1 active torsions:
REMARK  status: ('A' for Active; 'I' for Inactive)
REMARK    1  A    between atoms: C2_2  and  C8_8 
ROOT
HETATM    1  C1  UNL     1     -33.273   7.078   3.386  1.00 20.00     0.018 C 
HETATM    2  C2  UNL     1     -33.039   5.589   3.119  1.00 20.00     0.034 C 
HETATM    3  C3  UNL     1     -32.244   7.687   2.430  1.00 20.00     0.122 C 
HETATM    4  C4  UNL     1     -32.654   5.533   1.632  1.00 20.00     0.123 C 
HETATM    5  C5  UNL     1     -34.707   7.550   3.143  1.00 20.00     0.013 C 
HETATM    6  C6  UNL     1     -32.440   9.143   2.049  1.00 20.00     0.040 C 
HETATM    7  C7  UNL     1     -33.712   5.033   0.660  1.00 20.00     0.040 C 
HETATM    8  O9  UNL     1     -32.288   6.873   1.248  1.00 20.00    -0.381 OA
ENDROOT
BRANCH   2   9
HETATM    9  C8  UNL     1     -34.131   4.633   3.576  1.00 20.00     0.122 C 
HETATM   10 CL10 UNL     1     -33.421   3.297   4.499  1.00 20.00    -0.130 Cl
ENDBRANCH   2   9
TORSDOF 1
ENDMDL
MODEL 3
REMARK VINA RESULT:       1.2      2.475      3.606
REMARK  1 active torsions:
REMARK  status: ('A' for Active; 'I' for Inactive)
REMARK    1  A    between atoms: C2_2  and  C8_8 
ROOT
HETATM    1  C1  UNL     1     -33.471   5.619   2.274  1.00 20.00     0.018 C 
HETATM    2  C2  UNL     1     -33.846   7.065   2.613  1.00 20.00     0.034 C 
HETATM    3  C3  UNL     1     -32.523   5.858   1.095  1.00 20.00     0.122 C 
HETATM    4  C4  UNL     1     -32.578   7.866   2.282  1.00 20.00     0.123 C 
HETATM    5  C5  UNL     1     -32.846   4.837   3.430  1.00 20.00     0.013 C 
HETATM    6  C6  UNL     1     -31.580   4.725   0.736  1.00 20.00     0.040 C 
HETATM    7  C7  UNL     1     -31.728   8.335   3.454  1.00 20.00     0.040 C 
HETATM    8  O9  UNL     1     -31.762   7.024   1.444  1.00 20.00    -0.381 OA
ENDROOT
BRANCH   2   9
HETATM    9  C8  UNL     1     -34.467   7.307   3.981  1.00 20.00     0.122 C 
HETATM   10 CL10 UNL     1     -35.632   6.025   4.354  1.00 20.00    -0.130 Cl
ENDBRANCH   2   9
TORSDOF 1
ENDMDL
MODEL 4
REMARK VINA RESULT:       1.4      2.529      4.041
REMARK  1 active torsions:
REMARK  status: ('A' for Active; 'I' for Inactive)
REMARK    1  A    between atoms: C2_2  and  C8_8 
ROOT
HETATM    1  C1  UNL     1     -32.949   6.526   1.604  1.00 20.00     0.018 C 
HETATM    2  C2  UNL     1     -33.979   6.548   2.737  1.00 20.00     0.034 C 
HETATM    3  C3  UNL     1     -32.775   8.029   1.371  1.00 20.00     0.122 C 
HETATM    4  C4  UNL     1     -33.633   7.817   3.531  1.00 20.00     0.123 C 
HETATM    5  C5  UNL     1     -31.651   5.791   1.939  1.00 20.00     0.013 C 
HETATM    6  C6  UNL     1     -31.521   8.467   0.637  1.00 20.00     0.040 C 
HETATM    7  C7  UNL     1     -32.911   7.630   4.857  1.00 20.00     0.040 C 
HETATM    8  O9  UNL     1     -32.800   8.626   2.677  1.00 20.00    -0.381 OA
ENDROOT
BRANCH   2   9
HETATM    9  C8  UNL     1     -34.139   5.265   3.539  1.00 20.00     0.122 C 
HETATM   10 CL10 UNL     1     -35.595   5.356   4.546  1.00 20.00    -0.130 Cl
ENDBRANCH   2   9
TORSDOF 1
ENDMDL
MODEL 5
REMARK VINA RESULT:       1.4      2.221      2.984
REMARK  1 active torsions:
REMARK  status: ('A' for Active; 'I' for Inactive)
REMARK    1  A    between atoms: C2_2  and  C8_8 
ROOT
HETATM    1  C1  UNL     1     -33.554   6.500   3.294  1.00 20.00     0.018 C 
HETATM    2  C2  UNL     1     -32.543   6.378   2.150  1.00 20.00     0.034 C 
HETATM    3  C3  UNL     1     -32.873   7.580   4.139  1.00 20.00     0.122 C 
HETATM    4  C4  UNL     1     -31.986   7.801   1.992  1.00 20.00     0.123 C 
HETATM    5  C5  UNL     1     -34.974   6.854   2.852  1.00 20.00     0.013 C 
HETATM    6  C6  UNL     1     -33.746   8.319   5.137  1.00 20.00     0.040 C 
HETATM    7  C7  UNL     1     -32.483   8.613   0.806  1.00 20.00     0.040 C 
HETATM    8  O9  UNL     1     -32.323   8.515   3.198  1.00 20.00    -0.381 OA
ENDROOT
BRANCH   2   9
HETATM    9  C8  UNL     1     -33.027   5.691   0.881  1.00 20.00     0.122 C 
HETATM   10 CL10 UNL     1     -31.830   4.503   0.339  1.00 20.00    -0.130 Cl
ENDBRANCH   2   9
TORSDOF 1
ENDMDL
MODEL 6
REMARK VINA RESULT:       1.6      1.809      2.994
REMARK  1 active torsions:
REMARK  status: ('A' for Active; 'I' for Inactive)
REMARK    1  A    between atoms: C2_2  and  C8_8 
ROOT
HETATM    1  C1  UNL     1     -33.048   5.522   3.280  1.00 20.00     0.018 C 
HETATM    2  C2  UNL     1     -33.756   6.829   3.646  1.00 20.00     0.034 C 
HETATM    3  C3  UNL     1     -33.713   4.569   4.277  1.00 20.00     0.122 C 
HETATM    4  C4  UNL     1     -35.164   6.385   4.071  1.00 20.00     0.123 C 
HETATM    5  C5  UNL     1     -33.203   5.103   1.817  1.00 20.00     0.013 C 
HETATM    6  C6  UNL     1     -33.627   3.085   3.967  1.00 20.00     0.040 C 
HETATM    7  C7  UNL     1     -36.295   6.627   3.083  1.00 20.00     0.040 C 
HETATM    8  O9  UNL     1     -35.091   4.969   4.331  1.00 20.00    -0.381 OA
ENDROOT
BRANCH   2   9
HETATM    9  C8  UNL     1     -33.676   7.958   2.629  1.00 20.00     0.122 C 
HETATM   10 CL10 UNL     1     -32.003   8.166   2.084  1.00 20.00    -0.130 Cl
ENDBRANCH   2   9
TORSDOF 1
ENDMDL
MODEL 7
REMARK VINA RESULT:       2.7      2.210      2.649
REMARK  1 active torsions:
REMARK  status: ('A' for Active; 'I' for Inactive)
REMARK    1  A    between atoms: C2_2  and  C8_8 
ROOT
HETATM    1  C1  UNL     1     -33.240   7.425   2.546  1.00 20.00     0.018 C 
HETATM    2  C2  UNL     1     -33.580   6.059   1.944  1.00 20.00     0.034 C 
HETATM    3  C3  UNL     1     -34.225   7.454   3.718  1.00 20.00     0.122 C 
HETATM    4  C4  UNL     1     -33.970   5.203   3.158  1.00 20.00     0.123 C 
HETATM    5  C5  UNL     1     -31.776   7.593   2.956  1.00 20.00     0.013 C 
HETATM    6  C6  UNL     1     -33.926   8.432   4.840  1.00 20.00     0.040 C 
HETATM    7  C7  UNL     1     -32.951   4.182   3.643  1.00 20.00     0.040 C 
HETATM    8  O9  UNL     1     -34.240   6.116   4.240  1.00 20.00    -0.381 OA
ENDROOT
BRANCH   2   9
HETATM    9  C8  UNL     1     -32.558   5.460   0.988  1.00 20.00     0.122 C 
HETATM   10 CL10 UNL     1     -33.349   4.314  -0.107  1.00 20.00    -0.130 Cl
ENDBRANCH   2   9
TORSDOF 1
ENDMDL
