MODEL 1
REMARK VINA RESULT:      -2.1      0.000      0.000
REMARK  2 active torsions:
REMARK  status: ('A' for Active; 'I' for Inactive)
REMARK    1  A    between atoms: C4_4  and  C9_9 
REMARK    2  A    between atoms: C8_8  and  O10_10 
ROOT
HETATM    1  C1  UNL     1     -32.766  10.260  -0.370  1.00 20.00     0.012 C 
HETATM    2  C2  UNL     1     -32.165   9.473   0.308  1.00 20.00    -0.113 C 
HETATM    3  C9  UNL     1     -31.413   8.524   1.126  1.00 20.00     0.127 C 
ENDROOT
BRANCH   3   4
HETATM    4  C4  UNL     1     -32.367   7.650   1.888  1.00 20.00    -0.070 C 
HETATM    5  C3  UNL     1     -33.199   8.149   2.819  1.00 20.00     0.008 C 
HETATM    6  C8  UNL     1     -34.144   7.305   3.624  1.00 20.00     0.141 C 
HETATM    7  C7  UNL     1     -33.833   5.808   3.538  1.00 20.00     0.036 C 
HETATM    8  C6  UNL     1     -33.527   5.396   2.105  1.00 20.00     0.007 C 
HETATM    9  C5  UNL     1     -32.334   6.180   1.550  1.00 20.00     0.035 C 
BRANCH   6  10
HETATM   10  O10 UNL     1     -34.073   7.715   4.987  1.00 20.00    -0.392 OA
HETATM   11  H22 UNL     1     -33.450   8.458   5.020  1.00 20.00     0.210 HD
ENDBRANCH   6  10
ENDBRANCH   3   4
TORSDOF 2
ENDMDL
MODEL 2
REMARK VINA RESULT:      -2.0      2.187      4.963
REMARK  2 active torsions:
REMARK  status: ('A' for Active; 'I' for Inactive)
REMARK    1  A    between atoms: C4_4  and  C9_9 
REMARK    2  A    between atoms: C8_8  and  O10_10 
ROOT
HETATM    1  C1  UNL     1     -33.238   2.802   4.763  1.00 20.00     0.012 C 
HETATM    2  C2  UNL     1     -33.930   3.757   4.538  1.00 20.00    -0.113 C 
HETATM    3  C9  UNL     1     -34.789   4.910   4.276  1.00 20.00     0.127 C 
ENDROOT
BRANCH   3   4
HETATM    4  C4  UNL     1     -34.039   5.920   3.458  1.00 20.00    -0.070 C 
HETATM    5  C3  UNL     1     -33.428   5.590   2.306  1.00 20.00     0.008 C 
HETATM    6  C8  UNL     1     -32.642   6.563   1.476  1.00 20.00     0.141 C 
HETATM    7  C7  UNL     1     -32.312   7.858   2.222  1.00 20.00     0.036 C 
HETATM    8  C6  UNL     1     -33.522   8.368   2.992  1.00 20.00     0.007 C 
HETATM    9  C5  UNL     1     -34.008   7.326   4.004  1.00 20.00     0.035 C 
BRANCH   6  10
HETATM   10  O10 UNL     1     -31.426   5.939   1.071  1.00 20.00    -0.392 OA
HETATM   11  H22 UNL     1     -30.711   6.402   1.534  1.00 20.00     0.210 HD
ENDBRANCH   6  10
ENDBRANCH   3   4
TORSDOF 2
ENDMDL
MODEL 3
REMARK VINA RESULT:      -1.6      1.346      2.060
REMARK  2 active torsions:
REMARK  status: ('A' for Active; 'I' for Inactive)
REMARK    1  A    between atoms: C4_4  and  C9_9 
REMARK    2  A    between atoms: C8_8  and  O10_10 
ROOT
HETATM    1  C1  UNL     1     -32.451  10.177   0.015  1.00 20.00     0.012 C 
HETATM    2  C2  UNL     1     -32.196   9.115   0.511  1.00 20.00    -0.113 C 
HETATM    3  C9  UNL     1     -31.874   7.816   1.099  1.00 20.00     0.127 C 
ENDROOT
BRANCH   3   4
HETATM    4  C4  UNL     1     -32.614   7.651   2.394  1.00 20.00    -0.070 C 
HETATM    5  C3  UNL     1     -33.552   6.702   2.560  1.00 20.00     0.008 C 
HETATM    6  C8  UNL     1     -34.337   6.525   3.827  1.00 20.00     0.141 C 
HETATM    7  C7  UNL     1     -34.222   7.721   4.776  1.00 20.00     0.036 C 
HETATM    8  C6  UNL     1     -32.783   8.205   4.872  1.00 20.00     0.007 C 
HETATM    9  C5  UNL     1     -32.247   8.614   3.496  1.00 20.00     0.035 C 
BRANCH   6  10
HETATM   10  O10 UNL     1     -35.709   6.330   3.491  1.00 20.00    -0.392 OA
HETATM   11  H22 UNL     1     -36.223   6.880   4.102  1.00 20.00     0.210 HD
ENDBRANCH   6  10
ENDBRANCH   3   4
TORSDOF 2
ENDMDL
MODEL 4
REMARK VINA RESULT:      -1.2      1.893      4.388
REMARK  2 active torsions:
REMARK  status: ('A' for Active; 'I' for Inactive)
REMARK    1  A    between atoms: C4_4  and  C9_9 
REMARK    2  A    between atoms: C8_8  and  O10_10 
ROOT
HETATM    1  C1  UNL     1     -33.664   3.230   4.593  1.00 20.00     0.012 C 
HETATM    2  C2  UNL     1     -34.044   4.307   4.226  1.00 20.00    -0.113 C 
HETATM    3  C9  UNL     1     -34.525   5.617   3.791  1.00 20.00     0.127 C 
ENDROOT
BRANCH   3   4
HETATM    4  C4  UNL     1     -33.521   6.241   2.866  1.00 20.00    -0.070 C 
HETATM    5  C3  UNL     1     -33.119   7.516   3.009  1.00 20.00     0.008 C 
HETATM    6  C8  UNL     1     -32.142   8.186   2.087  1.00 20.00     0.141 C 
HETATM    7  C7  UNL     1     -31.913   7.408   0.788  1.00 20.00     0.036 C 
HETATM    8  C6  UNL     1     -31.753   5.920   1.064  1.00 20.00     0.007 C 
HETATM    9  C5  UNL     1     -32.991   5.354   1.766  1.00 20.00     0.035 C 
BRANCH   6  10
HETATM   10  O10 UNL     1     -32.633   9.486   1.768  1.00 20.00    -0.392 OA
HETATM   11  H22 UNL     1     -33.516   9.551   2.163  1.00 20.00     0.210 HD
ENDBRANCH   6  10
ENDBRANCH   3   4
TORSDOF 2
ENDMDL
MODEL 5
REMARK VINA RESULT:      -1.2      1.817      2.394
REMARK  2 active torsions:
REMARK  status: ('A' for Active; 'I' for Inactive)
REMARK    1  A    between atoms: C4_4  and  C9_9 
REMARK    2  A    between atoms: C8_8  and  O10_10 
ROOT
HETATM    1  C1  UNL     1     -32.895  10.275  -0.511  1.00 20.00     0.012 C 
HETATM    2  C2  UNL     1     -32.312   9.758   0.401  1.00 20.00    -0.113 C 
HETATM    3  C9  UNL     1     -31.588   9.144   1.512  1.00 20.00     0.127 C 
ENDROOT
BRANCH   3   4
HETATM    4  C4  UNL     1     -32.281   7.880   1.929  1.00 20.00    -0.070 C 
HETATM    5  C3  UNL     1     -31.992   6.693   1.367  1.00 20.00     0.008 C 
HETATM    6  C8  UNL     1     -32.685   5.412   1.732  1.00 20.00     0.141 C 
HETATM    7  C7  UNL     1     -33.968   5.633   2.537  1.00 20.00     0.036 C 
HETATM    8  C6  UNL     1     -33.760   6.684   3.619  1.00 20.00     0.007 C 
HETATM    9  C5  UNL     1     -33.324   8.020   3.010  1.00 20.00     0.035 C 
BRANCH   6  10
HETATM   10  O10 UNL     1     -33.004   4.709   0.534  1.00 20.00    -0.392 OA
HETATM   11  H22 UNL     1     -32.175   4.615   0.041  1.00 20.00     0.210 HD
ENDBRANCH   6  10
ENDBRANCH   3   4
TORSDOF 2
ENDMDL
MODEL 6
REMARK VINA RESULT:      -1.2      1.952      2.877
REMARK  2 active torsions:
REMARK  status: ('A' for Active; 'I' for Inactive)
REMARK    1  A    between atoms: C4_4  and  C9_9 
REMARK    2  A    between atoms: C8_8  and  O10_10 
ROOT
HETATM    1  C1  UNL     1     -31.972   8.906   1.378  1.00 20.00     0.012 C 
HETATM    2  C2  UNL     1     -32.136   7.718   1.377  1.00 20.00    -0.113 C 
HETATM    3  C9  UNL     1     -32.323   6.268   1.357  1.00 20.00     0.127 C 
ENDROOT
BRANCH   3   4
HETATM    4  C4  UNL     1     -33.192   5.857   2.509  1.00 20.00    -0.070 C 
HETATM    5  C3  UNL     1     -32.960   4.731   3.208  1.00 20.00     0.008 C 
HETATM    6  C8  UNL     1     -33.824   4.269   4.345  1.00 20.00     0.141 C 
HETATM    7  C7  UNL     1     -35.168   4.998   4.412  1.00 20.00     0.036 C 
HETATM    8  C6  UNL     1     -34.990   6.493   4.194  1.00 20.00     0.007 C 
HETATM    9  C5  UNL     1     -34.342   6.777   2.835  1.00 20.00     0.035 C 
BRANCH   6  10
HETATM   10  O10 UNL     1     -34.062   2.871   4.198  1.00 20.00    -0.392 OA
HETATM   11  H22 UNL     1     -33.340   2.419   4.662  1.00 20.00     0.210 HD
ENDBRANCH   6  10
ENDBRANCH   3   4
TORSDOF 2
ENDMDL
MODEL 7
REMARK VINA RESULT:      -1.1      2.041      4.180
REMARK  2 active torsions:
REMARK  status: ('A' for Active; 'I' for Inactive)
REMARK    1  A    between atoms: C4_4  and  C9_9 
REMARK    2  A    between atoms: C8_8  and  O10_10 
ROOT
HETATM    1  C1  UNL     1     -35.512   4.993   4.582  1.00 20.00     0.012 C 
HETATM    2  C2  UNL     1     -35.019   6.065   4.365  1.00 20.00    -0.113 C 
HETATM    3  C9  UNL     1     -34.430   7.380   4.116  1.00 20.00     0.127 C 
ENDROOT
BRANCH   3   4
HETATM    4  C4  UNL     1     -33.440   7.284   2.992  1.00 20.00    -0.070 C 
HETATM    5  C3  UNL     1     -32.754   8.355   2.556  1.00 20.00     0.008 C 
HETATM    6  C8  UNL     1     -31.780   8.307   1.415  1.00 20.00     0.141 C 
HETATM    7  C7  UNL     1     -31.896   7.029   0.581  1.00 20.00     0.036 C 
HETATM    8  C6  UNL     1     -32.031   5.805   1.474  1.00 20.00     0.007 C 
HETATM    9  C5  UNL     1     -33.263   5.917   2.377  1.00 20.00     0.035 C 
BRANCH   6  10
HETATM   10  O10 UNL     1     -32.010   9.434   0.571  1.00 20.00    -0.392 OA
HETATM   11  H22 UNL     1     -31.340  10.094   0.805  1.00 20.00     0.210 HD
ENDBRANCH   6  10
ENDBRANCH   3   4
TORSDOF 2
ENDMDL
MODEL 8
REMARK VINA RESULT:      -0.7      2.063      4.437
REMARK  2 active torsions:
REMARK  status: ('A' for Active; 'I' for Inactive)
REMARK    1  A    between atoms: C4_4  and  C9_9 
REMARK    2  A    between atoms: C8_8  and  O10_10 
ROOT
HETATM    1  C1  UNL     1     -35.401   4.931   4.622  1.00 20.00     0.012 C 
HETATM    2  C2  UNL     1     -34.987   6.030   4.376  1.00 20.00    -0.113 C 
HETATM    3  C9  UNL     1     -34.496   7.377   4.093  1.00 20.00     0.127 C 
ENDROOT
BRANCH   3   4
HETATM    4  C4  UNL     1     -33.497   7.325   2.974  1.00 20.00    -0.070 C 
HETATM    5  C3  UNL     1     -33.343   6.228   2.210  1.00 20.00     0.008 C 
HETATM    6  C8  UNL     1     -32.333   6.124   1.104  1.00 20.00     0.141 C 
HETATM    7  C7  UNL     1     -31.277   7.231   1.150  1.00 20.00     0.036 C 
HETATM    8  C6  UNL     1     -31.915   8.584   1.429  1.00 20.00     0.007 C 
HETATM    9  C5  UNL     1     -32.673   8.570   2.760  1.00 20.00     0.035 C 
BRANCH   6  10
HETATM   10  O10 UNL     1     -31.683   4.859   1.198  1.00 20.00    -0.392 OA
HETATM   11  H22 UNL     1     -31.737   4.456   0.317  1.00 20.00     0.210 HD
ENDBRANCH   6  10
ENDBRANCH   3   4
TORSDOF 2
ENDMDL
MODEL 9
REMARK VINA RESULT:      -0.2      1.830      3.320
REMARK  2 active torsions:
REMARK  status: ('A' for Active; 'I' for Inactive)
REMARK    1  A    between atoms: C4_4  and  C9_9 
REMARK    2  A    between atoms: C8_8  and  O10_10 
ROOT
HETATM    1  C1  UNL     1     -34.174   4.071  -0.517  1.00 20.00     0.012 C 
HETATM    2  C2  UNL     1     -33.309   4.637   0.094  1.00 20.00    -0.113 C 
HETATM    3  C9  UNL     1     -32.241   5.317   0.824  1.00 20.00     0.127 C 
ENDROOT
BRANCH   3   4
HETATM    4  C4  UNL     1     -32.826   6.085   1.973  1.00 20.00    -0.070 C 
HETATM    5  C3  UNL     1     -33.718   5.533   2.815  1.00 20.00     0.008 C 
HETATM    6  C8  UNL     1     -34.350   6.276   3.956  1.00 20.00     0.141 C 
HETATM    7  C7  UNL     1     -34.156   7.792   3.865  1.00 20.00     0.036 C 
HETATM    8  C6  UNL     1     -32.726   8.137   3.474  1.00 20.00     0.007 C 
HETATM    9  C5  UNL     1     -32.359   7.511   2.125  1.00 20.00     0.035 C 
BRANCH   6  10
HETATM   10  O10 UNL     1     -35.746   5.988   3.970  1.00 20.00    -0.392 OA
HETATM   11  H22 UNL     1     -35.849   5.144   4.437  1.00 20.00     0.210 HD
ENDBRANCH   6  10
ENDBRANCH   3   4
TORSDOF 2
ENDMDL
