MODEL 1
REMARK VINA RESULT:      -1.7      0.000      0.000
REMARK  1 active torsions:
REMARK  status: ('A' for Active; 'I' for Inactive)
REMARK    1  A    between atoms: C2_2  and  C9_9 
ROOT
HETATM    1  C1  UNL     1     -33.188   7.936   2.953  1.00 20.00    -0.004 C 
HETATM    2  C2  UNL     1     -32.461   7.879   1.820  1.00 20.00    -0.078 C 
HETATM    3  C3  UNL     1     -32.206   6.561   1.121  1.00 20.00     0.034 C 
HETATM    4  C4  UNL     1     -33.104   5.416   1.596  1.00 20.00     0.006 C 
HETATM    5  C5  UNL     1     -33.223   5.410   3.117  1.00 20.00     0.024 C 
HETATM    6  C8  UNL     1     -33.772   6.739   3.646  1.00 20.00     0.105 C 
HETATM    7 CL10 UNL     1     -35.552   6.798   3.452  1.00 20.00    -0.121 Cl
ENDROOT
BRANCH   2   8
HETATM    8  C9  UNL     1     -31.880   9.075   1.160  1.00 20.00     0.014 A 
HETATM    9  C6  UNL     1     -32.324   9.394  -0.227  1.00 20.00     0.010 A 
HETATM   10  C7  UNL     1     -32.772  10.246   0.923  1.00 20.00     0.010 A 
ENDBRANCH   2   8
TORSDOF 1
ENDMDL
MODEL 2
REMARK VINA RESULT:      -1.7      1.603      2.583
REMARK  1 active torsions:
REMARK  status: ('A' for Active; 'I' for Inactive)
REMARK    1  A    between atoms: C2_2  and  C9_9 
ROOT
HETATM    1  C1  UNL     1     -33.396   5.449   2.475  1.00 20.00    -0.004 C 
HETATM    2  C2  UNL     1     -33.052   6.752   2.480  1.00 20.00    -0.078 C 
HETATM    3  C3  UNL     1     -33.687   7.724   3.452  1.00 20.00     0.034 C 
HETATM    4  C4  UNL     1     -34.442   7.055   4.603  1.00 20.00     0.006 C 
HETATM    5  C5  UNL     1     -35.289   5.891   4.097  1.00 20.00     0.024 C 
HETATM    6  C8  UNL     1     -34.436   4.845   3.374  1.00 20.00     0.105 C 
HETATM    7 CL10 UNL     1     -33.602   3.793   4.561  1.00 20.00    -0.121 Cl
ENDROOT
BRANCH   2   8
HETATM    8  C9  UNL     1     -32.032   7.331   1.572  1.00 20.00     0.014 A 
HETATM    9  C6  UNL     1     -32.278   8.695   1.020  1.00 20.00     0.010 A 
HETATM   10  C7  UNL     1     -31.227   8.484   2.068  1.00 20.00     0.010 A 
ENDBRANCH   2   8
TORSDOF 1
ENDMDL
MODEL 3
REMARK VINA RESULT:      -0.2      1.797      4.223
REMARK  1 active torsions:
REMARK  status: ('A' for Active; 'I' for Inactive)
REMARK    1  A    between atoms: C2_2  and  C9_9 
ROOT
HETATM    1  C1  UNL     1     -33.717   7.116   3.453  1.00 20.00    -0.004 C 
HETATM    2  C2  UNL     1     -33.598   5.920   2.844  1.00 20.00    -0.078 C 
HETATM    3  C3  UNL     1     -32.686   5.739   1.649  1.00 20.00     0.034 C 
HETATM    4  C4  UNL     1     -31.696   6.886   1.438  1.00 20.00     0.006 C 
HETATM    5  C5  UNL     1     -32.379   8.238   1.620  1.00 20.00     0.024 C 
HETATM    6  C8  UNL     1     -33.016   8.367   3.008  1.00 20.00     0.105 C 
HETATM    7 CL10 UNL     1     -31.769   8.770   4.230  1.00 20.00    -0.121 Cl
ENDROOT
BRANCH   2   8
HETATM    8  C9  UNL     1     -34.313   4.700   3.293  1.00 20.00     0.014 A 
HETATM    9  C6  UNL     1     -33.714   3.904   4.403  1.00 20.00     0.010 A 
HETATM   10  C7  UNL     1     -34.950   4.718   4.641  1.00 20.00     0.010 A 
ENDBRANCH   2   8
TORSDOF 1
ENDMDL
MODEL 4
REMARK VINA RESULT:      -0.1      2.155      4.357
REMARK  1 active torsions:
REMARK  status: ('A' for Active; 'I' for Inactive)
REMARK    1  A    between atoms: C2_2  and  C9_9 
ROOT
HETATM    1  C1  UNL     1     -32.883   6.895   1.781  1.00 20.00    -0.004 C 
HETATM    2  C2  UNL     1     -33.517   6.705   2.955  1.00 20.00    -0.078 C 
HETATM    3  C3  UNL     1     -33.167   7.531   4.175  1.00 20.00     0.034 C 
HETATM    4  C4  UNL     1     -32.332   8.776   3.869  1.00 20.00     0.006 C 
HETATM    5  C5  UNL     1     -31.218   8.456   2.876  1.00 20.00     0.024 C 
HETATM    6  C8  UNL     1     -31.774   7.884   1.568  1.00 20.00     0.105 C 
HETATM    7 CL10 UNL     1     -32.397   9.203   0.527  1.00 20.00    -0.121 Cl
ENDROOT
BRANCH   2   8
HETATM    8  C9  UNL     1     -34.600   5.710   3.147  1.00 20.00     0.014 A 
HETATM    9  C6  UNL     1     -34.403   4.649   4.176  1.00 20.00     0.010 A 
HETATM   10  C7  UNL     1     -35.380   5.760   4.416  1.00 20.00     0.010 A 
ENDBRANCH   2   8
TORSDOF 1
ENDMDL
MODEL 5
REMARK VINA RESULT:       0.0      1.871      4.475
REMARK  1 active torsions:
REMARK  status: ('A' for Active; 'I' for Inactive)
REMARK    1  A    between atoms: C2_2  and  C9_9 
ROOT
HETATM    1  C1  UNL     1     -34.124   6.384   3.922  1.00 20.00    -0.004 C 
HETATM    2  C2  UNL     1     -33.658   5.324   3.232  1.00 20.00    -0.078 C 
HETATM    3  C3  UNL     1     -32.751   5.509   2.034  1.00 20.00     0.034 C 
HETATM    4  C4  UNL     1     -32.155   6.914   1.911  1.00 20.00     0.006 C 
HETATM    5  C5  UNL     1     -33.212   7.981   2.182  1.00 20.00     0.024 C 
HETATM    6  C8  UNL     1     -33.838   7.815   3.571  1.00 20.00     0.105 C 
HETATM    7 CL10 UNL     1     -32.754   8.491   4.827  1.00 20.00    -0.121 Cl
ENDROOT
BRANCH   2   8
HETATM    8  C9  UNL     1     -33.966   3.917   3.589  1.00 20.00     0.014 A 
HETATM    9  C6  UNL     1     -32.866   3.079   4.146  1.00 20.00     0.010 A 
HETATM   10  C7  UNL     1     -33.979   3.548   5.033  1.00 20.00     0.010 A 
ENDBRANCH   2   8
TORSDOF 1
ENDMDL
MODEL 6
REMARK VINA RESULT:       0.0      2.209      5.052
REMARK  1 active torsions:
REMARK  status: ('A' for Active; 'I' for Inactive)
REMARK    1  A    between atoms: C2_2  and  C9_9 
ROOT
HETATM    1  C1  UNL     1     -32.986   4.923   2.658  1.00 20.00    -0.004 C 
HETATM    2  C2  UNL     1     -33.770   4.890   3.754  1.00 20.00    -0.078 C 
HETATM    3  C3  UNL     1     -34.495   6.129   4.234  1.00 20.00     0.034 C 
HETATM    4  C4  UNL     1     -34.541   7.264   3.207  1.00 20.00     0.006 C 
HETATM    5  C5  UNL     1     -33.186   7.443   2.530  1.00 20.00     0.024 C 
HETATM    6  C8  UNL     1     -32.724   6.155   1.842  1.00 20.00     0.105 C 
HETATM    7 CL10 UNL     1     -33.549   5.962   0.263  1.00 20.00    -0.121 Cl
ENDROOT
BRANCH   2   8
HETATM    8  C9  UNL     1     -34.003   3.663   4.555  1.00 20.00     0.014 A 
HETATM    9  C6  UNL     1     -33.200   2.450   4.229  1.00 20.00     0.010 A 
HETATM   10  C7  UNL     1     -32.926   3.219   5.486  1.00 20.00     0.010 A 
ENDBRANCH   2   8
TORSDOF 1
ENDMDL
MODEL 7
REMARK VINA RESULT:       0.5      2.096      4.062
REMARK  1 active torsions:
REMARK  status: ('A' for Active; 'I' for Inactive)
REMARK    1  A    between atoms: C2_2  and  C9_9 
ROOT
HETATM    1  C1  UNL     1     -33.112   7.989   2.975  1.00 20.00    -0.004 C 
HETATM    2  C2  UNL     1     -33.716   6.795   3.139  1.00 20.00    -0.078 C 
HETATM    3  C3  UNL     1     -33.352   5.610   2.271  1.00 20.00     0.034 C 
HETATM    4  C4  UNL     1     -32.053   5.787   1.482  1.00 20.00     0.006 C 
HETATM    5  C5  UNL     1     -31.975   7.179   0.863  1.00 20.00     0.024 C 
HETATM    6  C8  UNL     1     -32.077   8.277   1.928  1.00 20.00     0.105 C 
HETATM    7 CL10 UNL     1     -30.499   8.495   2.749  1.00 20.00    -0.121 Cl
ENDROOT
BRANCH   2   8
HETATM    8  C9  UNL     1     -34.749   6.537   4.173  1.00 20.00     0.014 A 
HETATM    9  C6  UNL     1     -36.083   6.046   3.723  1.00 20.00     0.010 A 
HETATM   10  C7  UNL     1     -35.140   5.122   4.433  1.00 20.00     0.010 A 
ENDBRANCH   2   8
TORSDOF 1
ENDMDL
MODEL 8
REMARK VINA RESULT:       0.6      1.959      4.051
REMARK  1 active torsions:
REMARK  status: ('A' for Active; 'I' for Inactive)
REMARK    1  A    between atoms: C2_2  and  C9_9 
ROOT
HETATM    1  C1  UNL     1     -33.130   5.551   2.607  1.00 20.00    -0.004 C 
HETATM    2  C2  UNL     1     -33.593   6.715   3.104  1.00 20.00    -0.078 C 
HETATM    3  C3  UNL     1     -33.016   8.040   2.655  1.00 20.00     0.034 C 
HETATM    4  C4  UNL     1     -32.161   7.954   1.388  1.00 20.00     0.006 C 
HETATM    5  C5  UNL     1     -31.229   6.747   1.440  1.00 20.00     0.024 C 
HETATM    6  C8  UNL     1     -32.007   5.440   1.617  1.00 20.00     0.105 C 
HETATM    7 CL10 UNL     1     -32.697   4.909   0.050  1.00 20.00    -0.121 Cl
ENDROOT
BRANCH   2   8
HETATM    8  C9  UNL     1     -34.694   6.800   4.094  1.00 20.00     0.014 A 
HETATM    9  C6  UNL     1     -36.082   6.522   3.624  1.00 20.00     0.010 A 
HETATM   10  C7  UNL     1     -35.371   5.534   4.499  1.00 20.00     0.010 A 
ENDBRANCH   2   8
TORSDOF 1
ENDMDL
MODEL 9
REMARK VINA RESULT:       0.8      1.997      3.813
REMARK  1 active torsions:
REMARK  status: ('A' for Active; 'I' for Inactive)
REMARK    1  A    between atoms: C2_2  and  C9_9 
ROOT
HETATM    1  C1  UNL     1     -31.961   7.013   1.496  1.00 20.00    -0.004 C 
HETATM    2  C2  UNL     1     -32.754   6.022   1.948  1.00 20.00    -0.078 C 
HETATM    3  C3  UNL     1     -33.689   6.242   3.119  1.00 20.00     0.034 C 
HETATM    4  C4  UNL     1     -33.901   7.713   3.482  1.00 20.00     0.006 C 
HETATM    5  C5  UNL     1     -32.579   8.475   3.468  1.00 20.00     0.024 C 
HETATM    6  C8  UNL     1     -31.890   8.384   2.103  1.00 20.00     0.105 C 
HETATM    7 CL10 UNL     1     -32.632   9.540   0.953  1.00 20.00    -0.121 Cl
ENDROOT
BRANCH   2   8
HETATM    8  C9  UNL     1     -32.797   4.668   1.342  1.00 20.00     0.014 A 
HETATM    9  C6  UNL     1     -33.292   4.543  -0.059  1.00 20.00     0.010 A 
HETATM   10  C7  UNL     1     -31.836   4.362   0.245  1.00 20.00     0.010 A 
ENDBRANCH   2   8
TORSDOF 1
ENDMDL
