MODEL 1
REMARK VINA RESULT:       2.6      0.000      0.000
REMARK  1 active torsions:
REMARK  status: ('A' for Active; 'I' for Inactive)
REMARK    1  A    between atoms: C3_3  and  C5_5 
ROOT
HETATM    1  C1  UNL     1     -31.327   7.938   0.546  1.00 20.00     0.109 A 
HETATM    2  C2  UNL     1     -31.868   9.052   1.121  1.00 20.00     0.107 A 
HETATM    3  C3  UNL     1     -32.763   7.277   2.096  1.00 20.00     0.113 A 
HETATM    4  C10 UNL     1     -31.600   5.468   0.860  1.00 20.00     0.157 C 
HETATM    5  N11 UNL     1     -31.897   6.853   1.169  1.00 20.00    -0.346 N 
HETATM    6  N12 UNL     1     -32.755   8.614   2.076  1.00 20.00    -0.350 N 
HETATM    7  H27 UNL     1     -33.315   9.214   2.674  1.00 20.00     0.166 HD
ENDROOT
BRANCH   3   8
HETATM    8  C5  UNL     1     -33.593   6.438   2.994  1.00 20.00    -0.016 C 
HETATM    9  C4  UNL     1     -33.465   5.097   3.002  1.00 20.00     0.004 C 
HETATM   10  C9  UNL     1     -34.280   4.183   3.872  1.00 20.00     0.105 C 
HETATM   11  C8  UNL     1     -35.475   4.878   4.532  1.00 20.00     0.024 C 
HETATM   12 CL13 UNL     1     -33.194   3.495   5.122  1.00 20.00    -0.121 Cl
HETATM   13  C7  UNL     1     -35.108   6.272   5.033  1.00 20.00     0.006 C 
HETATM   14  C6  UNL     1     -34.591   7.143   3.885  1.00 20.00     0.042 C 
ENDBRANCH   3   8
TORSDOF 1
ENDMDL
MODEL 2
REMARK VINA RESULT:       3.0      0.825      1.544
REMARK  1 active torsions:
REMARK  status: ('A' for Active; 'I' for Inactive)
REMARK    1  A    between atoms: C3_3  and  C5_5 
ROOT
HETATM    1  C1  UNL     1     -31.414   8.899   1.403  1.00 20.00     0.109 A 
HETATM    2  C2  UNL     1     -31.811   8.189   0.306  1.00 20.00     0.107 A 
HETATM    3  C3  UNL     1     -32.742   7.266   2.091  1.00 20.00     0.113 A 
HETATM    4  C10 UNL     1     -31.848   8.750   3.865  1.00 20.00     0.157 C 
HETATM    5  N11 UNL     1     -32.006   8.307   2.494  1.00 20.00    -0.346 N 
HETATM    6  N12 UNL     1     -32.631   7.184   0.760  1.00 20.00    -0.350 N 
HETATM    7  H27 UNL     1     -33.084   6.488   0.175  1.00 20.00     0.166 HD
ENDROOT
BRANCH   3   8
HETATM    8  C5  UNL     1     -33.543   6.354   2.941  1.00 20.00    -0.016 C 
HETATM    9  C4  UNL     1     -33.287   5.032   2.971  1.00 20.00     0.004 C 
HETATM   10  C9  UNL     1     -34.065   4.046   3.797  1.00 20.00     0.105 C 
HETATM   11  C8  UNL     1     -35.363   4.624   4.370  1.00 20.00     0.024 C 
HETATM   12 CL13 UNL     1     -33.002   3.473   5.121  1.00 20.00    -0.121 Cl
HETATM   13  C7  UNL     1     -35.166   6.049   4.879  1.00 20.00     0.006 C 
HETATM   14  C6  UNL     1     -34.662   6.962   3.759  1.00 20.00     0.042 C 
ENDBRANCH   3   8
TORSDOF 1
ENDMDL
MODEL 3
REMARK VINA RESULT:       3.6      1.336      2.209
REMARK  1 active torsions:
REMARK  status: ('A' for Active; 'I' for Inactive)
REMARK    1  A    between atoms: C3_3  and  C5_5 
ROOT
HETATM    1  C1  UNL     1     -31.421   9.591  -0.088  1.00 20.00     0.109 A 
HETATM    2  C2  UNL     1     -30.627   8.480  -0.078  1.00 20.00     0.107 A 
HETATM    3  C3  UNL     1     -32.268   8.162   1.375  1.00 20.00     0.113 A 
HETATM    4  C10 UNL     1     -33.497  10.301   1.119  1.00 20.00     0.157 C 
HETATM    5  N11 UNL     1     -32.429   9.367   0.819  1.00 20.00    -0.346 N 
HETATM    6  N12 UNL     1     -31.174   7.612   0.837  1.00 20.00    -0.350 N 
HETATM    7  H27 UNL     1     -30.805   6.694   1.067  1.00 20.00     0.166 HD
ENDROOT
BRANCH   3   8
HETATM    8  C5  UNL     1     -33.131   7.528   2.401  1.00 20.00    -0.016 C 
HETATM    9  C4  UNL     1     -33.607   6.280   2.228  1.00 20.00     0.004 C 
HETATM   10  C9  UNL     1     -34.496   5.578   3.216  1.00 20.00     0.105 C 
HETATM   11  C8  UNL     1     -35.061   6.510   4.294  1.00 20.00     0.024 C 
HETATM   12 CL13 UNL     1     -33.551   4.256   3.971  1.00 20.00    -0.121 Cl
HETATM   13  C7  UNL     1     -34.008   7.497   4.791  1.00 20.00     0.006 C 
HETATM   14  C6  UNL     1     -33.463   8.338   3.634  1.00 20.00     0.042 C 
ENDBRANCH   3   8
TORSDOF 1
ENDMDL
MODEL 4
REMARK VINA RESULT:       3.6      1.018      1.063
REMARK  1 active torsions:
REMARK  status: ('A' for Active; 'I' for Inactive)
REMARK    1  A    between atoms: C3_3  and  C5_5 
ROOT
HETATM    1  C1  UNL     1     -31.349   8.891   0.276  1.00 20.00     0.109 A 
HETATM    2  C2  UNL     1     -32.234   9.907   0.501  1.00 20.00     0.107 A 
HETATM    3  C3  UNL     1     -32.831   8.187   1.762  1.00 20.00     0.113 A 
HETATM    4  C10 UNL     1     -31.070   6.556   1.136  1.00 20.00     0.157 C 
HETATM    5  N11 UNL     1     -31.741   7.840   1.069  1.00 20.00    -0.346 N 
HETATM    6  N12 UNL     1     -33.140   9.443   1.424  1.00 20.00    -0.350 N 
HETATM    7  H27 UNL     1     -33.924   9.974   1.794  1.00 20.00     0.166 HD
ENDROOT
BRANCH   3   8
HETATM    8  C5  UNL     1     -33.577   7.351   2.732  1.00 20.00    -0.016 C 
HETATM    9  C4  UNL     1     -33.805   6.045   2.489  1.00 20.00     0.004 C 
HETATM   10  C9  UNL     1     -34.565   5.140   3.417  1.00 20.00     0.105 C 
HETATM   11  C8  UNL     1     -35.316   5.894   4.520  1.00 20.00     0.024 C 
HETATM   12 CL13 UNL     1     -33.401   3.983   4.138  1.00 20.00    -0.121 Cl
HETATM   13  C7  UNL     1     -34.480   7.034   5.092  1.00 20.00     0.006 C 
HETATM   14  C6  UNL     1     -34.082   8.021   3.991  1.00 20.00     0.042 C 
ENDBRANCH   3   8
TORSDOF 1
ENDMDL
MODEL 5
REMARK VINA RESULT:       3.7      2.925      5.220
REMARK  1 active torsions:
REMARK  status: ('A' for Active; 'I' for Inactive)
REMARK    1  A    between atoms: C3_3  and  C5_5 
ROOT
HETATM    1  C1  UNL     1     -34.231   5.471   3.691  1.00 20.00     0.109 A 
HETATM    2  C2  UNL     1     -34.607   6.561   4.424  1.00 20.00     0.107 A 
HETATM    3  C3  UNL     1     -33.478   7.278   2.658  1.00 20.00     0.113 A 
HETATM    4  C10 UNL     1     -32.956   5.114   1.565  1.00 20.00     0.157 C 
HETATM    5  N11 UNL     1     -33.535   5.944   2.604  1.00 20.00    -0.346 N 
HETATM    6  N12 UNL     1     -34.127   7.666   3.762  1.00 20.00    -0.350 N 
HETATM    7  H27 UNL     1     -34.248   8.628   4.064  1.00 20.00     0.166 HD
ENDROOT
BRANCH   3   8
HETATM    8  C5  UNL     1     -32.824   8.186   1.686  1.00 20.00    -0.016 C 
HETATM    9  C4  UNL     1     -33.378   9.371   1.364  1.00 20.00     0.004 C 
HETATM   10  C9  UNL     1     -32.781  10.335   0.378  1.00 20.00     0.105 C 
HETATM   11  C8  UNL     1     -31.646   9.728  -0.454  1.00 20.00     0.024 C 
HETATM   12 CL13 UNL     1     -32.189  11.762   1.288  1.00 20.00    -0.121 Cl
HETATM   13  C7  UNL     1     -30.731   8.852   0.397  1.00 20.00     0.006 C 
HETATM   14  C6  UNL     1     -31.524   7.725   1.063  1.00 20.00     0.042 C 
ENDBRANCH   3   8
TORSDOF 1
ENDMDL
MODEL 6
REMARK VINA RESULT:       3.8      1.794      2.781
REMARK  1 active torsions:
REMARK  status: ('A' for Active; 'I' for Inactive)
REMARK    1  A    between atoms: C3_3  and  C5_5 
ROOT
HETATM    1  C1  UNL     1     -31.833  10.505  -0.206  1.00 20.00     0.109 A 
HETATM    2  C2  UNL     1     -32.814  11.110   0.527  1.00 20.00     0.107 A 
HETATM    3  C3  UNL     1     -32.683   8.995   1.172  1.00 20.00     0.113 A 
HETATM    4  C10 UNL     1     -30.858   8.201  -0.308  1.00 20.00     0.157 C 
HETATM    5  N11 UNL     1     -31.772   9.198   0.214  1.00 20.00    -0.346 N 
HETATM    6  N12 UNL     1     -33.323  10.152   1.371  1.00 20.00    -0.350 N 
HETATM    7  H27 UNL     1     -34.071  10.301   2.043  1.00 20.00     0.166 HD
ENDROOT
BRANCH   3   8
HETATM    8  C5  UNL     1     -32.952   7.730   1.897  1.00 20.00    -0.016 C 
HETATM    9  C4  UNL     1     -33.574   7.737   3.092  1.00 20.00     0.004 C 
HETATM   10  C9  UNL     1     -33.867   6.499   3.890  1.00 20.00     0.105 C 
HETATM   11  C8  UNL     1     -33.136   5.255   3.374  1.00 20.00     0.024 C 
HETATM   12 CL13 UNL     1     -35.640   6.231   3.866  1.00 20.00    -0.121 Cl
HETATM   13  C7  UNL     1     -33.142   5.192   1.850  1.00 20.00     0.006 C 
HETATM   14  C6  UNL     1     -32.492   6.442   1.252  1.00 20.00     0.042 C 
ENDBRANCH   3   8
TORSDOF 1
ENDMDL
MODEL 7
REMARK VINA RESULT:       4.3      2.802      5.310
REMARK  1 active torsions:
REMARK  status: ('A' for Active; 'I' for Inactive)
REMARK    1  A    between atoms: C3_3  and  C5_5 
ROOT
HETATM    1  C1  UNL     1     -34.538   5.667   4.269  1.00 20.00     0.109 A 
HETATM    2  C2  UNL     1     -34.132   4.657   3.443  1.00 20.00     0.107 A 
HETATM    3  C3  UNL     1     -33.356   6.562   2.625  1.00 20.00     0.113 A 
HETATM    4  C10 UNL     1     -34.241   8.153   4.309  1.00 20.00     0.157 C 
HETATM    5  N11 UNL     1     -34.043   6.835   3.740  1.00 20.00    -0.346 N 
HETATM    6  N12 UNL     1     -33.403   5.240   2.434  1.00 20.00    -0.350 N 
HETATM    7  H27 UNL     1     -32.967   4.741   1.663  1.00 20.00     0.166 HD
ENDROOT
BRANCH   3   8
HETATM    8  C5  UNL     1     -32.660   7.531   1.745  1.00 20.00    -0.016 C 
HETATM    9  C4  UNL     1     -33.338   8.523   1.135  1.00 20.00     0.004 C 
HETATM   10  C9  UNL     1     -32.704   9.531   0.219  1.00 20.00     0.105 C 
HETATM   11  C8  UNL     1     -31.278   9.158  -0.201  1.00 20.00     0.024 C 
HETATM   12 CL13 UNL     1     -32.711  11.118   1.052  1.00 20.00    -0.121 Cl
HETATM   13  C7  UNL     1     -30.479   8.590   0.968  1.00 20.00     0.006 C 
HETATM   14  C6  UNL     1     -31.170   7.354   1.548  1.00 20.00     0.042 C 
ENDBRANCH   3   8
TORSDOF 1
ENDMDL
MODEL 8
REMARK VINA RESULT:       4.5      2.630      5.028
REMARK  1 active torsions:
REMARK  status: ('A' for Active; 'I' for Inactive)
REMARK    1  A    between atoms: C3_3  and  C5_5 
ROOT
HETATM    1  C1  UNL     1     -34.607   3.621   4.810  1.00 20.00     0.109 A 
HETATM    2  C2  UNL     1     -33.450   2.978   4.471  1.00 20.00     0.107 A 
HETATM    3  C3  UNL     1     -33.417   4.986   3.536  1.00 20.00     0.113 A 
HETATM    4  C10 UNL     1     -35.595   5.870   4.326  1.00 20.00     0.157 C 
HETATM    5  N11 UNL     1     -34.560   4.861   4.219  1.00 20.00    -0.346 N 
HETATM    6  N12 UNL     1     -32.733   3.846   3.682  1.00 20.00    -0.350 N 
HETATM    7  H27 UNL     1     -31.823   3.650   3.274  1.00 20.00     0.166 HD
ENDROOT
BRANCH   3   8
HETATM    8  C5  UNL     1     -32.967   6.161   2.753  1.00 20.00    -0.016 C 
HETATM    9  C4  UNL     1     -33.027   7.403   3.273  1.00 20.00     0.004 C 
HETATM   10  C9  UNL     1     -32.604   8.641   2.535  1.00 20.00     0.105 C 
HETATM   11  C8  UNL     1     -32.378   8.409   1.037  1.00 20.00     0.024 C 
HETATM   12 CL13 UNL     1     -31.105   9.256   3.302  1.00 20.00    -0.121 Cl
HETATM   13  C7  UNL     1     -31.658   7.089   0.776  1.00 20.00     0.006 C 
HETATM   14  C6  UNL     1     -32.453   5.915   1.352  1.00 20.00     0.042 C 
ENDBRANCH   3   8
TORSDOF 1
ENDMDL
MODEL 9
REMARK VINA RESULT:       4.7      1.786      3.048
REMARK  1 active torsions:
REMARK  status: ('A' for Active; 'I' for Inactive)
REMARK    1  A    between atoms: C3_3  and  C5_5 
ROOT
HETATM    1  C1  UNL     1     -31.931  10.378  -0.058  1.00 20.00     0.109 A 
HETATM    2  C2  UNL     1     -30.967   9.530  -0.524  1.00 20.00     0.107 A 
HETATM    3  C3  UNL     1     -32.204   8.422   0.942  1.00 20.00     0.113 A 
HETATM    4  C10 UNL     1     -33.817  10.196   1.579  1.00 20.00     0.157 C 
HETATM    5  N11 UNL     1     -32.683   9.667   0.846  1.00 20.00    -0.346 N 
HETATM    6  N12 UNL     1     -31.160   8.326   0.112  1.00 20.00    -0.350 N 
HETATM    7  H27 UNL     1     -30.595   7.493  -0.028  1.00 20.00     0.166 HD
ENDROOT
BRANCH   3   8
HETATM    8  C5  UNL     1     -32.719   7.330   1.801  1.00 20.00    -0.016 C 
HETATM    9  C4  UNL     1     -33.403   7.602   2.930  1.00 20.00     0.004 C 
HETATM   10  C9  UNL     1     -33.942   6.549   3.857  1.00 20.00     0.105 C 
HETATM   11  C8  UNL     1     -33.393   5.147   3.570  1.00 20.00     0.024 C 
HETATM   12 CL13 UNL     1     -35.729   6.555   3.722  1.00 20.00    -0.121 Cl
HETATM   13  C7  UNL     1     -33.317   4.870   2.071  1.00 20.00     0.006 C 
HETATM   14  C6  UNL     1     -32.437   5.907   1.370  1.00 20.00     0.042 C 
ENDBRANCH   3   8
TORSDOF 1
ENDMDL
