MODEL 1
REMARK VINA RESULT:       0.8      0.000      0.000
REMARK  0 active torsions:
REMARK  status: ('A' for Active; 'I' for Inactive)
ROOT
HETATM    1  C1  UNL     1     -33.296   8.890   1.979  1.00 20.00     0.019 A 
HETATM    2  C2  UNL     1     -32.487   9.614   1.132  1.00 20.00     0.050 A 
HETATM    3  C3  UNL     1     -31.775   7.267   1.304  1.00 20.00     0.061 A 
HETATM    4  C4  UNL     1     -32.882   7.530   2.079  1.00 20.00    -0.023 A 
HETATM    5  C5  UNL     1     -33.180   5.259   3.007  1.00 20.00     0.058 A 
HETATM    6  C6  UNL     1     -33.514   6.549   2.868  1.00 20.00    -0.043 A 
HETATM    7  C7  UNL     1     -34.151   4.670   3.939  1.00 20.00     0.150 A 
HETATM    8  C8  UNL     1     -34.720   6.943   3.680  1.00 20.00     0.047 A 
HETATM    9  C9  UNL     1     -35.156   5.675   4.404  1.00 20.00     0.087 A 
HETATM   10  O10 UNL     1     -34.124   3.497   4.279  1.00 20.00    -0.293 OA
HETATM   11  S11 UNL     1     -31.236   8.656   0.461  1.00 20.00    -0.113 SA
ENDROOT
TORSDOF 0
ENDMDL
MODEL 2
REMARK VINA RESULT:       1.1      3.166      4.997
REMARK  0 active torsions:
REMARK  status: ('A' for Active; 'I' for Inactive)
ROOT
HETATM    1  C1  UNL     1     -33.265   4.966   3.164  1.00 20.00     0.019 A 
HETATM    2  C2  UNL     1     -34.089   4.282   4.031  1.00 20.00     0.050 A 
HETATM    3  C3  UNL     1     -34.768   6.631   3.773  1.00 20.00     0.061 A 
HETATM    4  C4  UNL     1     -33.659   6.328   3.016  1.00 20.00    -0.023 A 
HETATM    5  C5  UNL     1     -33.325   8.561   2.013  1.00 20.00     0.058 A 
HETATM    6  C6  UNL     1     -33.010   7.272   2.198  1.00 20.00    -0.043 A 
HETATM    7  C7  UNL     1     -32.340   9.105   1.069  1.00 20.00     0.150 A 
HETATM    8  C8  UNL     1     -31.802   6.835   1.411  1.00 20.00     0.047 A 
HETATM    9  C9  UNL     1     -31.347   8.071   0.643  1.00 20.00     0.087 A 
HETATM   10  O10 UNL     1     -32.349  10.266   0.689  1.00 20.00    -0.293 OA
HETATM   11  S11 UNL     1     -35.331   5.279   4.660  1.00 20.00    -0.113 SA
ENDROOT
TORSDOF 0
ENDMDL
MODEL 3
REMARK VINA RESULT:       1.6      1.028      1.873
REMARK  0 active torsions:
REMARK  status: ('A' for Active; 'I' for Inactive)
ROOT
HETATM    1  C1  UNL     1     -31.765   7.299   1.245  1.00 20.00     0.019 A 
HETATM    2  C2  UNL     1     -31.383   8.470   0.627  1.00 20.00     0.050 A 
HETATM    3  C3  UNL     1     -33.356   8.784   2.060  1.00 20.00     0.061 A 
HETATM    4  C4  UNL     1     -32.909   7.482   2.075  1.00 20.00    -0.023 A 
HETATM    5  C5  UNL     1     -34.600   6.571   3.629  1.00 20.00     0.058 A 
HETATM    6  C6  UNL     1     -33.528   6.469   2.831  1.00 20.00    -0.043 A 
HETATM    7  C7  UNL     1     -34.842   5.233   4.184  1.00 20.00     0.150 A 
HETATM    8  C8  UNL     1     -32.958   5.076   2.776  1.00 20.00     0.047 A 
HETATM    9  C9  UNL     1     -33.841   4.237   3.691  1.00 20.00     0.087 A 
HETATM   10  O10 UNL     1     -35.755   4.985   4.956  1.00 20.00    -0.293 OA
HETATM   11  S11 UNL     1     -32.401   9.781   1.048  1.00 20.00    -0.113 SA
ENDROOT
TORSDOF 0
ENDMDL
MODEL 4
REMARK VINA RESULT:       1.7      3.043      4.653
REMARK  0 active torsions:
REMARK  status: ('A' for Active; 'I' for Inactive)
ROOT
HETATM    1  C1  UNL     1     -34.726   6.802   3.776  1.00 20.00     0.019 A 
HETATM    2  C2  UNL     1     -35.144   5.666   4.434  1.00 20.00     0.050 A 
HETATM    3  C3  UNL     1     -33.215   5.230   2.973  1.00 20.00     0.061 A 
HETATM    4  C4  UNL     1     -33.608   6.548   2.929  1.00 20.00    -0.023 A 
HETATM    5  C5  UNL     1     -31.913   7.344   1.317  1.00 20.00     0.058 A 
HETATM    6  C6  UNL     1     -32.963   7.513   2.132  1.00 20.00    -0.043 A 
HETATM    7  C7  UNL     1     -31.628   8.655   0.719  1.00 20.00     0.150 A 
HETATM    8  C8  UNL     1     -33.476   8.930   2.157  1.00 20.00     0.047 A 
HETATM    9  C9  UNL     1     -32.574   9.706   1.205  1.00 20.00     0.087 A 
HETATM   10  O10 UNL     1     -30.721   8.843  -0.077  1.00 20.00    -0.293 OA
HETATM   11  S11 UNL     1     -34.191   4.302   4.030  1.00 20.00    -0.113 SA
ENDROOT
TORSDOF 0
ENDMDL
MODEL 5
REMARK VINA RESULT:       2.1      1.390      2.131
REMARK  0 active torsions:
REMARK  status: ('A' for Active; 'I' for Inactive)
ROOT
HETATM    1  C1  UNL     1     -31.699   8.144   0.498  1.00 20.00     0.019 A 
HETATM    2  C2  UNL     1     -31.347   9.320  -0.127  1.00 20.00     0.050 A 
HETATM    3  C3  UNL     1     -33.113   9.660   1.549  1.00 20.00     0.061 A 
HETATM    4  C4  UNL     1     -32.723   8.342   1.469  1.00 20.00    -0.023 A 
HETATM    5  C5  UNL     1     -34.247   7.443   3.194  1.00 20.00     0.058 A 
HETATM    6  C6  UNL     1     -33.287   7.328   2.267  1.00 20.00    -0.043 A 
HETATM    7  C7  UNL     1     -34.474   6.097   3.735  1.00 20.00     0.150 A 
HETATM    8  C8  UNL     1     -32.787   5.917   2.099  1.00 20.00     0.047 A 
HETATM    9  C9  UNL     1     -33.585   5.080   3.092  1.00 20.00     0.087 A 
HETATM   10  O10 UNL     1     -35.295   5.857   4.607  1.00 20.00    -0.293 OA
HETATM   11  S11 UNL     1     -32.249  10.654   0.456  1.00 20.00    -0.113 SA
ENDROOT
TORSDOF 0
ENDMDL
