MODEL 1
REMARK VINA RESULT:      -2.0      0.000      0.000
REMARK  4 active torsions:
REMARK  status: ('A' for Active; 'I' for Inactive)
REMARK    1  A    between atoms: C2_2  and  C7_7 
REMARK    2  A    between atoms: C7_7  and  C8_8 
REMARK    3  A    between atoms: C8_8  and  C9_9 
REMARK    4  A    between atoms: C9_9  and  O10_10 
ROOT
HETATM    1  C1  UNL     1     -33.469   5.860   2.679  1.00 20.00    -0.004 C 
HETATM    2  C2  UNL     1     -33.367   7.101   3.172  1.00 20.00    -0.082 C 
HETATM    3  C3  UNL     1     -34.347   7.336   4.278  1.00 20.00     0.036 C 
HETATM    4  C4  UNL     1     -35.310   6.157   4.123  1.00 20.00     0.028 C 
HETATM    5  C5  UNL     1     -34.530   5.073   3.375  1.00 20.00     0.105 C 
HETATM    6 CL11 UNL     1     -33.780   3.914   4.494  1.00 20.00    -0.121 Cl
ENDROOT
BRANCH   2   7
HETATM    7  C7  UNL     1     -32.406   8.154   2.753  1.00 20.00     0.036 C 
BRANCH   7   8
HETATM    8  C8  UNL     1     -31.583   7.702   1.551  1.00 20.00     0.030 C 
BRANCH   8   9
HETATM    9  C9  UNL     1     -31.607   8.709   0.408  1.00 20.00     0.167 C 
BRANCH   9  10
HETATM   10  O10 UNL     1     -32.480   9.776   0.755  1.00 20.00    -0.396 OA
HETATM   11  C6  UNL     1     -32.891  10.508  -0.390  1.00 20.00     0.201 C 
ENDBRANCH   9  10
ENDBRANCH   8   9
ENDBRANCH   7   8
ENDBRANCH   2   7
TORSDOF 4
ENDMDL
MODEL 2
REMARK VINA RESULT:      -1.6      3.387      5.231
REMARK  4 active torsions:
REMARK  status: ('A' for Active; 'I' for Inactive)
REMARK    1  A    between atoms: C2_2  and  C7_7 
REMARK    2  A    between atoms: C7_7  and  C8_8 
REMARK    3  A    between atoms: C8_8  and  C9_9 
REMARK    4  A    between atoms: C9_9  and  O10_10 
ROOT
HETATM    1  C1  UNL     1     -33.342   6.887   2.176  1.00 20.00    -0.004 C 
HETATM    2  C2  UNL     1     -34.033   7.100   3.303  1.00 20.00    -0.082 C 
HETATM    3  C3  UNL     1     -33.395   8.156   4.150  1.00 20.00     0.036 C 
HETATM    4  C4  UNL     1     -32.003   8.282   3.526  1.00 20.00     0.028 C 
HETATM    5  C5  UNL     1     -32.135   7.763   2.092  1.00 20.00     0.105 C 
HETATM    6 CL11 UNL     1     -32.433   9.084   0.941  1.00 20.00    -0.121 Cl
ENDROOT
BRANCH   2   7
HETATM    7  C7  UNL     1     -35.300   6.440   3.713  1.00 20.00     0.036 C 
BRANCH   7   8
HETATM    8  C8  UNL     1     -35.026   5.141   4.464  1.00 20.00     0.030 C 
BRANCH   8   9
HETATM    9  C9  UNL     1     -33.955   4.288   3.797  1.00 20.00     0.167 C 
BRANCH   9  10
HETATM   10  O10 UNL     1     -33.884   3.034   4.464  1.00 20.00    -0.396 OA
HETATM   11  C6  UNL     1     -32.683   2.907   5.210  1.00 20.00     0.201 C 
ENDBRANCH   9  10
ENDBRANCH   8   9
ENDBRANCH   7   8
ENDBRANCH   2   7
TORSDOF 4
ENDMDL
MODEL 3
REMARK VINA RESULT:      -1.5      3.152      5.166
REMARK  4 active torsions:
REMARK  status: ('A' for Active; 'I' for Inactive)
REMARK    1  A    between atoms: C2_2  and  C7_7 
REMARK    2  A    between atoms: C7_7  and  C8_8 
REMARK    3  A    between atoms: C8_8  and  C9_9 
REMARK    4  A    between atoms: C9_9  and  O10_10 
ROOT
HETATM    1  C1  UNL     1     -33.144   7.326   2.111  1.00 20.00    -0.004 C 
HETATM    2  C2  UNL     1     -33.266   7.685   3.395  1.00 20.00    -0.082 C 
HETATM    3  C3  UNL     1     -32.153   8.590   3.822  1.00 20.00     0.036 C 
HETATM    4  C4  UNL     1     -31.137   8.421   2.690  1.00 20.00     0.028 C 
HETATM    5  C5  UNL     1     -31.934   7.931   1.479  1.00 20.00     0.105 C 
HETATM    6 CL11 UNL     1     -32.419   9.278   0.425  1.00 20.00    -0.121 Cl
ENDROOT
BRANCH   2   7
HETATM    7  C7  UNL     1     -34.356   7.306   4.330  1.00 20.00     0.036 C 
BRANCH   7   8
HETATM    8  C8  UNL     1     -35.194   6.162   3.766  1.00 20.00     0.030 C 
BRANCH   8   9
HETATM    9  C9  UNL     1     -34.954   4.843   4.489  1.00 20.00     0.167 C 
BRANCH   9  10
HETATM   10  O10 UNL     1     -33.869   4.169   3.864  1.00 20.00    -0.396 OA
HETATM   11  C6  UNL     1     -33.371   3.116   4.676  1.00 20.00     0.201 C 
ENDBRANCH   9  10
ENDBRANCH   8   9
ENDBRANCH   7   8
ENDBRANCH   2   7
TORSDOF 4
ENDMDL
MODEL 4
REMARK VINA RESULT:      -1.2      3.309      5.359
REMARK  4 active torsions:
REMARK  status: ('A' for Active; 'I' for Inactive)
REMARK    1  A    between atoms: C2_2  and  C7_7 
REMARK    2  A    between atoms: C7_7  and  C8_8 
REMARK    3  A    between atoms: C8_8  and  C9_9 
REMARK    4  A    between atoms: C9_9  and  O10_10 
ROOT
HETATM    1  C1  UNL     1     -32.241   7.064   1.298  1.00 20.00    -0.004 C 
HETATM    2  C2  UNL     1     -33.035   6.824   2.349  1.00 20.00    -0.082 C 
HETATM    3  C3  UNL     1     -32.978   7.938   3.348  1.00 20.00     0.036 C 
HETATM    4  C4  UNL     1     -31.739   8.717   2.903  1.00 20.00     0.028 C 
HETATM    5  C5  UNL     1     -31.531   8.371   1.427  1.00 20.00     0.105 C 
HETATM    6 CL11 UNL     1     -32.289   9.573   0.359  1.00 20.00    -0.121 Cl
ENDROOT
BRANCH   2   7
HETATM    7  C7  UNL     1     -33.916   5.645   2.555  1.00 20.00     0.036 C 
BRANCH   7   8
HETATM    8  C8  UNL     1     -34.766   5.805   3.811  1.00 20.00     0.030 C 
BRANCH   8   9
HETATM    9  C9  UNL     1     -34.734   4.572   4.705  1.00 20.00     0.167 C 
BRANCH   9  10
HETATM   10  O10 UNL     1     -33.975   3.557   4.060  1.00 20.00    -0.396 OA
HETATM   11  C6  UNL     1     -33.099   2.904   4.968  1.00 20.00     0.201 C 
ENDBRANCH   9  10
ENDBRANCH   8   9
ENDBRANCH   7   8
ENDBRANCH   2   7
TORSDOF 4
ENDMDL
MODEL 5
REMARK VINA RESULT:      -0.8      1.503      1.889
REMARK  4 active torsions:
REMARK  status: ('A' for Active; 'I' for Inactive)
REMARK    1  A    between atoms: C2_2  and  C7_7 
REMARK    2  A    between atoms: C7_7  and  C8_8 
REMARK    3  A    between atoms: C8_8  and  C9_9 
REMARK    4  A    between atoms: C9_9  and  O10_10 
ROOT
HETATM    1  C1  UNL     1     -33.934   7.328   3.324  1.00 20.00    -0.004 C 
HETATM    2  C2  UNL     1     -33.110   6.546   2.615  1.00 20.00    -0.082 C 
HETATM    3  C3  UNL     1     -33.481   5.102   2.736  1.00 20.00     0.036 C 
HETATM    4  C4  UNL     1     -34.438   5.105   3.930  1.00 20.00     0.028 C 
HETATM    5  C5  UNL     1     -34.983   6.532   4.029  1.00 20.00     0.105 C 
HETATM    6 CL11 UNL     1     -36.535   6.702   3.180  1.00 20.00    -0.121 Cl
ENDROOT
BRANCH   2   7
HETATM    7  C7  UNL     1     -31.973   6.984   1.764  1.00 20.00     0.036 C 
BRANCH   7   8
HETATM    8  C8  UNL     1     -32.032   8.484   1.494  1.00 20.00     0.030 C 
BRANCH   8   9
HETATM    9  C9  UNL     1     -31.674   8.838   0.056  1.00 20.00     0.167 C 
BRANCH   9  10
HETATM   10  O10 UNL     1     -32.578   9.831  -0.411  1.00 20.00    -0.396 OA
HETATM   11  C6  UNL     1     -32.855  10.798   0.592  1.00 20.00     0.201 C 
ENDBRANCH   9  10
ENDBRANCH   8   9
ENDBRANCH   7   8
ENDBRANCH   2   7
TORSDOF 4
ENDMDL
MODEL 6
REMARK VINA RESULT:      -0.3      3.039      5.219
REMARK  4 active torsions:
REMARK  status: ('A' for Active; 'I' for Inactive)
REMARK    1  A    between atoms: C2_2  and  C7_7 
REMARK    2  A    between atoms: C7_7  and  C8_8 
REMARK    3  A    between atoms: C8_8  and  C9_9 
REMARK    4  A    between atoms: C9_9  and  O10_10 
ROOT
HETATM    1  C1  UNL     1     -33.028   8.318   2.749  1.00 20.00    -0.004 C 
HETATM    2  C2  UNL     1     -33.611   7.173   3.125  1.00 20.00    -0.082 C 
HETATM    3  C3  UNL     1     -33.091   6.007   2.344  1.00 20.00     0.036 C 
HETATM    4  C4  UNL     1     -32.369   6.687   1.178  1.00 20.00     0.028 C 
HETATM    5  C5  UNL     1     -32.030   8.100   1.659  1.00 20.00     0.105 C 
HETATM    6 CL11 UNL     1     -30.385   8.189   2.327  1.00 20.00    -0.121 Cl
ENDROOT
BRANCH   2   7
HETATM    7  C7  UNL     1     -34.625   6.995   4.197  1.00 20.00     0.036 C 
BRANCH   7   8
HETATM    8  C8  UNL     1     -35.407   5.699   4.007  1.00 20.00     0.030 C 
BRANCH   8   9
HETATM    9  C9  UNL     1     -34.892   4.565   4.884  1.00 20.00     0.167 C 
BRANCH   9  10
HETATM   10  O10 UNL     1     -34.136   3.669   4.079  1.00 20.00    -0.396 OA
HETATM   11  C6  UNL     1     -33.133   3.007   4.836  1.00 20.00     0.201 C 
ENDBRANCH   9  10
ENDBRANCH   8   9
ENDBRANCH   7   8
ENDBRANCH   2   7
TORSDOF 4
ENDMDL
MODEL 7
REMARK VINA RESULT:       0.2      3.106      5.247
REMARK  4 active torsions:
REMARK  status: ('A' for Active; 'I' for Inactive)
REMARK    1  A    between atoms: C2_2  and  C7_7 
REMARK    2  A    between atoms: C7_7  and  C8_8 
REMARK    3  A    between atoms: C8_8  and  C9_9 
REMARK    4  A    between atoms: C9_9  and  O10_10 
ROOT
HETATM    1  C1  UNL     1     -32.938   9.314   1.557  1.00 20.00    -0.004 C 
HETATM    2  C2  UNL     1     -32.053   8.394   1.154  1.00 20.00    -0.082 C 
HETATM    3  C3  UNL     1     -31.362   8.808  -0.107  1.00 20.00     0.036 C 
HETATM    4  C4  UNL     1     -32.241   9.958  -0.602  1.00 20.00     0.028 C 
HETATM    5  C5  UNL     1     -32.979  10.485   0.631  1.00 20.00     0.105 C 
HETATM    6 CL11 UNL     1     -32.128  11.861   1.366  1.00 20.00    -0.121 Cl
ENDROOT
BRANCH   2   7
HETATM    7  C7  UNL     1     -31.717   7.118   1.837  1.00 20.00     0.036 C 
BRANCH   7   8
HETATM    8  C8  UNL     1     -32.779   6.055   1.574  1.00 20.00     0.030 C 
BRANCH   8   9
HETATM    9  C9  UNL     1     -33.448   5.562   2.850  1.00 20.00     0.167 C 
BRANCH   9  10
HETATM   10  O10 UNL     1     -34.168   6.640   3.436  1.00 20.00    -0.396 OA
HETATM   11  C6  UNL     1     -35.342   6.187   4.093  1.00 20.00     0.201 C 
ENDBRANCH   9  10
ENDBRANCH   8   9
ENDBRANCH   7   8
ENDBRANCH   2   7
TORSDOF 4
ENDMDL
MODEL 8
REMARK VINA RESULT:       0.2      2.870      4.952
REMARK  4 active torsions:
REMARK  status: ('A' for Active; 'I' for Inactive)
REMARK    1  A    between atoms: C2_2  and  C7_7 
REMARK    2  A    between atoms: C7_7  and  C8_8 
REMARK    3  A    between atoms: C8_8  and  C9_9 
REMARK    4  A    between atoms: C9_9  and  O10_10 
ROOT
HETATM    1  C1  UNL     1     -32.775   5.700   2.665  1.00 20.00    -0.004 C 
HETATM    2  C2  UNL     1     -33.351   6.885   2.909  1.00 20.00    -0.082 C 
HETATM    3  C3  UNL     1     -32.901   7.927   1.934  1.00 20.00     0.036 C 
HETATM    4  C4  UNL     1     -31.678   7.270   1.290  1.00 20.00     0.028 C 
HETATM    5  C5  UNL     1     -31.853   5.763   1.493  1.00 20.00     0.105 C 
HETATM    6 CL11 UNL     1     -32.620   4.997   0.085  1.00 20.00    -0.121 Cl
ENDROOT
BRANCH   2   7
HETATM    7  C7  UNL     1     -34.344   7.195   3.969  1.00 20.00     0.036 C 
BRANCH   7   8
HETATM    8  C8  UNL     1     -35.453   6.148   4.010  1.00 20.00     0.030 C 
BRANCH   8   9
HETATM    9  C9  UNL     1     -35.106   4.956   4.893  1.00 20.00     0.167 C 
BRANCH   9  10
HETATM   10  O10 UNL     1     -34.520   3.942   4.087  1.00 20.00    -0.396 OA
HETATM   11  C6  UNL     1     -33.514   3.230   4.792  1.00 20.00     0.201 C 
ENDBRANCH   9  10
ENDBRANCH   8   9
ENDBRANCH   7   8
ENDBRANCH   2   7
TORSDOF 4
ENDMDL
MODEL 9
REMARK VINA RESULT:       0.2      3.365      5.178
REMARK  4 active torsions:
REMARK  status: ('A' for Active; 'I' for Inactive)
REMARK    1  A    between atoms: C2_2  and  C7_7 
REMARK    2  A    between atoms: C7_7  and  C8_8 
REMARK    3  A    between atoms: C8_8  and  C9_9 
REMARK    4  A    between atoms: C9_9  and  O10_10 
ROOT
HETATM    1  C1  UNL     1     -31.666   7.673   0.588  1.00 20.00    -0.004 C 
HETATM    2  C2  UNL     1     -32.311   7.069   1.594  1.00 20.00    -0.082 C 
HETATM    3  C3  UNL     1     -32.803   8.057   2.605  1.00 20.00     0.036 C 
HETATM    4  C4  UNL     1     -32.028   9.323   2.233  1.00 20.00     0.028 C 
HETATM    5  C5  UNL     1     -31.625   9.155   0.766  1.00 20.00     0.105 C 
HETATM    6 CL11 UNL     1     -32.797   9.923  -0.328  1.00 20.00    -0.121 Cl
ENDROOT
BRANCH   2   7
HETATM    7  C7  UNL     1     -32.575   5.615   1.742  1.00 20.00     0.036 C 
BRANCH   7   8
HETATM    8  C8  UNL     1     -33.821   5.364   2.587  1.00 20.00     0.030 C 
BRANCH   8   9
HETATM    9  C9  UNL     1     -33.616   4.273   3.629  1.00 20.00     0.167 C 
BRANCH   9  10
HETATM   10  O10 UNL     1     -34.740   4.254   4.501  1.00 20.00    -0.396 OA
HETATM   11  C6  UNL     1     -35.436   5.491   4.481  1.00 20.00     0.201 C 
ENDBRANCH   9  10
ENDBRANCH   8   9
ENDBRANCH   7   8
ENDBRANCH   2   7
TORSDOF 4
ENDMDL
