MODEL 1
REMARK VINA RESULT:       0.2      0.000      0.000
REMARK  1 active torsions:
REMARK  status: ('A' for Active; 'I' for Inactive)
REMARK    1  A    between atoms: C2_2  and  C10_10 
ROOT
HETATM    1  C1  UNL     1     -33.441   5.958   2.411  1.00 20.00    -0.003 C 
HETATM    2  C2  UNL     1     -33.062   7.234   2.623  1.00 20.00    -0.075 C 
HETATM    3  C3  UNL     1     -33.686   8.060   3.729  1.00 20.00     0.034 C 
HETATM    4  C4  UNL     1     -34.477   7.241   4.752  1.00 20.00     0.006 C 
HETATM    5  C5  UNL     1     -35.347   6.196   4.060  1.00 20.00     0.024 C 
HETATM    6  C6  UNL     1     -34.510   5.252   3.192  1.00 20.00     0.105 C 
HETATM    7 CL11 UNL     1     -33.723   4.003   4.208  1.00 20.00    -0.121 Cl
ENDROOT
BRANCH   2   8
HETATM    8  C10 UNL     1     -32.012   7.918   1.830  1.00 20.00    -0.028 C 
HETATM    9  C7  UNL     1     -30.997   8.567   2.782  1.00 20.00     0.019 C 
HETATM   10  C8  UNL     1     -32.649   9.002   0.946  1.00 20.00     0.019 C 
HETATM   11  C9  UNL     1     -31.291   6.898   0.932  1.00 20.00     0.019 C 
ENDBRANCH   2   8
TORSDOF 1
ENDMDL
MODEL 2
REMARK VINA RESULT:       1.0      1.310      2.101
REMARK  1 active torsions:
REMARK  status: ('A' for Active; 'I' for Inactive)
REMARK    1  A    between atoms: C2_2  and  C10_10 
ROOT
HETATM    1  C1  UNL     1     -33.507   4.588   2.923  1.00 20.00    -0.003 C 
HETATM    2  C2  UNL     1     -33.422   5.879   2.547  1.00 20.00    -0.075 C 
HETATM    3  C3  UNL     1     -34.162   6.962   3.303  1.00 20.00     0.034 C 
HETATM    4  C4  UNL     1     -34.692   6.522   4.670  1.00 20.00     0.006 C 
HETATM    5  C5  UNL     1     -35.332   5.140   4.588  1.00 20.00     0.024 C 
HETATM    6  C6  UNL     1     -34.345   4.092   4.065  1.00 20.00     0.105 C 
HETATM    7 CL11 UNL     1     -33.242   3.564   5.376  1.00 20.00    -0.121 Cl
ENDROOT
BRANCH   2   8
HETATM    8  C10 UNL     1     -32.598   6.345   1.405  1.00 20.00    -0.028 C 
HETATM    9  C7  UNL     1     -33.493   6.510   0.167  1.00 20.00     0.019 C 
HETATM   10  C8  UNL     1     -31.495   5.319   1.105  1.00 20.00     0.019 C 
HETATM   11  C9  UNL     1     -31.948   7.696   1.749  1.00 20.00     0.019 C 
ENDBRANCH   2   8
TORSDOF 1
ENDMDL
MODEL 3
REMARK VINA RESULT:       1.9      1.763      3.877
REMARK  1 active torsions:
REMARK  status: ('A' for Active; 'I' for Inactive)
REMARK    1  A    between atoms: C2_2  and  C10_10 
ROOT
HETATM    1  C1  UNL     1     -33.346   5.168   2.388  1.00 20.00    -0.003 C 
HETATM    2  C2  UNL     1     -33.658   6.378   2.892  1.00 20.00    -0.075 C 
HETATM    3  C3  UNL     1     -32.903   7.619   2.464  1.00 20.00     0.034 C 
HETATM    4  C4  UNL     1     -32.048   7.431   1.208  1.00 20.00     0.006 C 
HETATM    5  C5  UNL     1     -31.285   6.111   1.261  1.00 20.00     0.024 C 
HETATM    6  C6  UNL     1     -32.233   4.918   1.413  1.00 20.00     0.105 C 
HETATM    7 CL11 UNL     1     -32.963   4.496  -0.168  1.00 20.00    -0.121 Cl
ENDROOT
BRANCH   2   8
HETATM    8  C10 UNL     1     -34.753   6.600   3.867  1.00 20.00    -0.028 C 
HETATM    9  C7  UNL     1     -34.315   7.658   4.892  1.00 20.00     0.019 C 
HETATM   10  C8  UNL     1     -35.078   5.287   4.595  1.00 20.00     0.019 C 
HETATM   11  C9  UNL     1     -36.012   7.092   3.132  1.00 20.00     0.019 C 
ENDBRANCH   2   8
TORSDOF 1
ENDMDL
MODEL 4
REMARK VINA RESULT:       2.0      1.347      2.066
REMARK  1 active torsions:
REMARK  status: ('A' for Active; 'I' for Inactive)
REMARK    1  A    between atoms: C2_2  and  C10_10 
ROOT
HETATM    1  C1  UNL     1     -33.747   7.487   3.281  1.00 20.00    -0.003 C 
HETATM    2  C2  UNL     1     -32.816   7.263   2.332  1.00 20.00    -0.075 C 
HETATM    3  C3  UNL     1     -32.561   5.866   1.805  1.00 20.00     0.034 C 
HETATM    4  C4  UNL     1     -33.648   4.850   2.170  1.00 20.00     0.006 C 
HETATM    5  C5  UNL     1     -34.067   5.001   3.629  1.00 20.00     0.024 C 
HETATM    6  C6  UNL     1     -34.574   6.415   3.926  1.00 20.00     0.105 C 
HETATM    7 CL11 UNL     1     -36.265   6.603   3.363  1.00 20.00    -0.121 Cl
ENDROOT
BRANCH   2   8
HETATM    8  C10 UNL     1     -31.999   8.336   1.717  1.00 20.00    -0.028 C 
HETATM    9  C7  UNL     1     -30.968   8.839   2.740  1.00 20.00     0.019 C 
HETATM   10  C8  UNL     1     -32.905   9.501   1.290  1.00 20.00     0.019 C 
HETATM   11  C9  UNL     1     -31.266   7.789   0.480  1.00 20.00     0.019 C 
ENDBRANCH   2   8
TORSDOF 1
ENDMDL
MODEL 5
REMARK VINA RESULT:       2.0      1.941      4.306
REMARK  1 active torsions:
REMARK  status: ('A' for Active; 'I' for Inactive)
REMARK    1  A    between atoms: C2_2  and  C10_10 
ROOT
HETATM    1  C1  UNL     1     -33.097   7.866   2.721  1.00 20.00    -0.003 C 
HETATM    2  C2  UNL     1     -33.678   6.658   2.861  1.00 20.00    -0.075 C 
HETATM    3  C3  UNL     1     -33.254   5.484   2.003  1.00 20.00     0.034 C 
HETATM    4  C4  UNL     1     -31.931   5.696   1.261  1.00 20.00     0.006 C 
HETATM    5  C5  UNL     1     -31.868   7.092   0.648  1.00 20.00     0.024 C 
HETATM    6  C6  UNL     1     -32.033   8.182   1.711  1.00 20.00     0.105 C 
HETATM    7 CL11 UNL     1     -30.491   8.436   2.588  1.00 20.00    -0.121 Cl
ENDROOT
BRANCH   2   8
HETATM    8  C10 UNL     1     -34.738   6.371   3.857  1.00 20.00    -0.028 C 
HETATM    9  C7  UNL     1     -34.548   7.283   5.079  1.00 20.00     0.019 C 
HETATM   10  C8  UNL     1     -34.656   4.902   4.298  1.00 20.00     0.019 C 
HETATM   11  C9  UNL     1     -36.121   6.632   3.235  1.00 20.00     0.019 C 
ENDBRANCH   2   8
TORSDOF 1
ENDMDL
MODEL 6
REMARK VINA RESULT:       2.0      1.344      2.463
REMARK  1 active torsions:
REMARK  status: ('A' for Active; 'I' for Inactive)
REMARK    1  A    between atoms: C2_2  and  C10_10 
ROOT
HETATM    1  C1  UNL     1     -33.767   7.494   3.286  1.00 20.00    -0.003 C 
HETATM    2  C2  UNL     1     -32.829   7.262   2.346  1.00 20.00    -0.075 C 
HETATM    3  C3  UNL     1     -32.572   5.861   1.832  1.00 20.00     0.034 C 
HETATM    4  C4  UNL     1     -33.662   4.849   2.195  1.00 20.00     0.006 C 
HETATM    5  C5  UNL     1     -34.093   5.011   3.650  1.00 20.00     0.024 C 
HETATM    6  C6  UNL     1     -34.601   6.427   3.933  1.00 20.00     0.105 C 
HETATM    7 CL11 UNL     1     -36.287   6.613   3.355  1.00 20.00    -0.121 Cl
ENDROOT
BRANCH   2   8
HETATM    8  C10 UNL     1     -32.006   8.330   1.731  1.00 20.00    -0.028 C 
HETATM    9  C7  UNL     1     -31.260   7.760   0.514  1.00 20.00     0.019 C 
HETATM   10  C8  UNL     1     -30.987   8.857   2.753  1.00 20.00     0.019 C 
HETATM   11  C9  UNL     1     -32.910   9.489   1.278  1.00 20.00     0.019 C 
ENDBRANCH   2   8
TORSDOF 1
ENDMDL
MODEL 7
REMARK VINA RESULT:       2.2      1.578      2.536
REMARK  1 active torsions:
REMARK  status: ('A' for Active; 'I' for Inactive)
REMARK    1  A    between atoms: C2_2  and  C10_10 
ROOT
HETATM    1  C1  UNL     1     -33.311   7.986   2.782  1.00 20.00    -0.003 C 
HETATM    2  C2  UNL     1     -32.657   7.872   1.609  1.00 20.00    -0.075 C 
HETATM    3  C3  UNL     1     -32.351   6.512   1.016  1.00 20.00     0.034 C 
HETATM    4  C4  UNL     1     -33.129   5.359   1.656  1.00 20.00     0.006 C 
HETATM    5  C5  UNL     1     -33.146   5.491   3.176  1.00 20.00     0.024 C 
HETATM    6  C6  UNL     1     -33.757   6.823   3.620  1.00 20.00     0.105 C 
HETATM    7 CL11 UNL     1     -35.546   6.743   3.552  1.00 20.00    -0.121 Cl
ENDROOT
BRANCH   2   8
HETATM    8  C10 UNL     1     -32.212   9.035   0.804  1.00 20.00    -0.028 C 
HETATM    9  C7  UNL     1     -30.678   9.039   0.721  1.00 20.00     0.019 C 
HETATM   10  C8  UNL     1     -32.692  10.338   1.462  1.00 20.00     0.019 C 
HETATM   11  C9  UNL     1     -32.800   8.941  -0.615  1.00 20.00     0.019 C 
ENDBRANCH   2   8
TORSDOF 1
ENDMDL
MODEL 8
REMARK VINA RESULT:       2.9      2.507      3.868
REMARK  1 active torsions:
REMARK  status: ('A' for Active; 'I' for Inactive)
REMARK    1  A    between atoms: C2_2  and  C10_10 
ROOT
HETATM    1  C1  UNL     1     -31.930   7.330   1.390  1.00 20.00    -0.003 C 
HETATM    2  C2  UNL     1     -32.706   6.384   1.955  1.00 20.00    -0.075 C 
HETATM    3  C3  UNL     1     -33.497   6.674   3.213  1.00 20.00     0.034 C 
HETATM    4  C4  UNL     1     -33.610   8.162   3.554  1.00 20.00     0.006 C 
HETATM    5  C5  UNL     1     -32.269   8.866   3.373  1.00 20.00     0.024 C 
HETATM    6  C6  UNL     1     -31.740   8.711   1.944  1.00 20.00     0.105 C 
HETATM    7 CL11 UNL     1     -32.557   9.868   0.847  1.00 20.00    -0.121 Cl
ENDROOT
BRANCH   2   8
HETATM    8  C10 UNL     1     -32.868   5.019   1.398  1.00 20.00    -0.028 C 
HETATM    9  C7  UNL     1     -33.416   4.086   2.489  1.00 20.00     0.019 C 
HETATM   10  C8  UNL     1     -31.511   4.491   0.908  1.00 20.00     0.019 C 
HETATM   11  C9  UNL     1     -33.851   5.054   0.215  1.00 20.00     0.019 C 
ENDBRANCH   2   8
TORSDOF 1
ENDMDL
MODEL 9
REMARK VINA RESULT:       3.1      2.159      4.161
REMARK  1 active torsions:
REMARK  status: ('A' for Active; 'I' for Inactive)
REMARK    1  A    between atoms: C2_2  and  C10_10 
ROOT
HETATM    1  C1  UNL     1     -33.094   7.088   2.007  1.00 20.00    -0.003 C 
HETATM    2  C2  UNL     1     -33.521   7.079   3.285  1.00 20.00    -0.075 C 
HETATM    3  C3  UNL     1     -32.831   7.914   4.343  1.00 20.00     0.034 C 
HETATM    4  C4  UNL     1     -31.890   8.983   3.783  1.00 20.00     0.006 C 
HETATM    5  C5  UNL     1     -31.040   8.421   2.647  1.00 20.00     0.024 C 
HETATM    6  C6  UNL     1     -31.909   7.865   1.515  1.00 20.00     0.105 C 
HETATM    7 CL11 UNL     1     -32.510   9.198   0.479  1.00 20.00    -0.121 Cl
ENDROOT
BRANCH   2   8
HETATM    8  C10 UNL     1     -34.687   6.291   3.753  1.00 20.00    -0.028 C 
HETATM    9  C7  UNL     1     -34.360   4.793   3.659  1.00 20.00     0.019 C 
HETATM   10  C8  UNL     1     -35.911   6.603   2.878  1.00 20.00     0.019 C 
HETATM   11  C9  UNL     1     -35.008   6.653   5.213  1.00 20.00     0.019 C 
ENDBRANCH   2   8
TORSDOF 1
ENDMDL
