MODEL 1
REMARK VINA RESULT:       0.4      0.000      0.000
REMARK  1 active torsions:
REMARK  status: ('A' for Active; 'I' for Inactive)
REMARK    1  A    between atoms: C2_2  and  C10_10 
ROOT
HETATM    1  C1  UNL     1     -33.385   7.669   3.128  1.00 20.00    -0.004 C 
HETATM    2  C2  UNL     1     -32.641   7.617   2.006  1.00 20.00    -0.076 C 
HETATM    3  C3  UNL     1     -32.354   6.297   1.322  1.00 20.00     0.034 C 
HETATM    4  C4  UNL     1     -33.240   5.142   1.793  1.00 20.00     0.006 C 
HETATM    5  C5  UNL     1     -33.379   5.145   3.312  1.00 20.00     0.024 C 
HETATM    6  C9  UNL     1     -33.958   6.468   3.822  1.00 20.00     0.105 C 
HETATM    7 CL12 UNL     1     -35.737   6.496   3.604  1.00 20.00    -0.121 Cl
ENDROOT
BRANCH   2   8
HETATM    8  C10 UNL     1     -32.070   8.822   1.343  1.00 20.00     0.040 C 
HETATM    9  C6  UNL     1     -32.107   8.761  -0.171  1.00 20.00     0.037 C 
HETATM   10  C7  UNL     1     -31.977  10.222  -0.543  1.00 20.00     0.168 C 
HETATM   11  O11 UNL     1     -32.650  10.963   0.482  1.00 20.00    -0.390 OA
HETATM   12  C8  UNL     1     -32.845  10.103   1.616  1.00 20.00     0.176 C 
ENDBRANCH   2   8
TORSDOF 1
ENDMDL
MODEL 2
REMARK VINA RESULT:       0.6      1.485      2.201
REMARK  1 active torsions:
REMARK  status: ('A' for Active; 'I' for Inactive)
REMARK    1  A    between atoms: C2_2  and  C10_10 
ROOT
HETATM    1  C1  UNL     1     -33.344   6.071   2.431  1.00 20.00    -0.004 C 
HETATM    2  C2  UNL     1     -33.119   7.368   2.715  1.00 20.00    -0.076 C 
HETATM    3  C3  UNL     1     -33.830   8.047   3.867  1.00 20.00     0.034 C 
HETATM    4  C4  UNL     1     -34.507   7.082   4.843  1.00 20.00     0.006 C 
HETATM    5  C5  UNL     1     -35.251   5.981   4.093  1.00 20.00     0.024 C 
HETATM    6  C9  UNL     1     -34.314   5.196   3.170  1.00 20.00     0.105 C 
HETATM    7 CL12 UNL     1     -33.374   3.995   4.112  1.00 20.00    -0.121 Cl
ENDROOT
BRANCH   2   8
HETATM    8  C10 UNL     1     -32.162   8.221   1.958  1.00 20.00     0.040 C 
HETATM    9  C6  UNL     1     -31.579   7.546   0.732  1.00 20.00     0.037 C 
HETATM   10  C7  UNL     1     -31.104   8.732  -0.078  1.00 20.00     0.168 C 
HETATM   11  O11 UNL     1     -32.029   9.795   0.178  1.00 20.00    -0.390 OA
HETATM   12  C8  UNL     1     -32.793   9.465   1.349  1.00 20.00     0.176 C 
ENDBRANCH   2   8
TORSDOF 1
ENDMDL
MODEL 3
REMARK VINA RESULT:       1.9      3.109      5.109
REMARK  1 active torsions:
REMARK  status: ('A' for Active; 'I' for Inactive)
REMARK    1  A    between atoms: C2_2  and  C10_10 
ROOT
HETATM    1  C1  UNL     1     -32.661   7.060   1.565  1.00 20.00    -0.004 C 
HETATM    2  C2  UNL     1     -33.143   6.817   2.799  1.00 20.00    -0.076 C 
HETATM    3  C3  UNL     1     -32.744   7.681   3.976  1.00 20.00     0.034 C 
HETATM    4  C4  UNL     1     -32.070   8.999   3.586  1.00 20.00     0.006 C 
HETATM    5  C5  UNL     1     -31.044   8.780   2.479  1.00 20.00     0.024 C 
HETATM    6  C9  UNL     1     -31.681   8.149   1.237  1.00 20.00     0.105 C 
HETATM    7 CL12 UNL     1     -32.536   9.395   0.274  1.00 20.00    -0.121 Cl
ENDROOT
BRANCH   2   8
HETATM    8  C10 UNL     1     -34.104   5.721   3.104  1.00 20.00     0.040 C 
HETATM    9  C6  UNL     1     -33.478   4.544   3.827  1.00 20.00     0.037 C 
HETATM   10  C7  UNL     1     -34.689   3.879   4.442  1.00 20.00     0.168 C 
HETATM   11  O11 UNL     1     -35.606   4.930   4.772  1.00 20.00    -0.390 OA
HETATM   12  C8  UNL     1     -35.209   6.120   4.071  1.00 20.00     0.176 C 
ENDBRANCH   2   8
TORSDOF 1
ENDMDL
MODEL 4
REMARK VINA RESULT:       2.1      3.156      5.164
REMARK  1 active torsions:
REMARK  status: ('A' for Active; 'I' for Inactive)
REMARK    1  A    between atoms: C2_2  and  C10_10 
ROOT
HETATM    1  C1  UNL     1     -33.417   7.241   3.338  1.00 20.00    -0.004 C 
HETATM    2  C2  UNL     1     -33.263   6.063   2.703  1.00 20.00    -0.076 C 
HETATM    3  C3  UNL     1     -32.470   5.969   1.416  1.00 20.00     0.034 C 
HETATM    4  C4  UNL     1     -31.607   7.198   1.121  1.00 20.00     0.006 C 
HETATM    5  C5  UNL     1     -32.378   8.485   1.394  1.00 20.00     0.024 C 
HETATM    6  C9  UNL     1     -32.874   8.549   2.842  1.00 20.00     0.105 C 
HETATM    7 CL12 UNL     1     -31.544   9.050   3.934  1.00 20.00    -0.121 Cl
ENDROOT
BRANCH   2   8
HETATM    8  C10 UNL     1     -33.824   4.779   3.207  1.00 20.00     0.040 C 
HETATM    9  C6  UNL     1     -32.786   3.856   3.816  1.00 20.00     0.037 C 
HETATM   10  C7  UNL     1     -33.643   2.943   4.665  1.00 20.00     0.168 C 
HETATM   11  O11 UNL     1     -34.731   3.741   5.147  1.00 20.00    -0.390 OA
HETATM   12  C8  UNL     1     -34.800   4.943   4.363  1.00 20.00     0.176 C 
ENDBRANCH   2   8
TORSDOF 1
ENDMDL
MODEL 5
REMARK VINA RESULT:       2.2      2.886      4.800
REMARK  1 active torsions:
REMARK  status: ('A' for Active; 'I' for Inactive)
REMARK    1  A    between atoms: C2_2  and  C10_10 
ROOT
HETATM    1  C1  UNL     1     -33.346   9.336   1.755  1.00 20.00    -0.004 C 
HETATM    2  C2  UNL     1     -32.761   8.144   1.981  1.00 20.00    -0.076 C 
HETATM    3  C3  UNL     1     -31.625   7.654   1.107  1.00 20.00     0.034 C 
HETATM    4  C4  UNL     1     -31.001   8.739   0.226  1.00 20.00     0.006 C 
HETATM    5  C5  UNL     1     -32.078   9.604  -0.420  1.00 20.00     0.024 C 
HETATM    6  C9  UNL     1     -32.978  10.261   0.631  1.00 20.00     0.105 C 
HETATM    7 CL12 UNL     1     -32.168  11.697   1.335  1.00 20.00    -0.121 Cl
ENDROOT
BRANCH   2   8
HETATM    8  C10 UNL     1     -33.153   7.235   3.094  1.00 20.00     0.040 C 
HETATM    9  C6  UNL     1     -34.533   7.516   3.655  1.00 20.00     0.037 C 
HETATM   10  C7  UNL     1     -34.861   6.208   4.341  1.00 20.00     0.168 C 
HETATM   11  O11 UNL     1     -34.250   5.175   3.558  1.00 20.00    -0.390 OA
HETATM   12  C8  UNL     1     -33.282   5.776   2.682  1.00 20.00     0.176 C 
ENDBRANCH   2   8
TORSDOF 1
ENDMDL
MODEL 6
REMARK VINA RESULT:       3.0      1.465      2.060
REMARK  1 active torsions:
REMARK  status: ('A' for Active; 'I' for Inactive)
REMARK    1  A    between atoms: C2_2  and  C10_10 
ROOT
HETATM    1  C1  UNL     1     -32.360   6.558   1.188  1.00 20.00    -0.004 C 
HETATM    2  C2  UNL     1     -32.566   7.780   1.716  1.00 20.00    -0.076 C 
HETATM    3  C3  UNL     1     -33.351   7.952   2.999  1.00 20.00     0.034 C 
HETATM    4  C4  UNL     1     -33.560   6.655   3.785  1.00 20.00     0.006 C 
HETATM    5  C5  UNL     1     -33.952   5.512   2.855  1.00 20.00     0.024 C 
HETATM    6  C9  UNL     1     -32.897   5.282   1.768  1.00 20.00     0.105 C 
HETATM    7 CL12 UNL     1     -31.517   4.347   2.427  1.00 20.00    -0.121 Cl
ENDROOT
BRANCH   2   8
HETATM    8  C10 UNL     1     -32.036   9.035   1.114  1.00 20.00     0.040 C 
HETATM    9  C6  UNL     1     -32.246   9.131  -0.384  1.00 20.00     0.037 C 
HETATM   10  C7  UNL     1     -32.114  10.619  -0.621  1.00 20.00     0.168 C 
HETATM   11  O11 UNL     1     -32.643  11.264   0.543  1.00 20.00    -0.390 OA
HETATM   12  C8  UNL     1     -32.735  10.296   1.601  1.00 20.00     0.176 C 
ENDBRANCH   2   8
TORSDOF 1
ENDMDL
