MODEL 1
REMARK VINA RESULT:      -0.3      0.000      0.000
REMARK  1 active torsions:
REMARK  status: ('A' for Active; 'I' for Inactive)
REMARK    1  A    between atoms: C2_2  and  C11_11 
ROOT
HETATM    1  C1  UNL     1     -33.480   7.829   2.921  1.00 20.00     0.053 C 
HETATM    2  C2  UNL     1     -32.496   7.741   2.012  1.00 20.00    -0.072 C 
HETATM    3  C3  UNL     1     -34.140   6.605   3.442  1.00 20.00     0.149 C 
HETATM    4  C4  UNL     1     -32.045   6.431   1.418  1.00 20.00     0.035 C 
HETATM    5  C5  UNL     1     -33.616   5.260   2.997  1.00 20.00     0.083 C 
HETATM    6  C6  UNL     1     -33.087   5.327   1.574  1.00 20.00     0.012 C 
HETATM    7  O12 UNL     1     -35.048   6.705   4.266  1.00 20.00    -0.293 OA
ENDROOT
BRANCH   2   8
HETATM    8  C11 UNL     1     -31.764   8.977   1.522  1.00 20.00     0.014 C 
HETATM    9  C9  UNL     1     -32.783  10.095   1.317  1.00 20.00     0.009 C 
HETATM   10  C7  UNL     1     -33.096  10.062  -0.172  1.00 20.00     0.001 C 
HETATM   11  C8  UNL     1     -31.755   9.720  -0.797  1.00 20.00     0.001 C 
HETATM   12  C10 UNL     1     -31.154   8.688   0.150  1.00 20.00     0.009 C 
ENDBRANCH   2   8
TORSDOF 1
ENDMDL
MODEL 2
REMARK VINA RESULT:       0.6      1.412      2.327
REMARK  1 active torsions:
REMARK  status: ('A' for Active; 'I' for Inactive)
REMARK    1  A    between atoms: C2_2  and  C11_11 
ROOT
HETATM    1  C1  UNL     1     -33.085   5.373   2.802  1.00 20.00     0.053 C 
HETATM    2  C2  UNL     1     -33.069   6.674   2.471  1.00 20.00    -0.072 C 
HETATM    3  C3  UNL     1     -34.109   4.843   3.736  1.00 20.00     0.149 C 
HETATM    4  C4  UNL     1     -34.023   7.680   3.060  1.00 20.00     0.035 C 
HETATM    5  C5  UNL     1     -35.186   5.780   4.230  1.00 20.00     0.083 C 
HETATM    6  C6  UNL     1     -34.654   7.197   4.363  1.00 20.00     0.012 C 
HETATM    7  O12 UNL     1     -34.102   3.651   4.038  1.00 20.00    -0.293 OA
ENDROOT
BRANCH   2   8
HETATM    8  C11 UNL     1     -32.072   7.218   1.464  1.00 20.00     0.014 C 
HETATM    9  C9  UNL     1     -31.401   8.451   2.062  1.00 20.00     0.009 C 
HETATM   10  C7  UNL     1     -32.169   9.629   1.480  1.00 20.00     0.001 C 
HETATM   11  C8  UNL     1     -32.479   9.170   0.066  1.00 20.00     0.001 C 
HETATM   12  C10 UNL     1     -32.822   7.693   0.220  1.00 20.00     0.009 C 
ENDBRANCH   2   8
TORSDOF 1
ENDMDL
MODEL 3
REMARK VINA RESULT:       1.6      2.007      4.462
REMARK  1 active torsions:
REMARK  status: ('A' for Active; 'I' for Inactive)
REMARK    1  A    between atoms: C2_2  and  C11_11 
ROOT
HETATM    1  C1  UNL     1     -32.847   9.351   2.088  1.00 20.00     0.053 C 
HETATM    2  C2  UNL     1     -32.547   8.048   2.210  1.00 20.00    -0.072 C 
HETATM    3  C3  UNL     1     -32.600  10.067   0.811  1.00 20.00     0.149 C 
HETATM    4  C4  UNL     1     -31.894   7.252   1.111  1.00 20.00     0.035 C 
HETATM    5  C5  UNL     1     -32.094   9.275  -0.372  1.00 20.00     0.083 C 
HETATM    6  C6  UNL     1     -31.196   8.136   0.081  1.00 20.00     0.012 C 
HETATM    7  O12 UNL     1     -32.868  11.263   0.720  1.00 20.00    -0.293 OA
ENDROOT
BRANCH   2   8
HETATM    8  C11 UNL     1     -32.858   7.285   3.485  1.00 20.00     0.014 C 
HETATM    9  C9  UNL     1     -33.155   5.833   3.122  1.00 20.00     0.009 C 
HETATM   10  C7  UNL     1     -34.673   5.753   3.066  1.00 20.00     0.001 C 
HETATM   11  C8  UNL     1     -35.107   6.675   4.192  1.00 20.00     0.001 C 
HETATM   12  C10 UNL     1     -34.135   7.847   4.109  1.00 20.00     0.009 C 
ENDBRANCH   2   8
TORSDOF 1
ENDMDL
MODEL 4
REMARK VINA RESULT:       2.0      2.352      5.368
REMARK  1 active torsions:
REMARK  status: ('A' for Active; 'I' for Inactive)
REMARK    1  A    between atoms: C2_2  and  C11_11 
ROOT
HETATM    1  C1  UNL     1     -32.856   6.203   2.107  1.00 20.00     0.053 C 
HETATM    2  C2  UNL     1     -33.710   5.963   3.114  1.00 20.00    -0.072 C 
HETATM    3  C3  UNL     1     -32.235   7.542   1.945  1.00 20.00     0.149 C 
HETATM    4  C4  UNL     1     -34.143   7.025   4.092  1.00 20.00     0.035 C 
HETATM    5  C5  UNL     1     -32.513   8.595   2.992  1.00 20.00     0.083 C 
HETATM    6  C6  UNL     1     -33.913   8.438   3.562  1.00 20.00     0.012 C 
HETATM    7  O12 UNL     1     -31.464   7.748   1.010  1.00 20.00    -0.293 OA
ENDROOT
BRANCH   2   8
HETATM    8  C11 UNL     1     -34.299   4.582   3.335  1.00 20.00     0.014 C 
HETATM    9  C9  UNL     1     -34.773   4.480   4.782  1.00 20.00     0.009 C 
HETATM   10  C7  UNL     1     -33.636   3.778   5.511  1.00 20.00     0.001 C 
HETATM   11  C8  UNL     1     -33.139   2.775   4.485  1.00 20.00     0.001 C 
HETATM   12  C10 UNL     1     -33.200   3.533   3.163  1.00 20.00     0.009 C 
ENDBRANCH   2   8
TORSDOF 1
ENDMDL
