MODEL 1
REMARK VINA RESULT:      -0.1      0.000      0.000
REMARK  1 active torsions:
REMARK  status: ('A' for Active; 'I' for Inactive)
REMARK    1  A    between atoms: C2_2  and  C8_8 
ROOT
HETATM    1  C1  UNL     1     -33.387   8.128   2.582  1.00 20.00     0.053 C 
HETATM    2  C2  UNL     1     -32.413   8.158   1.660  1.00 20.00    -0.072 C 
HETATM    3  C3  UNL     1     -33.812   6.844   3.190  1.00 20.00     0.150 C 
HETATM    4  C4  UNL     1     -31.723   6.915   1.154  1.00 20.00     0.043 C 
HETATM    5  C5  UNL     1     -33.069   5.579   2.816  1.00 20.00     0.092 C 
HETATM    6  C9  UNL     1     -32.531   5.616   1.375  1.00 20.00    -0.037 C 
HETATM    7  C10 UNL     1     -33.696   5.524   0.367  1.00 20.00     0.015 C 
HETATM    8  C11 UNL     1     -31.609   4.404   1.148  1.00 20.00     0.015 C 
HETATM    9  O12 UNL     1     -34.713   6.837   4.028  1.00 20.00    -0.293 OA
ENDROOT
BRANCH   2  10
HETATM   10  C8  UNL     1     -31.933   9.455   1.077  1.00 20.00     0.014 A 
HETATM   11  C6  UNL     1     -32.363   9.800  -0.306  1.00 20.00     0.010 A 
HETATM   12  C7  UNL     1     -32.933  10.538   0.867  1.00 20.00     0.010 A 
ENDBRANCH   2  10
TORSDOF 1
ENDMDL
MODEL 2
REMARK VINA RESULT:       0.5      1.564      2.816
REMARK  1 active torsions:
REMARK  status: ('A' for Active; 'I' for Inactive)
REMARK    1  A    between atoms: C2_2  and  C8_8 
ROOT
HETATM    1  C1  UNL     1     -31.676   7.149   1.185  1.00 20.00     0.053 C 
HETATM    2  C2  UNL     1     -32.377   8.279   1.365  1.00 20.00    -0.072 C 
HETATM    3  C3  UNL     1     -32.125   5.876   1.799  1.00 20.00     0.150 C 
HETATM    4  C4  UNL     1     -33.620   8.347   2.218  1.00 20.00     0.043 C 
HETATM    5  C5  UNL     1     -33.434   5.856   2.560  1.00 20.00     0.092 C 
HETATM    6  C9  UNL     1     -33.738   7.199   3.246  1.00 20.00    -0.037 C 
HETATM    7  C10 UNL     1     -32.770   7.427   4.427  1.00 20.00     0.015 C 
HETATM    8  C11 UNL     1     -35.172   7.170   3.806  1.00 20.00     0.015 C 
HETATM    9  O12 UNL     1     -31.464   4.853   1.629  1.00 20.00    -0.293 OA
ENDROOT
BRANCH   2  10
HETATM   10  C8  UNL     1     -31.967   9.562   0.703  1.00 20.00     0.014 A 
HETATM   11  C6  UNL     1     -32.709   9.987  -0.516  1.00 20.00     0.010 A 
HETATM   12  C7  UNL     1     -32.905  10.716   0.779  1.00 20.00     0.010 A 
ENDBRANCH   2  10
TORSDOF 1
ENDMDL
MODEL 3
REMARK VINA RESULT:       2.0      1.928      4.179
REMARK  1 active torsions:
REMARK  status: ('A' for Active; 'I' for Inactive)
REMARK    1  A    between atoms: C2_2  and  C8_8 
ROOT
HETATM    1  C1  UNL     1     -33.649   5.657   2.177  1.00 20.00     0.053 C 
HETATM    2  C2  UNL     1     -33.746   6.625   3.100  1.00 20.00    -0.072 C 
HETATM    3  C3  UNL     1     -32.502   5.621   1.238  1.00 20.00     0.150 C 
HETATM    4  C4  UNL     1     -32.743   7.747   3.223  1.00 20.00     0.043 C 
HETATM    5  C5  UNL     1     -31.398   6.646   1.396  1.00 20.00     0.092 C 
HETATM    6  C9  UNL     1     -31.915   7.989   1.940  1.00 20.00    -0.037 C 
HETATM    7  C10 UNL     1     -32.767   8.707   0.872  1.00 20.00     0.015 C 
HETATM    8  C11 UNL     1     -30.716   8.893   2.279  1.00 20.00     0.015 C 
HETATM    9  O12 UNL     1     -32.435   4.729   0.393  1.00 20.00    -0.293 OA
ENDROOT
BRANCH   2  10
HETATM   10  C8  UNL     1     -34.871   6.643   4.094  1.00 20.00     0.014 A 
HETATM   11  C6  UNL     1     -36.225   6.237   3.622  1.00 20.00     0.010 A 
HETATM   12  C7  UNL     1     -35.439   5.336   4.527  1.00 20.00     0.010 A 
ENDBRANCH   2  10
TORSDOF 1
ENDMDL
MODEL 4
REMARK VINA RESULT:       2.4      1.994      3.824
REMARK  1 active torsions:
REMARK  status: ('A' for Active; 'I' for Inactive)
REMARK    1  A    between atoms: C2_2  and  C8_8 
ROOT
HETATM    1  C1  UNL     1     -32.832   7.747   2.856  1.00 20.00     0.053 C 
HETATM    2  C2  UNL     1     -33.622   6.675   3.013  1.00 20.00    -0.072 C 
HETATM    3  C3  UNL     1     -31.948   7.866   1.671  1.00 20.00     0.150 C 
HETATM    4  C4  UNL     1     -33.641   5.518   2.044  1.00 20.00     0.043 C 
HETATM    5  C5  UNL     1     -32.018   6.797   0.600  1.00 20.00     0.092 C 
HETATM    6  C9  UNL     1     -32.370   5.413   1.170  1.00 20.00    -0.037 C 
HETATM    7  C10 UNL     1     -31.190   4.858   1.996  1.00 20.00     0.015 C 
HETATM    8  C11 UNL     1     -32.638   4.439   0.009  1.00 20.00     0.015 C 
HETATM    9  O12 UNL     1     -31.224   8.853   1.548  1.00 20.00    -0.293 OA
ENDROOT
BRANCH   2  10
HETATM   10  C8  UNL     1     -34.564   6.568   4.178  1.00 20.00     0.014 A 
HETATM   11  C6  UNL     1     -35.993   6.260   3.893  1.00 20.00     0.010 A 
HETATM   12  C7  UNL     1     -35.107   5.222   4.513  1.00 20.00     0.010 A 
ENDBRANCH   2  10
TORSDOF 1
ENDMDL
MODEL 5
REMARK VINA RESULT:       2.4      2.437      5.330
REMARK  1 active torsions:
REMARK  status: ('A' for Active; 'I' for Inactive)
REMARK    1  A    between atoms: C2_2  and  C8_8 
ROOT
HETATM    1  C1  UNL     1     -33.295   4.575   2.513  1.00 20.00     0.053 C 
HETATM    2  C2  UNL     1     -33.654   4.601   3.805  1.00 20.00    -0.072 C 
HETATM    3  C3  UNL     1     -33.055   5.836   1.770  1.00 20.00     0.150 C 
HETATM    4  C4  UNL     1     -33.876   5.884   4.570  1.00 20.00     0.043 C 
HETATM    5  C5  UNL     1     -33.137   7.150   2.519  1.00 20.00     0.092 C 
HETATM    6  C9  UNL     1     -34.156   7.109   3.670  1.00 20.00    -0.037 C 
HETATM    7  C10 UNL     1     -35.594   7.053   3.111  1.00 20.00     0.015 C 
HETATM    8  C11 UNL     1     -34.022   8.392   4.511  1.00 20.00     0.015 C 
HETATM    9  O12 UNL     1     -32.734   5.791   0.583  1.00 20.00    -0.293 OA
ENDROOT
BRANCH   2  10
HETATM   10  C8  UNL     1     -33.846   3.333   4.585  1.00 20.00     0.014 A 
HETATM   11  C6  UNL     1     -32.865   2.232   4.378  1.00 20.00     0.010 A 
HETATM   12  C7  UNL     1     -32.860   3.017   5.655  1.00 20.00     0.010 A 
ENDBRANCH   2  10
TORSDOF 1
ENDMDL
MODEL 6
REMARK VINA RESULT:       2.6      1.596      2.330
REMARK  1 active torsions:
REMARK  status: ('A' for Active; 'I' for Inactive)
REMARK    1  A    between atoms: C2_2  and  C8_8 
ROOT
HETATM    1  C1  UNL     1     -32.610   8.515   3.137  1.00 20.00     0.053 C 
HETATM    2  C2  UNL     1     -32.738   7.696   2.082  1.00 20.00    -0.072 C 
HETATM    3  C3  UNL     1     -32.931   8.041   4.504  1.00 20.00     0.150 C 
HETATM    4  C4  UNL     1     -33.247   6.280   2.199  1.00 20.00     0.043 C 
HETATM    5  C5  UNL     1     -33.323   6.591   4.700  1.00 20.00     0.092 C 
HETATM    6  C9  UNL     1     -34.065   6.012   3.483  1.00 20.00    -0.037 C 
HETATM    7  C10 UNL     1     -35.472   6.635   3.368  1.00 20.00     0.015 C 
HETATM    8  C11 UNL     1     -34.230   4.493   3.666  1.00 20.00     0.015 C 
HETATM    9  O12 UNL     1     -32.815   8.810   5.458  1.00 20.00    -0.293 OA
ENDROOT
BRANCH   2  10
HETATM   10  C8  UNL     1     -32.363   8.144   0.699  1.00 20.00     0.014 A 
HETATM   11  C6  UNL     1     -32.541   9.583   0.359  1.00 20.00     0.010 A 
HETATM   12  C7  UNL     1     -31.166   9.017   0.550  1.00 20.00     0.010 A 
ENDBRANCH   2  10
TORSDOF 1
ENDMDL
MODEL 7
REMARK VINA RESULT:       2.6      0.939      3.791
REMARK  1 active torsions:
REMARK  status: ('A' for Active; 'I' for Inactive)
REMARK    1  A    between atoms: C2_2  and  C8_8 
ROOT
HETATM    1  C1  UNL     1     -33.481   6.108   3.038  1.00 20.00     0.053 C 
HETATM    2  C2  UNL     1     -32.861   5.936   1.861  1.00 20.00    -0.072 C 
HETATM    3  C3  UNL     1     -33.835   7.467   3.513  1.00 20.00     0.150 C 
HETATM    4  C4  UNL     1     -32.450   7.086   0.974  1.00 20.00     0.043 C 
HETATM    5  C5  UNL     1     -33.563   8.650   2.608  1.00 20.00     0.092 C 
HETATM    6  C9  UNL     1     -32.329   8.437   1.715  1.00 20.00    -0.037 C 
HETATM    7  C10 UNL     1     -31.040   8.475   2.564  1.00 20.00     0.015 C 
HETATM    8  C11 UNL     1     -32.250   9.573   0.679  1.00 20.00     0.015 C 
HETATM    9  O12 UNL     1     -34.396   7.604   4.600  1.00 20.00    -0.293 OA
ENDROOT
BRANCH   2  10
HETATM   10  C8  UNL     1     -32.547   4.563   1.340  1.00 20.00     0.014 A 
HETATM   11  C6  UNL     1     -32.880   4.263  -0.080  1.00 20.00     0.010 A 
HETATM   12  C7  UNL     1     -31.451   4.431   0.341  1.00 20.00     0.010 A 
ENDBRANCH   2  10
TORSDOF 1
ENDMDL
MODEL 8
REMARK VINA RESULT:       2.7      2.072      4.062
REMARK  1 active torsions:
REMARK  status: ('A' for Active; 'I' for Inactive)
REMARK    1  A    between atoms: C2_2  and  C8_8 
ROOT
HETATM    1  C1  UNL     1     -33.479   4.942   2.969  1.00 20.00     0.053 C 
HETATM    2  C2  UNL     1     -32.985   5.927   2.205  1.00 20.00    -0.072 C 
HETATM    3  C3  UNL     1     -34.538   5.220   3.968  1.00 20.00     0.150 C 
HETATM    4  C4  UNL     1     -33.427   7.365   2.332  1.00 20.00     0.043 C 
HETATM    5  C5  UNL     1     -35.112   6.619   4.052  1.00 20.00     0.092 C 
HETATM    6  C9  UNL     1     -34.081   7.701   3.691  1.00 20.00    -0.037 C 
HETATM    7  C10 UNL     1     -33.009   7.809   4.797  1.00 20.00     0.015 C 
HETATM    8  C11 UNL     1     -34.792   9.063   3.585  1.00 20.00     0.015 C 
HETATM    9  O12 UNL     1     -34.973   4.304   4.665  1.00 20.00    -0.293 OA
ENDROOT
BRANCH   2  10
HETATM   10  C8  UNL     1     -31.953   5.651   1.150  1.00 20.00     0.014 A 
HETATM   11  C6  UNL     1     -31.118   4.427   1.294  1.00 20.00     0.010 A 
HETATM   12  C7  UNL     1     -32.180   4.496   0.239  1.00 20.00     0.010 A 
ENDBRANCH   2  10
TORSDOF 1
ENDMDL
