MODEL 1
REMARK VINA RESULT:       1.4      0.000      0.000
REMARK  1 active torsions:
REMARK  status: ('A' for Active; 'I' for Inactive)
REMARK    1  A    between atoms: C2_2  and  C10_10 
ROOT
HETATM    1  C1  UNL     1     -33.149   7.782   3.098  1.00 20.00    -0.004 C 
HETATM    2  C2  UNL     1     -32.357   7.770   2.020  1.00 20.00    -0.078 C 
HETATM    3  C3  UNL     1     -32.271   6.404   1.414  1.00 20.00     0.036 C 
HETATM    4  C4  UNL     1     -33.431   5.667   2.085  1.00 20.00     0.028 C 
HETATM    5  C9  UNL     1     -33.703   6.426   3.385  1.00 20.00     0.105 C 
HETATM    6 CL12 UNL     1     -35.432   6.489   3.757  1.00 20.00    -0.121 Cl
ENDROOT
BRANCH   2   7
HETATM    7  C10 UNL     1     -31.576   8.940   1.442  1.00 20.00     0.018 C 
HETATM    8  C5  UNL     1     -31.227   8.645  -0.011  1.00 20.00     0.035 C 
HETATM    9  C7  UNL     1     -32.409   8.853  -0.951  1.00 20.00     0.168 C 
HETATM   10  O11 UNL     1     -32.983  10.145  -0.769  1.00 20.00    -0.391 OA
HETATM   11  C8  UNL     1     -33.511  10.313   0.545  1.00 20.00     0.168 C 
HETATM   12  C6  UNL     1     -32.405  10.210   1.590  1.00 20.00     0.035 C 
ENDBRANCH   2   7
TORSDOF 1
ENDMDL
MODEL 2
REMARK VINA RESULT:       1.6      1.101      1.618
REMARK  1 active torsions:
REMARK  status: ('A' for Active; 'I' for Inactive)
REMARK    1  A    between atoms: C2_2  and  C10_10 
ROOT
HETATM    1  C1  UNL     1     -33.080   6.184   2.328  1.00 20.00    -0.004 C 
HETATM    2  C2  UNL     1     -32.779   7.472   2.534  1.00 20.00    -0.078 C 
HETATM    3  C3  UNL     1     -33.736   8.117   3.487  1.00 20.00     0.036 C 
HETATM    4  C4  UNL     1     -34.449   6.916   4.110  1.00 20.00     0.028 C 
HETATM    5  C9  UNL     1     -34.289   5.776   3.101  1.00 20.00     0.105 C 
HETATM    6 CL12 UNL     1     -34.057   4.217   3.906  1.00 20.00    -0.121 Cl
ENDROOT
BRANCH   2   7
HETATM    7  C10 UNL     1     -31.652   8.264   1.891  1.00 20.00     0.018 C 
HETATM    8  C5  UNL     1     -31.554   7.897   0.415  1.00 20.00     0.035 C 
HETATM    9  C7  UNL     1     -32.631   8.572  -0.429  1.00 20.00     0.168 C 
HETATM   10  O11 UNL     1     -32.643   9.979  -0.207  1.00 20.00    -0.391 OA
HETATM   11  C8  UNL     1     -32.964  10.303   1.145  1.00 20.00     0.168 C 
HETATM   12  C6  UNL     1     -31.909   9.752   2.099  1.00 20.00     0.035 C 
ENDBRANCH   2   7
TORSDOF 1
ENDMDL
MODEL 3
REMARK VINA RESULT:       2.0      2.631      3.822
REMARK  1 active torsions:
REMARK  status: ('A' for Active; 'I' for Inactive)
REMARK    1  A    between atoms: C2_2  and  C10_10 
ROOT
HETATM    1  C1  UNL     1     -33.451   5.050   3.257  1.00 20.00    -0.004 C 
HETATM    2  C2  UNL     1     -34.277   6.093   3.403  1.00 20.00    -0.078 C 
HETATM    3  C3  UNL     1     -35.444   5.754   4.277  1.00 20.00     0.036 C 
HETATM    4  C4  UNL     1     -35.002   4.445   4.933  1.00 20.00     0.028 C 
HETATM    5  C9  UNL     1     -33.946   3.853   3.997  1.00 20.00     0.105 C 
HETATM    6 CL12 UNL     1     -32.647   3.054   4.896  1.00 20.00    -0.121 Cl
ENDROOT
BRANCH   2   7
HETATM    7  C10 UNL     1     -34.140   7.467   2.768  1.00 20.00     0.018 C 
HETATM    8  C5  UNL     1     -33.732   8.478   3.832  1.00 20.00     0.035 C 
HETATM    9  C7  UNL     1     -32.250   8.393   4.183  1.00 20.00     0.168 C 
HETATM   10  O11 UNL     1     -31.444   8.467   3.010  1.00 20.00    -0.391 OA
HETATM   11  C8  UNL     1     -31.687   7.373   2.127  1.00 20.00     0.168 C 
HETATM   12  C6  UNL     1     -33.129   7.388   1.630  1.00 20.00     0.035 C 
ENDBRANCH   2   7
TORSDOF 1
ENDMDL
MODEL 4
REMARK VINA RESULT:       3.2      2.890      4.523
REMARK  1 active torsions:
REMARK  status: ('A' for Active; 'I' for Inactive)
REMARK    1  A    between atoms: C2_2  and  C10_10 
ROOT
HETATM    1  C1  UNL     1     -33.038   9.115   1.851  1.00 20.00    -0.004 C 
HETATM    2  C2  UNL     1     -32.454   7.983   2.263  1.00 20.00    -0.078 C 
HETATM    3  C3  UNL     1     -31.567   7.404   1.206  1.00 20.00     0.036 C 
HETATM    4  C4  UNL     1     -31.423   8.562   0.218  1.00 20.00     0.028 C 
HETATM    5  C9  UNL     1     -32.642   9.457   0.454  1.00 20.00     0.105 C 
HETATM    6 CL12 UNL     1     -32.237  11.172   0.288  1.00 20.00    -0.121 Cl
ENDROOT
BRANCH   2   7
HETATM    7  C10 UNL     1     -32.643   7.289   3.602  1.00 20.00     0.018 C 
HETATM    8  C5  UNL     1     -33.800   7.940   4.350  1.00 20.00     0.035 C 
HETATM    9  C7  UNL     1     -35.161   7.496   3.824  1.00 20.00     0.168 C 
HETATM   10  O11 UNL     1     -35.254   6.074   3.789  1.00 20.00    -0.391 OA
HETATM   11  C8  UNL     1     -34.299   5.500   2.898  1.00 20.00     0.168 C 
HETATM   12  C6  UNL     1     -32.877   5.802   3.360  1.00 20.00     0.035 C 
ENDBRANCH   2   7
TORSDOF 1
ENDMDL
MODEL 5
REMARK VINA RESULT:       4.2      3.402      5.170
REMARK  1 active torsions:
REMARK  status: ('A' for Active; 'I' for Inactive)
REMARK    1  A    between atoms: C2_2  and  C10_10 
ROOT
HETATM    1  C1  UNL     1     -32.456   6.826   1.525  1.00 20.00    -0.004 C 
HETATM    2  C2  UNL     1     -33.395   6.611   2.454  1.00 20.00    -0.078 C 
HETATM    3  C3  UNL     1     -33.258   7.557   3.606  1.00 20.00     0.036 C 
HETATM    4  C4  UNL     1     -32.308   8.621   3.055  1.00 20.00     0.028 C 
HETATM    5  C9  UNL     1     -31.542   7.938   1.919  1.00 20.00     0.105 C 
HETATM    6 CL12 UNL     1     -31.240   9.047   0.573  1.00 20.00    -0.121 Cl
ENDROOT
BRANCH   2   7
HETATM    7  C10 UNL     1     -34.474   5.540   2.437  1.00 20.00     0.018 C 
HETATM    8  C5  UNL     1     -33.858   4.197   2.810  1.00 20.00     0.035 C 
HETATM    9  C7  UNL     1     -33.618   4.059   4.310  1.00 20.00     0.168 C 
HETATM   10  O11 UNL     1     -34.805   4.348   5.043  1.00 20.00    -0.391 OA
HETATM   11  C8  UNL     1     -35.235   5.694   4.852  1.00 20.00     0.168 C 
HETATM   12  C6  UNL     1     -35.592   5.946   3.390  1.00 20.00     0.035 C 
ENDBRANCH   2   7
TORSDOF 1
ENDMDL
MODEL 6
REMARK VINA RESULT:       4.4      2.788      4.569
REMARK  1 active torsions:
REMARK  status: ('A' for Active; 'I' for Inactive)
REMARK    1  A    between atoms: C2_2  and  C10_10 
ROOT
HETATM    1  C1  UNL     1     -31.407   8.718   0.475  1.00 20.00    -0.004 C 
HETATM    2  C2  UNL     1     -32.041   8.637   1.651  1.00 20.00    -0.078 C 
HETATM    3  C3  UNL     1     -32.988   9.780   1.847  1.00 20.00     0.036 C 
HETATM    4  C4  UNL     1     -33.096  10.370   0.440  1.00 20.00     0.028 C 
HETATM    5  C9  UNL     1     -31.823   9.931  -0.287  1.00 20.00     0.105 C 
HETATM    6 CL12 UNL     1     -32.137   9.560  -1.990  1.00 20.00    -0.121 Cl
ENDROOT
BRANCH   2   7
HETATM    7  C10 UNL     1     -31.851   7.576   2.723  1.00 20.00     0.018 C 
HETATM    8  C5  UNL     1     -32.863   7.801   3.840  1.00 20.00     0.035 C 
HETATM    9  C7  UNL     1     -34.259   7.309   3.473  1.00 20.00     0.168 C 
HETATM   10  O11 UNL     1     -34.221   5.958   3.022  1.00 20.00    -0.391 OA
HETATM   11  C8  UNL     1     -33.445   5.814   1.834  1.00 20.00     0.168 C 
HETATM   12  C6  UNL     1     -31.990   6.198   2.087  1.00 20.00     0.035 C 
ENDBRANCH   2   7
TORSDOF 1
ENDMDL
