MODEL 1
REMARK VINA RESULT:       1.0      0.000      0.000
REMARK  0 active torsions:
REMARK  status: ('A' for Active; 'I' for Inactive)
ROOT
HETATM    1  C1  UNL     1     -35.053   5.816   4.000  1.00 20.00     0.067 C 
HETATM    2  C2  UNL     1     -34.489   6.873   3.156  1.00 20.00     0.127 C 
HETATM    3  C3  UNL     1     -33.479   6.403   2.105  1.00 20.00     0.030 C 
HETATM    4  C4  UNL     1     -33.759   8.001   3.898  1.00 20.00     0.136 C 
HETATM    5  C5  UNL     1     -32.782   7.730   1.798  1.00 20.00     0.123 C 
HETATM    6  C6  UNL     1     -32.522   5.305   2.585  1.00 20.00     0.014 C 
HETATM    7  C7  UNL     1     -33.222   7.688   5.288  1.00 20.00     0.041 C 
HETATM    8  C8  UNL     1     -31.428   7.652   1.115  1.00 20.00     0.040 C 
HETATM    9  N9  UNL     1     -35.501   4.981   4.668  1.00 20.00    -0.197 NA
HETATM   10  O10 UNL     1     -32.643   8.385   3.068  1.00 20.00    -0.380 OA
ENDROOT
TORSDOF 0
ENDMDL
MODEL 2
REMARK VINA RESULT:       1.3      2.507      3.997
REMARK  0 active torsions:
REMARK  status: ('A' for Active; 'I' for Inactive)
ROOT
HETATM    1  C1  UNL     1     -32.287   8.216   1.503  1.00 20.00     0.067 C 
HETATM    2  C2  UNL     1     -33.379   7.282   1.787  1.00 20.00     0.127 C 
HETATM    3  C3  UNL     1     -34.003   7.407   3.180  1.00 20.00     0.030 C 
HETATM    4  C4  UNL     1     -33.030   5.792   1.665  1.00 20.00     0.136 C 
HETATM    5  C5  UNL     1     -34.692   6.044   3.282  1.00 20.00     0.123 C 
HETATM    6  C6  UNL     1     -33.000   7.673   4.307  1.00 20.00     0.014 C 
HETATM    7  C7  UNL     1     -31.564   5.405   1.803  1.00 20.00     0.041 C 
HETATM    8  C8  UNL     1     -35.081   5.576   4.673  1.00 20.00     0.040 C 
HETATM    9  N9  UNL     1     -31.422   8.956   1.277  1.00 20.00    -0.197 NA
HETATM   10  O10 UNL     1     -33.768   5.110   2.702  1.00 20.00    -0.380 OA
ENDROOT
TORSDOF 0
ENDMDL
MODEL 3
REMARK VINA RESULT:       2.0      1.498      2.723
REMARK  0 active torsions:
REMARK  status: ('A' for Active; 'I' for Inactive)
ROOT
HETATM    1  C1  UNL     1     -33.679   4.869   3.570  1.00 20.00     0.067 C 
HETATM    2  C2  UNL     1     -32.714   5.787   2.960  1.00 20.00     0.127 C 
HETATM    3  C3  UNL     1     -32.995   7.276   3.183  1.00 20.00     0.030 C 
HETATM    4  C4  UNL     1     -32.544   5.662   1.439  1.00 20.00     0.136 C 
HETATM    5  C5  UNL     1     -32.146   7.875   2.059  1.00 20.00     0.123 C 
HETATM    6  C6  UNL     1     -34.475   7.666   3.107  1.00 20.00     0.014 C 
HETATM    7  C7  UNL     1     -33.695   5.044   0.657  1.00 20.00     0.041 C 
HETATM    8  C8  UNL     1     -32.461   9.302   1.648  1.00 20.00     0.040 C 
HETATM    9  N9  UNL     1     -34.442   4.142   4.054  1.00 20.00    -0.197 NA
HETATM   10  O10 UNL     1     -32.334   6.999   0.937  1.00 20.00    -0.380 OA
ENDROOT
TORSDOF 0
ENDMDL
MODEL 4
REMARK VINA RESULT:       2.2      1.811      3.292
REMARK  0 active torsions:
REMARK  status: ('A' for Active; 'I' for Inactive)
ROOT
HETATM    1  C1  UNL     1     -33.125   5.653   1.044  1.00 20.00     0.067 C 
HETATM    2  C2  UNL     1     -32.593   6.318   2.236  1.00 20.00     0.127 C 
HETATM    3  C3  UNL     1     -33.586   6.491   3.388  1.00 20.00     0.030 C 
HETATM    4  C4  UNL     1     -32.027   7.728   2.016  1.00 20.00     0.136 C 
HETATM    5  C5  UNL     1     -32.879   7.592   4.182  1.00 20.00     0.123 C 
HETATM    6  C6  UNL     1     -35.008   6.863   2.956  1.00 20.00     0.014 C 
HETATM    7  C7  UNL     1     -32.526   8.499   0.801  1.00 20.00     0.041 C 
HETATM    8  C8  UNL     1     -33.721   8.364   5.182  1.00 20.00     0.040 C 
HETATM    9  N9  UNL     1     -33.546   5.126   0.100  1.00 20.00    -0.197 NA
HETATM   10  O10 UNL     1     -32.358   8.493   3.194  1.00 20.00    -0.380 OA
ENDROOT
TORSDOF 0
ENDMDL
MODEL 5
REMARK VINA RESULT:       2.3      1.756      2.298
REMARK  0 active torsions:
REMARK  status: ('A' for Active; 'I' for Inactive)
ROOT
HETATM    1  C1  UNL     1     -33.973   7.706   4.049  1.00 20.00     0.067 C 
HETATM    2  C2  UNL     1     -33.672   7.351   2.660  1.00 20.00     0.127 C 
HETATM    3  C3  UNL     1     -33.590   5.850   2.370  1.00 20.00     0.030 C 
HETATM    4  C4  UNL     1     -32.359   7.914   2.097  1.00 20.00     0.136 C 
HETATM    5  C5  UNL     1     -32.813   5.879   1.051  1.00 20.00     0.123 C 
HETATM    6  C6  UNL     1     -32.907   5.024   3.465  1.00 20.00     0.014 C 
HETATM    7  C7  UNL     1     -31.277   8.293   3.098  1.00 20.00     0.041 C 
HETATM    8  C8  UNL     1     -32.144   4.586   0.621  1.00 20.00     0.040 C 
HETATM    9  N9  UNL     1     -34.211   7.987   5.149  1.00 20.00    -0.197 NA
HETATM   10  O10 UNL     1     -31.819   6.901   1.222  1.00 20.00    -0.380 OA
ENDROOT
TORSDOF 0
ENDMDL
MODEL 6
REMARK VINA RESULT:       2.5      2.520      3.494
REMARK  0 active torsions:
REMARK  status: ('A' for Active; 'I' for Inactive)
ROOT
HETATM    1  C1  UNL     1     -32.293   8.328   1.525  1.00 20.00     0.067 C 
HETATM    2  C2  UNL     1     -32.418   7.350   2.609  1.00 20.00     0.127 C 
HETATM    3  C3  UNL     1     -32.634   5.901   2.163  1.00 20.00     0.030 C 
HETATM    4  C4  UNL     1     -33.553   7.606   3.611  1.00 20.00     0.136 C 
HETATM    5  C5  UNL     1     -33.191   5.307   3.459  1.00 20.00     0.123 C 
HETATM    6  C6  UNL     1     -33.570   5.735   0.961  1.00 20.00     0.014 C 
HETATM    7  C7  UNL     1     -34.722   8.458   3.137  1.00 20.00     0.041 C 
HETATM    8  C8  UNL     1     -33.935   3.989   3.344  1.00 20.00     0.040 C 
HETATM    9  N9  UNL     1     -32.194   9.102   0.667  1.00 20.00    -0.197 NA
HETATM   10  O10 UNL     1     -34.070   6.312   3.986  1.00 20.00    -0.380 OA
ENDROOT
TORSDOF 0
ENDMDL
MODEL 7
REMARK VINA RESULT:       2.9      2.298      3.382
REMARK  0 active torsions:
REMARK  status: ('A' for Active; 'I' for Inactive)
ROOT
HETATM    1  C1  UNL     1     -32.618   5.347   1.214  1.00 20.00     0.067 C 
HETATM    2  C2  UNL     1     -33.648   5.965   2.053  1.00 20.00     0.127 C 
HETATM    3  C3  UNL     1     -33.300   7.350   2.606  1.00 20.00     0.030 C 
HETATM    4  C4  UNL     1     -34.070   5.162   3.291  1.00 20.00     0.136 C 
HETATM    5  C5  UNL     1     -34.308   7.436   3.754  1.00 20.00     0.123 C 
HETATM    6  C6  UNL     1     -31.844   7.510   3.056  1.00 20.00     0.014 C 
HETATM    7  C7  UNL     1     -33.079   4.140   3.831  1.00 20.00     0.041 C 
HETATM    8  C8  UNL     1     -34.032   8.467   4.833  1.00 20.00     0.040 C 
HETATM    9  N9  UNL     1     -31.802   4.858   0.550  1.00 20.00    -0.197 NA
HETATM   10  O10 UNL     1     -34.329   6.124   4.336  1.00 20.00    -0.380 OA
ENDROOT
TORSDOF 0
ENDMDL
MODEL 8
REMARK VINA RESULT:       3.1      1.494      2.623
REMARK  0 active torsions:
REMARK  status: ('A' for Active; 'I' for Inactive)
ROOT
HETATM    1  C1  UNL     1     -34.396   6.291   3.645  1.00 20.00     0.067 C 
HETATM    2  C2  UNL     1     -33.069   6.552   3.080  1.00 20.00     0.127 C 
HETATM    3  C3  UNL     1     -32.763   8.022   2.780  1.00 20.00     0.030 C 
HETATM    4  C4  UNL     1     -32.751   5.828   1.764  1.00 20.00     0.136 C 
HETATM    5  C5  UNL     1     -31.596   7.854   1.803  1.00 20.00     0.123 C 
HETATM    6  C6  UNL     1     -33.939   8.815   2.198  1.00 20.00     0.014 C 
HETATM    7  C7  UNL     1     -33.930   5.375   0.913  1.00 20.00     0.041 C 
HETATM    8  C8  UNL     1     -31.255   9.048   0.929  1.00 20.00     0.040 C 
HETATM    9  N9  UNL     1     -35.445   6.084   4.093  1.00 20.00    -0.197 NA
HETATM   10  O10 UNL     1     -31.957   6.738   0.974  1.00 20.00    -0.380 OA
ENDROOT
TORSDOF 0
ENDMDL
