MODEL 1
REMARK VINA RESULT:      -1.5      0.000      0.000
REMARK  1 active torsions:
REMARK  status: ('A' for Active; 'I' for Inactive)
REMARK    1  A    between atoms: C4_4  and  C6_6 
ROOT
HETATM    1  C5  UNL     1     -32.923   8.131   2.433  1.00 20.00     0.001 C 
HETATM    2  C6  UNL     1     -33.030   6.792   2.448  1.00 20.00    -0.048 C 
HETATM    3  C7  UNL     1     -32.059   6.177   1.477  1.00 20.00     0.041 C 
HETATM    4  C8  UNL     1     -31.659   7.362   0.598  1.00 20.00     0.028 C 
HETATM    5  C9  UNL     1     -31.887   8.598   1.465  1.00 20.00     0.106 C 
HETATM    6 CL11 UNL     1     -32.454   9.973   0.507  1.00 20.00    -0.121 Cl
ENDROOT
BRANCH   2   7
HETATM    7  C4  UNL     1     -33.914   5.984   3.304  1.00 20.00    -0.006 A 
HETATM    8  C1  UNL     1     -35.107   6.380   3.954  1.00 20.00     0.038 A 
HETATM    9  C2  UNL     1     -35.561   5.271   4.629  1.00 20.00     0.142 A 
HETATM   10  O10 UNL     1     -34.724   4.218   4.437  1.00 20.00    -0.334 OA
HETATM   11  C3  UNL     1     -33.724   4.661   3.629  1.00 20.00     0.153 A 
ENDBRANCH   2   7
TORSDOF 1
ENDMDL
MODEL 2
REMARK VINA RESULT:      -1.0      0.603      1.125
REMARK  1 active torsions:
REMARK  status: ('A' for Active; 'I' for Inactive)
REMARK    1  A    between atoms: C4_4  and  C6_6 
ROOT
HETATM    1  C5  UNL     1     -32.926   8.266   2.398  1.00 20.00     0.001 C 
HETATM    2  C6  UNL     1     -33.004   6.925   2.412  1.00 20.00    -0.048 C 
HETATM    3  C7  UNL     1     -32.022   6.332   1.440  1.00 20.00     0.041 C 
HETATM    4  C8  UNL     1     -31.649   7.526   0.560  1.00 20.00     0.028 C 
HETATM    5  C9  UNL     1     -31.901   8.756   1.429  1.00 20.00     0.106 C 
HETATM    6 CL11 UNL     1     -32.500  10.120   0.474  1.00 20.00    -0.121 Cl
ENDROOT
BRANCH   2   7
HETATM    7  C4  UNL     1     -33.870   6.098   3.269  1.00 20.00    -0.006 A 
HETATM    8  C1  UNL     1     -33.684   4.752   3.665  1.00 20.00     0.038 A 
HETATM    9  C2  UNL     1     -34.760   4.434   4.459  1.00 20.00     0.142 A 
HETATM   10  O10 UNL     1     -35.597   5.499   4.577  1.00 20.00    -0.334 OA
HETATM   11  C3  UNL     1     -35.047   6.507   3.850  1.00 20.00     0.153 A 
ENDBRANCH   2   7
TORSDOF 1
ENDMDL
MODEL 3
REMARK VINA RESULT:       0.6      3.274      5.059
REMARK  1 active torsions:
REMARK  status: ('A' for Active; 'I' for Inactive)
REMARK    1  A    between atoms: C4_4  and  C6_6 
ROOT
HETATM    1  C5  UNL     1     -33.651   6.822   2.539  1.00 20.00     0.001 C 
HETATM    2  C6  UNL     1     -32.943   7.963   2.535  1.00 20.00    -0.048 C 
HETATM    3  C7  UNL     1     -32.696   8.433   3.942  1.00 20.00     0.041 C 
HETATM    4  C8  UNL     1     -33.708   7.625   4.755  1.00 20.00     0.028 C 
HETATM    5  C9  UNL     1     -33.977   6.372   3.925  1.00 20.00     0.106 C 
HETATM    6 CL11 UNL     1     -35.660   5.843   4.065  1.00 20.00    -0.121 Cl
ENDROOT
BRANCH   2   7
HETATM    7  C4  UNL     1     -32.415   8.673   1.358  1.00 20.00    -0.006 A 
HETATM    8  C1  UNL     1     -32.842   9.907   0.813  1.00 20.00     0.038 A 
HETATM    9  C2  UNL     1     -32.039  10.142  -0.278  1.00 20.00     0.142 A 
HETATM   10  O10 UNL     1     -31.145   9.131  -0.440  1.00 20.00    -0.334 OA
HETATM   11  C3  UNL     1     -31.381   8.241   0.560  1.00 20.00     0.153 A 
ENDBRANCH   2   7
TORSDOF 1
ENDMDL
MODEL 4
REMARK VINA RESULT:       1.0      1.038      1.432
REMARK  1 active torsions:
REMARK  status: ('A' for Active; 'I' for Inactive)
REMARK    1  A    between atoms: C4_4  and  C6_6 
ROOT
HETATM    1  C5  UNL     1     -33.025   7.478   1.544  1.00 20.00     0.001 C 
HETATM    2  C6  UNL     1     -33.148   7.242   2.860  1.00 20.00    -0.048 C 
HETATM    3  C7  UNL     1     -32.378   8.262   3.651  1.00 20.00     0.041 C 
HETATM    4  C8  UNL     1     -31.455   8.883   2.602  1.00 20.00     0.028 C 
HETATM    5  C9  UNL     1     -32.167   8.669   1.268  1.00 20.00     0.106 C 
HETATM    6 CL11 UNL     1     -31.019   8.362  -0.043  1.00 20.00    -0.121 Cl
ENDROOT
BRANCH   2   7
HETATM    7  C4  UNL     1     -33.948   6.182   3.498  1.00 20.00    -0.006 A 
HETATM    8  C1  UNL     1     -35.200   6.297   4.145  1.00 20.00     0.038 A 
HETATM    9  C2  UNL     1     -35.529   5.032   4.572  1.00 20.00     0.142 A 
HETATM   10  O10 UNL     1     -34.558   4.145   4.228  1.00 20.00    -0.334 OA
HETATM   11  C3  UNL     1     -33.599   4.854   3.575  1.00 20.00     0.153 A 
ENDBRANCH   2   7
TORSDOF 1
ENDMDL
MODEL 5
REMARK VINA RESULT:       1.0      3.244      4.958
REMARK  1 active torsions:
REMARK  status: ('A' for Active; 'I' for Inactive)
REMARK    1  A    between atoms: C4_4  and  C6_6 
ROOT
HETATM    1  C5  UNL     1     -32.902   6.068   3.003  1.00 20.00     0.001 C 
HETATM    2  C6  UNL     1     -33.281   7.310   2.662  1.00 20.00    -0.048 C 
HETATM    3  C7  UNL     1     -34.456   7.748   3.492  1.00 20.00     0.041 C 
HETATM    4  C8  UNL     1     -34.967   6.432   4.081  1.00 20.00     0.028 C 
HETATM    5  C9  UNL     1     -33.756   5.503   4.090  1.00 20.00     0.106 C 
HETATM    6 CL11 UNL     1     -34.217   3.826   3.758  1.00 20.00    -0.121 Cl
ENDROOT
BRANCH   2   7
HETATM    7  C4  UNL     1     -32.646   8.186   1.662  1.00 20.00    -0.006 A 
HETATM    8  C1  UNL     1     -33.065   9.465   1.224  1.00 20.00     0.038 A 
HETATM    9  C2  UNL     1     -32.144   9.868   0.286  1.00 20.00     0.142 A 
HETATM   10  O10 UNL     1     -31.185   8.920   0.119  1.00 20.00    -0.334 OA
HETATM   11  C3  UNL     1     -31.498   7.899   0.961  1.00 20.00     0.153 A 
ENDBRANCH   2   7
TORSDOF 1
ENDMDL
MODEL 6
REMARK VINA RESULT:       1.1      1.113      1.818
REMARK  1 active torsions:
REMARK  status: ('A' for Active; 'I' for Inactive)
REMARK    1  A    between atoms: C4_4  and  C6_6 
ROOT
HETATM    1  C5  UNL     1     -33.027   7.358   1.578  1.00 20.00     0.001 C 
HETATM    2  C6  UNL     1     -33.171   7.132   2.893  1.00 20.00    -0.048 C 
HETATM    3  C7  UNL     1     -32.525   8.231   3.690  1.00 20.00     0.041 C 
HETATM    4  C8  UNL     1     -31.629   8.919   2.659  1.00 20.00     0.028 C 
HETATM    5  C9  UNL     1     -32.274   8.620   1.308  1.00 20.00     0.106 C 
HETATM    6 CL11 UNL     1     -31.059   8.401   0.040  1.00 20.00    -0.121 Cl
ENDROOT
BRANCH   2   7
HETATM    7  C4  UNL     1     -33.890   6.012   3.525  1.00 20.00    -0.006 A 
HETATM    8  C1  UNL     1     -33.467   4.669   3.671  1.00 20.00     0.038 A 
HETATM    9  C2  UNL     1     -34.486   4.017   4.324  1.00 20.00     0.142 A 
HETATM   10  O10 UNL     1     -35.509   4.872   4.588  1.00 20.00    -0.334 OA
HETATM   11  C3  UNL     1     -35.138   6.084   4.098  1.00 20.00     0.153 A 
ENDBRANCH   2   7
TORSDOF 1
ENDMDL
MODEL 7
REMARK VINA RESULT:       1.4      3.277      5.096
REMARK  1 active torsions:
REMARK  status: ('A' for Active; 'I' for Inactive)
REMARK    1  A    between atoms: C4_4  and  C6_6 
ROOT
HETATM    1  C5  UNL     1     -32.873   6.123   2.945  1.00 20.00     0.001 C 
HETATM    2  C6  UNL     1     -33.231   7.378   2.629  1.00 20.00    -0.048 C 
HETATM    3  C7  UNL     1     -34.370   7.835   3.499  1.00 20.00     0.041 C 
HETATM    4  C8  UNL     1     -34.895   6.525   4.090  1.00 20.00     0.028 C 
HETATM    5  C9  UNL     1     -33.708   5.566   4.052  1.00 20.00     0.106 C 
HETATM    6 CL11 UNL     1     -34.220   3.906   3.718  1.00 20.00    -0.121 Cl
ENDROOT
BRANCH   2   7
HETATM    7  C4  UNL     1     -32.606   8.249   1.619  1.00 20.00    -0.006 A 
HETATM    8  C1  UNL     1     -31.520   7.956   0.760  1.00 20.00     0.038 A 
HETATM    9  C2  UNL     1     -31.312   9.088   0.008  1.00 20.00     0.142 A 
HETATM   10  O10 UNL     1     -32.200  10.059   0.350  1.00 20.00    -0.334 OA
HETATM   11  C3  UNL     1     -32.984   9.540   1.332  1.00 20.00     0.153 A 
ENDBRANCH   2   7
TORSDOF 1
ENDMDL
