MODEL 1
REMARK VINA RESULT:      -2.9      0.000      0.000
REMARK  2 active torsions:
REMARK  status: ('A' for Active; 'I' for Inactive)
REMARK    1  A    between atoms: C2_2  and  C8_8 
REMARK    2  A    between atoms: C4_4  and  C8_8 
ROOT
HETATM    1  C1  UNL     1     -33.309   6.109   2.271  1.00 20.00    -0.004 C 
HETATM    2  C2  UNL     1     -32.969   7.319   2.732  1.00 20.00    -0.079 C 
HETATM    3  C5  UNL     1     -33.763   7.688   3.946  1.00 20.00     0.036 C 
HETATM    4  C6  UNL     1     -34.898   6.662   3.923  1.00 20.00     0.028 C 
HETATM    5  C7  UNL     1     -34.380   5.480   3.099  1.00 20.00     0.105 C 
HETATM    6 CL9  UNL     1     -33.673   4.218   4.133  1.00 20.00    -0.121 Cl
ENDROOT
BRANCH   2   7
HETATM    7  C8  UNL     1     -31.925   8.224   2.187  1.00 20.00     0.060 C 
BRANCH   7   8
HETATM    8  C4  UNL     1     -32.229   8.670   0.787  1.00 20.00    -0.033 C 
HETATM    9  C3  UNL     1     -32.451   9.942   0.435  1.00 20.00     0.007 C 
ENDBRANCH   7   8
ENDBRANCH   2   7
TORSDOF 2
ENDMDL
MODEL 2
REMARK VINA RESULT:      -2.6      1.302      1.854
REMARK  2 active torsions:
REMARK  status: ('A' for Active; 'I' for Inactive)
REMARK    1  A    between atoms: C2_2  and  C8_8 
REMARK    2  A    between atoms: C4_4  and  C8_8 
ROOT
HETATM    1  C1  UNL     1     -33.313   7.578   3.394  1.00 20.00    -0.004 C 
HETATM    2  C2  UNL     1     -32.640   7.407   2.248  1.00 20.00    -0.079 C 
HETATM    3  C5  UNL     1     -32.894   6.056   1.657  1.00 20.00     0.036 C 
HETATM    4  C6  UNL     1     -33.537   5.301   2.823  1.00 20.00     0.028 C 
HETATM    5  C7  UNL     1     -34.119   6.373   3.748  1.00 20.00     0.105 C 
HETATM    6 CL9  UNL     1     -35.836   6.678   3.401  1.00 20.00    -0.121 Cl
ENDROOT
BRANCH   2   7
HETATM    7  C8  UNL     1     -31.763   8.395   1.569  1.00 20.00     0.060 C 
BRANCH   7   8
HETATM    8  C4  UNL     1     -32.449   9.073   0.419  1.00 20.00    -0.033 C 
HETATM    9  C3  UNL     1     -32.559  10.400   0.287  1.00 20.00     0.007 C 
ENDBRANCH   7   8
ENDBRANCH   2   7
TORSDOF 2
ENDMDL
MODEL 3
REMARK VINA RESULT:      -2.1      2.322      4.241
REMARK  2 active torsions:
REMARK  status: ('A' for Active; 'I' for Inactive)
REMARK    1  A    between atoms: C2_2  and  C8_8 
REMARK    2  A    between atoms: C4_4  and  C8_8 
ROOT
HETATM    1  C1  UNL     1     -33.212   6.774   2.200  1.00 20.00    -0.004 C 
HETATM    2  C2  UNL     1     -33.958   6.941   3.300  1.00 20.00    -0.079 C 
HETATM    3  C5  UNL     1     -33.454   8.073   4.141  1.00 20.00     0.036 C 
HETATM    4  C6  UNL     1     -32.061   8.323   3.557  1.00 20.00     0.028 C 
HETATM    5  C7  UNL     1     -32.095   7.763   2.132  1.00 20.00     0.105 C 
HETATM    6 CL9  UNL     1     -32.485   9.024   0.941  1.00 20.00    -0.121 Cl
ENDROOT
BRANCH   2   7
HETATM    7  C8  UNL     1     -35.165   6.168   3.689  1.00 20.00     0.060 C 
BRANCH   7   8
HETATM    8  C4  UNL     1     -34.829   4.955   4.506  1.00 20.00    -0.033 C 
HETATM    9  C3  UNL     1     -33.995   3.988   4.107  1.00 20.00     0.007 C 
ENDBRANCH   7   8
ENDBRANCH   2   7
TORSDOF 2
ENDMDL
MODEL 4
REMARK VINA RESULT:      -1.8      2.246      4.569
REMARK  2 active torsions:
REMARK  status: ('A' for Active; 'I' for Inactive)
REMARK    1  A    between atoms: C2_2  and  C8_8 
REMARK    2  A    between atoms: C4_4  and  C8_8 
ROOT
HETATM    1  C1  UNL     1     -33.881   7.243   3.538  1.00 20.00    -0.004 C 
HETATM    2  C2  UNL     1     -33.818   5.918   3.350  1.00 20.00    -0.079 C 
HETATM    3  C5  UNL     1     -32.910   5.567   2.213  1.00 20.00     0.036 C 
HETATM    4  C6  UNL     1     -32.727   6.913   1.509  1.00 20.00     0.028 C 
HETATM    5  C7  UNL     1     -33.030   7.983   2.561  1.00 20.00     0.105 C 
HETATM    6 CL9  UNL     1     -31.550   8.550   3.366  1.00 20.00    -0.121 Cl
ENDROOT
BRANCH   2   7
HETATM    7  C8  UNL     1     -34.502   4.867   4.146  1.00 20.00     0.060 C 
BRANCH   7   8
HETATM    8  C4  UNL     1     -33.797   3.544   4.073  1.00 20.00    -0.033 C 
HETATM    9  C3  UNL     1     -33.036   3.043   5.053  1.00 20.00     0.007 C 
ENDBRANCH   7   8
ENDBRANCH   2   7
TORSDOF 2
ENDMDL
MODEL 5
REMARK VINA RESULT:      -1.1      2.408      4.308
REMARK  2 active torsions:
REMARK  status: ('A' for Active; 'I' for Inactive)
REMARK    1  A    between atoms: C2_2  and  C8_8 
REMARK    2  A    between atoms: C4_4  and  C8_8 
ROOT
HETATM    1  C1  UNL     1     -32.338   6.978   1.434  1.00 20.00    -0.004 C 
HETATM    2  C2  UNL     1     -33.104   6.815   2.520  1.00 20.00    -0.079 C 
HETATM    3  C5  UNL     1     -32.971   7.969   3.465  1.00 20.00     0.036 C 
HETATM    4  C6  UNL     1     -31.718   8.678   2.946  1.00 20.00     0.028 C 
HETATM    5  C7  UNL     1     -31.574   8.260   1.480  1.00 20.00     0.105 C 
HETATM    6 CL9  UNL     1     -32.323   9.442   0.384  1.00 20.00    -0.121 Cl
ENDROOT
BRANCH   2   7
HETATM    7  C8  UNL     1     -34.020   5.683   2.808  1.00 20.00     0.060 C 
BRANCH   7   8
HETATM    8  C4  UNL     1     -35.014   6.010   3.885  1.00 20.00    -0.033 C 
HETATM    9  C3  UNL     1     -35.481   5.122   4.769  1.00 20.00     0.007 C 
ENDBRANCH   7   8
ENDBRANCH   2   7
TORSDOF 2
ENDMDL
MODEL 6
REMARK VINA RESULT:      -0.7      1.863      3.858
REMARK  2 active torsions:
REMARK  status: ('A' for Active; 'I' for Inactive)
REMARK    1  A    between atoms: C2_2  and  C8_8 
REMARK    2  A    between atoms: C4_4  and  C8_8 
ROOT
HETATM    1  C1  UNL     1     -32.936   5.637   2.672  1.00 20.00    -0.004 C 
HETATM    2  C2  UNL     1     -33.336   6.892   2.918  1.00 20.00    -0.079 C 
HETATM    3  C5  UNL     1     -32.739   7.860   1.945  1.00 20.00     0.036 C 
HETATM    4  C6  UNL     1     -31.621   7.036   1.302  1.00 20.00     0.028 C 
HETATM    5  C7  UNL     1     -32.012   5.568   1.502  1.00 20.00     0.105 C 
HETATM    6 CL9  UNL     1     -32.880   4.923   0.091  1.00 20.00    -0.121 Cl
ENDROOT
BRANCH   2   7
HETATM    7  C8  UNL     1     -34.275   7.341   3.977  1.00 20.00     0.060 C 
BRANCH   7   8
HETATM    8  C4  UNL     1     -35.459   6.429   4.117  1.00 20.00    -0.033 C 
HETATM    9  C3  UNL     1     -35.390   5.176   4.581  1.00 20.00     0.007 C 
ENDBRANCH   7   8
ENDBRANCH   2   7
TORSDOF 2
ENDMDL
MODEL 7
REMARK VINA RESULT:      -0.6      1.076      1.386
REMARK  2 active torsions:
REMARK  status: ('A' for Active; 'I' for Inactive)
REMARK    1  A    between atoms: C2_2  and  C8_8 
REMARK    2  A    between atoms: C4_4  and  C8_8 
ROOT
HETATM    1  C1  UNL     1     -32.634   6.615   1.129  1.00 20.00    -0.004 C 
HETATM    2  C2  UNL     1     -32.344   7.788   1.706  1.00 20.00    -0.079 C 
HETATM    3  C5  UNL     1     -32.934   7.887   3.078  1.00 20.00     0.036 C 
HETATM    4  C6  UNL     1     -33.939   6.734   3.090  1.00 20.00     0.028 C 
HETATM    5  C7  UNL     1     -33.461   5.748   2.019  1.00 20.00     0.105 C 
HETATM    6 CL9  UNL     1     -32.447   4.465   2.715  1.00 20.00    -0.121 Cl
ENDROOT
BRANCH   2   7
HETATM    7  C8  UNL     1     -31.520   8.886   1.138  1.00 20.00     0.060 C 
BRANCH   7   8
HETATM    8  C4  UNL     1     -32.356  10.020   0.620  1.00 20.00    -0.033 C 
HETATM    9  C3  UNL     1     -32.837  10.089  -0.626  1.00 20.00     0.007 C 
ENDBRANCH   7   8
ENDBRANCH   2   7
TORSDOF 2
ENDMDL
MODEL 8
REMARK VINA RESULT:      -0.4      1.262      1.934
REMARK  2 active torsions:
REMARK  status: ('A' for Active; 'I' for Inactive)
REMARK    1  A    between atoms: C2_2  and  C8_8 
REMARK    2  A    between atoms: C4_4  and  C8_8 
ROOT
HETATM    1  C1  UNL     1     -34.275   6.760   2.632  1.00 20.00    -0.004 C 
HETATM    2  C2  UNL     1     -33.168   7.481   2.851  1.00 20.00    -0.079 C 
HETATM    3  C5  UNL     1     -33.024   7.844   4.296  1.00 20.00     0.036 C 
HETATM    4  C6  UNL     1     -34.417   7.543   4.852  1.00 20.00     0.028 C 
HETATM    5  C7  UNL     1     -35.045   6.529   3.891  1.00 20.00     0.105 C 
HETATM    6 CL9  UNL     1     -34.797   4.859   4.444  1.00 20.00    -0.121 Cl
ENDROOT
BRANCH   2   7
HETATM    7  C8  UNL     1     -32.146   7.879   1.849  1.00 20.00     0.060 C 
BRANCH   7   8
HETATM    8  C4  UNL     1     -31.594   6.703   1.097  1.00 20.00    -0.033 C 
HETATM    9  C3  UNL     1     -32.048   5.451   1.222  1.00 20.00     0.007 C 
ENDBRANCH   7   8
ENDBRANCH   2   7
TORSDOF 2
ENDMDL
MODEL 9
REMARK VINA RESULT:      -0.0      2.814      4.586
REMARK  2 active torsions:
REMARK  status: ('A' for Active; 'I' for Inactive)
REMARK    1  A    between atoms: C2_2  and  C8_8 
REMARK    2  A    between atoms: C4_4  and  C8_8 
ROOT
HETATM    1  C1  UNL     1     -33.373   8.917   1.585  1.00 20.00    -0.004 C 
HETATM    2  C2  UNL     1     -32.599   8.130   2.343  1.00 20.00    -0.079 C 
HETATM    3  C5  UNL     1     -31.238   7.954   1.743  1.00 20.00     0.036 C 
HETATM    4  C6  UNL     1     -31.440   8.460   0.313  1.00 20.00     0.028 C 
HETATM    5  C7  UNL     1     -32.657   9.389   0.363  1.00 20.00     0.105 C 
HETATM    6 CL9  UNL     1     -32.177  11.088   0.569  1.00 20.00    -0.121 Cl
ENDROOT
BRANCH   2   7
HETATM    7  C8  UNL     1     -32.957   7.504   3.641  1.00 20.00     0.060 C 
BRANCH   7   8
HETATM    8  C4  UNL     1     -34.442   7.402   3.836  1.00 20.00    -0.033 C 
HETATM    9  C3  UNL     1     -35.106   6.246   3.953  1.00 20.00     0.007 C 
ENDBRANCH   7   8
ENDBRANCH   2   7
TORSDOF 2
ENDMDL
