MODEL 1
REMARK VINA RESULT:       2.0      0.000      0.000
REMARK  2 active torsions:
REMARK  status: ('A' for Active; 'I' for Inactive)
REMARK    1  A    between atoms: C3_3  and  C8_8 
REMARK    2  A    between atoms: C8_8  and  C9_9 
ROOT
HETATM    1  C1  UNL     1     -34.247   6.283   3.479  1.00 20.00     0.044 A 
HETATM    2  C2  UNL     1     -33.580   5.116   3.172  1.00 20.00     0.005 A 
HETATM    3  C3  UNL     1     -32.711   7.120   2.157  1.00 20.00     0.081 A 
HETATM    4  C4  UNL     1     -35.425   6.404   4.363  1.00 20.00     0.071 C 
HETATM    5  C5  UNL     1     -33.836   3.730   3.612  1.00 20.00     0.058 C 
HETATM    6  N10 UNL     1     -33.750   7.434   2.898  1.00 20.00    -0.249 NA
HETATM    7  S11 UNL     1     -32.276   5.461   2.112  1.00 20.00    -0.077 SA
ENDROOT
BRANCH   3   8
HETATM    8  C8  UNL     1     -31.889   8.123   1.357  1.00 20.00     0.059 C 
HETATM    9  C6  UNL     1     -30.882   8.808   2.295  1.00 20.00     0.018 C 
BRANCH   8  10
HETATM   10  C9  UNL     1     -32.778   9.141   0.593  1.00 20.00     0.088 C 
HETATM   11  C7  UNL     1     -32.373   9.308  -0.872  1.00 20.00     0.027 C 
HETATM   12 CL12 UNL     1     -32.695  10.763   1.366  1.00 20.00    -0.125 Cl
ENDBRANCH   8  10
ENDBRANCH   3   8
TORSDOF 2
ENDMDL
MODEL 2
REMARK VINA RESULT:       2.5      1.902      2.812
REMARK  2 active torsions:
REMARK  status: ('A' for Active; 'I' for Inactive)
REMARK    1  A    between atoms: C3_3  and  C8_8 
REMARK    2  A    between atoms: C8_8  and  C9_9 
ROOT
HETATM    1  C1  UNL     1     -33.712   4.200   4.033  1.00 20.00     0.044 A 
HETATM    2  C2  UNL     1     -34.742   5.058   4.354  1.00 20.00     0.005 A 
HETATM    3  C3  UNL     1     -33.329   5.752   2.533  1.00 20.00     0.081 A 
HETATM    4  C4  UNL     1     -33.411   2.915   4.698  1.00 20.00     0.071 C 
HETATM    5  C5  UNL     1     -35.783   4.947   5.397  1.00 20.00     0.058 C 
HETATM    6  N10 UNL     1     -32.900   4.596   2.988  1.00 20.00    -0.249 NA
HETATM    7  S11 UNL     1     -34.702   6.421   3.314  1.00 20.00    -0.077 SA
ENDROOT
BRANCH   3   8
HETATM    8  C8  UNL     1     -32.691   6.513   1.376  1.00 20.00     0.059 C 
HETATM    9  C6  UNL     1     -31.784   5.555   0.587  1.00 20.00     0.018 C 
BRANCH   8  10
HETATM   10  C9  UNL     1     -31.943   7.788   1.848  1.00 20.00     0.088 C 
HETATM   11  C7  UNL     1     -32.328   8.220   3.263  1.00 20.00     0.027 C 
HETATM   12 CL12 UNL     1     -32.286   9.170   0.748  1.00 20.00    -0.125 Cl
ENDBRANCH   8  10
ENDBRANCH   3   8
TORSDOF 2
ENDMDL
MODEL 3
REMARK VINA RESULT:       2.7      1.107      1.780
REMARK  2 active torsions:
REMARK  status: ('A' for Active; 'I' for Inactive)
REMARK    1  A    between atoms: C3_3  and  C8_8 
REMARK    2  A    between atoms: C8_8  and  C9_9 
ROOT
HETATM    1  C1  UNL     1     -33.606   5.229   3.126  1.00 20.00     0.044 A 
HETATM    2  C2  UNL     1     -34.484   6.122   3.701  1.00 20.00     0.005 A 
HETATM    3  C3  UNL     1     -32.797   7.081   2.275  1.00 20.00     0.081 A 
HETATM    4  C4  UNL     1     -33.615   3.762   3.307  1.00 20.00     0.071 C 
HETATM    5  C5  UNL     1     -35.623   5.884   4.612  1.00 20.00     0.058 C 
HETATM    6  N10 UNL     1     -32.637   5.776   2.308  1.00 20.00    -0.249 NA
HETATM    7  S11 UNL     1     -34.092   7.716   3.205  1.00 20.00    -0.077 SA
ENDROOT
BRANCH   3   8
HETATM    8  C8  UNL     1     -31.921   8.037   1.475  1.00 20.00     0.059 C 
HETATM    9  C6  UNL     1     -30.936   8.731   2.430  1.00 20.00     0.018 C 
BRANCH   8  10
HETATM   10  C9  UNL     1     -32.753   9.046   0.641  1.00 20.00     0.088 C 
HETATM   11  C7  UNL     1     -32.289   9.149  -0.811  1.00 20.00     0.027 C 
HETATM   12 CL12 UNL     1     -32.658  10.694   1.358  1.00 20.00    -0.125 Cl
ENDBRANCH   8  10
ENDBRANCH   3   8
TORSDOF 2
ENDMDL
MODEL 4
REMARK VINA RESULT:       3.2      1.413      1.653
REMARK  2 active torsions:
REMARK  status: ('A' for Active; 'I' for Inactive)
REMARK    1  A    between atoms: C3_3  and  C8_8 
REMARK    2  A    between atoms: C8_8  and  C9_9 
ROOT
HETATM    1  C1  UNL     1     -34.473   5.239   3.948  1.00 20.00     0.044 A 
HETATM    2  C2  UNL     1     -33.574   4.199   3.843  1.00 20.00     0.005 A 
HETATM    3  C3  UNL     1     -33.205   6.059   2.358  1.00 20.00     0.081 A 
HETATM    4  C4  UNL     1     -35.619   5.306   4.878  1.00 20.00     0.071 C 
HETATM    5  C5  UNL     1     -33.501   2.926   4.587  1.00 20.00     0.058 C 
HETATM    6  N10 UNL     1     -34.263   6.307   3.097  1.00 20.00    -0.249 NA
HETATM    7  S11 UNL     1     -32.414   4.561   2.632  1.00 20.00    -0.077 SA
ENDROOT
BRANCH   3   8
HETATM    8  C8  UNL     1     -32.653   7.005   1.299  1.00 20.00     0.059 C 
HETATM    9  C6  UNL     1     -31.278   6.494   0.838  1.00 20.00     0.018 C 
BRANCH   8  10
HETATM   10  C9  UNL     1     -32.607   8.478   1.786  1.00 20.00     0.088 C 
HETATM   11  C7  UNL     1     -32.251   9.466   0.675  1.00 20.00     0.027 C 
HETATM   12 CL12 UNL     1     -31.390   8.676   3.096  1.00 20.00    -0.125 Cl
ENDBRANCH   8  10
ENDBRANCH   3   8
TORSDOF 2
ENDMDL
MODEL 5
REMARK VINA RESULT:       3.2      2.328      4.817
REMARK  2 active torsions:
REMARK  status: ('A' for Active; 'I' for Inactive)
REMARK    1  A    between atoms: C3_3  and  C8_8 
REMARK    2  A    between atoms: C8_8  and  C9_9 
ROOT
HETATM    1  C1  UNL     1     -32.403   9.445   0.762  1.00 20.00     0.044 A 
HETATM    2  C2  UNL     1     -31.465   8.632   0.163  1.00 20.00     0.005 A 
HETATM    3  C3  UNL     1     -32.642   7.673   2.032  1.00 20.00     0.081 A 
HETATM    4  C4  UNL     1     -32.742  10.826   0.360  1.00 20.00     0.071 C 
HETATM    5  C5  UNL     1     -30.578   8.892  -0.989  1.00 20.00     0.058 C 
HETATM    6  N10 UNL     1     -33.080   8.897   1.835  1.00 20.00    -0.249 NA
HETATM    7  S11 UNL     1     -31.417   7.117   0.967  1.00 20.00    -0.077 SA
ENDROOT
BRANCH   3   8
HETATM    8  C8  UNL     1     -33.150   6.743   3.127  1.00 20.00     0.059 C 
HETATM    9  C6  UNL     1     -33.467   5.371   2.510  1.00 20.00     0.018 C 
BRANCH   8  10
HETATM   10  C9  UNL     1     -34.355   7.340   3.900  1.00 20.00     0.088 C 
HETATM   11  C7  UNL     1     -33.945   8.051   5.190  1.00 20.00     0.027 C 
HETATM   12 CL12 UNL     1     -35.529   6.051   4.342  1.00 20.00    -0.125 Cl
ENDBRANCH   8  10
ENDBRANCH   3   8
TORSDOF 2
ENDMDL
MODEL 6
REMARK VINA RESULT:       3.2      1.098      1.246
REMARK  2 active torsions:
REMARK  status: ('A' for Active; 'I' for Inactive)
REMARK    1  A    between atoms: C3_3  and  C8_8 
REMARK    2  A    between atoms: C8_8  and  C9_9 
ROOT
HETATM    1  C1  UNL     1     -33.775   7.509   4.103  1.00 20.00     0.044 A 
HETATM    2  C2  UNL     1     -34.163   6.283   3.606  1.00 20.00     0.005 A 
HETATM    3  C3  UNL     1     -32.807   7.629   2.139  1.00 20.00     0.081 A 
HETATM    4  C4  UNL     1     -34.112   8.052   5.435  1.00 20.00     0.071 C 
HETATM    5  C5  UNL     1     -34.982   5.221   4.224  1.00 20.00     0.058 C 
HETATM    6  N10 UNL     1     -32.997   8.282   3.264  1.00 20.00    -0.249 NA
HETATM    7  S11 UNL     1     -33.536   6.080   2.022  1.00 20.00    -0.077 SA
ENDROOT
BRANCH   3   8
HETATM    8  C8  UNL     1     -31.995   8.157   0.963  1.00 20.00     0.059 C 
HETATM    9  C6  UNL     1     -30.604   8.577   1.463  1.00 20.00     0.018 C 
BRANCH   8  10
HETATM   10  C9  UNL     1     -32.724   9.297   0.204  1.00 20.00     0.088 C 
HETATM   11  C7  UNL     1     -32.164   9.536  -1.198  1.00 20.00     0.027 C 
HETATM   12 CL12 UNL     1     -32.597  10.846   1.109  1.00 20.00    -0.125 Cl
ENDBRANCH   8  10
ENDBRANCH   3   8
TORSDOF 2
ENDMDL
MODEL 7
REMARK VINA RESULT:       3.3      2.603      5.174
REMARK  2 active torsions:
REMARK  status: ('A' for Active; 'I' for Inactive)
REMARK    1  A    between atoms: C3_3  and  C8_8 
REMARK    2  A    between atoms: C8_8  and  C9_9 
ROOT
HETATM    1  C1  UNL     1     -31.502   8.685   0.267  1.00 20.00     0.044 A 
HETATM    2  C2  UNL     1     -32.342   9.742   0.547  1.00 20.00     0.005 A 
HETATM    3  C3  UNL     1     -32.594   7.803   1.952  1.00 20.00     0.081 A 
HETATM    4  C4  UNL     1     -30.480   8.645  -0.799  1.00 20.00     0.071 C 
HETATM    5  C5  UNL     1     -32.455  11.064  -0.102  1.00 20.00     0.058 C 
HETATM    6  N10 UNL     1     -31.645   7.571   1.072  1.00 20.00    -0.249 NA
HETATM    7  S11 UNL     1     -33.357   9.337   1.869  1.00 20.00    -0.077 SA
ENDROOT
BRANCH   3   8
HETATM    8  C8  UNL     1     -33.042   6.809   3.017  1.00 20.00     0.059 C 
HETATM    9  C6  UNL     1     -33.329   5.455   2.349  1.00 20.00     0.018 C 
BRANCH   8  10
HETATM   10  C9  UNL     1     -34.246   7.332   3.845  1.00 20.00     0.088 C 
HETATM   11  C7  UNL     1     -33.829   7.968   5.171  1.00 20.00     0.027 C 
HETATM   12 CL12 UNL     1     -35.387   5.993   4.222  1.00 20.00    -0.125 Cl
ENDBRANCH   8  10
ENDBRANCH   3   8
TORSDOF 2
ENDMDL
MODEL 8
REMARK VINA RESULT:       3.4      2.458      4.558
REMARK  2 active torsions:
REMARK  status: ('A' for Active; 'I' for Inactive)
REMARK    1  A    between atoms: C3_3  and  C8_8 
REMARK    2  A    between atoms: C8_8  and  C9_9 
ROOT
HETATM    1  C1  UNL     1     -32.227   6.376   1.333  1.00 20.00     0.044 A 
HETATM    2  C2  UNL     1     -31.857   7.673   1.051  1.00 20.00     0.005 A 
HETATM    3  C3  UNL     1     -33.366   7.392   2.907  1.00 20.00     0.081 A 
HETATM    4  C4  UNL     1     -31.782   5.168   0.608  1.00 20.00     0.071 C 
HETATM    5  C5  UNL     1     -30.961   8.201   0.003  1.00 20.00     0.058 C 
HETATM    6  N10 UNL     1     -33.093   6.212   2.397  1.00 20.00    -0.249 NA
HETATM    7  S11 UNL     1     -32.619   8.742   2.156  1.00 20.00    -0.077 SA
ENDROOT
BRANCH   3   8
HETATM    8  C8  UNL     1     -34.287   7.623   4.099  1.00 20.00     0.059 C 
HETATM    9  C6  UNL     1     -33.430   7.866   5.353  1.00 20.00     0.018 C 
BRANCH   8  10
HETATM   10  C9  UNL     1     -35.308   6.471   4.291  1.00 20.00     0.088 C 
HETATM   11  C7  UNL     1     -34.667   5.085   4.230  1.00 20.00     0.027 C 
HETATM   12 CL12 UNL     1     -36.583   6.534   3.023  1.00 20.00    -0.125 Cl
ENDBRANCH   8  10
ENDBRANCH   3   8
TORSDOF 2
ENDMDL
MODEL 9
REMARK VINA RESULT:       3.8      2.299      4.295
REMARK  2 active torsions:
REMARK  status: ('A' for Active; 'I' for Inactive)
REMARK    1  A    between atoms: C3_3  and  C8_8 
REMARK    2  A    between atoms: C8_8  and  C9_9 
ROOT
HETATM    1  C1  UNL     1     -31.940   7.389   1.281  1.00 20.00     0.044 A 
HETATM    2  C2  UNL     1     -32.098   6.019   1.292  1.00 20.00     0.005 A 
HETATM    3  C3  UNL     1     -33.374   7.236   2.933  1.00 20.00     0.081 A 
HETATM    4  C4  UNL     1     -31.072   8.156   0.364  1.00 20.00     0.071 C 
HETATM    5  C5  UNL     1     -31.481   4.983   0.439  1.00 20.00     0.058 C 
HETATM    6  N10 UNL     1     -32.671   8.089   2.221  1.00 20.00    -0.249 NA
HETATM    7  S11 UNL     1     -33.204   5.578   2.527  1.00 20.00    -0.077 SA
ENDROOT
BRANCH   3   8
HETATM    8  C8  UNL     1     -34.310   7.629   4.069  1.00 20.00     0.059 C 
HETATM    9  C6  UNL     1     -33.479   7.885   5.337  1.00 20.00     0.018 C 
BRANCH   8  10
HETATM   10  C9  UNL     1     -35.436   6.585   4.296  1.00 20.00     0.088 C 
HETATM   11  C7  UNL     1     -34.914   5.151   4.387  1.00 20.00     0.027 C 
HETATM   12 CL12 UNL     1     -36.634   6.641   2.956  1.00 20.00    -0.125 Cl
ENDBRANCH   8  10
ENDBRANCH   3   8
TORSDOF 2
ENDMDL
