MODEL 1
REMARK VINA RESULT:       0.2      0.000      0.000
REMARK  1 active torsions:
REMARK  status: ('A' for Active; 'I' for Inactive)
REMARK    1  A    between atoms: C2_2  and  C9_9 
ROOT
HETATM    1  C1  UNL     1     -33.244   6.052   2.199  1.00 20.00    -0.004 C 
HETATM    2  C2  UNL     1     -32.850   7.258   2.628  1.00 20.00    -0.076 C 
HETATM    3  C3  UNL     1     -33.644   7.705   3.816  1.00 20.00     0.036 C 
HETATM    4  C4  UNL     1     -34.829   6.736   3.806  1.00 20.00     0.028 C 
HETATM    5  C8  UNL     1     -34.359   5.505   3.027  1.00 20.00     0.105 C 
HETATM    6 CL11 UNL     1     -33.733   4.243   4.111  1.00 20.00    -0.121 Cl
ENDROOT
BRANCH   2   7
HETATM    7  C9  UNL     1     -31.743   8.099   2.068  1.00 20.00     0.040 C 
HETATM    8  C5  UNL     1     -31.607   7.965   0.565  1.00 20.00     0.037 C 
HETATM    9  C6  UNL     1     -32.611   8.971   0.040  1.00 20.00     0.168 C 
HETATM   10  O10 UNL     1     -32.716  10.008   1.023  1.00 20.00    -0.390 OA
HETATM   11  C7  UNL     1     -32.040   9.584   2.217  1.00 20.00     0.176 C 
ENDBRANCH   2   7
TORSDOF 1
ENDMDL
MODEL 2
REMARK VINA RESULT:       0.4      1.233      1.716
REMARK  1 active torsions:
REMARK  status: ('A' for Active; 'I' for Inactive)
REMARK    1  A    between atoms: C2_2  and  C9_9 
ROOT
HETATM    1  C1  UNL     1     -33.212   7.661   3.363  1.00 20.00    -0.004 C 
HETATM    2  C2  UNL     1     -32.554   7.623   2.198  1.00 20.00    -0.076 C 
HETATM    3  C3  UNL     1     -32.810   6.343   1.463  1.00 20.00     0.036 C 
HETATM    4  C4  UNL     1     -33.436   5.460   2.546  1.00 20.00     0.028 C 
HETATM    5  C8  UNL     1     -34.009   6.420   3.592  1.00 20.00     0.105 C 
HETATM    6 CL11 UNL     1     -35.731   6.754   3.303  1.00 20.00    -0.121 Cl
ENDROOT
BRANCH   2   7
HETATM    7  C9  UNL     1     -31.682   8.694   1.616  1.00 20.00     0.040 C 
HETATM    8  C5  UNL     1     -31.458   8.523   0.127  1.00 20.00     0.037 C 
HETATM    9  C6  UNL     1     -32.667   9.205  -0.481  1.00 20.00     0.168 C 
HETATM   10  O10 UNL     1     -33.075  10.227   0.437  1.00 20.00    -0.390 OA
HETATM   11  C7  UNL     1     -32.358  10.055   1.670  1.00 20.00     0.176 C 
ENDBRANCH   2   7
TORSDOF 1
ENDMDL
MODEL 3
REMARK VINA RESULT:       1.4      3.017      4.567
REMARK  1 active torsions:
REMARK  status: ('A' for Active; 'I' for Inactive)
REMARK    1  A    between atoms: C2_2  and  C9_9 
ROOT
HETATM    1  C1  UNL     1     -32.559   6.706   1.847  1.00 20.00    -0.004 C 
HETATM    2  C2  UNL     1     -33.525   6.540   2.759  1.00 20.00    -0.076 C 
HETATM    3  C3  UNL     1     -33.561   7.675   3.735  1.00 20.00     0.036 C 
HETATM    4  C4  UNL     1     -32.220   8.368   3.485  1.00 20.00     0.028 C 
HETATM    5  C8  UNL     1     -31.799   7.971   2.067  1.00 20.00     0.105 C 
HETATM    6 CL11 UNL     1     -32.299   9.185   0.870  1.00 20.00    -0.121 Cl
ENDROOT
BRANCH   2   7
HETATM    7  C9  UNL     1     -34.508   5.410   2.840  1.00 20.00     0.040 C 
HETATM    8  C5  UNL     1     -33.837   4.057   2.950  1.00 20.00     0.037 C 
HETATM    9  C6  UNL     1     -33.586   3.920   4.439  1.00 20.00     0.168 C 
HETATM   10  O10 UNL     1     -34.607   4.673   5.104  1.00 20.00    -0.390 OA
HETATM   11  C7  UNL     1     -35.311   5.460   4.131  1.00 20.00     0.176 C 
ENDBRANCH   2   7
TORSDOF 1
ENDMDL
MODEL 4
REMARK VINA RESULT:       1.6      1.683      2.343
REMARK  1 active torsions:
REMARK  status: ('A' for Active; 'I' for Inactive)
REMARK    1  A    between atoms: C2_2  and  C9_9 
ROOT
HETATM    1  C1  UNL     1     -33.515   4.564   2.838  1.00 20.00    -0.004 C 
HETATM    2  C2  UNL     1     -33.829   5.866   2.836  1.00 20.00    -0.076 C 
HETATM    3  C3  UNL     1     -34.619   6.243   4.051  1.00 20.00     0.036 C 
HETATM    4  C4  UNL     1     -35.047   4.881   4.603  1.00 20.00     0.028 C 
HETATM    5  C8  UNL     1     -34.042   3.868   4.049  1.00 20.00     0.105 C 
HETATM    6 CL11 UNL     1     -32.715   3.568   5.192  1.00 20.00    -0.121 Cl
ENDROOT
BRANCH   2   7
HETATM    7  C9  UNL     1     -33.448   6.885   1.806  1.00 20.00     0.040 C 
HETATM    8  C5  UNL     1     -33.182   8.252   2.404  1.00 20.00     0.037 C 
HETATM    9  C6  UNL     1     -31.730   8.163   2.827  1.00 20.00     0.168 C 
HETATM   10  O10 UNL     1     -31.094   7.233   1.941  1.00 20.00    -0.390 OA
HETATM   11  C7  UNL     1     -32.103   6.563   1.171  1.00 20.00     0.176 C 
ENDBRANCH   2   7
TORSDOF 1
ENDMDL
MODEL 5
REMARK VINA RESULT:       1.8      1.270      1.718
REMARK  1 active torsions:
REMARK  status: ('A' for Active; 'I' for Inactive)
REMARK    1  A    between atoms: C2_2  and  C9_9 
ROOT
HETATM    1  C1  UNL     1     -33.940   7.760   3.497  1.00 20.00    -0.004 C 
HETATM    2  C2  UNL     1     -32.961   7.209   2.768  1.00 20.00    -0.076 C 
HETATM    3  C3  UNL     1     -33.197   5.747   2.545  1.00 20.00     0.036 C 
HETATM    4  C4  UNL     1     -34.287   5.428   3.572  1.00 20.00     0.028 C 
HETATM    5  C8  UNL     1     -34.980   6.759   3.876  1.00 20.00     0.105 C 
HETATM    6 CL11 UNL     1     -36.427   6.989   2.870  1.00 20.00    -0.121 Cl
ENDROOT
BRANCH   2   7
HETATM    7  C9  UNL     1     -31.769   7.904   2.183  1.00 20.00     0.040 C 
HETATM    8  C5  UNL     1     -31.780   7.912   0.668  1.00 20.00     0.037 C 
HETATM    9  C6  UNL     1     -32.625   9.126   0.338  1.00 20.00     0.168 C 
HETATM   10  O10 UNL     1     -32.463  10.053   1.419  1.00 20.00    -0.390 OA
HETATM   11  C7  UNL     1     -31.781   9.393   2.497  1.00 20.00     0.176 C 
ENDBRANCH   2   7
TORSDOF 1
ENDMDL
MODEL 6
REMARK VINA RESULT:       2.2      3.021      4.640
REMARK  1 active torsions:
REMARK  status: ('A' for Active; 'I' for Inactive)
REMARK    1  A    between atoms: C2_2  and  C9_9 
ROOT
HETATM    1  C1  UNL     1     -33.068   9.570   1.618  1.00 20.00    -0.004 C 
HETATM    2  C2  UNL     1     -32.285   8.490   1.494  1.00 20.00    -0.076 C 
HETATM    3  C3  UNL     1     -31.521   8.510   0.207  1.00 20.00     0.036 C 
HETATM    4  C4  UNL     1     -32.250   9.592  -0.593  1.00 20.00     0.028 C 
HETATM    5  C8  UNL     1     -32.953  10.478   0.439  1.00 20.00     0.105 C 
HETATM    6 CL11 UNL     1     -31.968  11.893   0.869  1.00 20.00    -0.121 Cl
ENDROOT
BRANCH   2   7
HETATM    7  C9  UNL     1     -32.114   7.380   2.486  1.00 20.00     0.040 C 
HETATM    8  C5  UNL     1     -32.757   7.684   3.824  1.00 20.00     0.037 C 
HETATM    9  C6  UNL     1     -34.194   7.251   3.618  1.00 20.00     0.168 C 
HETATM   10  O10 UNL     1     -34.178   6.200   2.645  1.00 20.00    -0.390 OA
HETATM   11  C7  UNL     1     -32.868   6.129   2.061  1.00 20.00     0.176 C 
ENDBRANCH   2   7
TORSDOF 1
ENDMDL
MODEL 7
REMARK VINA RESULT:       2.4      2.934      4.497
REMARK  1 active torsions:
REMARK  status: ('A' for Active; 'I' for Inactive)
REMARK    1  A    between atoms: C2_2  and  C9_9 
ROOT
HETATM    1  C1  UNL     1     -33.337   8.869   1.621  1.00 20.00    -0.004 C 
HETATM    2  C2  UNL     1     -32.507   8.024   2.247  1.00 20.00    -0.076 C 
HETATM    3  C3  UNL     1     -31.190   7.924   1.542  1.00 20.00     0.036 C 
HETATM    4  C4  UNL     1     -31.493   8.562   0.184  1.00 20.00     0.028 C 
HETATM    5  C8  UNL     1     -32.710   9.464   0.404  1.00 20.00     0.105 C 
HETATM    6 CL11 UNL     1     -32.231  11.142   0.740  1.00 20.00    -0.121 Cl
ENDROOT
BRANCH   2   7
HETATM    7  C9  UNL     1     -32.774   7.266   3.512  1.00 20.00     0.040 C 
HETATM    8  C5  UNL     1     -33.955   7.814   4.286  1.00 20.00     0.037 C 
HETATM    9  C6  UNL     1     -35.138   7.118   3.642  1.00 20.00     0.168 C 
HETATM   10  O10 UNL     1     -34.664   5.859   3.150  1.00 20.00    -0.390 OA
HETATM   11  C7  UNL     1     -33.230   5.843   3.225  1.00 20.00     0.176 C 
ENDBRANCH   2   7
TORSDOF 1
ENDMDL
MODEL 8
REMARK VINA RESULT:       3.1      2.269      3.724
REMARK  1 active torsions:
REMARK  status: ('A' for Active; 'I' for Inactive)
REMARK    1  A    between atoms: C2_2  and  C9_9 
ROOT
HETATM    1  C1  UNL     1     -34.120   3.912   4.624  1.00 20.00    -0.004 C 
HETATM    2  C2  UNL     1     -33.631   4.672   3.635  1.00 20.00    -0.076 C 
HETATM    3  C3  UNL     1     -32.233   4.273   3.276  1.00 20.00     0.036 C 
HETATM    4  C4  UNL     1     -31.825   3.394   4.460  1.00 20.00     0.028 C 
HETATM    5  C8  UNL     1     -33.132   2.891   5.081  1.00 20.00     0.105 C 
HETATM    6 CL11 UNL     1     -33.587   1.294   4.448  1.00 20.00    -0.121 Cl
ENDROOT
BRANCH   2   7
HETATM    7  C9  UNL     1     -34.340   5.773   2.907  1.00 20.00     0.040 C 
HETATM    8  C5  UNL     1     -35.029   6.745   3.842  1.00 20.00     0.037 C 
HETATM    9  C6  UNL     1     -33.924   7.719   4.199  1.00 20.00     0.168 C 
HETATM   10  O10 UNL     1     -33.022   7.751   3.086  1.00 20.00    -0.390 OA
HETATM   11  C7  UNL     1     -33.360   6.686   2.184  1.00 20.00     0.176 C 
ENDBRANCH   2   7
TORSDOF 1
ENDMDL
MODEL 9
REMARK VINA RESULT:       3.1      2.739      4.311
REMARK  1 active torsions:
REMARK  status: ('A' for Active; 'I' for Inactive)
REMARK    1  A    between atoms: C2_2  and  C9_9 
ROOT
HETATM    1  C1  UNL     1     -31.684   8.340   1.192  1.00 20.00    -0.004 C 
HETATM    2  C2  UNL     1     -32.546   8.354   2.217  1.00 20.00    -0.076 C 
HETATM    3  C3  UNL     1     -33.454   9.543   2.154  1.00 20.00     0.036 C 
HETATM    4  C4  UNL     1     -32.755  10.440   1.130  1.00 20.00     0.028 C 
HETATM    5  C8  UNL     1     -31.877   9.511   0.287  1.00 20.00     0.105 C 
HETATM    6 CL11 UNL     1     -32.708   8.991  -1.195  1.00 20.00    -0.121 Cl
ENDROOT
BRANCH   2   7
HETATM    7  C9  UNL     1     -32.674   7.332   3.305  1.00 20.00     0.040 C 
HETATM    8  C5  UNL     1     -33.734   7.692   4.326  1.00 20.00     0.037 C 
HETATM    9  C6  UNL     1     -35.006   7.157   3.701  1.00 20.00     0.168 C 
HETATM   10  O10 UNL     1     -34.632   6.040   2.886  1.00 20.00    -0.390 OA
HETATM   11  C7  UNL     1     -33.201   6.009   2.770  1.00 20.00     0.176 C 
ENDBRANCH   2   7
TORSDOF 1
ENDMDL
