MODEL 1
REMARK VINA RESULT:      -2.6      0.000      0.000
REMARK  2 active torsions:
REMARK  status: ('A' for Active; 'I' for Inactive)
REMARK    1  A    between atoms: C2_2  and  C9_9 
REMARK    2  A    between atoms: C4_4  and  C9_9 
ROOT
HETATM    1  C1  UNL     1     -33.193   4.924   2.777  1.00 20.00    -0.004 C 
HETATM    2  C2  UNL     1     -33.146   6.257   2.582  1.00 20.00    -0.079 C 
HETATM    3  C5  UNL     1     -34.127   7.181   3.272  1.00 20.00     0.034 C 
HETATM    4  C6  UNL     1     -35.333   6.460   3.880  1.00 20.00     0.006 C 
HETATM    5  C7  UNL     1     -34.890   5.213   4.638  1.00 20.00     0.024 C 
HETATM    6  C8  UNL     1     -34.166   4.246   3.697  1.00 20.00     0.105 C 
HETATM    7 CL10 UNL     1     -33.320   3.002   4.662  1.00 20.00    -0.121 Cl
ENDROOT
BRANCH   2   8
HETATM    8  C9  UNL     1     -32.179   6.914   1.669  1.00 20.00     0.060 C 
BRANCH   8   9
HETATM    9  C4  UNL     1     -32.249   8.405   1.761  1.00 20.00    -0.033 C 
HETATM   10  C3  UNL     1     -32.214   9.221   0.701  1.00 20.00     0.007 C 
ENDBRANCH   8   9
ENDBRANCH   2   8
TORSDOF 2
ENDMDL
MODEL 2
REMARK VINA RESULT:      -1.9      1.753      2.758
REMARK  2 active torsions:
REMARK  status: ('A' for Active; 'I' for Inactive)
REMARK    1  A    between atoms: C2_2  and  C9_9 
REMARK    2  A    between atoms: C4_4  and  C9_9 
ROOT
HETATM    1  C1  UNL     1     -33.183   7.627   3.033  1.00 20.00    -0.004 C 
HETATM    2  C2  UNL     1     -32.422   7.801   1.935  1.00 20.00    -0.079 C 
HETATM    3  C5  UNL     1     -32.048   6.628   1.053  1.00 20.00     0.034 C 
HETATM    4  C6  UNL     1     -32.294   5.263   1.700  1.00 20.00     0.006 C 
HETATM    5  C7  UNL     1     -33.661   5.225   2.377  1.00 20.00     0.024 C 
HETATM    6  C8  UNL     1     -33.749   6.303   3.460  1.00 20.00     0.105 C 
HETATM    7 CL10 UNL     1     -35.455   6.506   3.955  1.00 20.00    -0.121 Cl
ENDROOT
BRANCH   2   8
HETATM    8  C9  UNL     1     -31.869   9.115   1.526  1.00 20.00     0.060 C 
BRANCH   8   9
HETATM    9  C4  UNL     1     -32.277   9.483   0.135  1.00 20.00    -0.033 C 
HETATM   10  C3  UNL     1     -32.890  10.629  -0.185  1.00 20.00     0.007 C 
ENDBRANCH   8   9
ENDBRANCH   2   8
TORSDOF 2
ENDMDL
MODEL 3
REMARK VINA RESULT:      -1.2      2.285      4.614
REMARK  2 active torsions:
REMARK  status: ('A' for Active; 'I' for Inactive)
REMARK    1  A    between atoms: C2_2  and  C9_9 
REMARK    2  A    between atoms: C4_4  and  C9_9 
ROOT
HETATM    1  C1  UNL     1     -33.551   7.112   3.669  1.00 20.00    -0.004 C 
HETATM    2  C2  UNL     1     -33.728   5.828   3.300  1.00 20.00    -0.079 C 
HETATM    3  C5  UNL     1     -33.163   5.307   1.995  1.00 20.00     0.034 C 
HETATM    4  C6  UNL     1     -32.722   6.409   1.028  1.00 20.00     0.006 C 
HETATM    5  C7  UNL     1     -31.923   7.482   1.761  1.00 20.00     0.024 C 
HETATM    6  C8  UNL     1     -32.770   8.114   2.868  1.00 20.00     0.105 C 
HETATM    7 CL10 UNL     1     -31.714   9.064   3.953  1.00 20.00    -0.121 Cl
ENDROOT
BRANCH   2   8
HETATM    8  C9  UNL     1     -34.502   4.848   4.101  1.00 20.00     0.060 C 
BRANCH   8   9
HETATM    9  C4  UNL     1     -33.850   3.502   4.118  1.00 20.00    -0.033 C 
HETATM   10  C3  UNL     1     -33.037   3.079   5.092  1.00 20.00     0.007 C 
ENDBRANCH   8   9
ENDBRANCH   2   8
TORSDOF 2
ENDMDL
MODEL 4
REMARK VINA RESULT:      -1.1      1.644      2.331
REMARK  2 active torsions:
REMARK  status: ('A' for Active; 'I' for Inactive)
REMARK    1  A    between atoms: C2_2  and  C9_9 
REMARK    2  A    between atoms: C4_4  and  C9_9 
ROOT
HETATM    1  C1  UNL     1     -32.426   6.923   1.308  1.00 20.00    -0.004 C 
HETATM    2  C2  UNL     1     -32.655   7.950   2.150  1.00 20.00    -0.079 C 
HETATM    3  C5  UNL     1     -33.444   7.750   3.427  1.00 20.00     0.034 C 
HETATM    4  C6  UNL     1     -34.221   6.432   3.474  1.00 20.00     0.006 C 
HETATM    5  C7  UNL     1     -33.350   5.275   2.997  1.00 20.00     0.024 C 
HETATM    6  C8  UNL     1     -32.883   5.515   1.560  1.00 20.00     0.105 C 
HETATM    7 CL10 UNL     1     -31.566   4.373   1.166  1.00 20.00    -0.121 Cl
ENDROOT
BRANCH   2   8
HETATM    8  C9  UNL     1     -32.198   9.337   1.888  1.00 20.00     0.060 C 
BRANCH   8   9
HETATM    9  C4  UNL     1     -32.055   9.610   0.425  1.00 20.00    -0.033 C 
HETATM   10  C3  UNL     1     -32.868  10.417  -0.268  1.00 20.00     0.007 C 
ENDBRANCH   8   9
ENDBRANCH   2   8
TORSDOF 2
ENDMDL
MODEL 5
REMARK VINA RESULT:      -1.1      2.462      4.392
REMARK  2 active torsions:
REMARK  status: ('A' for Active; 'I' for Inactive)
REMARK    1  A    between atoms: C2_2  and  C9_9 
REMARK    2  A    between atoms: C4_4  and  C9_9 
ROOT
HETATM    1  C1  UNL     1     -32.567   6.422   2.235  1.00 20.00    -0.004 C 
HETATM    2  C2  UNL     1     -33.541   5.826   2.951  1.00 20.00    -0.079 C 
HETATM    3  C5  UNL     1     -34.425   6.628   3.882  1.00 20.00     0.034 C 
HETATM    4  C6  UNL     1     -33.891   8.030   4.188  1.00 20.00     0.006 C 
HETATM    5  C7  UNL     1     -33.410   8.714   2.913  1.00 20.00     0.024 C 
HETATM    6  C8  UNL     1     -32.293   7.898   2.258  1.00 20.00     0.105 C 
HETATM    7 CL10 UNL     1     -32.024   8.490   0.593  1.00 20.00    -0.121 Cl
ENDROOT
BRANCH   2   8
HETATM    8  C9  UNL     1     -33.800   4.366   2.918  1.00 20.00     0.060 C 
BRANCH   8   9
HETATM    9  C4  UNL     1     -33.902   3.787   4.293  1.00 20.00    -0.033 C 
HETATM   10  C3  UNL     1     -33.100   2.822   4.759  1.00 20.00     0.007 C 
ENDBRANCH   8   9
ENDBRANCH   2   8
TORSDOF 2
ENDMDL
MODEL 6
REMARK VINA RESULT:      -0.9      2.466      4.437
REMARK  2 active torsions:
REMARK  status: ('A' for Active; 'I' for Inactive)
REMARK    1  A    between atoms: C2_2  and  C9_9 
REMARK    2  A    between atoms: C4_4  and  C9_9 
ROOT
HETATM    1  C1  UNL     1     -33.331   6.882   2.500  1.00 20.00    -0.004 C 
HETATM    2  C2  UNL     1     -34.136   6.917   3.580  1.00 20.00    -0.079 C 
HETATM    3  C5  UNL     1     -33.849   7.852   4.736  1.00 20.00     0.034 C 
HETATM    4  C6  UNL     1     -32.437   8.444   4.717  1.00 20.00     0.006 C 
HETATM    5  C7  UNL     1     -32.073   8.926   3.316  1.00 20.00     0.024 C 
HETATM    6  C8  UNL     1     -32.128   7.764   2.322  1.00 20.00     0.105 C 
HETATM    7 CL10 UNL     1     -32.093   8.409   0.655  1.00 20.00    -0.121 Cl
ENDROOT
BRANCH   2   8
HETATM    8  C9  UNL     1     -35.321   6.039   3.743  1.00 20.00     0.060 C 
BRANCH   8   9
HETATM    9  C4  UNL     1     -34.997   4.805   4.522  1.00 20.00    -0.033 C 
HETATM   10  C3  UNL     1     -33.986   3.979   4.227  1.00 20.00     0.007 C 
ENDBRANCH   8   9
ENDBRANCH   2   8
TORSDOF 2
ENDMDL
MODEL 7
REMARK VINA RESULT:      -0.5      1.797      4.081
REMARK  2 active torsions:
REMARK  status: ('A' for Active; 'I' for Inactive)
REMARK    1  A    between atoms: C2_2  and  C9_9 
REMARK    2  A    between atoms: C4_4  and  C9_9 
ROOT
HETATM    1  C1  UNL     1     -33.140   5.943   2.541  1.00 20.00    -0.004 C 
HETATM    2  C2  UNL     1     -33.467   7.131   3.087  1.00 20.00    -0.079 C 
HETATM    3  C5  UNL     1     -32.782   8.407   2.644  1.00 20.00     0.034 C 
HETATM    4  C6  UNL     1     -31.504   8.174   1.834  1.00 20.00     0.006 C 
HETATM    5  C7  UNL     1     -31.722   7.092   0.782  1.00 20.00     0.024 C 
HETATM    6  C8  UNL     1     -32.124   5.774   1.448  1.00 20.00     0.105 C 
HETATM    7 CL10 UNL     1     -32.752   4.651   0.208  1.00 20.00    -0.121 Cl
ENDROOT
BRANCH   2   8
HETATM    8  C9  UNL     1     -34.472   7.283   4.167  1.00 20.00     0.060 C 
BRANCH   8   9
HETATM    9  C4  UNL     1     -35.506   6.204   4.123  1.00 20.00    -0.033 C 
HETATM   10  C3  UNL     1     -35.334   4.983   4.645  1.00 20.00     0.007 C 
ENDBRANCH   8   9
ENDBRANCH   2   8
TORSDOF 2
ENDMDL
MODEL 8
REMARK VINA RESULT:      -0.3      1.930      2.454
REMARK  2 active torsions:
REMARK  status: ('A' for Active; 'I' for Inactive)
REMARK    1  A    between atoms: C2_2  and  C9_9 
REMARK    2  A    between atoms: C4_4  and  C9_9 
ROOT
HETATM    1  C1  UNL     1     -33.845   7.234   2.571  1.00 20.00    -0.004 C 
HETATM    2  C2  UNL     1     -32.598   7.705   2.375  1.00 20.00    -0.079 C 
HETATM    3  C5  UNL     1     -31.821   8.346   3.506  1.00 20.00     0.034 C 
HETATM    4  C6  UNL     1     -32.682   8.716   4.717  1.00 20.00     0.006 C 
HETATM    5  C7  UNL     1     -33.629   7.575   5.074  1.00 20.00     0.024 C 
HETATM    6  C8  UNL     1     -34.554   7.261   3.895  1.00 20.00     0.105 C 
HETATM    7 CL10 UNL     1     -35.365   5.694   4.179  1.00 20.00    -0.121 Cl
ENDROOT
BRANCH   2   8
HETATM    8  C9  UNL     1     -31.911   7.673   1.061  1.00 20.00     0.060 C 
BRANCH   8   9
HETATM    9  C4  UNL     1     -31.662   9.047   0.528  1.00 20.00    -0.033 C 
HETATM   10  C3  UNL     1     -32.628   9.945   0.296  1.00 20.00     0.007 C 
ENDBRANCH   8   9
ENDBRANCH   2   8
TORSDOF 2
ENDMDL
