MODEL 1
REMARK VINA RESULT:       0.1      0.000      0.000
REMARK  1 active torsions:
REMARK  status: ('A' for Active; 'I' for Inactive)
REMARK    1  A    between atoms: C2_2  and  C10_10 
ROOT
HETATM    1  C1  UNL     1     -32.899   7.887   2.707  1.00 20.00    -0.003 C 
HETATM    2  C2  UNL     1     -33.546   6.715   2.834  1.00 20.00    -0.075 C 
HETATM    3  C3  UNL     1     -33.220   5.521   1.971  1.00 20.00     0.034 C 
HETATM    4  C4  UNL     1     -32.338   5.849   0.764  1.00 20.00     0.006 C 
HETATM    5  C5  UNL     1     -31.222   6.819   1.142  1.00 20.00     0.024 C 
HETATM    6  C6  UNL     1     -31.776   8.118   1.737  1.00 20.00     0.105 C 
HETATM    7 CL11 UNL     1     -32.371   9.198   0.439  1.00 20.00    -0.121 Cl
ENDROOT
BRANCH   2   8
HETATM    8  C10 UNL     1     -34.635   6.519   3.847  1.00 20.00    -0.028 C 
HETATM    9  C7  UNL     1     -34.399   7.466   5.033  1.00 20.00     0.019 C 
HETATM   10  C8  UNL     1     -34.626   5.064   4.344  1.00 20.00     0.019 C 
HETATM   11  C9  UNL     1     -35.999   6.826   3.210  1.00 20.00     0.019 C 
ENDBRANCH   2   8
TORSDOF 1
ENDMDL
MODEL 2
REMARK VINA RESULT:       1.3      1.494      2.124
REMARK  1 active torsions:
REMARK  status: ('A' for Active; 'I' for Inactive)
REMARK    1  A    between atoms: C2_2  and  C10_10 
ROOT
HETATM    1  C1  UNL     1     -33.386   5.637   1.893  1.00 20.00    -0.003 C 
HETATM    2  C2  UNL     1     -33.604   6.617   2.788  1.00 20.00    -0.075 C 
HETATM    3  C3  UNL     1     -32.805   7.897   2.786  1.00 20.00     0.034 C 
HETATM    4  C4  UNL     1     -31.552   7.846   1.908  1.00 20.00     0.006 C 
HETATM    5  C5  UNL     1     -31.834   7.145   0.582  1.00 20.00     0.024 C 
HETATM    6  C6  UNL     1     -32.368   5.724   0.793  1.00 20.00     0.105 C 
HETATM    7 CL11 UNL     1     -31.027   4.602   1.182  1.00 20.00    -0.121 Cl
ENDROOT
BRANCH   2   8
HETATM    8  C10 UNL     1     -34.663   6.502   3.845  1.00 20.00    -0.028 C 
HETATM    9  C7  UNL     1     -34.357   7.495   4.977  1.00 20.00     0.019 C 
HETATM   10  C8  UNL     1     -34.680   5.072   4.409  1.00 20.00     0.019 C 
HETATM   11  C9  UNL     1     -36.038   6.822   3.240  1.00 20.00     0.019 C 
ENDBRANCH   2   8
TORSDOF 1
ENDMDL
MODEL 3
REMARK VINA RESULT:       1.3      1.868      4.041
REMARK  1 active torsions:
REMARK  status: ('A' for Active; 'I' for Inactive)
REMARK    1  A    between atoms: C2_2  and  C10_10 
ROOT
HETATM    1  C1  UNL     1     -33.725   7.158   2.900  1.00 20.00    -0.003 C 
HETATM    2  C2  UNL     1     -33.360   5.939   2.464  1.00 20.00    -0.075 C 
HETATM    3  C3  UNL     1     -33.849   4.672   3.120  1.00 20.00     0.034 C 
HETATM    4  C4  UNL     1     -34.516   4.895   4.480  1.00 20.00     0.006 C 
HETATM    5  C5  UNL     1     -35.430   6.117   4.454  1.00 20.00     0.024 C 
HETATM    6  C6  UNL     1     -34.670   7.384   4.045  1.00 20.00     0.105 C 
HETATM    7 CL11 UNL     1     -33.731   8.027   5.428  1.00 20.00    -0.121 Cl
ENDROOT
BRANCH   2   8
HETATM    8  C10 UNL     1     -32.444   5.762   1.288  1.00 20.00    -0.028 C 
HETATM    9  C7  UNL     1     -31.784   7.108   0.954  1.00 20.00     0.019 C 
HETATM   10  C8  UNL     1     -33.248   5.270   0.074  1.00 20.00     0.019 C 
HETATM   11  C9  UNL     1     -31.359   4.729   1.627  1.00 20.00     0.019 C 
ENDBRANCH   2   8
TORSDOF 1
ENDMDL
MODEL 4
REMARK VINA RESULT:       2.5      2.168      4.180
REMARK  1 active torsions:
REMARK  status: ('A' for Active; 'I' for Inactive)
REMARK    1  A    between atoms: C2_2  and  C10_10 
ROOT
HETATM    1  C1  UNL     1     -33.473   8.578   2.749  1.00 20.00    -0.003 C 
HETATM    2  C2  UNL     1     -32.804   8.129   1.671  1.00 20.00    -0.075 C 
HETATM    3  C3  UNL     1     -32.585   6.658   1.419  1.00 20.00     0.034 C 
HETATM    4  C4  UNL     1     -32.901   5.767   2.623  1.00 20.00     0.006 C 
HETATM    5  C5  UNL     1     -34.180   6.217   3.324  1.00 20.00     0.024 C 
HETATM    6  C6  UNL     1     -34.094   7.678   3.778  1.00 20.00     0.105 C 
HETATM    7 CL11 UNL     1     -33.137   7.810   5.287  1.00 20.00    -0.121 Cl
ENDROOT
BRANCH   2   8
HETATM    8  C10 UNL     1     -32.236   9.066   0.646  1.00 20.00    -0.028 C 
HETATM    9  C7  UNL     1     -30.708   8.916   0.615  1.00 20.00     0.019 C 
HETATM   10  C8  UNL     1     -32.601  10.514   1.009  1.00 20.00     0.019 C 
HETATM   11  C9  UNL     1     -32.812   8.732  -0.739  1.00 20.00     0.019 C 
ENDBRANCH   2   8
TORSDOF 1
ENDMDL
