MODEL 1
REMARK VINA RESULT:      -2.6      0.000      0.000
REMARK  3 active torsions:
REMARK  status: ('A' for Active; 'I' for Inactive)
REMARK    1  A    between atoms: C4_4  and  C10_10 
REMARK    2  A    between atoms: C8_8  and  O11_11 
REMARK    3  A    between atoms: C9_9  and  C10_10 
ROOT
HETATM    1  C1  UNL     1     -32.731  10.053  -0.429  1.00 20.00     0.012 C 
HETATM    2  C2  UNL     1     -32.257   9.394   0.456  1.00 20.00    -0.117 C 
HETATM    3  C9  UNL     1     -31.676   8.590   1.542  1.00 20.00     0.097 C 
ENDROOT
BRANCH   3   4
HETATM    4  C10 UNL     1     -32.002   7.111   1.393  1.00 20.00     0.046 C 
BRANCH   4   5
HETATM    5  C4  UNL     1     -33.028   6.689   2.403  1.00 20.00    -0.080 C 
HETATM    6  C3  UNL     1     -33.464   5.419   2.485  1.00 20.00     0.007 C 
HETATM    7  C8  UNL     1     -34.520   4.963   3.448  1.00 20.00     0.141 C 
HETATM    8  C7  UNL     1     -35.272   6.117   4.118  1.00 20.00     0.036 C 
HETATM    9  C6  UNL     1     -34.313   7.233   4.529  1.00 20.00     0.007 C 
HETATM   10  C5  UNL     1     -33.540   7.770   3.322  1.00 20.00     0.034 C 
BRANCH   7  11
HETATM   11  O11 UNL     1     -33.883   4.159   4.437  1.00 20.00    -0.392 OA
HETATM   12  H25 UNL     1     -33.232   3.611   3.972  1.00 20.00     0.210 HD
ENDBRANCH   7  11
ENDBRANCH   4   5
ENDBRANCH   3   4
TORSDOF 3
ENDMDL
MODEL 2
REMARK VINA RESULT:      -1.9      1.173      1.936
REMARK  3 active torsions:
REMARK  status: ('A' for Active; 'I' for Inactive)
REMARK    1  A    between atoms: C4_4  and  C10_10 
REMARK    2  A    between atoms: C8_8  and  O11_11 
REMARK    3  A    between atoms: C9_9  and  C10_10 
ROOT
HETATM    1  C1  UNL     1     -32.752  10.470  -0.432  1.00 20.00     0.012 C 
HETATM    2  C2  UNL     1     -32.298   9.582   0.236  1.00 20.00    -0.117 C 
HETATM    3  C9  UNL     1     -31.739   8.493   1.051  1.00 20.00     0.097 C 
ENDROOT
BRANCH   3   4
HETATM    4  C10 UNL     1     -32.223   8.553   2.493  1.00 20.00     0.046 C 
BRANCH   4   5
HETATM    5  C4  UNL     1     -33.011   7.325   2.841  1.00 20.00    -0.080 C 
HETATM    6  C3  UNL     1     -33.982   7.344   3.771  1.00 20.00     0.007 C 
HETATM    7  C8  UNL     1     -34.765   6.132   4.181  1.00 20.00     0.141 C 
HETATM    8  C7  UNL     1     -34.161   4.819   3.674  1.00 20.00     0.036 C 
HETATM    9  C6  UNL     1     -33.690   4.953   2.227  1.00 20.00     0.007 C 
HETATM   10  C5  UNL     1     -32.652   6.070   2.085  1.00 20.00     0.034 C 
BRANCH   7  11
HETATM   11  O11 UNL     1     -36.090   6.284   3.680  1.00 20.00    -0.392 OA
HETATM   12  H25 UNL     1     -36.617   6.661   4.401  1.00 20.00     0.210 HD
ENDBRANCH   7  11
ENDBRANCH   4   5
ENDBRANCH   3   4
TORSDOF 3
ENDMDL
MODEL 3
REMARK VINA RESULT:      -1.5      2.112      5.050
REMARK  3 active torsions:
REMARK  status: ('A' for Active; 'I' for Inactive)
REMARK    1  A    between atoms: C4_4  and  C10_10 
REMARK    2  A    between atoms: C8_8  and  O11_11 
REMARK    3  A    between atoms: C9_9  and  C10_10 
ROOT
HETATM    1  C1  UNL     1     -32.747   2.946   5.244  1.00 20.00     0.012 C 
HETATM    2  C2  UNL     1     -33.568   3.509   4.574  1.00 20.00    -0.117 C 
HETATM    3  C9  UNL     1     -34.577   4.195   3.752  1.00 20.00     0.097 C 
ENDROOT
BRANCH   3   4
HETATM    4  C10 UNL     1     -34.707   5.666   4.119  1.00 20.00     0.046 C 
BRANCH   4   5
HETATM    5  C4  UNL     1     -33.745   6.499   3.325  1.00 20.00    -0.080 C 
HETATM    6  C3  UNL     1     -33.391   7.738   3.711  1.00 20.00     0.007 C 
HETATM    7  C8  UNL     1     -32.467   8.622   2.927  1.00 20.00     0.141 C 
HETATM    8  C7  UNL     1     -32.202   8.115   1.506  1.00 20.00     0.036 C 
HETATM    9  C6  UNL     1     -31.983   6.603   1.494  1.00 20.00     0.007 C 
HETATM   10  C5  UNL     1     -33.194   5.866   2.072  1.00 20.00     0.034 C 
BRANCH   7  11
HETATM   11  O11 UNL     1     -31.241   8.712   3.648  1.00 20.00    -0.392 OA
HETATM   12  H25 UNL     1     -31.125   7.864   4.103  1.00 20.00     0.210 HD
ENDBRANCH   7  11
ENDBRANCH   4   5
ENDBRANCH   3   4
TORSDOF 3
ENDMDL
MODEL 4
REMARK VINA RESULT:      -0.8      2.337      4.739
REMARK  3 active torsions:
REMARK  status: ('A' for Active; 'I' for Inactive)
REMARK    1  A    between atoms: C4_4  and  C10_10 
REMARK    2  A    between atoms: C8_8  and  O11_11 
REMARK    3  A    between atoms: C9_9  and  C10_10 
ROOT
HETATM    1  C1  UNL     1     -33.476   3.293   4.216  1.00 20.00     0.012 C 
HETATM    2  C2  UNL     1     -34.247   4.188   4.426  1.00 20.00    -0.117 C 
HETATM    3  C9  UNL     1     -35.193   5.283   4.689  1.00 20.00     0.097 C 
ENDROOT
BRANCH   3   4
HETATM    4  C10 UNL     1     -35.315   6.228   3.502  1.00 20.00     0.046 C 
BRANCH   4   5
HETATM    5  C4  UNL     1     -34.034   6.976   3.284  1.00 20.00    -0.080 C 
HETATM    6  C3  UNL     1     -33.391   6.955   2.102  1.00 20.00     0.007 C 
HETATM    7  C8  UNL     1     -32.086   7.651   1.852  1.00 20.00     0.141 C 
HETATM    8  C7  UNL     1     -31.399   8.133   3.135  1.00 20.00     0.036 C 
HETATM    9  C6  UNL     1     -32.408   8.753   4.099  1.00 20.00     0.007 C 
HETATM   10  C5  UNL     1     -33.509   7.754   4.464  1.00 20.00     0.034 C 
BRANCH   7  11
HETATM   11  O11 UNL     1     -32.346   8.759   0.995  1.00 20.00    -0.392 OA
HETATM   12  H25 UNL     1     -33.286   8.975   1.098  1.00 20.00     0.210 HD
ENDBRANCH   7  11
ENDBRANCH   4   5
ENDBRANCH   3   4
TORSDOF 3
ENDMDL
MODEL 5
REMARK VINA RESULT:      -0.7      1.932      4.696
REMARK  3 active torsions:
REMARK  status: ('A' for Active; 'I' for Inactive)
REMARK    1  A    between atoms: C4_4  and  C10_10 
REMARK    2  A    between atoms: C8_8  and  O11_11 
REMARK    3  A    between atoms: C9_9  and  C10_10 
ROOT
HETATM    1  C1  UNL     1     -33.294   3.230   4.799  1.00 20.00     0.012 C 
HETATM    2  C2  UNL     1     -34.190   4.013   4.645  1.00 20.00    -0.117 C 
HETATM    3  C9  UNL     1     -35.291   4.970   4.457  1.00 20.00     0.097 C 
ENDROOT
BRANCH   3   4
HETATM    4  C10 UNL     1     -34.796   6.408   4.415  1.00 20.00     0.046 C 
BRANCH   4   5
HETATM    5  C4  UNL     1     -33.820   6.602   3.293  1.00 20.00    -0.080 C 
HETATM    6  C3  UNL     1     -33.599   5.648   2.371  1.00 20.00     0.007 C 
HETATM    7  C8  UNL     1     -32.602   5.781   1.258  1.00 20.00     0.141 C 
HETATM    8  C7  UNL     1     -31.646   6.965   1.438  1.00 20.00     0.036 C 
HETATM    9  C6  UNL     1     -32.391   8.204   1.929  1.00 20.00     0.007 C 
HETATM   10  C5  UNL     1     -33.104   7.929   3.256  1.00 20.00     0.034 C 
BRANCH   7  11
HETATM   11  O11 UNL     1     -33.330   5.925   0.042  1.00 20.00    -0.392 OA
HETATM   12  H25 UNL     1     -32.679   5.885  -0.677  1.00 20.00     0.210 HD
ENDBRANCH   7  11
ENDBRANCH   4   5
ENDBRANCH   3   4
TORSDOF 3
ENDMDL
MODEL 6
REMARK VINA RESULT:      -0.6      2.333      4.896
REMARK  3 active torsions:
REMARK  status: ('A' for Active; 'I' for Inactive)
REMARK    1  A    between atoms: C4_4  and  C10_10 
REMARK    2  A    between atoms: C8_8  and  O11_11 
REMARK    3  A    between atoms: C9_9  and  C10_10 
ROOT
HETATM    1  C1  UNL     1     -32.771   2.689   5.157  1.00 20.00     0.012 C 
HETATM    2  C2  UNL     1     -33.533   3.463   4.647  1.00 20.00    -0.117 C 
HETATM    3  C9  UNL     1     -34.470   4.412   4.026  1.00 20.00     0.097 C 
ENDROOT
BRANCH   3   4
HETATM    4  C10 UNL     1     -33.999   4.861   2.650  1.00 20.00     0.046 C 
BRANCH   4   5
HETATM    5  C4  UNL     1     -33.365   6.219   2.723  1.00 20.00    -0.080 C 
HETATM    6  C3  UNL     1     -32.463   6.631   1.814  1.00 20.00     0.007 C 
HETATM    7  C8  UNL     1     -31.772   7.961   1.872  1.00 20.00     0.141 C 
HETATM    8  C7  UNL     1     -31.952   8.681   3.213  1.00 20.00     0.036 C 
HETATM    9  C6  UNL     1     -33.390   8.561   3.713  1.00 20.00     0.007 C 
HETATM   10  C5  UNL     1     -33.798   7.094   3.873  1.00 20.00     0.034 C 
BRANCH   7  11
HETATM   11  O11 UNL     1     -32.291   8.764   0.816  1.00 20.00    -0.392 OA
HETATM   12  H25 UNL     1     -31.883   9.639   0.907  1.00 20.00     0.210 HD
ENDBRANCH   7  11
ENDBRANCH   4   5
ENDBRANCH   3   4
TORSDOF 3
ENDMDL
MODEL 7
REMARK VINA RESULT:       0.2      2.744      5.280
REMARK  3 active torsions:
REMARK  status: ('A' for Active; 'I' for Inactive)
REMARK    1  A    between atoms: C4_4  and  C10_10 
REMARK    2  A    between atoms: C8_8  and  O11_11 
REMARK    3  A    between atoms: C9_9  and  C10_10 
ROOT
HETATM    1  C1  UNL     1     -35.349   5.387   4.285  1.00 20.00     0.012 C 
HETATM    2  C2  UNL     1     -34.838   6.455   4.090  1.00 20.00    -0.117 C 
HETATM    3  C9  UNL     1     -34.216   7.766   3.853  1.00 20.00     0.097 C 
ENDROOT
BRANCH   3   4
HETATM    4  C10 UNL     1     -32.758   7.639   3.433  1.00 20.00     0.046 C 
BRANCH   4   5
HETATM    5  C4  UNL     1     -32.520   8.334   2.125  1.00 20.00    -0.080 C 
HETATM    6  C3  UNL     1     -33.103   9.509   1.829  1.00 20.00     0.007 C 
HETATM    7  C8  UNL     1     -32.928  10.218   0.518  1.00 20.00     0.141 C 
HETATM    8  C7  UNL     1     -32.276   9.347  -0.561  1.00 20.00     0.036 C 
HETATM    9  C6  UNL     1     -31.117   8.535   0.014  1.00 20.00     0.007 C 
HETATM   10  C5  UNL     1     -31.586   7.641   1.165  1.00 20.00     0.034 C 
BRANCH   7  11
HETATM   11  O11 UNL     1     -32.131  11.374   0.756  1.00 20.00    -0.392 OA
HETATM   12  H25 UNL     1     -31.787  11.293   1.660  1.00 20.00     0.210 HD
ENDBRANCH   7  11
ENDBRANCH   4   5
ENDBRANCH   3   4
TORSDOF 3
ENDMDL
MODEL 8
REMARK VINA RESULT:       0.3      0.888      1.393
REMARK  3 active torsions:
REMARK  status: ('A' for Active; 'I' for Inactive)
REMARK    1  A    between atoms: C4_4  and  C10_10 
REMARK    2  A    between atoms: C8_8  and  O11_11 
REMARK    3  A    between atoms: C9_9  and  C10_10 
ROOT
HETATM    1  C1  UNL     1     -32.210   9.783  -0.047  1.00 20.00     0.012 C 
HETATM    2  C2  UNL     1     -32.184   8.890   0.755  1.00 20.00    -0.117 C 
HETATM    3  C9  UNL     1     -32.148   7.794   1.734  1.00 20.00     0.097 C 
ENDROOT
BRANCH   3   4
HETATM    4  C10 UNL     1     -33.110   8.030   2.890  1.00 20.00     0.046 C 
BRANCH   4   5
HETATM    5  C4  UNL     1     -33.691   6.733   3.370  1.00 20.00    -0.080 C 
HETATM    6  C3  UNL     1     -33.119   5.549   3.085  1.00 20.00     0.007 C 
HETATM    7  C8  UNL     1     -33.689   4.227   3.507  1.00 20.00     0.141 C 
HETATM    8  C7  UNL     1     -35.128   4.322   4.024  1.00 20.00     0.036 C 
HETATM    9  C6  UNL     1     -35.307   5.539   4.930  1.00 20.00     0.007 C 
HETATM   10  C5  UNL     1     -34.952   6.833   4.193  1.00 20.00     0.034 C 
BRANCH   7  11
HETATM   11  O11 UNL     1     -32.841   3.696   4.522  1.00 20.00    -0.392 OA
HETATM   12  H25 UNL     1     -31.935   3.745   4.180  1.00 20.00     0.210 HD
ENDBRANCH   7  11
ENDBRANCH   4   5
ENDBRANCH   3   4
TORSDOF 3
ENDMDL
