MODEL 1
REMARK VINA RESULT:      -2.1      0.000      0.000
REMARK  2 active torsions:
REMARK  status: ('A' for Active; 'I' for Inactive)
REMARK    1  A    between atoms: C4_4  and  C5_5 
REMARK    2  A    between atoms: C4_4  and  C6_6 
ROOT
HETATM    1  C1  UNL     1     -33.994   4.206   4.071  1.00 20.00     0.063 C 
HETATM    2  C2  UNL     1     -35.521   6.115   4.282  1.00 20.00     0.025 C 
HETATM    3  C5  UNL     1     -34.448   5.449   3.419  1.00 20.00     0.090 C 
HETATM    4  N7  UNL     1     -33.637   3.226   4.581  1.00 20.00    -0.197 NA
ENDROOT
BRANCH   3   5
HETATM    5  C4  UNL     1     -33.273   6.424   3.194  1.00 20.00     0.038 C 
BRANCH   5   6
HETATM    6  C6  UNL     1     -32.880   6.643   1.723  1.00 20.00     0.079 C 
HETATM    7  C3  UNL     1     -32.152   5.425   1.164  1.00 20.00     0.026 C 
HETATM    8 CL8  UNL     1     -31.821   8.075   1.549  1.00 20.00    -0.125 Cl
ENDBRANCH   5   6
ENDBRANCH   3   5
TORSDOF 2
ENDMDL
MODEL 2
REMARK VINA RESULT:      -1.9      3.138      4.303
REMARK  2 active torsions:
REMARK  status: ('A' for Active; 'I' for Inactive)
REMARK    1  A    between atoms: C4_4  and  C5_5 
REMARK    2  A    between atoms: C4_4  and  C6_6 
ROOT
HETATM    1  C1  UNL     1     -32.270   7.456   1.494  1.00 20.00     0.063 C 
HETATM    2  C2  UNL     1     -31.905   5.081   0.993  1.00 20.00     0.025 C 
HETATM    3  C5  UNL     1     -32.888   6.117   1.543  1.00 20.00     0.090 C 
HETATM    4  N7  UNL     1     -31.787   8.510   1.455  1.00 20.00    -0.197 NA
ENDROOT
BRANCH   3   5
HETATM    5  C4  UNL     1     -33.296   5.741   2.983  1.00 20.00     0.038 C 
BRANCH   5   6
HETATM    6  C6  UNL     1     -34.511   6.505   3.536  1.00 20.00     0.079 C 
HETATM    7  C3  UNL     1     -34.069   7.675   4.409  1.00 20.00     0.026 C 
HETATM    8 CL8  UNL     1     -35.558   5.426   4.508  1.00 20.00    -0.125 Cl
ENDBRANCH   5   6
ENDBRANCH   3   5
TORSDOF 2
ENDMDL
MODEL 3
REMARK VINA RESULT:      -1.8      1.579      1.794
REMARK  2 active torsions:
REMARK  status: ('A' for Active; 'I' for Inactive)
REMARK    1  A    between atoms: C4_4  and  C5_5 
REMARK    2  A    between atoms: C4_4  and  C6_6 
ROOT
HETATM    1  C1  UNL     1     -34.524   5.259   4.082  1.00 20.00     0.063 C 
HETATM    2  C2  UNL     1     -33.977   7.585   4.645  1.00 20.00     0.025 C 
HETATM    3  C5  UNL     1     -34.658   6.659   3.635  1.00 20.00     0.090 C 
HETATM    4  N7  UNL     1     -34.421   4.158   4.433  1.00 20.00    -0.197 NA
ENDROOT
BRANCH   3   5
HETATM    5  C4  UNL     1     -34.040   6.861   2.236  1.00 20.00     0.038 C 
BRANCH   5   6
HETATM    6  C6  UNL     1     -32.509   6.729   2.174  1.00 20.00     0.079 C 
HETATM    7  C3  UNL     1     -31.874   7.995   1.606  1.00 20.00     0.026 C 
HETATM    8 CL8  UNL     1     -32.025   5.338   1.158  1.00 20.00    -0.125 Cl
ENDBRANCH   5   6
ENDBRANCH   3   5
TORSDOF 2
ENDMDL
MODEL 4
REMARK VINA RESULT:      -1.5      1.305      1.500
REMARK  2 active torsions:
REMARK  status: ('A' for Active; 'I' for Inactive)
REMARK    1  A    between atoms: C4_4  and  C5_5 
REMARK    2  A    between atoms: C4_4  and  C6_6 
ROOT
HETATM    1  C1  UNL     1     -35.162   5.639   4.239  1.00 20.00     0.063 C 
HETATM    2  C2  UNL     1     -34.039   7.818   4.347  1.00 20.00     0.025 C 
HETATM    3  C5  UNL     1     -34.376   6.616   3.462  1.00 20.00     0.090 C 
HETATM    4  N7  UNL     1     -35.782   4.869   4.848  1.00 20.00    -0.197 NA
ENDROOT
BRANCH   3   5
HETATM    5  C4  UNL     1     -33.079   5.984   2.917  1.00 20.00     0.038 C 
BRANCH   5   6
HETATM    6  C6  UNL     1     -32.709   6.391   1.480  1.00 20.00     0.079 C 
HETATM    7  C3  UNL     1     -31.869   5.311   0.806  1.00 20.00     0.026 C 
HETATM    8 CL8  UNL     1     -31.790   7.927   1.465  1.00 20.00    -0.125 Cl
ENDBRANCH   5   6
ENDBRANCH   3   5
TORSDOF 2
ENDMDL
MODEL 5
REMARK VINA RESULT:      -1.4      3.456      4.471
REMARK  2 active torsions:
REMARK  status: ('A' for Active; 'I' for Inactive)
REMARK    1  A    between atoms: C4_4  and  C5_5 
REMARK    2  A    between atoms: C4_4  and  C6_6 
ROOT
HETATM    1  C1  UNL     1     -32.271   8.842   0.923  1.00 20.00     0.063 C 
HETATM    2  C2  UNL     1     -31.954   8.437   3.323  1.00 20.00     0.025 C 
HETATM    3  C5  UNL     1     -32.038   7.795   1.936  1.00 20.00     0.090 C 
HETATM    4  N7  UNL     1     -32.452   9.664   0.124  1.00 20.00    -0.197 NA
ENDROOT
BRANCH   3   5
HETATM    5  C4  UNL     1     -33.158   6.735   1.914  1.00 20.00     0.038 C 
BRANCH   5   6
HETATM    6  C6  UNL     1     -33.614   6.238   3.296  1.00 20.00     0.079 C 
HETATM    7  C3  UNL     1     -33.625   4.714   3.352  1.00 20.00     0.026 C 
HETATM    8 CL8  UNL     1     -35.253   6.839   3.687  1.00 20.00    -0.125 Cl
ENDBRANCH   5   6
ENDBRANCH   3   5
TORSDOF 2
ENDMDL
MODEL 6
REMARK VINA RESULT:      -1.4      1.348      1.555
REMARK  2 active torsions:
REMARK  status: ('A' for Active; 'I' for Inactive)
REMARK    1  A    between atoms: C4_4  and  C5_5 
REMARK    2  A    between atoms: C4_4  and  C6_6 
ROOT
HETATM    1  C1  UNL     1     -33.964   4.117   4.052  1.00 20.00     0.063 C 
HETATM    2  C2  UNL     1     -35.151   6.265   4.068  1.00 20.00     0.025 C 
HETATM    3  C5  UNL     1     -34.333   5.282   3.227  1.00 20.00     0.090 C 
HETATM    4  N7  UNL     1     -33.674   3.197   4.699  1.00 20.00    -0.197 NA
ENDROOT
BRANCH   3   5
HETATM    5  C4  UNL     1     -33.082   5.988   2.663  1.00 20.00     0.038 C 
BRANCH   5   6
HETATM    6  C6  UNL     1     -33.111   7.524   2.736  1.00 20.00     0.079 C 
HETATM    7  C3  UNL     1     -32.100   8.136   1.772  1.00 20.00     0.026 C 
HETATM    8 CL8  UNL     1     -32.746   8.095   4.392  1.00 20.00    -0.125 Cl
ENDBRANCH   5   6
ENDBRANCH   3   5
TORSDOF 2
ENDMDL
MODEL 7
REMARK VINA RESULT:      -1.3      2.526      3.935
REMARK  2 active torsions:
REMARK  status: ('A' for Active; 'I' for Inactive)
REMARK    1  A    between atoms: C4_4  and  C5_5 
REMARK    2  A    between atoms: C4_4  and  C6_6 
ROOT
HETATM    1  C1  UNL     1     -32.075   6.426   1.452  1.00 20.00     0.063 C 
HETATM    2  C2  UNL     1     -32.021   8.749   0.662  1.00 20.00     0.025 C 
HETATM    3  C5  UNL     1     -32.118   7.836   1.886  1.00 20.00     0.090 C 
HETATM    4  N7  UNL     1     -32.039   5.317   1.113  1.00 20.00    -0.197 NA
ENDROOT
BRANCH   3   5
HETATM    5  C4  UNL     1     -33.412   8.141   2.669  1.00 20.00     0.038 C 
BRANCH   5   6
HETATM    6  C6  UNL     1     -33.661   7.243   3.892  1.00 20.00     0.079 C 
HETATM    7  C3  UNL     1     -35.052   6.619   3.838  1.00 20.00     0.026 C 
HETATM    8 CL8  UNL     1     -33.506   8.173   5.414  1.00 20.00    -0.125 Cl
ENDBRANCH   5   6
ENDBRANCH   3   5
TORSDOF 2
ENDMDL
MODEL 8
REMARK VINA RESULT:      -1.1      2.469      3.790
REMARK  2 active torsions:
REMARK  status: ('A' for Active; 'I' for Inactive)
REMARK    1  A    between atoms: C4_4  and  C5_5 
REMARK    2  A    between atoms: C4_4  and  C6_6 
ROOT
HETATM    1  C1  UNL     1     -32.333   5.994   1.346  1.00 20.00     0.063 C 
HETATM    2  C2  UNL     1     -32.346   8.448   1.402  1.00 20.00     0.025 C 
HETATM    3  C5  UNL     1     -32.185   7.169   2.227  1.00 20.00     0.090 C 
HETATM    4  N7  UNL     1     -32.447   5.069   0.655  1.00 20.00    -0.197 NA
ENDROOT
BRANCH   3   5
HETATM    5  C4  UNL     1     -33.221   7.146   3.369  1.00 20.00     0.038 C 
BRANCH   5   6
HETATM    6  C6  UNL     1     -34.280   6.035   3.268  1.00 20.00     0.079 C 
HETATM    7  C3  UNL     1     -35.563   6.435   3.988  1.00 20.00     0.026 C 
HETATM    8 CL8  UNL     1     -33.676   4.506   3.976  1.00 20.00    -0.125 Cl
ENDBRANCH   5   6
ENDBRANCH   3   5
TORSDOF 2
ENDMDL
MODEL 9
REMARK VINA RESULT:      -0.9      2.394      2.669
REMARK  2 active torsions:
REMARK  status: ('A' for Active; 'I' for Inactive)
REMARK    1  A    between atoms: C4_4  and  C5_5 
REMARK    2  A    between atoms: C4_4  and  C6_6 
ROOT
HETATM    1  C1  UNL     1     -33.680   7.553   4.486  1.00 20.00     0.063 C 
HETATM    2  C2  UNL     1     -35.649   6.227   3.866  1.00 20.00     0.025 C 
HETATM    3  C5  UNL     1     -34.133   6.374   3.724  1.00 20.00     0.090 C 
HETATM    4  N7  UNL     1     -33.321   8.479   5.087  1.00 20.00    -0.197 NA
ENDROOT
BRANCH   3   5
HETATM    5  C4  UNL     1     -33.754   6.492   2.233  1.00 20.00     0.038 C 
BRANCH   5   6
HETATM    6  C6  UNL     1     -32.245   6.590   1.950  1.00 20.00     0.079 C 
HETATM    7  C3  UNL     1     -31.895   7.927   1.305  1.00 20.00     0.026 C 
HETATM    8 CL8  UNL     1     -31.709   5.271   0.865  1.00 20.00    -0.125 Cl
ENDBRANCH   5   6
ENDBRANCH   3   5
TORSDOF 2
ENDMDL
