MODEL 1
REMARK VINA RESULT:      -2.2      0.000      0.000
REMARK  0 active torsions:
REMARK  status: ('A' for Active; 'I' for Inactive)
ROOT
HETATM    1  C1  UNL     1     -33.832   4.051   4.154  1.00 20.00     0.064 C 
HETATM    2  C2  UNL     1     -34.927   6.279   4.235  1.00 20.00     0.021 C 
HETATM    3  C3  UNL     1     -34.189   7.523   3.743  1.00 20.00     0.021 C 
HETATM    4  C4  UNL     1     -33.437   5.732   2.373  1.00 20.00     0.039 C 
HETATM    5  C5  UNL     1     -34.451   5.116   3.346  1.00 20.00     0.094 C 
HETATM    6  C6  UNL     1     -32.926   6.965   3.108  1.00 20.00     0.083 C 
HETATM    7  N7  UNL     1     -33.345   3.213   4.790  1.00 20.00    -0.197 NA
HETATM    8 CL8  UNL     1     -32.151   8.125   2.019  1.00 20.00    -0.125 Cl
ENDROOT
TORSDOF 0
ENDMDL
MODEL 2
REMARK VINA RESULT:      -1.8      3.582      4.309
REMARK  0 active torsions:
REMARK  status: ('A' for Active; 'I' for Inactive)
ROOT
HETATM    1  C1  UNL     1     -32.256   8.835   1.035  1.00 20.00     0.064 C 
HETATM    2  C2  UNL     1     -31.972   8.527   3.483  1.00 20.00     0.021 C 
HETATM    3  C3  UNL     1     -33.087   7.902   4.321  1.00 20.00     0.021 C 
HETATM    4  C4  UNL     1     -33.203   6.854   2.190  1.00 20.00     0.039 C 
HETATM    5  C5  UNL     1     -32.036   7.846   2.104  1.00 20.00     0.094 C 
HETATM    6  C6  UNL     1     -34.093   7.430   3.284  1.00 20.00     0.083 C 
HETATM    7  N7  UNL     1     -32.431   9.614   0.194  1.00 20.00    -0.197 NA
HETATM    8 CL8  UNL     1     -35.219   6.231   3.937  1.00 20.00    -0.125 Cl
ENDROOT
TORSDOF 0
ENDMDL
MODEL 3
REMARK VINA RESULT:      -0.8      3.641      4.502
REMARK  0 active torsions:
REMARK  status: ('A' for Active; 'I' for Inactive)
ROOT
HETATM    1  C1  UNL     1     -32.371   9.411   1.106  1.00 20.00     0.064 C 
HETATM    2  C2  UNL     1     -33.251   7.958   2.918  1.00 20.00     0.021 C 
HETATM    3  C3  UNL     1     -33.424   6.457   2.693  1.00 20.00     0.021 C 
HETATM    4  C4  UNL     1     -31.528   7.097   1.408  1.00 20.00     0.039 C 
HETATM    5  C5  UNL     1     -32.020   8.379   2.095  1.00 20.00     0.094 C 
HETATM    6  C6  UNL     1     -32.771   6.218   1.341  1.00 20.00     0.083 C 
HETATM    7  N7  UNL     1     -32.649  10.224   0.327  1.00 20.00    -0.197 NA
HETATM    8 CL8  UNL     1     -32.377   4.514   1.075  1.00 20.00    -0.125 Cl
ENDROOT
TORSDOF 0
ENDMDL
MODEL 4
REMARK VINA RESULT:      -0.7      1.956      2.792
REMARK  0 active torsions:
REMARK  status: ('A' for Active; 'I' for Inactive)
ROOT
HETATM    1  C1  UNL     1     -34.492   6.467   3.647  1.00 20.00     0.064 C 
HETATM    2  C2  UNL     1     -32.709   5.772   2.064  1.00 20.00     0.021 C 
HETATM    3  C3  UNL     1     -32.175   6.752   1.020  1.00 20.00     0.021 C 
HETATM    4  C4  UNL     1     -32.740   8.065   2.920  1.00 20.00     0.039 C 
HETATM    5  C5  UNL     1     -33.069   6.615   3.301  1.00 20.00     0.094 C 
HETATM    6  C6  UNL     1     -32.826   8.072   1.399  1.00 20.00     0.083 C 
HETATM    7  N7  UNL     1     -35.614   6.349   3.918  1.00 20.00    -0.197 NA
HETATM    8 CL8  UNL     1     -31.997   9.462   0.684  1.00 20.00    -0.125 Cl
ENDROOT
TORSDOF 0
ENDMDL
MODEL 5
REMARK VINA RESULT:      -0.2      2.937      3.687
REMARK  0 active torsions:
REMARK  status: ('A' for Active; 'I' for Inactive)
ROOT
HETATM    1  C1  UNL     1     -34.124   7.478   4.292  1.00 20.00     0.064 C 
HETATM    2  C2  UNL     1     -33.514   6.025   2.372  1.00 20.00     0.021 C 
HETATM    3  C3  UNL     1     -33.105   4.570   2.601  1.00 20.00     0.021 C 
HETATM    4  C4  UNL     1     -34.714   5.068   4.279  1.00 20.00     0.039 C 
HETATM    5  C5  UNL     1     -34.563   6.352   3.451  1.00 20.00     0.094 C 
HETATM    6  C6  UNL     1     -33.389   4.345   4.077  1.00 20.00     0.083 C 
HETATM    7  N7  UNL     1     -33.777   8.365   4.954  1.00 20.00    -0.197 NA
HETATM    8 CL8  UNL     1     -33.491   2.627   4.487  1.00 20.00    -0.125 Cl
ENDROOT
TORSDOF 0
ENDMDL
MODEL 6
REMARK VINA RESULT:       0.2      2.625      3.322
REMARK  0 active torsions:
REMARK  status: ('A' for Active; 'I' for Inactive)
ROOT
HETATM    1  C1  UNL     1     -33.490   5.391   0.480  1.00 20.00     0.064 C 
HETATM    2  C2  UNL     1     -31.951   7.135   1.354  1.00 20.00     0.021 C 
HETATM    3  C3  UNL     1     -32.356   7.997   2.549  1.00 20.00     0.021 C 
HETATM    4  C4  UNL     1     -33.352   5.869   2.911  1.00 20.00     0.039 C 
HETATM    5  C5  UNL     1     -32.586   5.752   1.586  1.00 20.00     0.094 C 
HETATM    6  C6  UNL     1     -33.648   7.358   3.032  1.00 20.00     0.083 C 
HETATM    7  N7  UNL     1     -34.201   5.108  -0.391  1.00 20.00    -0.197 NA
HETATM    8 CL8  UNL     1     -34.053   7.831   4.688  1.00 20.00    -0.125 Cl
ENDROOT
TORSDOF 0
ENDMDL
MODEL 7
REMARK VINA RESULT:       0.3      3.019      3.889
REMARK  0 active torsions:
REMARK  status: ('A' for Active; 'I' for Inactive)
ROOT
HETATM    1  C1  UNL     1     -31.950   7.970   2.228  1.00 20.00     0.064 C 
HETATM    2  C2  UNL     1     -32.652   5.651   1.678  1.00 20.00     0.021 C 
HETATM    3  C3  UNL     1     -33.575   4.878   2.617  1.00 20.00     0.021 C 
HETATM    4  C4  UNL     1     -34.225   7.158   2.793  1.00 20.00     0.039 C 
HETATM    5  C5  UNL     1     -33.073   7.129   1.780  1.00 20.00     0.094 C 
HETATM    6  C6  UNL     1     -33.995   5.916   3.645  1.00 20.00     0.083 C 
HETATM    7  N7  UNL     1     -31.065   8.631   2.581  1.00 20.00    -0.197 NA
HETATM    8 CL8  UNL     1     -35.444   5.433   4.537  1.00 20.00    -0.125 Cl
ENDROOT
TORSDOF 0
ENDMDL
MODEL 8
REMARK VINA RESULT:       0.4      2.621      3.385
REMARK  0 active torsions:
REMARK  status: ('A' for Active; 'I' for Inactive)
ROOT
HETATM    1  C1  UNL     1     -33.591   7.713   3.945  1.00 20.00     0.064 C 
HETATM    2  C2  UNL     1     -32.234   8.356   1.966  1.00 20.00     0.021 C 
HETATM    3  C3  UNL     1     -31.469   7.297   1.175  1.00 20.00     0.021 C 
HETATM    4  C4  UNL     1     -33.438   6.225   1.966  1.00 20.00     0.039 C 
HETATM    5  C5  UNL     1     -33.516   7.671   2.475  1.00 20.00     0.094 C 
HETATM    6  C6  UNL     1     -31.945   5.984   1.775  1.00 20.00     0.083 C 
HETATM    7  N7  UNL     1     -33.650   7.747   5.103  1.00 20.00    -0.197 NA
HETATM    8 CL8  UNL     1     -31.616   4.603   0.720  1.00 20.00    -0.125 Cl
ENDROOT
TORSDOF 0
ENDMDL
MODEL 9
REMARK VINA RESULT:       0.8      2.328      2.722
REMARK  0 active torsions:
REMARK  status: ('A' for Active; 'I' for Inactive)
ROOT
HETATM    1  C1  UNL     1     -32.375   5.761   1.483  1.00 20.00     0.064 C 
HETATM    2  C2  UNL     1     -34.510   6.166   2.687  1.00 20.00     0.021 C 
HETATM    3  C3  UNL     1     -34.516   6.898   4.028  1.00 20.00     0.021 C 
HETATM    4  C4  UNL     1     -32.737   7.850   2.771  1.00 20.00     0.039 C 
HETATM    5  C5  UNL     1     -33.365   6.783   1.864  1.00 20.00     0.094 C 
HETATM    6  C6  UNL     1     -33.084   7.384   4.179  1.00 20.00     0.083 C 
HETATM    7  N7  UNL     1     -31.597   4.956   1.184  1.00 20.00    -0.197 NA
HETATM    8 CL8  UNL     1     -32.936   8.681   5.373  1.00 20.00    -0.125 Cl
ENDROOT
TORSDOF 0
ENDMDL
