MODEL 1
REMARK VINA RESULT:       1.3      0.000      0.000
REMARK  1 active torsions:
REMARK  status: ('A' for Active; 'I' for Inactive)
REMARK    1  A    between atoms: C4_4  and  C7_7 
ROOT
HETATM    1  C1  UNL     1     -33.858   5.130   2.658  1.00 20.00     0.034 A 
HETATM    2  C2  UNL     1     -32.834   5.765   1.899  1.00 20.00     0.026 A 
HETATM    3  C3  UNL     1     -34.456   5.995   3.546  1.00 20.00    -0.019 A 
HETATM    4  C4  UNL     1     -32.689   7.093   2.235  1.00 20.00     0.018 A 
HETATM    5  C5  UNL     1     -35.550   5.722   4.503  1.00 20.00     0.056 C 
HETATM    6  S8  UNL     1     -33.784   7.568   3.463  1.00 20.00    -0.097 SA
HETATM    7 BR10 UNL     1     -31.833   4.836   0.600  1.00 20.00    -0.050 Br
ENDROOT
BRANCH   4   8
HETATM    8  C7  UNL     1     -31.749   8.098   1.689  1.00 20.00     0.119 C 
HETATM    9  C6  UNL     1     -30.943   8.869   2.749  1.00 20.00     0.032 C 
HETATM   10 CL9  UNL     1     -32.621   9.280   0.652  1.00 20.00    -0.120 Cl
ENDBRANCH   4   8
TORSDOF 1
ENDMDL
MODEL 2
REMARK VINA RESULT:       1.3      3.042      4.594
REMARK  1 active torsions:
REMARK  status: ('A' for Active; 'I' for Inactive)
REMARK    1  A    between atoms: C4_4  and  C7_7 
ROOT
HETATM    1  C1  UNL     1     -32.348   8.278   2.679  1.00 20.00     0.034 A 
HETATM    2  C2  UNL     1     -33.198   7.482   3.500  1.00 20.00     0.026 A 
HETATM    3  C3  UNL     1     -32.053   7.658   1.485  1.00 20.00    -0.019 A 
HETATM    4  C4  UNL     1     -33.521   6.284   2.903  1.00 20.00     0.018 A 
HETATM    5  C5  UNL     1     -31.212   8.152   0.374  1.00 20.00     0.056 C 
HETATM    6  S8  UNL     1     -32.799   6.122   1.358  1.00 20.00    -0.097 SA
HETATM    7 BR10 UNL     1     -33.774   8.065   5.198  1.00 20.00    -0.050 Br
ENDROOT
BRANCH   4   8
HETATM    8  C7  UNL     1     -34.370   5.184   3.414  1.00 20.00     0.119 C 
HETATM    9  C6  UNL     1     -35.480   5.625   4.384  1.00 20.00     0.032 C 
HETATM   10 CL9  UNL     1     -33.362   3.931   4.219  1.00 20.00    -0.120 Cl
ENDBRANCH   4   8
TORSDOF 1
ENDMDL
MODEL 3
REMARK VINA RESULT:       1.5      2.104      3.920
REMARK  1 active torsions:
REMARK  status: ('A' for Active; 'I' for Inactive)
REMARK    1  A    between atoms: C4_4  and  C7_7 
ROOT
HETATM    1  C1  UNL     1     -31.976   7.899   0.504  1.00 20.00     0.034 A 
HETATM    2  C2  UNL     1     -32.342   6.987   1.535  1.00 20.00     0.026 A 
HETATM    3  C3  UNL     1     -32.382   9.185   0.783  1.00 20.00    -0.019 A 
HETATM    4  C4  UNL     1     -33.014   7.610   2.563  1.00 20.00     0.018 A 
HETATM    5  C5  UNL     1     -32.195  10.407  -0.029  1.00 20.00     0.056 C 
HETATM    6  S8  UNL     1     -33.203   9.288   2.282  1.00 20.00    -0.097 SA
HETATM    7 BR10 UNL     1     -31.922   5.152   1.438  1.00 20.00    -0.050 Br
ENDROOT
BRANCH   4   8
HETATM    8  C7  UNL     1     -33.562   7.028   3.810  1.00 20.00     0.119 C 
HETATM    9  C6  UNL     1     -35.025   6.561   3.714  1.00 20.00     0.032 C 
HETATM   10 CL9  UNL     1     -33.414   8.196   5.169  1.00 20.00    -0.120 Cl
ENDBRANCH   4   8
TORSDOF 1
ENDMDL
MODEL 4
REMARK VINA RESULT:       1.5      2.829      3.791
REMARK  1 active torsions:
REMARK  status: ('A' for Active; 'I' for Inactive)
REMARK    1  A    between atoms: C4_4  and  C7_7 
ROOT
HETATM    1  C1  UNL     1     -31.803   6.858   0.923  1.00 20.00     0.034 A 
HETATM    2  C2  UNL     1     -32.550   7.721   1.776  1.00 20.00     0.026 A 
HETATM    3  C3  UNL     1     -32.026   5.530   1.207  1.00 20.00    -0.019 A 
HETATM    4  C4  UNL     1     -33.316   7.019   2.679  1.00 20.00     0.018 A 
HETATM    5  C5  UNL     1     -31.445   4.338   0.553  1.00 20.00     0.056 C 
HETATM    6  S8  UNL     1     -33.133   5.326   2.498  1.00 20.00    -0.097 SA
HETATM    7 BR10 UNL     1     -32.452   9.598   1.629  1.00 20.00    -0.050 Br
ENDROOT
BRANCH   4   8
HETATM    8  C7  UNL     1     -34.227   7.531   3.729  1.00 20.00     0.119 C 
HETATM    9  C6  UNL     1     -33.523   8.057   4.992  1.00 20.00     0.032 C 
HETATM   10 CL9  UNL     1     -35.409   6.264   4.211  1.00 20.00    -0.120 Cl
ENDBRANCH   4   8
TORSDOF 1
ENDMDL
MODEL 5
REMARK VINA RESULT:       1.7      2.241      3.919
REMARK  1 active torsions:
REMARK  status: ('A' for Active; 'I' for Inactive)
REMARK    1  A    between atoms: C4_4  and  C7_7 
ROOT
HETATM    1  C1  UNL     1     -32.025   7.109   1.407  1.00 20.00     0.034 A 
HETATM    2  C2  UNL     1     -32.765   5.919   1.665  1.00 20.00     0.026 A 
HETATM    3  C3  UNL     1     -32.250   8.076   2.360  1.00 20.00    -0.019 A 
HETATM    4  C4  UNL     1     -33.528   6.023   2.807  1.00 20.00     0.018 A 
HETATM    5  C5  UNL     1     -31.675   9.436   2.447  1.00 20.00     0.056 C 
HETATM    6  S8  UNL     1     -33.351   7.550   3.562  1.00 20.00    -0.097 SA
HETATM    7 BR10 UNL     1     -32.665   4.416   0.532  1.00 20.00    -0.050 Br
ENDROOT
BRANCH   4   8
HETATM    8  C7  UNL     1     -34.432   5.023   3.421  1.00 20.00     0.119 C 
HETATM    9  C6  UNL     1     -35.430   5.598   4.441  1.00 20.00     0.032 C 
HETATM   10 CL9  UNL     1     -33.484   3.716   4.212  1.00 20.00    -0.120 Cl
ENDBRANCH   4   8
TORSDOF 1
ENDMDL
MODEL 6
REMARK VINA RESULT:       2.2      3.032      4.536
REMARK  1 active torsions:
REMARK  status: ('A' for Active; 'I' for Inactive)
REMARK    1  A    between atoms: C4_4  and  C7_7 
ROOT
HETATM    1  C1  UNL     1     -32.377   8.456   2.682  1.00 20.00     0.034 A 
HETATM    2  C2  UNL     1     -33.046   7.706   3.692  1.00 20.00     0.026 A 
HETATM    3  C3  UNL     1     -32.168   7.716   1.540  1.00 20.00    -0.019 A 
HETATM    4  C4  UNL     1     -33.323   6.420   3.283  1.00 20.00     0.018 A 
HETATM    5  C5  UNL     1     -31.514   8.130   0.280  1.00 20.00     0.056 C 
HETATM    6  S8  UNL     1     -32.777   6.122   1.687  1.00 20.00    -0.097 SA
HETATM    7 BR10 UNL     1     -33.470   8.450   5.371  1.00 20.00    -0.050 Br
ENDROOT
BRANCH   4   8
HETATM    8  C7  UNL     1     -33.999   5.330   4.022  1.00 20.00     0.119 C 
HETATM    9  C6  UNL     1     -33.813   3.928   3.415  1.00 20.00     0.032 C 
HETATM   10 CL9  UNL     1     -35.760   5.666   4.171  1.00 20.00    -0.120 Cl
ENDBRANCH   4   8
TORSDOF 1
ENDMDL
MODEL 7
REMARK VINA RESULT:       2.4      2.037      3.798
REMARK  1 active torsions:
REMARK  status: ('A' for Active; 'I' for Inactive)
REMARK    1  A    between atoms: C4_4  and  C7_7 
ROOT
HETATM    1  C1  UNL     1     -31.962   7.530   0.819  1.00 20.00     0.034 A 
HETATM    2  C2  UNL     1     -32.369   6.424   1.620  1.00 20.00     0.026 A 
HETATM    3  C3  UNL     1     -32.487   8.719   1.272  1.00 20.00    -0.019 A 
HETATM    4  C4  UNL     1     -33.190   6.811   2.656  1.00 20.00     0.018 A 
HETATM    5  C5  UNL     1     -32.303  10.078   0.719  1.00 20.00     0.056 C 
HETATM    6  S8  UNL     1     -33.468   8.501   2.659  1.00 20.00    -0.097 SA
HETATM    7 BR10 UNL     1     -31.811   4.663   1.247  1.00 20.00    -0.050 Br
ENDROOT
BRANCH   4   8
HETATM    8  C7  UNL     1     -33.824   5.981   3.706  1.00 20.00     0.119 C 
HETATM    9  C6  UNL     1     -33.743   4.464   3.464  1.00 20.00     0.032 C 
HETATM   10 CL9  UNL     1     -35.549   6.442   3.919  1.00 20.00    -0.120 Cl
ENDBRANCH   4   8
TORSDOF 1
ENDMDL
MODEL 8
REMARK VINA RESULT:       2.8      2.548      3.359
REMARK  1 active torsions:
REMARK  status: ('A' for Active; 'I' for Inactive)
REMARK    1  A    between atoms: C4_4  and  C7_7 
ROOT
HETATM    1  C1  UNL     1     -32.757   8.483   2.953  1.00 20.00     0.034 A 
HETATM    2  C2  UNL     1     -32.338   7.859   1.742  1.00 20.00     0.026 A 
HETATM    3  C3  UNL     1     -33.434   7.611   3.776  1.00 20.00    -0.019 A 
HETATM    4  C4  UNL     1     -32.711   6.534   1.687  1.00 20.00     0.018 A 
HETATM    5  C5  UNL     1     -34.024   7.872   5.107  1.00 20.00     0.056 C 
HETATM    6  S8  UNL     1     -33.564   6.048   3.090  1.00 20.00    -0.097 SA
HETATM    7 BR10 UNL     1     -31.387   8.799   0.414  1.00 20.00    -0.050 Br
ENDROOT
BRANCH   4   8
HETATM    8  C7  UNL     1     -32.473   5.541   0.615  1.00 20.00     0.119 C 
HETATM    9  C6  UNL     1     -33.710   4.720   0.212  1.00 20.00     0.032 C 
HETATM   10 CL9  UNL     1     -31.155   4.410   1.083  1.00 20.00    -0.120 Cl
ENDBRANCH   4   8
TORSDOF 1
ENDMDL
MODEL 9
REMARK VINA RESULT:       2.9      2.446      3.945
REMARK  1 active torsions:
REMARK  status: ('A' for Active; 'I' for Inactive)
REMARK    1  A    between atoms: C4_4  and  C7_7 
ROOT
HETATM    1  C1  UNL     1     -31.880   8.012   0.561  1.00 20.00     0.034 A 
HETATM    2  C2  UNL     1     -32.405   7.264   1.655  1.00 20.00     0.026 A 
HETATM    3  C3  UNL     1     -32.272   9.331   0.600  1.00 20.00    -0.019 A 
HETATM    4  C4  UNL     1     -33.179   8.041   2.489  1.00 20.00     0.018 A 
HETATM    5  C5  UNL     1     -31.941  10.419  -0.345  1.00 20.00     0.056 C 
HETATM    6  S8  UNL     1     -33.270   9.665   1.951  1.00 20.00    -0.097 SA
HETATM    7 BR10 UNL     1     -32.042   5.427   1.873  1.00 20.00    -0.050 Br
ENDROOT
BRANCH   4   8
HETATM    8  C7  UNL     1     -33.899   7.656   3.724  1.00 20.00     0.119 C 
HETATM    9  C6  UNL     1     -33.116   7.894   5.027  1.00 20.00     0.032 C 
HETATM   10 CL9  UNL     1     -34.393   5.928   3.653  1.00 20.00    -0.120 Cl
ENDBRANCH   4   8
TORSDOF 1
ENDMDL
