MODEL 1
REMARK VINA RESULT:      -1.1      0.000      0.000
REMARK  2 active torsions:
REMARK  status: ('A' for Active; 'I' for Inactive)
REMARK    1  A    between atoms: C5_5  and  C6_6 
REMARK    2  A    between atoms: C5_5  and  C7_7 
ROOT
HETATM    1  C1  UNL     1     -34.231   5.017   4.012  1.00 20.00     0.068 C 
HETATM    2  C3  UNL     1     -35.997   6.591   3.415  1.00 20.00     0.031 C 
HETATM    3  C4  UNL     1     -33.938   7.395   4.579  1.00 20.00     0.031 C 
HETATM    4  C7  UNL     1     -34.470   6.399   3.537  1.00 20.00     0.043 C 
HETATM    5  N8  UNL     1     -34.057   3.933   4.389  1.00 20.00    -0.196 NA
ENDROOT
BRANCH   4   6
HETATM    6  C5  UNL     1     -33.840   6.630   2.133  1.00 20.00     0.043 C 
BRANCH   6   7
HETATM    7  C6  UNL     1     -32.302   6.643   2.014  1.00 20.00     0.080 C 
HETATM    8  C2  UNL     1     -31.820   7.979   1.454  1.00 20.00     0.026 C 
HETATM    9 CL9  UNL     1     -31.691   5.340   0.957  1.00 20.00    -0.125 Cl
ENDBRANCH   6   7
ENDBRANCH   4   6
TORSDOF 2
ENDMDL
MODEL 2
REMARK VINA RESULT:      -1.0      3.277      4.577
REMARK  2 active torsions:
REMARK  status: ('A' for Active; 'I' for Inactive)
REMARK    1  A    between atoms: C5_5  and  C6_6 
REMARK    2  A    between atoms: C5_5  and  C7_7 
ROOT
HETATM    1  C1  UNL     1     -32.360   9.048   0.754  1.00 20.00     0.068 C 
HETATM    2  C3  UNL     1     -31.949   6.688   1.219  1.00 20.00     0.031 C 
HETATM    3  C4  UNL     1     -31.223   8.435   2.850  1.00 20.00     0.031 C 
HETATM    4  C7  UNL     1     -32.320   8.049   1.846  1.00 20.00     0.043 C 
HETATM    5  N8  UNL     1     -32.383   9.823  -0.110  1.00 20.00    -0.196 NA
ENDROOT
BRANCH   4   6
HETATM    6  C5  UNL     1     -33.712   7.903   2.528  1.00 20.00     0.043 C 
BRANCH   6   7
HETATM    7  C6  UNL     1     -33.805   7.091   3.837  1.00 20.00     0.080 C 
HETATM    8  C2  UNL     1     -35.143   6.361   3.919  1.00 20.00     0.026 C 
HETATM    9 CL9  UNL     1     -33.637   8.119   5.287  1.00 20.00    -0.125 Cl
ENDBRANCH   6   7
ENDBRANCH   4   6
TORSDOF 2
ENDMDL
MODEL 3
REMARK VINA RESULT:      -0.9      2.835      3.994
REMARK  2 active torsions:
REMARK  status: ('A' for Active; 'I' for Inactive)
REMARK    1  A    between atoms: C5_5  and  C6_6 
REMARK    2  A    between atoms: C5_5  and  C7_7 
ROOT
HETATM    1  C1  UNL     1     -32.232   7.373   1.502  1.00 20.00     0.068 C 
HETATM    2  C3  UNL     1     -33.809   5.777   0.542  1.00 20.00     0.031 C 
HETATM    3  C4  UNL     1     -31.515   5.037   1.198  1.00 20.00     0.031 C 
HETATM    4  C7  UNL     1     -32.680   5.963   1.578  1.00 20.00     0.043 C 
HETATM    5  N8  UNL     1     -31.886   8.478   1.429  1.00 20.00    -0.196 NA
ENDROOT
BRANCH   4   6
HETATM    6  C5  UNL     1     -33.256   5.630   2.985  1.00 20.00     0.043 C 
BRANCH   6   7
HETATM    7  C6  UNL     1     -34.488   6.418   3.477  1.00 20.00     0.080 C 
HETATM    8  C2  UNL     1     -34.054   7.627   4.302  1.00 20.00     0.026 C 
HETATM    9 CL9  UNL     1     -35.578   5.419   4.477  1.00 20.00    -0.125 Cl
ENDBRANCH   6   7
ENDBRANCH   4   6
TORSDOF 2
ENDMDL
MODEL 4
REMARK VINA RESULT:      -0.4      2.534      4.063
REMARK  2 active torsions:
REMARK  status: ('A' for Active; 'I' for Inactive)
REMARK    1  A    between atoms: C5_5  and  C6_6 
REMARK    2  A    between atoms: C5_5  and  C7_7 
ROOT
HETATM    1  C1  UNL     1     -32.046   6.503   1.416  1.00 20.00     0.068 C 
HETATM    2  C3  UNL     1     -31.169   8.335   2.767  1.00 20.00     0.031 C 
HETATM    3  C4  UNL     1     -32.278   8.807   0.580  1.00 20.00     0.031 C 
HETATM    4  C7  UNL     1     -32.309   7.903   1.821  1.00 20.00     0.043 C 
HETATM    5  N8  UNL     1     -31.827   5.407   1.101  1.00 20.00    -0.196 NA
ENDROOT
BRANCH   4   6
HETATM    6  C5  UNL     1     -33.653   8.022   2.597  1.00 20.00     0.043 C 
BRANCH   6   7
HETATM    7  C6  UNL     1     -33.829   7.193   3.887  1.00 20.00     0.080 C 
HETATM    8  C2  UNL     1     -35.179   6.481   3.884  1.00 20.00     0.026 C 
HETATM    9 CL9  UNL     1     -33.729   8.198   5.359  1.00 20.00    -0.125 Cl
ENDBRANCH   6   7
ENDBRANCH   4   6
TORSDOF 2
ENDMDL
MODEL 5
REMARK VINA RESULT:      -0.3      1.464      2.047
REMARK  2 active torsions:
REMARK  status: ('A' for Active; 'I' for Inactive)
REMARK    1  A    between atoms: C5_5  and  C6_6 
REMARK    2  A    between atoms: C5_5  and  C7_7 
ROOT
HETATM    1  C1  UNL     1     -33.866   7.404   4.396  1.00 20.00     0.068 C 
HETATM    2  C3  UNL     1     -34.170   4.998   4.124  1.00 20.00     0.031 C 
HETATM    3  C4  UNL     1     -35.987   6.577   3.456  1.00 20.00     0.031 C 
HETATM    4  C7  UNL     1     -34.464   6.381   3.506  1.00 20.00     0.043 C 
HETATM    5  N8  UNL     1     -33.398   8.196   5.103  1.00 20.00    -0.196 NA
ENDROOT
BRANCH   4   6
HETATM    6  C5  UNL     1     -33.822   6.424   2.088  1.00 20.00     0.043 C 
BRANCH   6   7
HETATM    7  C6  UNL     1     -32.284   6.484   1.983  1.00 20.00     0.080 C 
HETATM    8  C2  UNL     1     -31.839   7.838   1.436  1.00 20.00     0.026 C 
HETATM    9 CL9  UNL     1     -31.625   5.208   0.922  1.00 20.00    -0.125 Cl
ENDBRANCH   6   7
ENDBRANCH   4   6
TORSDOF 2
ENDMDL
MODEL 6
REMARK VINA RESULT:       0.2      2.288      3.382
REMARK  2 active torsions:
REMARK  status: ('A' for Active; 'I' for Inactive)
REMARK    1  A    between atoms: C5_5  and  C6_6 
REMARK    2  A    between atoms: C5_5  and  C7_7 
ROOT
HETATM    1  C1  UNL     1     -33.626   7.273   3.190  1.00 20.00     0.068 C 
HETATM    2  C3  UNL     1     -31.377   8.175   2.899  1.00 20.00     0.031 C 
HETATM    3  C4  UNL     1     -32.088   6.140   1.636  1.00 20.00     0.031 C 
HETATM    4  C7  UNL     1     -32.564   7.495   2.182  1.00 20.00     0.043 C 
HETATM    5  N8  UNL     1     -34.449   7.100   3.991  1.00 20.00    -0.196 NA
ENDROOT
BRANCH   4   6
HETATM    6  C5  UNL     1     -33.052   8.444   1.049  1.00 20.00     0.043 C 
BRANCH   6   7
HETATM    7  C6  UNL     1     -32.085   9.533   0.539  1.00 20.00     0.080 C 
HETATM    8  C2  UNL     1     -32.854  10.630  -0.193  1.00 20.00     0.026 C 
HETATM    9 CL9  UNL     1     -30.850   8.878  -0.572  1.00 20.00    -0.125 Cl
ENDBRANCH   6   7
ENDBRANCH   4   6
TORSDOF 2
ENDMDL
MODEL 7
REMARK VINA RESULT:       0.3      2.089      3.742
REMARK  2 active torsions:
REMARK  status: ('A' for Active; 'I' for Inactive)
REMARK    1  A    between atoms: C5_5  and  C6_6 
REMARK    2  A    between atoms: C5_5  and  C7_7 
ROOT
HETATM    1  C1  UNL     1     -32.007   6.389   1.459  1.00 20.00     0.068 C 
HETATM    2  C3  UNL     1     -31.032   8.197   2.775  1.00 20.00     0.031 C 
HETATM    3  C4  UNL     1     -32.821   8.686   1.102  1.00 20.00     0.031 C 
HETATM    4  C7  UNL     1     -32.333   7.664   2.139  1.00 20.00     0.043 C 
HETATM    5  N8  UNL     1     -31.738   5.394   0.924  1.00 20.00    -0.196 NA
ENDROOT
BRANCH   4   6
HETATM    6  C5  UNL     1     -33.373   7.445   3.277  1.00 20.00     0.043 C 
BRANCH   6   7
HETATM    7  C6  UNL     1     -34.296   6.211   3.198  1.00 20.00     0.080 C 
HETATM    8  C2  UNL     1     -35.562   6.437   4.022  1.00 20.00     0.026 C 
HETATM    9 CL9  UNL     1     -33.500   4.726   3.789  1.00 20.00    -0.125 Cl
ENDBRANCH   6   7
ENDBRANCH   4   6
TORSDOF 2
ENDMDL
MODEL 8
REMARK VINA RESULT:       0.4      2.351      3.353
REMARK  2 active torsions:
REMARK  status: ('A' for Active; 'I' for Inactive)
REMARK    1  A    between atoms: C5_5  and  C6_6 
REMARK    2  A    between atoms: C5_5  and  C7_7 
ROOT
HETATM    1  C1  UNL     1     -33.760   6.484   2.903  1.00 20.00     0.068 C 
HETATM    2  C3  UNL     1     -31.792   5.528   1.825  1.00 20.00     0.031 C 
HETATM    3  C4  UNL     1     -33.686   6.390   0.443  1.00 20.00     0.031 C 
HETATM    4  C7  UNL     1     -32.873   6.625   1.725  1.00 20.00     0.043 C 
HETATM    5  N8  UNL     1     -34.452   6.360   3.827  1.00 20.00    -0.196 NA
ENDROOT
BRANCH   4   6
HETATM    6  C5  UNL     1     -32.159   8.008   1.720  1.00 20.00     0.043 C 
BRANCH   6   7
HETATM    7  C6  UNL     1     -32.323   8.912   0.481  1.00 20.00     0.080 C 
HETATM    8  C2  UNL     1     -31.026   8.956  -0.324  1.00 20.00     0.026 C 
HETATM    9 CL9  UNL     1     -32.770  10.585   0.914  1.00 20.00    -0.125 Cl
ENDBRANCH   6   7
ENDBRANCH   4   6
TORSDOF 2
ENDMDL
MODEL 9
REMARK VINA RESULT:       0.4      2.562      3.833
REMARK  2 active torsions:
REMARK  status: ('A' for Active; 'I' for Inactive)
REMARK    1  A    between atoms: C5_5  and  C6_6 
REMARK    2  A    between atoms: C5_5  and  C7_7 
ROOT
HETATM    1  C1  UNL     1     -31.864   5.090   0.981  1.00 20.00     0.068 C 
HETATM    2  C3  UNL     1     -31.919   7.466   1.532  1.00 20.00     0.031 C 
HETATM    3  C4  UNL     1     -33.928   6.359   0.543  1.00 20.00     0.031 C 
HETATM    4  C7  UNL     1     -32.744   6.162   1.501  1.00 20.00     0.043 C 
HETATM    5  N8  UNL     1     -31.166   4.259   0.567  1.00 20.00    -0.196 NA
ENDROOT
BRANCH   4   6
HETATM    6  C5  UNL     1     -33.212   5.852   2.953  1.00 20.00     0.043 C 
BRANCH   6   7
HETATM    7  C6  UNL     1     -34.440   6.606   3.503  1.00 20.00     0.080 C 
HETATM    8  C2  UNL     1     -34.000   7.753   4.410  1.00 20.00     0.026 C 
HETATM    9 CL9  UNL     1     -35.530   5.542   4.434  1.00 20.00    -0.125 Cl
ENDBRANCH   6   7
ENDBRANCH   4   6
TORSDOF 2
ENDMDL
