MODEL 1
REMARK VINA RESULT:      -2.4      0.000      0.000
REMARK  2 active torsions:
REMARK  status: ('A' for Active; 'I' for Inactive)
REMARK    1  A    between atoms: C3_3  and  C4_4 
REMARK    2  A    between atoms: C4_4  and  C5_5 
ROOT
HETATM    1  C1  UNL     1     -32.232   8.907   0.996  1.00 20.00     0.059 C 
HETATM    2  C3  UNL     1     -32.026   7.960   2.100  1.00 20.00     0.125 C 
HETATM    3  N6  UNL     1     -32.395   9.658   0.126  1.00 20.00    -0.197 NA
ENDROOT
BRANCH   2   4
HETATM    4  C4  UNL     1     -32.815   6.661   1.904  1.00 20.00     0.034 C 
BRANCH   4   5
HETATM    5  C5  UNL     1     -33.977   6.449   2.887  1.00 20.00     0.079 C 
HETATM    6  C2  UNL     1     -33.956   7.498   3.994  1.00 20.00     0.026 C 
HETATM    7 CL7  UNL     1     -33.901   4.824   3.633  1.00 20.00    -0.125 Cl
ENDBRANCH   4   5
ENDBRANCH   2   4
TORSDOF 2
ENDMDL
MODEL 2
REMARK VINA RESULT:      -2.3      1.144      1.556
REMARK  2 active torsions:
REMARK  status: ('A' for Active; 'I' for Inactive)
REMARK    1  A    between atoms: C3_3  and  C4_4 
REMARK    2  A    between atoms: C4_4  and  C5_5 
ROOT
HETATM    1  C1  UNL     1     -32.247   9.286   0.630  1.00 20.00     0.059 C 
HETATM    2  C3  UNL     1     -31.839   8.146   1.462  1.00 20.00     0.125 C 
HETATM    3  N6  UNL     1     -32.567  10.188  -0.028  1.00 20.00    -0.197 NA
ENDROOT
BRANCH   2   4
HETATM    4  C4  UNL     1     -32.719   7.992   2.706  1.00 20.00     0.034 C 
BRANCH   4   5
HETATM    5  C5  UNL     1     -33.198   6.561   2.995  1.00 20.00     0.079 C 
HETATM    6  C2  UNL     1     -33.206   5.720   1.722  1.00 20.00     0.026 C 
HETATM    7 CL7  UNL     1     -34.845   6.561   3.695  1.00 20.00    -0.125 Cl
ENDBRANCH   4   5
ENDBRANCH   2   4
TORSDOF 2
ENDMDL
MODEL 3
REMARK VINA RESULT:      -2.3      1.511      1.541
REMARK  2 active torsions:
REMARK  status: ('A' for Active; 'I' for Inactive)
REMARK    1  A    between atoms: C3_3  and  C4_4 
REMARK    2  A    between atoms: C4_4  and  C5_5 
ROOT
HETATM    1  C1  UNL     1     -32.255   8.899   1.019  1.00 20.00     0.059 C 
HETATM    2  C3  UNL     1     -32.048   7.791   1.960  1.00 20.00     0.125 C 
HETATM    3  N6  UNL     1     -32.418   9.777   0.276  1.00 20.00    -0.197 NA
ENDROOT
BRANCH   2   4
HETATM    4  C4  UNL     1     -33.320   6.963   2.170  1.00 20.00     0.034 C 
BRANCH   4   5
HETATM    5  C5  UNL     1     -33.713   6.728   3.637  1.00 20.00     0.079 C 
HETATM    6  C2  UNL     1     -35.188   6.358   3.755  1.00 20.00     0.026 C 
HETATM    7 CL7  UNL     1     -33.403   8.185   4.628  1.00 20.00    -0.125 Cl
ENDBRANCH   4   5
ENDBRANCH   2   4
TORSDOF 2
ENDMDL
MODEL 4
REMARK VINA RESULT:      -2.2      3.492      4.413
REMARK  2 active torsions:
REMARK  status: ('A' for Active; 'I' for Inactive)
REMARK    1  A    between atoms: C3_3  and  C4_4 
REMARK    2  A    between atoms: C4_4  and  C5_5 
ROOT
HETATM    1  C1  UNL     1     -34.501   4.945   4.145  1.00 20.00     0.059 C 
HETATM    2  C3  UNL     1     -34.811   6.341   3.807  1.00 20.00     0.125 C 
HETATM    3  N6  UNL     1     -34.257   3.842   4.413  1.00 20.00    -0.197 NA
ENDROOT
BRANCH   2   4
HETATM    4  C4  UNL     1     -33.558   7.141   3.439  1.00 20.00     0.034 C 
BRANCH   4   5
HETATM    5  C5  UNL     1     -33.159   7.087   1.956  1.00 20.00     0.079 C 
HETATM    6  C2  UNL     1     -32.518   5.747   1.611  1.00 20.00     0.026 C 
HETATM    7 CL7  UNL     1     -32.010   8.397   1.549  1.00 20.00    -0.125 Cl
ENDBRANCH   4   5
ENDBRANCH   2   4
TORSDOF 2
ENDMDL
MODEL 5
REMARK VINA RESULT:      -2.2      1.203      1.338
REMARK  2 active torsions:
REMARK  status: ('A' for Active; 'I' for Inactive)
REMARK    1  A    between atoms: C3_3  and  C4_4 
REMARK    2  A    between atoms: C4_4  and  C5_5 
ROOT
HETATM    1  C1  UNL     1     -32.232   9.415   0.534  1.00 20.00     0.059 C 
HETATM    2  C3  UNL     1     -31.607   8.345   1.321  1.00 20.00     0.125 C 
HETATM    3  N6  UNL     1     -32.725  10.262  -0.089  1.00 20.00    -0.197 NA
ENDROOT
BRANCH   2   4
HETATM    4  C4  UNL     1     -32.460   7.936   2.526  1.00 20.00     0.034 C 
BRANCH   4   5
HETATM    5  C5  UNL     1     -33.489   6.828   2.253  1.00 20.00     0.079 C 
HETATM    6  C2  UNL     1     -34.187   6.400   3.540  1.00 20.00     0.026 C 
HETATM    7 CL7  UNL     1     -32.712   5.394   1.515  1.00 20.00    -0.125 Cl
ENDBRANCH   4   5
ENDBRANCH   2   4
TORSDOF 2
ENDMDL
MODEL 6
REMARK VINA RESULT:      -2.1      3.108      4.139
REMARK  2 active torsions:
REMARK  status: ('A' for Active; 'I' for Inactive)
REMARK    1  A    between atoms: C3_3  and  C4_4 
REMARK    2  A    between atoms: C4_4  and  C5_5 
ROOT
HETATM    1  C1  UNL     1     -34.517   4.933   4.115  1.00 20.00     0.059 C 
HETATM    2  C3  UNL     1     -35.048   6.251   3.743  1.00 20.00     0.125 C 
HETATM    3  N6  UNL     1     -34.098   3.891   4.409  1.00 20.00    -0.197 NA
ENDROOT
BRANCH   2   4
HETATM    4  C4  UNL     1     -33.945   7.308   3.621  1.00 20.00     0.034 C 
BRANCH   4   5
HETATM    5  C5  UNL     1     -32.766   6.920   2.715  1.00 20.00     0.079 C 
HETATM    6  C2  UNL     1     -32.153   8.153   2.059  1.00 20.00     0.026 C 
HETATM    7 CL7  UNL     1     -33.284   5.783   1.433  1.00 20.00    -0.125 Cl
ENDBRANCH   4   5
ENDBRANCH   2   4
TORSDOF 2
ENDMDL
MODEL 7
REMARK VINA RESULT:      -2.0      1.336      1.617
REMARK  2 active torsions:
REMARK  status: ('A' for Active; 'I' for Inactive)
REMARK    1  A    between atoms: C3_3  and  C4_4 
REMARK    2  A    between atoms: C4_4  and  C5_5 
ROOT
HETATM    1  C1  UNL     1     -32.174   7.337   1.518  1.00 20.00     0.059 C 
HETATM    2  C3  UNL     1     -32.793   6.005   1.559  1.00 20.00     0.125 C 
HETATM    3  N6  UNL     1     -31.684   8.389   1.484  1.00 20.00    -0.197 NA
ENDROOT
BRANCH   2   4
HETATM    4  C4  UNL     1     -33.276   5.633   2.965  1.00 20.00     0.034 C 
BRANCH   4   5
HETATM    5  C5  UNL     1     -34.492   6.425   3.469  1.00 20.00     0.079 C 
HETATM    6  C2  UNL     1     -34.056   7.638   4.282  1.00 20.00     0.026 C 
HETATM    7 CL7  UNL     1     -35.552   5.400   4.485  1.00 20.00    -0.125 Cl
ENDBRANCH   4   5
ENDBRANCH   2   4
TORSDOF 2
ENDMDL
MODEL 8
REMARK VINA RESULT:      -1.9      3.311      4.101
REMARK  2 active torsions:
REMARK  status: ('A' for Active; 'I' for Inactive)
REMARK    1  A    between atoms: C3_3  and  C4_4 
REMARK    2  A    between atoms: C4_4  and  C5_5 
ROOT
HETATM    1  C1  UNL     1     -34.944   6.464   4.119  1.00 20.00     0.059 C 
HETATM    2  C3  UNL     1     -34.196   7.722   3.989  1.00 20.00     0.125 C 
HETATM    3  N6  UNL     1     -35.536   5.471   4.224  1.00 20.00    -0.197 NA
ENDROOT
BRANCH   2   4
HETATM    4  C4  UNL     1     -32.819   7.514   3.351  1.00 20.00     0.034 C 
BRANCH   4   5
HETATM    5  C5  UNL     1     -32.831   7.267   1.835  1.00 20.00     0.079 C 
HETATM    6  C2  UNL     1     -32.317   5.870   1.504  1.00 20.00     0.026 C 
HETATM    7 CL7  UNL     1     -31.820   8.470   0.978  1.00 20.00    -0.125 Cl
ENDBRANCH   4   5
ENDBRANCH   2   4
TORSDOF 2
ENDMDL
MODEL 9
REMARK VINA RESULT:      -1.9      3.668      4.568
REMARK  2 active torsions:
REMARK  status: ('A' for Active; 'I' for Inactive)
REMARK    1  A    between atoms: C3_3  and  C4_4 
REMARK    2  A    between atoms: C4_4  and  C5_5 
ROOT
HETATM    1  C1  UNL     1     -33.629   3.692   4.348  1.00 20.00     0.059 C 
HETATM    2  C3  UNL     1     -34.283   4.867   3.756  1.00 20.00     0.125 C 
HETATM    3  N6  UNL     1     -33.113   2.765   4.818  1.00 20.00    -0.197 NA
ENDROOT
BRANCH   2   4
HETATM    4  C4  UNL     1     -33.407   5.548   2.700  1.00 20.00     0.034 C 
BRANCH   4   5
HETATM    5  C5  UNL     1     -33.541   7.077   2.626  1.00 20.00     0.079 C 
HETATM    6  C2  UNL     1     -32.238   7.718   2.160  1.00 20.00     0.026 C 
HETATM    7 CL7  UNL     1     -33.984   7.763   4.218  1.00 20.00    -0.125 Cl
ENDBRANCH   4   5
ENDBRANCH   2   4
TORSDOF 2
ENDMDL
