MODEL 1
REMARK VINA RESULT:      -1.8      0.000      0.000
REMARK  2 active torsions:
REMARK  status: ('A' for Active; 'I' for Inactive)
REMARK    1  A    between atoms: C4_4  and  C5_5 
REMARK    2  A    between atoms: C4_4  and  C6_6 
ROOT
HETATM    1  C1  UNL     1     -32.103   7.684   1.525  1.00 20.00     0.063 C 
HETATM    2  C2  UNL     1     -31.773   5.345   0.858  1.00 20.00     0.025 C 
HETATM    3  C5  UNL     1     -32.277   6.284   1.957  1.00 20.00     0.090 C 
HETATM    4  N7  UNL     1     -31.967   8.785   1.187  1.00 20.00    -0.197 NA
ENDROOT
BRANCH   3   5
HETATM    5  C4  UNL     1     -33.753   5.977   2.279  1.00 20.00     0.038 C 
BRANCH   5   6
HETATM    6  C6  UNL     1     -34.056   5.717   3.766  1.00 20.00     0.079 C 
HETATM    7  C3  UNL     1     -35.439   6.239   4.139  1.00 20.00     0.026 C 
HETATM    8 CL8  UNL     1     -33.981   3.969   4.141  1.00 20.00    -0.125 Cl
ENDBRANCH   5   6
ENDBRANCH   3   5
TORSDOF 2
ENDMDL
MODEL 2
REMARK VINA RESULT:      -1.8      2.774      4.073
REMARK  2 active torsions:
REMARK  status: ('A' for Active; 'I' for Inactive)
REMARK    1  A    between atoms: C4_4  and  C5_5 
REMARK    2  A    between atoms: C4_4  and  C6_6 
ROOT
HETATM    1  C1  UNL     1     -34.362   5.005   4.173  1.00 20.00     0.063 C 
HETATM    2  C2  UNL     1     -35.785   6.733   3.164  1.00 20.00     0.025 C 
HETATM    3  C5  UNL     1     -34.608   6.458   4.105  1.00 20.00     0.090 C 
HETATM    4  N7  UNL     1     -34.167   3.863   4.227  1.00 20.00    -0.197 NA
ENDROOT
BRANCH   3   5
HETATM    5  C4  UNL     1     -33.357   7.216   3.620  1.00 20.00     0.038 C 
BRANCH   5   6
HETATM    6  C6  UNL     1     -33.130   7.196   2.098  1.00 20.00     0.079 C 
HETATM    7  C3  UNL     1     -32.057   8.201   1.694  1.00 20.00     0.026 C 
HETATM    8 CL8  UNL     1     -32.633   5.569   1.543  1.00 20.00    -0.125 Cl
ENDBRANCH   5   6
ENDBRANCH   3   5
TORSDOF 2
ENDMDL
MODEL 3
REMARK VINA RESULT:      -1.8      1.754      1.892
REMARK  2 active torsions:
REMARK  status: ('A' for Active; 'I' for Inactive)
REMARK    1  A    between atoms: C4_4  and  C5_5 
REMARK    2  A    between atoms: C4_4  and  C6_6 
ROOT
HETATM    1  C1  UNL     1     -32.320   9.044   0.919  1.00 20.00     0.063 C 
HETATM    2  C2  UNL     1     -31.689   6.713   1.362  1.00 20.00     0.025 C 
HETATM    3  C5  UNL     1     -32.319   7.982   1.943  1.00 20.00     0.090 C 
HETATM    4  N7  UNL     1     -32.322   9.880   0.115  1.00 20.00    -0.197 NA
ENDROOT
BRANCH   3   5
HETATM    5  C4  UNL     1     -33.747   7.683   2.441  1.00 20.00     0.038 C 
BRANCH   5   6
HETATM    6  C6  UNL     1     -33.829   7.013   3.825  1.00 20.00     0.079 C 
HETATM    7  C3  UNL     1     -33.629   8.035   4.938  1.00 20.00     0.026 C 
HETATM    8 CL8  UNL     1     -35.411   6.210   4.058  1.00 20.00    -0.125 Cl
ENDBRANCH   5   6
ENDBRANCH   3   5
TORSDOF 2
ENDMDL
MODEL 4
REMARK VINA RESULT:      -1.6      2.300      3.653
REMARK  2 active torsions:
REMARK  status: ('A' for Active; 'I' for Inactive)
REMARK    1  A    between atoms: C4_4  and  C5_5 
REMARK    2  A    between atoms: C4_4  and  C6_6 
ROOT
HETATM    1  C1  UNL     1     -33.786   7.681   4.467  1.00 20.00     0.063 C 
HETATM    2  C2  UNL     1     -35.509   5.954   4.198  1.00 20.00     0.025 C 
HETATM    3  C5  UNL     1     -34.414   6.764   3.498  1.00 20.00     0.090 C 
HETATM    4  N7  UNL     1     -33.290   8.403   5.229  1.00 20.00    -0.197 NA
ENDROOT
BRANCH   3   5
HETATM    5  C4  UNL     1     -33.375   5.815   2.869  1.00 20.00     0.038 C 
BRANCH   5   6
HETATM    6  C6  UNL     1     -32.802   6.277   1.517  1.00 20.00     0.079 C 
HETATM    7  C3  UNL     1     -31.995   7.560   1.677  1.00 20.00     0.026 C 
HETATM    8 CL8  UNL     1     -31.747   5.020   0.803  1.00 20.00    -0.125 Cl
ENDBRANCH   5   6
ENDBRANCH   3   5
TORSDOF 2
ENDMDL
MODEL 5
REMARK VINA RESULT:      -1.4      3.357      4.491
REMARK  2 active torsions:
REMARK  status: ('A' for Active; 'I' for Inactive)
REMARK    1  A    between atoms: C4_4  and  C5_5 
REMARK    2  A    between atoms: C4_4  and  C6_6 
ROOT
HETATM    1  C1  UNL     1     -34.666   6.566   3.974  1.00 20.00     0.063 C 
HETATM    2  C2  UNL     1     -33.317   8.255   5.138  1.00 20.00     0.025 C 
HETATM    3  C5  UNL     1     -33.411   7.339   3.915  1.00 20.00     0.090 C 
HETATM    4  N7  UNL     1     -35.653   5.957   4.020  1.00 20.00    -0.197 NA
ENDROOT
BRANCH   3   5
HETATM    5  C4  UNL     1     -33.329   8.174   2.622  1.00 20.00     0.038 C 
BRANCH   5   6
HETATM    6  C6  UNL     1     -32.056   7.958   1.784  1.00 20.00     0.079 C 
HETATM    7  C3  UNL     1     -31.984   6.529   1.259  1.00 20.00     0.026 C 
HETATM    8 CL8  UNL     1     -32.001   9.085   0.395  1.00 20.00    -0.125 Cl
ENDBRANCH   5   6
ENDBRANCH   3   5
TORSDOF 2
ENDMDL
MODEL 6
REMARK VINA RESULT:      -1.4      2.197      2.509
REMARK  2 active torsions:
REMARK  status: ('A' for Active; 'I' for Inactive)
REMARK    1  A    between atoms: C4_4  and  C5_5 
REMARK    2  A    between atoms: C4_4  and  C6_6 
ROOT
HETATM    1  C1  UNL     1     -32.124   5.371   0.907  1.00 20.00     0.063 C 
HETATM    2  C2  UNL     1     -31.938   7.672   1.742  1.00 20.00     0.025 C 
HETATM    3  C5  UNL     1     -32.850   6.450   1.603  1.00 20.00     0.090 C 
HETATM    4  N7  UNL     1     -31.555   4.522   0.359  1.00 20.00    -0.197 NA
ENDROOT
BRANCH   3   5
HETATM    5  C4  UNL     1     -33.336   5.993   2.993  1.00 20.00     0.038 C 
BRANCH   5   6
HETATM    6  C6  UNL     1     -34.464   6.844   3.603  1.00 20.00     0.079 C 
HETATM    7  C3  UNL     1     -35.513   5.962   4.269  1.00 20.00     0.026 C 
HETATM    8 CL8  UNL     1     -33.819   7.988   4.819  1.00 20.00    -0.125 Cl
ENDBRANCH   5   6
ENDBRANCH   3   5
TORSDOF 2
ENDMDL
MODEL 7
REMARK VINA RESULT:      -1.4      1.578      2.396
REMARK  2 active torsions:
REMARK  status: ('A' for Active; 'I' for Inactive)
REMARK    1  A    between atoms: C4_4  and  C5_5 
REMARK    2  A    between atoms: C4_4  and  C6_6 
ROOT
HETATM    1  C1  UNL     1     -32.684   7.469   2.094  1.00 20.00     0.063 C 
HETATM    2  C2  UNL     1     -34.087   7.547   4.107  1.00 20.00     0.025 C 
HETATM    3  C5  UNL     1     -33.663   6.712   2.895  1.00 20.00     0.090 C 
HETATM    4  N7  UNL     1     -31.914   8.064   1.462  1.00 20.00    -0.197 NA
ENDROOT
BRANCH   3   5
HETATM    5  C4  UNL     1     -33.081   5.363   3.362  1.00 20.00     0.038 C 
BRANCH   5   6
HETATM    6  C6  UNL     1     -34.125   4.298   3.747  1.00 20.00     0.079 C 
HETATM    7  C3  UNL     1     -33.496   3.200   4.595  1.00 20.00     0.026 C 
HETATM    8 CL8  UNL     1     -35.479   5.027   4.660  1.00 20.00    -0.125 Cl
ENDBRANCH   5   6
ENDBRANCH   3   5
TORSDOF 2
ENDMDL
MODEL 8
REMARK VINA RESULT:      -1.3      3.347      4.368
REMARK  2 active torsions:
REMARK  status: ('A' for Active; 'I' for Inactive)
REMARK    1  A    between atoms: C4_4  and  C5_5 
REMARK    2  A    between atoms: C4_4  and  C6_6 
ROOT
HETATM    1  C1  UNL     1     -33.833   6.878   3.048  1.00 20.00     0.063 C 
HETATM    2  C2  UNL     1     -32.245   5.648   1.636  1.00 20.00     0.025 C 
HETATM    3  C5  UNL     1     -33.084   6.922   1.778  1.00 20.00     0.090 C 
HETATM    4  N7  UNL     1     -34.424   6.845   4.046  1.00 20.00    -0.197 NA
ENDROOT
BRANCH   3   5
HETATM    5  C4  UNL     1     -32.173   8.164   1.708  1.00 20.00     0.038 C 
BRANCH   5   6
HETATM    6  C6  UNL     1     -32.283   8.982   0.408  1.00 20.00     0.079 C 
HETATM    7  C3  UNL     1     -32.649  10.431   0.706  1.00 20.00     0.026 C 
HETATM    8 CL8  UNL     1     -30.743   8.953  -0.502  1.00 20.00    -0.125 Cl
ENDBRANCH   5   6
ENDBRANCH   3   5
TORSDOF 2
ENDMDL
MODEL 9
REMARK VINA RESULT:      -1.1      1.687      2.135
REMARK  2 active torsions:
REMARK  status: ('A' for Active; 'I' for Inactive)
REMARK    1  A    between atoms: C4_4  and  C5_5 
REMARK    2  A    between atoms: C4_4  and  C6_6 
ROOT
HETATM    1  C1  UNL     1     -32.664   5.962   1.617  1.00 20.00     0.063 C 
HETATM    2  C2  UNL     1     -32.124   8.350   1.799  1.00 20.00     0.025 C 
HETATM    3  C5  UNL     1     -33.139   7.257   2.141  1.00 20.00     0.090 C 
HETATM    4  N7  UNL     1     -32.292   4.944   1.205  1.00 20.00    -0.197 NA
ENDROOT
BRANCH   3   5
HETATM    5  C4  UNL     1     -33.357   7.197   3.666  1.00 20.00     0.038 C 
BRANCH   5   6
HETATM    6  C6  UNL     1     -34.629   6.456   4.116  1.00 20.00     0.079 C 
HETATM    7  C3  UNL     1     -35.801   6.776   3.196  1.00 20.00     0.026 C 
HETATM    8 CL8  UNL     1     -34.371   4.685   4.126  1.00 20.00    -0.125 Cl
ENDBRANCH   5   6
ENDBRANCH   3   5
TORSDOF 2
ENDMDL
