MODEL 1
REMARK VINA RESULT:      -2.5      0.000      0.000
REMARK  3 active torsions:
REMARK  status: ('A' for Active; 'I' for Inactive)
REMARK    1  A    between atoms: C4_4  and  C5_5 
REMARK    2  A    between atoms: C5_5  and  C7_7 
REMARK    3  A    between atoms: C6_6  and  C7_7 
ROOT
HETATM    1  C1  UNL     1     -34.366   4.274   4.370  1.00 20.00     0.059 C 
HETATM    2  C4  UNL     1     -35.394   5.316   4.507  1.00 20.00     0.125 C 
HETATM    3  N8  UNL     1     -33.556   3.451   4.263  1.00 20.00    -0.197 NA
ENDROOT
BRANCH   2   4
HETATM    4  C5  UNL     1     -35.050   6.540   3.649  1.00 20.00     0.034 C 
BRANCH   4   5
HETATM    5  C7  UNL     1     -33.536   6.792   3.531  1.00 20.00     0.086 C 
HETATM    6 CL9  UNL     1     -33.061   8.204   4.531  1.00 20.00    -0.125 Cl
BRANCH   5   7
HETATM    7  C6  UNL     1     -33.076   6.957   2.059  1.00 20.00    -0.004 C 
HETATM    8  C2  UNL     1     -32.003   8.044   1.918  1.00 20.00     0.011 C 
HETATM    9  C3  UNL     1     -32.588   5.661   1.403  1.00 20.00     0.011 C 
ENDBRANCH   5   7
ENDBRANCH   4   5
ENDBRANCH   2   4
TORSDOF 3
ENDMDL
MODEL 2
REMARK VINA RESULT:      -2.5      3.277      4.965
REMARK  3 active torsions:
REMARK  status: ('A' for Active; 'I' for Inactive)
REMARK    1  A    between atoms: C4_4  and  C5_5 
REMARK    2  A    between atoms: C5_5  and  C7_7 
REMARK    3  A    between atoms: C6_6  and  C7_7 
ROOT
HETATM    1  C1  UNL     1     -32.336   9.564   0.369  1.00 20.00     0.059 C 
HETATM    2  C4  UNL     1     -31.926   8.229   0.828  1.00 20.00     0.125 C 
HETATM    3  N8  UNL     1     -32.659  10.617   0.004  1.00 20.00    -0.197 NA
ENDROOT
BRANCH   2   4
HETATM    4  C5  UNL     1     -31.978   8.137   2.359  1.00 20.00     0.034 C 
BRANCH   4   5
HETATM    5  C7  UNL     1     -32.799   6.938   2.866  1.00 20.00     0.086 C 
HETATM    6 CL9  UNL     1     -33.193   5.835   1.507  1.00 20.00    -0.125 Cl
BRANCH   5   7
HETATM    7  C6  UNL     1     -34.076   7.374   3.631  1.00 20.00    -0.004 C 
HETATM    8  C2  UNL     1     -35.031   6.197   3.861  1.00 20.00     0.011 C 
HETATM    9  C3  UNL     1     -33.800   8.085   4.961  1.00 20.00     0.011 C 
ENDBRANCH   5   7
ENDBRANCH   4   5
ENDBRANCH   2   4
TORSDOF 3
ENDMDL
MODEL 3
REMARK VINA RESULT:      -2.1      2.735      4.245
REMARK  3 active torsions:
REMARK  status: ('A' for Active; 'I' for Inactive)
REMARK    1  A    between atoms: C4_4  and  C5_5 
REMARK    2  A    between atoms: C5_5  and  C7_7 
REMARK    3  A    between atoms: C6_6  and  C7_7 
ROOT
HETATM    1  C1  UNL     1     -31.941   7.650   1.334  1.00 20.00     0.059 C 
HETATM    2  C4  UNL     1     -31.804   6.186   1.309  1.00 20.00     0.125 C 
HETATM    3  N8  UNL     1     -32.047   8.805   1.352  1.00 20.00    -0.197 NA
ENDROOT
BRANCH   2   4
HETATM    4  C5  UNL     1     -33.115   5.507   1.723  1.00 20.00     0.034 C 
BRANCH   4   5
HETATM    5  C7  UNL     1     -33.384   5.580   3.237  1.00 20.00     0.086 C 
HETATM    6 CL9  UNL     1     -33.806   3.955   3.872  1.00 20.00    -0.125 Cl
BRANCH   5   7
HETATM    7  C6  UNL     1     -34.467   6.629   3.597  1.00 20.00    -0.004 C 
HETATM    8  C2  UNL     1     -35.651   5.994   4.337  1.00 20.00     0.011 C 
HETATM    9  C3  UNL     1     -33.942   7.828   4.394  1.00 20.00     0.011 C 
ENDBRANCH   5   7
ENDBRANCH   4   5
ENDBRANCH   2   4
TORSDOF 3
ENDMDL
MODEL 4
REMARK VINA RESULT:      -2.0      0.549      1.297
REMARK  3 active torsions:
REMARK  status: ('A' for Active; 'I' for Inactive)
REMARK    1  A    between atoms: C4_4  and  C5_5 
REMARK    2  A    between atoms: C5_5  and  C7_7 
REMARK    3  A    between atoms: C6_6  and  C7_7 
ROOT
HETATM    1  C1  UNL     1     -34.555   4.652   4.264  1.00 20.00     0.059 C 
HETATM    2  C4  UNL     1     -35.356   5.884   4.201  1.00 20.00     0.125 C 
HETATM    3  N8  UNL     1     -33.926   3.679   4.313  1.00 20.00    -0.197 NA
ENDROOT
BRANCH   2   4
HETATM    4  C5  UNL     1     -34.652   6.951   3.354  1.00 20.00     0.034 C 
BRANCH   4   5
HETATM    5  C7  UNL     1     -33.133   7.012   3.596  1.00 20.00     0.086 C 
HETATM    6 CL9  UNL     1     -32.727   8.408   4.649  1.00 20.00    -0.125 Cl
BRANCH   5   7
HETATM    7  C6  UNL     1     -32.322   7.044   2.274  1.00 20.00    -0.004 C 
HETATM    8  C2  UNL     1     -32.747   5.921   1.320  1.00 20.00     0.011 C 
HETATM    9  C3  UNL     1     -32.365   8.389   1.542  1.00 20.00     0.011 C 
ENDBRANCH   5   7
ENDBRANCH   4   5
ENDBRANCH   2   4
TORSDOF 3
ENDMDL
MODEL 5
REMARK VINA RESULT:      -1.9      1.610      2.221
REMARK  3 active torsions:
REMARK  status: ('A' for Active; 'I' for Inactive)
REMARK    1  A    between atoms: C4_4  and  C5_5 
REMARK    2  A    between atoms: C5_5  and  C7_7 
REMARK    3  A    between atoms: C6_6  and  C7_7 
ROOT
HETATM    1  C1  UNL     1     -34.502   4.955   4.113  1.00 20.00     0.059 C 
HETATM    2  C4  UNL     1     -34.845   6.330   3.722  1.00 20.00     0.125 C 
HETATM    3  N8  UNL     1     -34.234   3.869   4.420  1.00 20.00    -0.197 NA
ENDROOT
BRANCH   2   4
HETATM    4  C5  UNL     1     -33.580   7.158   3.468  1.00 20.00     0.034 C 
BRANCH   4   5
HETATM    5  C7  UNL     1     -33.130   7.141   1.996  1.00 20.00     0.086 C 
HETATM    6 CL9  UNL     1     -32.717   5.469   1.492  1.00 20.00    -0.125 Cl
BRANCH   5   7
HETATM    7  C6  UNL     1     -31.961   8.122   1.721  1.00 20.00    -0.004 C 
HETATM    8  C2  UNL     1     -32.362   9.223   0.732  1.00 20.00     0.011 C 
HETATM    9  C3  UNL     1     -31.361   8.754   2.982  1.00 20.00     0.011 C 
ENDBRANCH   5   7
ENDBRANCH   4   5
ENDBRANCH   2   4
TORSDOF 3
ENDMDL
MODEL 6
REMARK VINA RESULT:      -1.8      2.780      4.500
REMARK  3 active torsions:
REMARK  status: ('A' for Active; 'I' for Inactive)
REMARK    1  A    between atoms: C4_4  and  C5_5 
REMARK    2  A    between atoms: C5_5  and  C7_7 
REMARK    3  A    between atoms: C6_6  and  C7_7 
ROOT
HETATM    1  C1  UNL     1     -32.199   9.216   0.678  1.00 20.00     0.059 C 
HETATM    2  C4  UNL     1     -31.618   8.364   1.725  1.00 20.00     0.125 C 
HETATM    3  N8  UNL     1     -32.656   9.890  -0.149  1.00 20.00    -0.197 NA
ENDROOT
BRANCH   2   4
HETATM    4  C5  UNL     1     -32.459   7.098   1.930  1.00 20.00     0.034 C 
BRANCH   4   5
HETATM    5  C7  UNL     1     -33.623   7.298   2.918  1.00 20.00     0.086 C 
HETATM    6 CL9  UNL     1     -33.022   8.018   4.448  1.00 20.00    -0.125 Cl
BRANCH   5   7
HETATM    7  C6  UNL     1     -34.412   5.989   3.178  1.00 20.00    -0.004 C 
HETATM    8  C2  UNL     1     -33.477   4.812   3.480  1.00 20.00     0.011 C 
HETATM    9  C3  UNL     1     -35.473   6.102   4.278  1.00 20.00     0.011 C 
ENDBRANCH   5   7
ENDBRANCH   4   5
ENDBRANCH   2   4
TORSDOF 3
ENDMDL
MODEL 7
REMARK VINA RESULT:      -1.7      1.566      2.122
REMARK  3 active torsions:
REMARK  status: ('A' for Active; 'I' for Inactive)
REMARK    1  A    between atoms: C4_4  and  C5_5 
REMARK    2  A    between atoms: C5_5  and  C7_7 
REMARK    3  A    between atoms: C6_6  and  C7_7 
ROOT
HETATM    1  C1  UNL     1     -34.568   4.981   4.160  1.00 20.00     0.059 C 
HETATM    2  C4  UNL     1     -35.000   6.355   3.868  1.00 20.00     0.125 C 
HETATM    3  N8  UNL     1     -34.230   3.895   4.390  1.00 20.00    -0.197 NA
ENDROOT
BRANCH   2   4
HETATM    4  C5  UNL     1     -33.792   7.268   3.621  1.00 20.00     0.034 C 
BRANCH   4   5
HETATM    5  C7  UNL     1     -33.382   7.342   2.139  1.00 20.00     0.086 C 
HETATM    6 CL9  UNL     1     -32.871   5.724   1.554  1.00 20.00    -0.125 Cl
BRANCH   5   7
HETATM    7  C6  UNL     1     -32.289   8.411   1.879  1.00 20.00    -0.004 C 
HETATM    8  C2  UNL     1     -30.907   7.776   1.685  1.00 20.00     0.011 C 
HETATM    9  C3  UNL     1     -32.596   9.351   0.708  1.00 20.00     0.011 C 
ENDBRANCH   5   7
ENDBRANCH   4   5
ENDBRANCH   2   4
TORSDOF 3
ENDMDL
MODEL 8
REMARK VINA RESULT:      -1.6      3.015      4.505
REMARK  3 active torsions:
REMARK  status: ('A' for Active; 'I' for Inactive)
REMARK    1  A    between atoms: C4_4  and  C5_5 
REMARK    2  A    between atoms: C5_5  and  C7_7 
REMARK    3  A    between atoms: C6_6  and  C7_7 
ROOT
HETATM    1  C1  UNL     1     -32.280   9.478   0.418  1.00 20.00     0.059 C 
HETATM    2  C4  UNL     1     -31.639   8.351   1.112  1.00 20.00     0.125 C 
HETATM    3  N8  UNL     1     -32.785  10.366  -0.131  1.00 20.00    -0.197 NA
ENDROOT
BRANCH   2   4
HETATM    4  C5  UNL     1     -32.176   8.213   2.543  1.00 20.00     0.034 C 
BRANCH   4   5
HETATM    5  C7  UNL     1     -33.398   7.282   2.644  1.00 20.00     0.086 C 
HETATM    6 CL9  UNL     1     -34.282   7.583   4.177  1.00 20.00    -0.125 Cl
BRANCH   5   7
HETATM    7  C6  UNL     1     -33.018   5.786   2.492  1.00 20.00    -0.004 C 
HETATM    8  C2  UNL     1     -33.867   4.888   3.399  1.00 20.00     0.011 C 
HETATM    9  C3  UNL     1     -33.074   5.267   1.051  1.00 20.00     0.011 C 
ENDBRANCH   5   7
ENDBRANCH   4   5
ENDBRANCH   2   4
TORSDOF 3
ENDMDL
MODEL 9
REMARK VINA RESULT:      -0.8      1.797      2.713
REMARK  3 active torsions:
REMARK  status: ('A' for Active; 'I' for Inactive)
REMARK    1  A    between atoms: C4_4  and  C5_5 
REMARK    2  A    between atoms: C5_5  and  C7_7 
REMARK    3  A    between atoms: C6_6  and  C7_7 
ROOT
HETATM    1  C1  UNL     1     -34.783   6.370   3.983  1.00 20.00     0.059 C 
HETATM    2  C4  UNL     1     -33.853   7.417   3.537  1.00 20.00     0.125 C 
HETATM    3  N8  UNL     1     -35.519   5.545   4.336  1.00 20.00    -0.197 NA
ENDROOT
BRANCH   2   4
HETATM    4  C5  UNL     1     -33.229   7.054   2.183  1.00 20.00     0.034 C 
BRANCH   4   5
HETATM    5  C7  UNL     1     -32.012   7.927   1.824  1.00 20.00     0.086 C 
HETATM    6 CL9  UNL     1     -31.466   8.853   3.260  1.00 20.00    -0.125 Cl
BRANCH   5   7
HETATM    7  C6  UNL     1     -32.288   8.861   0.617  1.00 20.00    -0.004 C 
HETATM    8  C2  UNL     1     -32.714  10.263   1.069  1.00 20.00     0.011 C 
HETATM    9  C3  UNL     1     -31.124   8.968  -0.374  1.00 20.00     0.011 C 
ENDBRANCH   5   7
ENDBRANCH   4   5
ENDBRANCH   2   4
TORSDOF 3
ENDMDL
