MODEL 1
REMARK VINA RESULT:      -1.4      0.000      0.000
REMARK  2 active torsions:
REMARK  status: ('A' for Active; 'I' for Inactive)
REMARK    1  A    between atoms: C4_4  and  C5_5 
REMARK    2  A    between atoms: C4_4  and  C6_6 
ROOT
HETATM    1  C1  UNL     1     -33.940   4.398   4.116  1.00 20.00     0.063 C 
HETATM    2  C2  UNL     1     -35.549   6.250   4.068  1.00 20.00     0.025 C 
HETATM    3  C5  UNL     1     -34.110   5.822   3.767  1.00 20.00     0.090 C 
HETATM    4  N7  UNL     1     -33.804   3.278   4.391  1.00 20.00    -0.197 NA
ENDROOT
BRANCH   3   5
HETATM    5  C4  UNL     1     -33.783   6.076   2.281  1.00 20.00     0.034 C 
BRANCH   5   6
HETATM    6  C6  UNL     1     -32.289   6.237   1.967  1.00 20.00     0.055 C 
HETATM    7  C3  UNL     1     -31.869   5.361   0.794  1.00 20.00     0.022 C 
HETATM    8 BR8  UNL     1     -31.896   8.099   1.494  1.00 20.00    -0.092 Br
ENDBRANCH   5   6
ENDBRANCH   3   5
TORSDOF 2
ENDMDL
MODEL 2
REMARK VINA RESULT:      -1.3      3.778      4.948
REMARK  2 active torsions:
REMARK  status: ('A' for Active; 'I' for Inactive)
REMARK    1  A    between atoms: C4_4  and  C5_5 
REMARK    2  A    between atoms: C4_4  and  C6_6 
ROOT
HETATM    1  C1  UNL     1     -32.261   9.082   0.791  1.00 20.00     0.063 C 
HETATM    2  C2  UNL     1     -31.835   6.717   1.293  1.00 20.00     0.025 C 
HETATM    3  C5  UNL     1     -32.237   8.076   1.871  1.00 20.00     0.090 C 
HETATM    4  N7  UNL     1     -32.279   9.873  -0.058  1.00 20.00    -0.197 NA
ENDROOT
BRANCH   3   5
HETATM    5  C4  UNL     1     -33.612   7.969   2.565  1.00 20.00     0.034 C 
BRANCH   5   6
HETATM    6  C6  UNL     1     -33.610   7.186   3.885  1.00 20.00     0.055 C 
HETATM    7  C3  UNL     1     -33.552   8.120   5.086  1.00 20.00     0.022 C 
HETATM    8 BR8  UNL     1     -35.246   6.116   4.037  1.00 20.00    -0.092 Br
ENDBRANCH   5   6
ENDBRANCH   3   5
TORSDOF 2
ENDMDL
MODEL 3
REMARK VINA RESULT:      -1.2      3.080      4.447
REMARK  2 active torsions:
REMARK  status: ('A' for Active; 'I' for Inactive)
REMARK    1  A    between atoms: C4_4  and  C5_5 
REMARK    2  A    between atoms: C4_4  and  C6_6 
ROOT
HETATM    1  C1  UNL     1     -32.096   7.748   1.515  1.00 20.00     0.063 C 
HETATM    2  C2  UNL     1     -31.793   5.401   0.865  1.00 20.00     0.025 C 
HETATM    3  C5  UNL     1     -32.284   6.353   1.959  1.00 20.00     0.090 C 
HETATM    4  N7  UNL     1     -31.949   8.846   1.168  1.00 20.00    -0.197 NA
ENDROOT
BRANCH   3   5
HETATM    5  C4  UNL     1     -33.764   6.064   2.286  1.00 20.00     0.034 C 
BRANCH   5   6
HETATM    6  C6  UNL     1     -34.065   5.840   3.774  1.00 20.00     0.055 C 
HETATM    7  C3  UNL     1     -35.495   6.234   4.118  1.00 20.00     0.022 C 
HETATM    8 BR8  UNL     1     -33.840   3.946   4.230  1.00 20.00    -0.092 Br
ENDBRANCH   5   6
ENDBRANCH   3   5
TORSDOF 2
ENDMDL
MODEL 4
REMARK VINA RESULT:      -1.1      1.580      1.747
REMARK  2 active torsions:
REMARK  status: ('A' for Active; 'I' for Inactive)
REMARK    1  A    between atoms: C4_4  and  C5_5 
REMARK    2  A    between atoms: C4_4  and  C6_6 
ROOT
HETATM    1  C1  UNL     1     -34.338   5.020   4.163  1.00 20.00     0.063 C 
HETATM    2  C2  UNL     1     -35.717   6.782   3.154  1.00 20.00     0.025 C 
HETATM    3  C5  UNL     1     -34.544   6.480   4.089  1.00 20.00     0.090 C 
HETATM    4  N7  UNL     1     -34.176   3.872   4.222  1.00 20.00    -0.197 NA
ENDROOT
BRANCH   3   5
HETATM    5  C4  UNL     1     -33.272   7.199   3.592  1.00 20.00     0.034 C 
BRANCH   5   6
HETATM    6  C6  UNL     1     -33.113   7.248   2.066  1.00 20.00     0.055 C 
HETATM    7  C3  UNL     1     -32.148   8.346   1.642  1.00 20.00     0.022 C 
HETATM    8 BR8  UNL     1     -32.406   5.542   1.406  1.00 20.00    -0.092 Br
ENDBRANCH   5   6
ENDBRANCH   3   5
TORSDOF 2
ENDMDL
MODEL 5
REMARK VINA RESULT:      -1.1      2.090      2.294
REMARK  2 active torsions:
REMARK  status: ('A' for Active; 'I' for Inactive)
REMARK    1  A    between atoms: C4_4  and  C5_5 
REMARK    2  A    between atoms: C4_4  and  C6_6 
ROOT
HETATM    1  C1  UNL     1     -34.676   6.552   3.989  1.00 20.00     0.063 C 
HETATM    2  C2  UNL     1     -33.318   8.242   5.139  1.00 20.00     0.025 C 
HETATM    3  C5  UNL     1     -33.436   7.347   3.903  1.00 20.00     0.090 C 
HETATM    4  N7  UNL     1     -35.651   5.925   4.056  1.00 20.00    -0.197 NA
ENDROOT
BRANCH   3   5
HETATM    5  C4  UNL     1     -33.412   8.208   2.623  1.00 20.00     0.034 C 
BRANCH   5   6
HETATM    6  C6  UNL     1     -32.121   8.105   1.799  1.00 20.00     0.055 C 
HETATM    7  C3  UNL     1     -31.943   6.711   1.214  1.00 20.00     0.022 C 
HETATM    8 BR8  UNL     1     -32.169   9.378   0.308  1.00 20.00    -0.092 Br
ENDBRANCH   5   6
ENDBRANCH   3   5
TORSDOF 2
ENDMDL
MODEL 6
REMARK VINA RESULT:      -1.1      2.745      4.005
REMARK  2 active torsions:
REMARK  status: ('A' for Active; 'I' for Inactive)
REMARK    1  A    between atoms: C4_4  and  C5_5 
REMARK    2  A    between atoms: C4_4  and  C6_6 
ROOT
HETATM    1  C1  UNL     1     -32.194   7.387   1.553  1.00 20.00     0.063 C 
HETATM    2  C2  UNL     1     -33.255   5.401   0.576  1.00 20.00     0.025 C 
HETATM    3  C5  UNL     1     -32.453   5.949   1.759  1.00 20.00     0.090 C 
HETATM    4  N7  UNL     1     -31.990   8.518   1.391  1.00 20.00    -0.197 NA
ENDROOT
BRANCH   3   5
HETATM    5  C4  UNL     1     -33.218   5.701   3.076  1.00 20.00     0.034 C 
BRANCH   5   6
HETATM    6  C6  UNL     1     -34.259   6.773   3.429  1.00 20.00     0.055 C 
HETATM    7  C3  UNL     1     -35.519   6.153   4.018  1.00 20.00     0.022 C 
HETATM    8 BR8  UNL     1     -33.524   8.013   4.760  1.00 20.00    -0.092 Br
ENDBRANCH   5   6
ENDBRANCH   3   5
TORSDOF 2
ENDMDL
MODEL 7
REMARK VINA RESULT:      -0.9      1.984      2.190
REMARK  2 active torsions:
REMARK  status: ('A' for Active; 'I' for Inactive)
REMARK    1  A    between atoms: C4_4  and  C5_5 
REMARK    2  A    between atoms: C4_4  and  C6_6 
ROOT
HETATM    1  C1  UNL     1     -33.980   7.514   4.443  1.00 20.00     0.063 C 
HETATM    2  C2  UNL     1     -34.937   5.257   4.320  1.00 20.00     0.025 C 
HETATM    3  C5  UNL     1     -34.812   6.614   3.622  1.00 20.00     0.090 C 
HETATM    4  N7  UNL     1     -33.326   8.223   5.089  1.00 20.00    -0.197 NA
ENDROOT
BRANCH   3   5
HETATM    5  C4  UNL     1     -34.213   6.429   2.212  1.00 20.00     0.034 C 
BRANCH   5   6
HETATM    6  C6  UNL     1     -32.680   6.359   2.166  1.00 20.00     0.055 C 
HETATM    7  C3  UNL     1     -32.200   5.299   1.184  1.00 20.00     0.022 C 
HETATM    8 BR8  UNL     1     -31.943   8.084   1.592  1.00 20.00    -0.092 Br
ENDBRANCH   5   6
ENDBRANCH   3   5
TORSDOF 2
ENDMDL
MODEL 8
REMARK VINA RESULT:      -0.8      2.968      4.257
REMARK  2 active torsions:
REMARK  status: ('A' for Active; 'I' for Inactive)
REMARK    1  A    between atoms: C4_4  and  C5_5 
REMARK    2  A    between atoms: C4_4  and  C6_6 
ROOT
HETATM    1  C1  UNL     1     -32.286   8.134   1.464  1.00 20.00     0.063 C 
HETATM    2  C2  UNL     1     -31.896   5.711   1.505  1.00 20.00     0.025 C 
HETATM    3  C5  UNL     1     -32.593   6.888   2.193  1.00 20.00     0.090 C 
HETATM    4  N7  UNL     1     -32.045   9.114   0.891  1.00 20.00    -0.197 NA
ENDROOT
BRANCH   3   5
HETATM    5  C4  UNL     1     -34.114   6.637   2.257  1.00 20.00     0.034 C 
BRANCH   5   6
HETATM    6  C6  UNL     1     -34.747   6.850   3.639  1.00 20.00     0.055 C 
HETATM    7  C3  UNL     1     -35.023   5.525   4.335  1.00 20.00     0.022 C 
HETATM    8 BR8  UNL     1     -33.536   7.886   4.782  1.00 20.00    -0.092 Br
ENDBRANCH   5   6
ENDBRANCH   3   5
TORSDOF 2
ENDMDL
MODEL 9
REMARK VINA RESULT:      -0.7      3.243      4.087
REMARK  2 active torsions:
REMARK  status: ('A' for Active; 'I' for Inactive)
REMARK    1  A    between atoms: C4_4  and  C5_5 
REMARK    2  A    between atoms: C4_4  and  C6_6 
ROOT
HETATM    1  C1  UNL     1     -32.540   7.623   2.039  1.00 20.00     0.063 C 
HETATM    2  C2  UNL     1     -33.854   7.746   4.109  1.00 20.00     0.025 C 
HETATM    3  C5  UNL     1     -33.729   7.089   2.732  1.00 20.00     0.090 C 
HETATM    4  N7  UNL     1     -31.606   8.043   1.494  1.00 20.00    -0.197 NA
ENDROOT
BRANCH   3   5
HETATM    5  C4  UNL     1     -33.646   5.556   2.884  1.00 20.00     0.034 C 
BRANCH   5   6
HETATM    6  C6  UNL     1     -34.008   5.024   4.277  1.00 20.00     0.055 C 
HETATM    7  C3  UNL     1     -35.512   5.055   4.512  1.00 20.00     0.022 C 
HETATM    8 BR8  UNL     1     -33.411   3.165   4.466  1.00 20.00    -0.092 Br
ENDBRANCH   5   6
ENDBRANCH   3   5
TORSDOF 2
ENDMDL
