MODEL 1
REMARK VINA RESULT:      -2.1      0.000      0.000
REMARK  0 active torsions:
REMARK  status: ('A' for Active; 'I' for Inactive)
ROOT
HETATM    1  C1  UNL     1     -32.370   7.714   2.043  1.00 20.00     0.095 C 
HETATM    2  C2  UNL     1     -33.543   5.626   2.453  1.00 20.00     0.011 C 
HETATM    3  C3  UNL     1     -33.275   6.900   2.763  1.00 20.00     0.020 C 
HETATM    4  C4  UNL     1     -34.035   7.348   3.971  1.00 20.00     0.051 C 
HETATM    5  C5  UNL     1     -35.098   6.256   4.109  1.00 20.00     0.029 C 
HETATM    6  C6  UNL     1     -34.529   5.025   3.400  1.00 20.00     0.106 C 
HETATM    7  N7  UNL     1     -31.628   8.382   1.451  1.00 20.00    -0.192 NA
HETATM    8 CL8  UNL     1     -33.689   3.944   4.533  1.00 20.00    -0.121 Cl
ENDROOT
TORSDOF 0
ENDMDL
MODEL 2
REMARK VINA RESULT:      -1.5      3.164      3.948
REMARK  0 active torsions:
REMARK  status: ('A' for Active; 'I' for Inactive)
ROOT
HETATM    1  C1  UNL     1     -34.625   6.433   3.765  1.00 20.00     0.095 C 
HETATM    2  C2  UNL     1     -33.044   6.994   2.008  1.00 20.00     0.011 C 
HETATM    3  C3  UNL     1     -33.543   7.174   3.237  1.00 20.00     0.020 C 
HETATM    4  C4  UNL     1     -32.826   8.263   3.971  1.00 20.00     0.051 C 
HETATM    5  C5  UNL     1     -31.563   8.447   3.128  1.00 20.00     0.029 C 
HETATM    6  C6  UNL     1     -31.912   7.929   1.731  1.00 20.00     0.106 C 
HETATM    7  N7  UNL     1     -35.513   5.825   4.198  1.00 20.00    -0.192 NA
HETATM    8 CL8  UNL     1     -32.464   9.238   0.663  1.00 20.00    -0.121 Cl
ENDROOT
TORSDOF 0
ENDMDL
MODEL 3
REMARK VINA RESULT:      -1.5      1.507      2.126
REMARK  0 active torsions:
REMARK  status: ('A' for Active; 'I' for Inactive)
ROOT
HETATM    1  C1  UNL     1     -32.301   8.534   1.234  1.00 20.00     0.095 C 
HETATM    2  C2  UNL     1     -33.356   7.670   3.244  1.00 20.00     0.011 C 
HETATM    3  C3  UNL     1     -32.848   7.493   2.018  1.00 20.00     0.020 C 
HETATM    4  C4  UNL     1     -32.948   6.067   1.578  1.00 20.00     0.051 C 
HETATM    5  C5  UNL     1     -33.247   5.341   2.892  1.00 20.00     0.029 C 
HETATM    6  C6  UNL     1     -33.868   6.389   3.818  1.00 20.00     0.106 C 
HETATM    7  N7  UNL     1     -31.851   9.388   0.590  1.00 20.00    -0.192 NA
HETATM    8 CL8  UNL     1     -35.644   6.365   3.739  1.00 20.00    -0.121 Cl
ENDROOT
TORSDOF 0
ENDMDL
MODEL 4
REMARK VINA RESULT:      -0.9      3.055      3.841
REMARK  0 active torsions:
REMARK  status: ('A' for Active; 'I' for Inactive)
ROOT
HETATM    1  C1  UNL     1     -33.606   3.388   4.222  1.00 20.00     0.095 C 
HETATM    2  C2  UNL     1     -34.715   5.550   4.250  1.00 20.00     0.011 C 
HETATM    3  C3  UNL     1     -33.787   4.715   3.767  1.00 20.00     0.020 C 
HETATM    4  C4  UNL     1     -32.958   5.363   2.704  1.00 20.00     0.051 C 
HETATM    5  C5  UNL     1     -33.789   6.600   2.353  1.00 20.00     0.029 C 
HETATM    6  C6  UNL     1     -34.656   6.884   3.581  1.00 20.00     0.106 C 
HETATM    7  N7  UNL     1     -33.459   2.299   4.595  1.00 20.00    -0.192 NA
HETATM    8 CL8  UNL     1     -33.891   8.066   4.667  1.00 20.00    -0.121 Cl
ENDROOT
TORSDOF 0
ENDMDL
MODEL 5
REMARK VINA RESULT:      -0.7      2.946      3.911
REMARK  0 active torsions:
REMARK  status: ('A' for Active; 'I' for Inactive)
ROOT
HETATM    1  C1  UNL     1     -34.630   5.561   3.893  1.00 20.00     0.095 C 
HETATM    2  C2  UNL     1     -33.581   7.616   3.132  1.00 20.00     0.011 C 
HETATM    3  C3  UNL     1     -33.726   6.286   3.083  1.00 20.00     0.020 C 
HETATM    4  C4  UNL     1     -32.803   5.665   2.083  1.00 20.00     0.051 C 
HETATM    5  C5  UNL     1     -32.353   6.874   1.260  1.00 20.00     0.029 C 
HETATM    6  C6  UNL     1     -32.545   8.092   2.167  1.00 20.00     0.106 C 
HETATM    7  N7  UNL     1     -35.373   4.966   4.557  1.00 20.00    -0.192 NA
HETATM    8 CL8  UNL     1     -31.054   8.500   3.043  1.00 20.00    -0.121 Cl
ENDROOT
TORSDOF 0
ENDMDL
MODEL 6
REMARK VINA RESULT:       0.2      2.509      3.253
REMARK  0 active torsions:
REMARK  status: ('A' for Active; 'I' for Inactive)
ROOT
HETATM    1  C1  UNL     1     -33.708   7.747   4.186  1.00 20.00     0.095 C 
HETATM    2  C2  UNL     1     -33.365   5.908   2.636  1.00 20.00     0.011 C 
HETATM    3  C3  UNL     1     -33.179   7.182   3.002  1.00 20.00     0.020 C 
HETATM    4  C4  UNL     1     -32.362   7.933   1.999  1.00 20.00     0.051 C 
HETATM    5  C5  UNL     1     -31.760   6.804   1.160  1.00 20.00     0.029 C 
HETATM    6  C6  UNL     1     -32.696   5.606   1.335  1.00 20.00     0.106 C 
HETATM    7  N7  UNL     1     -34.140   8.210   5.157  1.00 20.00    -0.192 NA
HETATM    8 CL8  UNL     1     -33.911   5.526   0.040  1.00 20.00    -0.121 Cl
ENDROOT
TORSDOF 0
ENDMDL
MODEL 7
REMARK VINA RESULT:       0.2      2.200      2.672
REMARK  0 active torsions:
REMARK  status: ('A' for Active; 'I' for Inactive)
ROOT
HETATM    1  C1  UNL     1     -32.370   9.582   0.549  1.00 20.00     0.095 C 
HETATM    2  C2  UNL     1     -32.910   7.216   0.674  1.00 20.00     0.011 C 
HETATM    3  C3  UNL     1     -32.535   8.365   1.250  1.00 20.00     0.020 C 
HETATM    4  C4  UNL     1     -32.298   8.197   2.717  1.00 20.00     0.051 C 
HETATM    5  C5  UNL     1     -32.965   6.849   3.002  1.00 20.00     0.029 C 
HETATM    6  C6  UNL     1     -32.988   6.102   1.666  1.00 20.00     0.106 C 
HETATM    7  N7  UNL     1     -32.235  10.580  -0.026  1.00 20.00    -0.192 NA
HETATM    8 CL8  UNL     1     -31.578   5.037   1.484  1.00 20.00    -0.121 Cl
ENDROOT
TORSDOF 0
ENDMDL
MODEL 8
REMARK VINA RESULT:       0.3      3.111      3.720
REMARK  0 active torsions:
REMARK  status: ('A' for Active; 'I' for Inactive)
ROOT
HETATM    1  C1  UNL     1     -33.622   3.751   4.164  1.00 20.00     0.095 C 
HETATM    2  C2  UNL     1     -32.726   5.241   2.467  1.00 20.00     0.011 C 
HETATM    3  C3  UNL     1     -33.586   4.976   3.457  1.00 20.00     0.020 C 
HETATM    4  C4  UNL     1     -34.511   6.124   3.710  1.00 20.00     0.051 C 
HETATM    5  C5  UNL     1     -33.816   7.270   2.971  1.00 20.00     0.029 C 
HETATM    6  C6  UNL     1     -32.936   6.610   1.907  1.00 20.00     0.106 C 
HETATM    7  N7  UNL     1     -33.651   2.747   4.745  1.00 20.00    -0.192 NA
HETATM    8 CL8  UNL     1     -33.772   6.495   0.342  1.00 20.00    -0.121 Cl
ENDROOT
TORSDOF 0
ENDMDL
MODEL 9
REMARK VINA RESULT:       0.4      2.310      3.039
REMARK  0 active torsions:
REMARK  status: ('A' for Active; 'I' for Inactive)
ROOT
HETATM    1  C1  UNL     1     -32.145   5.328   1.123  1.00 20.00     0.095 C 
HETATM    2  C2  UNL     1     -33.559   6.495   2.717  1.00 20.00     0.011 C 
HETATM    3  C3  UNL     1     -32.545   6.477   1.844  1.00 20.00     0.020 C 
HETATM    4  C4  UNL     1     -31.880   7.813   1.740  1.00 20.00     0.051 C 
HETATM    5  C5  UNL     1     -32.902   8.738   2.404  1.00 20.00     0.029 C 
HETATM    6  C6  UNL     1     -33.735   7.847   3.328  1.00 20.00     0.106 C 
HETATM    7  N7  UNL     1     -31.818   4.386   0.530  1.00 20.00    -0.192 NA
HETATM    8 CL8  UNL     1     -33.097   7.842   4.987  1.00 20.00    -0.121 Cl
ENDROOT
TORSDOF 0
ENDMDL
