MODEL 1
REMARK VINA RESULT:      -2.8      0.000      0.000
REMARK  0 active torsions:
REMARK  status: ('A' for Active; 'I' for Inactive)
ROOT
HETATM    1  C1  UNL     1     -32.250   8.984   0.986  1.00 20.00     0.064 C 
HETATM    2  C2  UNL     1     -32.104   6.537   1.430  1.00 20.00     0.021 C 
HETATM    3  C3  UNL     1     -33.376   5.871   1.944  1.00 20.00     0.021 C 
HETATM    4  C4  UNL     1     -33.282   7.993   3.014  1.00 20.00     0.039 C 
HETATM    5  C5  UNL     1     -32.107   7.956   2.025  1.00 20.00     0.094 C 
HETATM    6  C6  UNL     1     -33.578   6.527   3.299  1.00 20.00     0.083 C 
HETATM    7  N7  UNL     1     -32.363   9.796   0.164  1.00 20.00    -0.197 NA
HETATM    8 CL8  UNL     1     -35.212   6.278   3.931  1.00 20.00    -0.125 Cl
ENDROOT
TORSDOF 0
ENDMDL
MODEL 2
REMARK VINA RESULT:      -1.1      2.003      2.792
REMARK  0 active torsions:
REMARK  status: ('A' for Active; 'I' for Inactive)
ROOT
HETATM    1  C1  UNL     1     -32.658   7.386   2.208  1.00 20.00     0.064 C 
HETATM    2  C2  UNL     1     -34.723   6.727   3.436  1.00 20.00     0.021 C 
HETATM    3  C3  UNL     1     -34.554   5.650   4.503  1.00 20.00     0.021 C 
HETATM    4  C4  UNL     1     -33.140   5.003   2.703  1.00 20.00     0.039 C 
HETATM    5  C5  UNL     1     -33.717   6.376   2.326  1.00 20.00     0.094 C 
HETATM    6  C6  UNL     1     -34.148   4.431   3.692  1.00 20.00     0.083 C 
HETATM    7  N7  UNL     1     -31.822   8.186   2.114  1.00 20.00    -0.197 NA
HETATM    8 CL8  UNL     1     -33.455   3.152   4.699  1.00 20.00    -0.125 Cl
ENDROOT
TORSDOF 0
ENDMDL
MODEL 3
REMARK VINA RESULT:      -1.0      3.257      3.963
REMARK  0 active torsions:
REMARK  status: ('A' for Active; 'I' for Inactive)
ROOT
HETATM    1  C1  UNL     1     -34.001   4.647   3.692  1.00 20.00     0.064 C 
HETATM    2  C2  UNL     1     -33.144   5.646   1.577  1.00 20.00     0.021 C 
HETATM    3  C3  UNL     1     -32.006   6.652   1.723  1.00 20.00     0.021 C 
HETATM    4  C4  UNL     1     -33.472   7.067   3.549  1.00 20.00     0.039 C 
HETATM    5  C5  UNL     1     -34.026   5.831   2.824  1.00 20.00     0.094 C 
HETATM    6  C6  UNL     1     -32.658   7.792   2.485  1.00 20.00     0.083 C 
HETATM    7  N7  UNL     1     -33.981   3.710   4.378  1.00 20.00    -0.197 NA
HETATM    8 CL8  UNL     1     -31.470   8.902   3.183  1.00 20.00    -0.125 Cl
ENDROOT
TORSDOF 0
ENDMDL
MODEL 4
REMARK VINA RESULT:      -0.5      3.502      4.393
REMARK  0 active torsions:
REMARK  status: ('A' for Active; 'I' for Inactive)
ROOT
HETATM    1  C1  UNL     1     -33.581   3.538   4.249  1.00 20.00     0.064 C 
HETATM    2  C2  UNL     1     -33.325   5.187   2.399  1.00 20.00     0.021 C 
HETATM    3  C3  UNL     1     -33.054   6.629   2.818  1.00 20.00     0.021 C 
HETATM    4  C4  UNL     1     -34.626   5.784   4.391  1.00 20.00     0.039 C 
HETATM    5  C5  UNL     1     -34.245   4.603   3.486  1.00 20.00     0.094 C 
HETATM    6  C6  UNL     1     -34.331   7.016   3.544  1.00 20.00     0.083 C 
HETATM    7  N7  UNL     1     -33.057   2.696   4.851  1.00 20.00    -0.197 NA
HETATM    8 CL8  UNL     1     -34.132   8.477   4.522  1.00 20.00    -0.125 Cl
ENDROOT
TORSDOF 0
ENDMDL
MODEL 5
REMARK VINA RESULT:      -0.4      2.837      3.412
REMARK  0 active torsions:
REMARK  status: ('A' for Active; 'I' for Inactive)
ROOT
HETATM    1  C1  UNL     1     -33.467   8.087   4.715  1.00 20.00     0.064 C 
HETATM    2  C2  UNL     1     -34.603   6.101   3.727  1.00 20.00     0.021 C 
HETATM    3  C3  UNL     1     -33.704   5.111   2.992  1.00 20.00     0.021 C 
HETATM    4  C4  UNL     1     -32.864   7.269   2.451  1.00 20.00     0.039 C 
HETATM    5  C5  UNL     1     -33.985   7.488   3.478  1.00 20.00     0.094 C 
HETATM    6  C6  UNL     1     -33.196   5.925   1.815  1.00 20.00     0.083 C 
HETATM    7  N7  UNL     1     -33.058   8.559   5.693  1.00 20.00    -0.197 NA
HETATM    8 CL8  UNL     1     -31.791   5.180   1.039  1.00 20.00    -0.125 Cl
ENDROOT
TORSDOF 0
ENDMDL
MODEL 6
REMARK VINA RESULT:      -0.2      2.250      2.903
REMARK  0 active torsions:
REMARK  status: ('A' for Active; 'I' for Inactive)
ROOT
HETATM    1  C1  UNL     1     -32.062   5.382   1.232  1.00 20.00     0.064 C 
HETATM    2  C2  UNL     1     -32.093   7.855   1.530  1.00 20.00     0.021 C 
HETATM    3  C3  UNL     1     -32.168   8.357   2.968  1.00 20.00     0.021 C 
HETATM    4  C4  UNL     1     -33.585   6.448   2.877  1.00 20.00     0.039 C 
HETATM    5  C5  UNL     1     -32.910   6.551   1.500  1.00 20.00     0.094 C 
HETATM    6  C6  UNL     1     -33.531   7.867   3.427  1.00 20.00     0.083 C 
HETATM    7  N7  UNL     1     -31.392   4.458   1.019  1.00 20.00    -0.197 NA
HETATM    8 CL8  UNL     1     -33.707   7.916   5.187  1.00 20.00    -0.125 Cl
ENDROOT
TORSDOF 0
ENDMDL
MODEL 7
REMARK VINA RESULT:      -0.1      3.059      3.925
REMARK  0 active torsions:
REMARK  status: ('A' for Active; 'I' for Inactive)
ROOT
HETATM    1  C1  UNL     1     -34.633   6.356   3.652  1.00 20.00     0.064 C 
HETATM    2  C2  UNL     1     -32.679   7.847   4.052  1.00 20.00     0.021 C 
HETATM    3  C3  UNL     1     -32.371   8.861   2.954  1.00 20.00     0.021 C 
HETATM    4  C4  UNL     1     -33.028   6.870   1.830  1.00 20.00     0.039 C 
HETATM    5  C5  UNL     1     -33.221   6.602   3.330  1.00 20.00     0.094 C 
HETATM    6  C6  UNL     1     -31.985   7.979   1.779  1.00 20.00     0.083 C 
HETATM    7  N7  UNL     1     -35.749   6.161   3.907  1.00 20.00    -0.197 NA
HETATM    8 CL8  UNL     1     -32.008   8.857   0.243  1.00 20.00    -0.125 Cl
ENDROOT
TORSDOF 0
ENDMDL
