MODEL 1
REMARK VINA RESULT:       0.7      0.000      0.000
REMARK  1 active torsions:
REMARK  status: ('A' for Active; 'I' for Inactive)
REMARK    1  A    between atoms: C6_6  and  O11_11 
ROOT
HETATM    1  C1  UNL     1     -33.480   3.126   4.339  1.00 20.00     0.095 C 
HETATM    2  C2  UNL     1     -34.878   5.063   4.351  1.00 20.00     0.022 C 
HETATM    3  C3  UNL     1     -33.731   4.480   3.964  1.00 20.00     0.021 C 
HETATM    4  C4  UNL     1     -32.703   5.210   3.135  1.00 20.00     0.058 C 
HETATM    5  C5  UNL     1     -34.115   7.287   3.370  1.00 20.00     0.045 C 
HETATM    6  C6  UNL     1     -35.243   6.485   4.034  1.00 20.00     0.143 C 
HETATM    7  C7  UNL     1     -33.253   6.453   2.391  1.00 20.00    -0.041 C 
HETATM    8  C8  UNL     1     -32.072   7.315   1.904  1.00 20.00     0.015 C 
HETATM    9  C9  UNL     1     -34.066   6.024   1.154  1.00 20.00     0.015 C 
HETATM   10  N10 UNL     1     -33.276   2.026   4.644  1.00 20.00    -0.192 NA
ENDROOT
BRANCH   6  11
HETATM   11  O11 UNL     1     -36.389   6.497   3.184  1.00 20.00    -0.392 OA
HETATM   12  H24 UNL     1     -36.555   5.574   2.933  1.00 20.00     0.210 HD
ENDBRANCH   6  11
TORSDOF 1
ENDMDL
MODEL 2
REMARK VINA RESULT:       1.5      2.419      3.201
REMARK  1 active torsions:
REMARK  status: ('A' for Active; 'I' for Inactive)
REMARK    1  A    between atoms: C6_6  and  O11_11 
ROOT
HETATM    1  C1  UNL     1     -34.896   6.201   4.107  1.00 20.00     0.095 C 
HETATM    2  C2  UNL     1     -33.359   7.724   3.095  1.00 20.00     0.022 C 
HETATM    3  C3  UNL     1     -33.823   6.468   3.205  1.00 20.00     0.021 C 
HETATM    4  C4  UNL     1     -33.250   5.330   2.395  1.00 20.00     0.058 C 
HETATM    5  C5  UNL     1     -31.510   6.938   1.529  1.00 20.00     0.045 C 
HETATM    6  C6  UNL     1     -32.223   8.122   2.196  1.00 20.00     0.143 C 
HETATM    7  C7  UNL     1     -32.460   5.779   1.140  1.00 20.00    -0.041 C 
HETATM    8  C8  UNL     1     -31.621   4.595   0.621  1.00 20.00     0.015 C 
HETATM    9  C9  UNL     1     -33.428   6.201   0.016  1.00 20.00     0.015 C 
HETATM   10  N10 UNL     1     -35.768   5.985   4.840  1.00 20.00    -0.192 NA
ENDROOT
BRANCH   6  11
HETATM   11  O11 UNL     1     -32.711   9.004   1.187  1.00 20.00    -0.392 OA
HETATM   12  H24 UNL     1     -31.951   9.528   0.889  1.00 20.00     0.210 HD
ENDBRANCH   6  11
TORSDOF 1
ENDMDL
MODEL 3
REMARK VINA RESULT:       2.1      2.642      3.615
REMARK  1 active torsions:
REMARK  status: ('A' for Active; 'I' for Inactive)
REMARK    1  A    between atoms: C6_6  and  O11_11 
ROOT
HETATM    1  C1  UNL     1     -34.834   6.277   3.878  1.00 20.00     0.095 C 
HETATM    2  C2  UNL     1     -33.264   5.478   2.265  1.00 20.00     0.022 C 
HETATM    3  C3  UNL     1     -33.890   6.521   2.837  1.00 20.00     0.021 C 
HETATM    4  C4  UNL     1     -33.616   7.945   2.417  1.00 20.00     0.058 C 
HETATM    5  C5  UNL     1     -32.142   7.031   0.586  1.00 20.00     0.045 C 
HETATM    6  C6  UNL     1     -32.268   5.609   1.148  1.00 20.00     0.143 C 
HETATM    7  C7  UNL     1     -32.279   8.138   1.659  1.00 20.00    -0.041 C 
HETATM    8  C8  UNL     1     -32.287   9.513   0.964  1.00 20.00     0.015 C 
HETATM    9  C9  UNL     1     -31.093   8.114   2.644  1.00 20.00     0.015 C 
HETATM   10  N10 UNL     1     -35.601   6.079   4.725  1.00 20.00    -0.192 NA
ENDROOT
BRANCH   6  11
HETATM   11  O11 UNL     1     -30.990   5.172   1.607  1.00 20.00    -0.392 OA
HETATM   12  H24 UNL     1     -31.148   4.389   2.158  1.00 20.00     0.210 HD
ENDBRANCH   6  11
TORSDOF 1
ENDMDL
MODEL 4
REMARK VINA RESULT:       2.1      3.522      4.828
REMARK  1 active torsions:
REMARK  status: ('A' for Active; 'I' for Inactive)
REMARK    1  A    between atoms: C6_6  and  O11_11 
ROOT
HETATM    1  C1  UNL     1     -32.329   9.461   0.631  1.00 20.00     0.095 C 
HETATM    2  C2  UNL     1     -32.246   7.100   0.981  1.00 20.00     0.022 C 
HETATM    3  C3  UNL     1     -32.556   8.318   1.455  1.00 20.00     0.021 C 
HETATM    4  C4  UNL     1     -33.150   8.514   2.829  1.00 20.00     0.058 C 
HETATM    5  C5  UNL     1     -32.830   6.044   3.225  1.00 20.00     0.045 C 
HETATM    6  C6  UNL     1     -32.422   5.828   1.761  1.00 20.00     0.143 C 
HETATM    7  C7  UNL     1     -33.792   7.239   3.432  1.00 20.00    -0.041 C 
HETATM    8  C8  UNL     1     -34.012   7.451   4.942  1.00 20.00     0.015 C 
HETATM    9  C9  UNL     1     -35.166   6.972   2.787  1.00 20.00     0.015 C 
HETATM   10  N10 UNL     1     -32.144  10.389  -0.038  1.00 20.00    -0.192 NA
ENDROOT
BRANCH   6  11
HETATM   11  O11 UNL     1     -33.400   5.014   1.117  1.00 20.00    -0.392 OA
HETATM   12  H24 UNL     1     -33.990   5.619   0.641  1.00 20.00     0.210 HD
ENDBRANCH   6  11
TORSDOF 1
ENDMDL
MODEL 5
REMARK VINA RESULT:       2.4      1.675      2.760
REMARK  1 active torsions:
REMARK  status: ('A' for Active; 'I' for Inactive)
REMARK    1  A    between atoms: C6_6  and  O11_11 
ROOT
HETATM    1  C1  UNL     1     -33.200   3.283   4.495  1.00 20.00     0.095 C 
HETATM    2  C2  UNL     1     -32.614   4.702   2.665  1.00 20.00     0.022 C 
HETATM    3  C3  UNL     1     -33.473   4.403   3.654  1.00 20.00     0.021 C 
HETATM    4  C4  UNL     1     -34.714   5.223   3.909  1.00 20.00     0.058 C 
HETATM    5  C5  UNL     1     -34.162   6.547   1.835  1.00 20.00     0.045 C 
HETATM    6  C6  UNL     1     -32.805   5.842   1.705  1.00 20.00     0.143 C 
HETATM    7  C7  UNL     1     -34.675   6.644   3.292  1.00 20.00    -0.041 C 
HETATM    8  C8  UNL     1     -36.100   7.230   3.284  1.00 20.00     0.015 C 
HETATM    9  C9  UNL     1     -33.786   7.575   4.139  1.00 20.00     0.015 C 
HETATM   10  N10 UNL     1     -32.978   2.374   5.178  1.00 20.00    -0.192 NA
ENDROOT
BRANCH   6  11
HETATM   11  O11 UNL     1     -31.761   6.795   1.896  1.00 20.00    -0.392 OA
HETATM   12  H24 UNL     1     -32.183   7.604   2.227  1.00 20.00     0.210 HD
ENDBRANCH   6  11
TORSDOF 1
ENDMDL
MODEL 6
REMARK VINA RESULT:       2.9      2.668      3.746
REMARK  1 active torsions:
REMARK  status: ('A' for Active; 'I' for Inactive)
REMARK    1  A    between atoms: C6_6  and  O11_11 
ROOT
HETATM    1  C1  UNL     1     -31.857   4.974   0.763  1.00 20.00     0.095 C 
HETATM    2  C2  UNL     1     -31.872   7.181   1.677  1.00 20.00     0.022 C 
HETATM    3  C3  UNL     1     -32.470   5.983   1.564  1.00 20.00     0.021 C 
HETATM    4  C4  UNL     1     -33.768   5.668   2.268  1.00 20.00     0.058 C 
HETATM    5  C5  UNL     1     -33.844   8.074   3.020  1.00 20.00     0.045 C 
HETATM    6  C6  UNL     1     -32.431   8.324   2.475  1.00 20.00     0.143 C 
HETATM    7  C7  UNL     1     -34.092   6.609   3.455  1.00 20.00    -0.041 C 
HETATM    8  C8  UNL     1     -35.574   6.444   3.841  1.00 20.00     0.015 C 
HETATM    9  C9  UNL     1     -33.240   6.237   4.685  1.00 20.00     0.015 C 
HETATM   10  N10 UNL     1     -31.357   4.154   0.112  1.00 20.00    -0.192 NA
ENDROOT
BRANCH   6  11
HETATM   11  O11 UNL     1     -31.553   8.612   3.561  1.00 20.00    -0.392 OA
HETATM   12  H24 UNL     1     -30.785   8.029   3.456  1.00 20.00     0.210 HD
ENDBRANCH   6  11
TORSDOF 1
ENDMDL
MODEL 7
REMARK VINA RESULT:       3.2      2.953      3.888
REMARK  1 active torsions:
REMARK  status: ('A' for Active; 'I' for Inactive)
REMARK    1  A    between atoms: C6_6  and  O11_11 
ROOT
HETATM    1  C1  UNL     1     -33.856   7.810   4.611  1.00 20.00     0.095 C 
HETATM    2  C2  UNL     1     -33.393   6.275   2.840  1.00 20.00     0.022 C 
HETATM    3  C3  UNL     1     -33.459   7.548   3.266  1.00 20.00     0.021 C 
HETATM    4  C4  UNL     1     -33.114   8.710   2.366  1.00 20.00     0.058 C 
HETATM    5  C5  UNL     1     -32.857   7.060   0.476  1.00 20.00     0.045 C 
HETATM    6  C6  UNL     1     -33.007   5.878   1.444  1.00 20.00     0.143 C 
HETATM    7  C7  UNL     1     -32.258   8.327   1.133  1.00 20.00    -0.041 C 
HETATM    8  C8  UNL     1     -32.294   9.484   0.115  1.00 20.00     0.015 C 
HETATM    9  C9  UNL     1     -30.790   8.106   1.545  1.00 20.00     0.015 C 
HETATM   10  N10 UNL     1     -34.178   8.023   5.704  1.00 20.00    -0.192 NA
ENDROOT
BRANCH   6  11
HETATM   11  O11 UNL     1     -31.783   5.147   1.485  1.00 20.00    -0.392 OA
HETATM   12  H24 UNL     1     -31.354   5.376   2.325  1.00 20.00     0.210 HD
ENDBRANCH   6  11
TORSDOF 1
ENDMDL
