MODEL 1
REMARK VINA RESULT:      -1.9      0.000      0.000
REMARK  0 active torsions:
REMARK  status: ('A' for Active; 'I' for Inactive)
ROOT
HETATM    1  C1  UNL     1     -33.808   4.011   4.183  1.00 20.00     0.064 C 
HETATM    2  C2  UNL     1     -34.944   6.218   4.202  1.00 20.00     0.020 C 
HETATM    3  C3  UNL     1     -34.133   7.435   3.749  1.00 20.00     0.017 C 
HETATM    4  C4  UNL     1     -33.483   5.632   2.337  1.00 20.00     0.035 C 
HETATM    5  C5  UNL     1     -34.465   5.032   3.348  1.00 20.00     0.094 C 
HETATM    6  C6  UNL     1     -32.918   6.843   3.062  1.00 20.00     0.059 C 
HETATM    7  N7  UNL     1     -33.291   3.208   4.839  1.00 20.00    -0.197 NA
HETATM    8 BR8  UNL     1     -32.111   8.097   1.833  1.00 20.00    -0.091 Br
ENDROOT
TORSDOF 0
ENDMDL
MODEL 2
REMARK VINA RESULT:      -1.5      3.685      4.442
REMARK  0 active torsions:
REMARK  status: ('A' for Active; 'I' for Inactive)
ROOT
HETATM    1  C1  UNL     1     -32.231   8.923   0.924  1.00 20.00     0.064 C 
HETATM    2  C2  UNL     1     -31.787   8.547   3.337  1.00 20.00     0.020 C 
HETATM    3  C3  UNL     1     -32.928   7.979   4.185  1.00 20.00     0.017 C 
HETATM    4  C4  UNL     1     -33.057   6.889   2.073  1.00 20.00     0.035 C 
HETATM    5  C5  UNL     1     -31.919   7.908   1.944  1.00 20.00     0.094 C 
HETATM    6  C6  UNL     1     -33.933   7.468   3.172  1.00 20.00     0.059 C 
HETATM    7  N7  UNL     1     -32.476   9.722   0.121  1.00 20.00    -0.197 NA
HETATM    8 BR8  UNL     1     -35.098   6.128   3.934  1.00 20.00    -0.091 Br
ENDROOT
TORSDOF 0
ENDMDL
MODEL 3
REMARK VINA RESULT:      -0.2      1.987      2.818
REMARK  0 active torsions:
REMARK  status: ('A' for Active; 'I' for Inactive)
ROOT
HETATM    1  C1  UNL     1     -34.484   6.471   3.656  1.00 20.00     0.064 C 
HETATM    2  C2  UNL     1     -32.677   5.775   2.104  1.00 20.00     0.020 C 
HETATM    3  C3  UNL     1     -32.297   6.744   0.982  1.00 20.00     0.017 C 
HETATM    4  C4  UNL     1     -32.763   8.082   2.895  1.00 20.00     0.035 C 
HETATM    5  C5  UNL     1     -33.061   6.639   3.317  1.00 20.00     0.094 C 
HETATM    6  C6  UNL     1     -32.938   8.058   1.385  1.00 20.00     0.059 C 
HETATM    7  N7  UNL     1     -35.605   6.338   3.924  1.00 20.00    -0.197 NA
HETATM    8 BR8  UNL     1     -32.071   9.565   0.543  1.00 20.00    -0.091 Br
ENDROOT
TORSDOF 0
ENDMDL
MODEL 4
REMARK VINA RESULT:       0.0      3.701      4.575
REMARK  0 active torsions:
REMARK  status: ('A' for Active; 'I' for Inactive)
ROOT
HETATM    1  C1  UNL     1     -32.411   9.484   1.078  1.00 20.00     0.064 C 
HETATM    2  C2  UNL     1     -33.239   8.008   2.893  1.00 20.00     0.020 C 
HETATM    3  C3  UNL     1     -33.391   6.518   2.578  1.00 20.00     0.017 C 
HETATM    4  C4  UNL     1     -31.424   7.243   1.452  1.00 20.00     0.035 C 
HETATM    5  C5  UNL     1     -32.017   8.499   2.099  1.00 20.00     0.094 C 
HETATM    6  C6  UNL     1     -32.623   6.325   1.285  1.00 20.00     0.059 C 
HETATM    7  N7  UNL     1     -32.722  10.260   0.274  1.00 20.00    -0.197 NA
HETATM    8 BR8  UNL     1     -32.085   4.486   1.040  1.00 20.00    -0.091 Br
ENDROOT
TORSDOF 0
ENDMDL
MODEL 5
REMARK VINA RESULT:       0.5      2.959      3.669
REMARK  0 active torsions:
REMARK  status: ('A' for Active; 'I' for Inactive)
ROOT
HETATM    1  C1  UNL     1     -34.095   7.571   4.283  1.00 20.00     0.064 C 
HETATM    2  C2  UNL     1     -33.556   6.172   2.305  1.00 20.00     0.020 C 
HETATM    3  C3  UNL     1     -33.008   4.767   2.561  1.00 20.00     0.017 C 
HETATM    4  C4  UNL     1     -34.656   5.158   4.233  1.00 20.00     0.035 C 
HETATM    5  C5  UNL     1     -34.561   6.462   3.433  1.00 20.00     0.094 C 
HETATM    6  C6  UNL     1     -33.297   4.511   4.028  1.00 20.00     0.059 C 
HETATM    7  N7  UNL     1     -33.729   8.445   4.952  1.00 20.00    -0.197 NA
HETATM    8 BR8  UNL     1     -33.339   2.622   4.429  1.00 20.00    -0.091 Br
ENDROOT
TORSDOF 0
ENDMDL
MODEL 6
REMARK VINA RESULT:       0.7      2.573      3.572
REMARK  0 active torsions:
REMARK  status: ('A' for Active; 'I' for Inactive)
ROOT
HETATM    1  C1  UNL     1     -33.713   7.310   3.487  1.00 20.00     0.064 C 
HETATM    2  C2  UNL     1     -31.872   6.821   1.896  1.00 20.00     0.020 C 
HETATM    3  C3  UNL     1     -31.821   7.636   0.601  1.00 20.00     0.017 C 
HETATM    4  C4  UNL     1     -32.521   9.137   2.311  1.00 20.00     0.035 C 
HETATM    5  C5  UNL     1     -32.405   7.766   2.986  1.00 20.00     0.094 C 
HETATM    6  C6  UNL     1     -32.764   8.798   0.850  1.00 20.00     0.059 C 
HETATM    7  N7  UNL     1     -34.742   6.952   3.882  1.00 20.00    -0.197 NA
HETATM    8 BR8  UNL     1     -32.371  10.296  -0.304  1.00 20.00    -0.091 Br
ENDROOT
TORSDOF 0
ENDMDL
MODEL 7
REMARK VINA RESULT:       1.0      2.051      2.674
REMARK  0 active torsions:
REMARK  status: ('A' for Active; 'I' for Inactive)
ROOT
HETATM    1  C1  UNL     1     -35.460   6.424   3.506  1.00 20.00     0.064 C 
HETATM    2  C2  UNL     1     -33.493   5.233   2.571  1.00 20.00     0.020 C 
HETATM    3  C3  UNL     1     -32.576   6.016   1.628  1.00 20.00     0.017 C 
HETATM    4  C4  UNL     1     -33.257   7.543   3.322  1.00 20.00     0.035 C 
HETATM    5  C5  UNL     1     -34.003   6.238   3.618  1.00 20.00     0.094 C 
HETATM    6  C6  UNL     1     -32.975   7.465   1.831  1.00 20.00     0.059 C 
HETATM    7  N7  UNL     1     -36.607   6.570   3.419  1.00 20.00    -0.197 NA
HETATM    8 BR8  UNL     1     -31.563   8.675   1.309  1.00 20.00    -0.091 Br
ENDROOT
TORSDOF 0
ENDMDL
MODEL 8
REMARK VINA RESULT:       1.0      2.707      3.415
REMARK  0 active torsions:
REMARK  status: ('A' for Active; 'I' for Inactive)
ROOT
HETATM    1  C1  UNL     1     -33.538   5.380   0.419  1.00 20.00     0.064 C 
HETATM    2  C2  UNL     1     -31.837   6.990   1.239  1.00 20.00     0.020 C 
HETATM    3  C3  UNL     1     -32.250   7.942   2.365  1.00 20.00     0.017 C 
HETATM    4  C4  UNL     1     -33.289   5.854   2.838  1.00 20.00     0.035 C 
HETATM    5  C5  UNL     1     -32.574   5.665   1.495  1.00 20.00     0.094 C 
HETATM    6  C6  UNL     1     -33.538   7.351   2.905  1.00 20.00     0.059 C 
HETATM    7  N7  UNL     1     -34.296   5.155  -0.429  1.00 20.00    -0.197 NA
HETATM    8 BR8  UNL     1     -33.889   7.936   4.712  1.00 20.00    -0.091 Br
ENDROOT
TORSDOF 0
ENDMDL
