MODEL 1
REMARK VINA RESULT:      -2.5      0.000      0.000
REMARK  2 active torsions:
REMARK  status: ('A' for Active; 'I' for Inactive)
REMARK    1  A    between atoms: C2_2  and  C3_3 
REMARK    2  A    between atoms: C3_3  and  C4_4 
ROOT
HETATM    1  C3  UNL     1     -33.174   6.850   2.405  1.00 20.00     0.402 C 
HETATM    2  F7  UNL     1     -32.572   5.676   2.745  1.00 20.00    -0.189 F 
HETATM    3  F8  UNL     1     -33.935   6.587   1.311  1.00 20.00    -0.189 F 
ENDROOT
BRANCH   1   4
HETATM    4  C2  UNL     1     -34.076   7.264   3.554  1.00 20.00     0.313 C 
HETATM    5  C1  UNL     1     -35.136   6.258   3.946  1.00 20.00     0.097 C 
HETATM    6  F5  UNL     1     -33.294   7.503   4.643  1.00 20.00    -0.200 F 
HETATM    7  F6  UNL     1     -34.679   8.444   3.253  1.00 20.00    -0.200 F 
ENDBRANCH   1   4
BRANCH   1   8
HETATM    8  C4  UNL     1     -32.097   7.835   2.025  1.00 20.00     0.460 C 
HETATM    9  F9  UNL     1     -32.566   8.803   1.211  1.00 20.00    -0.165 F 
HETATM   10  F10 UNL     1     -31.093   7.209   1.372  1.00 20.00    -0.165 F 
HETATM   11  F11 UNL     1     -31.568   8.430   3.115  1.00 20.00    -0.165 F 
ENDBRANCH   1   8
TORSDOF 2
ENDMDL
MODEL 2
REMARK VINA RESULT:      -2.5      1.027      3.220
REMARK  2 active torsions:
REMARK  status: ('A' for Active; 'I' for Inactive)
REMARK    1  A    between atoms: C2_2  and  C3_3 
REMARK    2  A    between atoms: C3_3  and  C4_4 
ROOT
HETATM    1  C3  UNL     1     -33.073   6.567   2.035  1.00 20.00     0.402 C 
HETATM    2  F7  UNL     1     -33.859   6.546   0.923  1.00 20.00    -0.189 F 
HETATM    3  F8  UNL     1     -32.356   5.414   2.018  1.00 20.00    -0.189 F 
ENDROOT
BRANCH   1   4
HETATM    4  C2  UNL     1     -32.125   7.747   1.917  1.00 20.00     0.313 C 
HETATM    5  C1  UNL     1     -32.607   8.886   1.045  1.00 20.00     0.097 C 
HETATM    6  F5  UNL     1     -31.899   8.237   3.167  1.00 20.00    -0.200 F 
HETATM    7  F6  UNL     1     -30.922   7.317   1.454  1.00 20.00    -0.200 F 
ENDBRANCH   1   4
BRANCH   1   8
HETATM    8  C4  UNL     1     -33.973   6.564   3.245  1.00 20.00     0.460 C 
HETATM    9  F9  UNL     1     -33.596   7.486   4.155  1.00 20.00    -0.165 F 
HETATM   10  F10 UNL     1     -33.942   5.358   3.853  1.00 20.00    -0.165 F 
HETATM   11  F11 UNL     1     -35.255   6.818   2.905  1.00 20.00    -0.165 F 
ENDBRANCH   1   8
TORSDOF 2
ENDMDL
MODEL 3
REMARK VINA RESULT:      -2.4      1.025      3.237
REMARK  2 active torsions:
REMARK  status: ('A' for Active; 'I' for Inactive)
REMARK    1  A    between atoms: C2_2  and  C3_3 
REMARK    2  A    between atoms: C3_3  and  C4_4 
ROOT
HETATM    1  C3  UNL     1     -33.074   6.549   2.044  1.00 20.00     0.402 C 
HETATM    2  F7  UNL     1     -33.857   6.512   0.930  1.00 20.00    -0.189 F 
HETATM    3  F8  UNL     1     -32.350   5.400   2.042  1.00 20.00    -0.189 F 
ENDROOT
BRANCH   1   4
HETATM    4  C2  UNL     1     -32.133   7.733   1.917  1.00 20.00     0.313 C 
HETATM    5  C1  UNL     1     -32.627   8.869   1.048  1.00 20.00     0.097 C 
HETATM    6  F5  UNL     1     -31.898   8.225   3.164  1.00 20.00    -0.200 F 
HETATM    7  F6  UNL     1     -30.932   7.308   1.444  1.00 20.00    -0.200 F 
ENDBRANCH   1   4
BRANCH   1   8
HETATM    8  C4  UNL     1     -33.978   6.554   3.252  1.00 20.00     0.460 C 
HETATM    9  F9  UNL     1     -33.986   5.359   3.879  1.00 20.00    -0.165 F 
HETATM   10  F10 UNL     1     -35.251   6.828   2.888  1.00 20.00    -0.165 F 
HETATM   11  F11 UNL     1     -33.597   7.489   4.147  1.00 20.00    -0.165 F 
ENDBRANCH   1   8
TORSDOF 2
ENDMDL
MODEL 4
REMARK VINA RESULT:      -2.4      0.770      2.411
REMARK  2 active torsions:
REMARK  status: ('A' for Active; 'I' for Inactive)
REMARK    1  A    between atoms: C2_2  and  C3_3 
REMARK    2  A    between atoms: C3_3  and  C4_4 
ROOT
HETATM    1  C3  UNL     1     -33.365   7.642   3.381  1.00 20.00     0.402 C 
HETATM    2  F7  UNL     1     -34.311   8.613   3.258  1.00 20.00    -0.189 F 
HETATM    3  F8  UNL     1     -32.844   7.770   4.629  1.00 20.00    -0.189 F 
ENDROOT
BRANCH   1   4
HETATM    4  C2  UNL     1     -34.055   6.295   3.264  1.00 20.00     0.313 C 
HETATM    5  C1  UNL     1     -35.403   6.192   3.943  1.00 20.00     0.097 C 
HETATM    6  F5  UNL     1     -34.225   6.018   1.942  1.00 20.00    -0.200 F 
HETATM    7  F6  UNL     1     -33.240   5.324   3.754  1.00 20.00    -0.200 F 
ENDBRANCH   1   4
BRANCH   1   8
HETATM    8  C4  UNL     1     -32.280   7.915   2.370  1.00 20.00     0.460 C 
HETATM    9  F9  UNL     1     -31.880   6.790   1.743  1.00 20.00    -0.165 F 
HETATM   10  F10 UNL     1     -31.194   8.448   2.974  1.00 20.00    -0.165 F 
HETATM   11  F11 UNL     1     -32.694   8.789   1.428  1.00 20.00    -0.165 F 
ENDBRANCH   1   8
TORSDOF 2
ENDMDL
MODEL 5
REMARK VINA RESULT:      -2.3      1.095      1.505
REMARK  2 active torsions:
REMARK  status: ('A' for Active; 'I' for Inactive)
REMARK    1  A    between atoms: C2_2  and  C3_3 
REMARK    2  A    between atoms: C3_3  and  C4_4 
ROOT
HETATM    1  C3  UNL     1     -33.057   6.565   2.030  1.00 20.00     0.402 C 
HETATM    2  F7  UNL     1     -32.237   5.481   2.119  1.00 20.00    -0.189 F 
HETATM    3  F8  UNL     1     -33.755   6.423   0.873  1.00 20.00    -0.189 F 
ENDROOT
BRANCH   1   4
HETATM    4  C2  UNL     1     -34.020   6.523   3.203  1.00 20.00     0.313 C 
HETATM    5  C1  UNL     1     -33.869   7.642   4.210  1.00 20.00     0.097 C 
HETATM    6  F5  UNL     1     -35.289   6.562   2.713  1.00 20.00    -0.200 F 
HETATM    7  F6  UNL     1     -33.897   5.332   3.846  1.00 20.00    -0.200 F 
ENDBRANCH   1   4
BRANCH   1   8
HETATM    8  C4  UNL     1     -32.195   7.798   1.931  1.00 20.00     0.460 C 
HETATM    9  F9  UNL     1     -32.859   8.834   1.376  1.00 20.00    -0.165 F 
HETATM   10  F10 UNL     1     -31.110   7.555   1.161  1.00 20.00    -0.165 F 
HETATM   11  F11 UNL     1     -31.755   8.190   3.145  1.00 20.00    -0.165 F 
ENDBRANCH   1   8
TORSDOF 2
ENDMDL
MODEL 6
REMARK VINA RESULT:      -2.2      0.775      2.271
REMARK  2 active torsions:
REMARK  status: ('A' for Active; 'I' for Inactive)
REMARK    1  A    between atoms: C2_2  and  C3_3 
REMARK    2  A    between atoms: C3_3  and  C4_4 
ROOT
HETATM    1  C3  UNL     1     -32.813   7.489   2.427  1.00 20.00     0.402 C 
HETATM    2  F7  UNL     1     -33.167   8.387   1.467  1.00 20.00    -0.189 F 
HETATM    3  F8  UNL     1     -31.569   7.843   2.843  1.00 20.00    -0.189 F 
ENDROOT
BRANCH   1   4
HETATM    4  C2  UNL     1     -33.786   7.630   3.584  1.00 20.00     0.313 C 
HETATM    5  C1  UNL     1     -34.720   6.459   3.797  1.00 20.00     0.097 C 
HETATM    6  F5  UNL     1     -33.066   7.811   4.725  1.00 20.00    -0.200 F 
HETATM    7  F6  UNL     1     -34.525   8.758   3.418  1.00 20.00    -0.200 F 
ENDBRANCH   1   4
BRANCH   1   8
HETATM    8  C4  UNL     1     -32.744   6.124   1.789  1.00 20.00     0.460 C 
HETATM    9  F9  UNL     1     -33.046   5.143   2.664  1.00 20.00    -0.165 F 
HETATM   10  F10 UNL     1     -31.497   5.883   1.325  1.00 20.00    -0.165 F 
HETATM   11  F11 UNL     1     -33.594   6.026   0.745  1.00 20.00    -0.165 F 
ENDBRANCH   1   8
TORSDOF 2
ENDMDL
MODEL 7
REMARK VINA RESULT:      -2.2      1.528      3.510
REMARK  2 active torsions:
REMARK  status: ('A' for Active; 'I' for Inactive)
REMARK    1  A    between atoms: C2_2  and  C3_3 
REMARK    2  A    between atoms: C3_3  and  C4_4 
ROOT
HETATM    1  C3  UNL     1     -33.918   6.273   3.142  1.00 20.00     0.402 C 
HETATM    2  F7  UNL     1     -34.237   5.997   1.847  1.00 20.00    -0.189 F 
HETATM    3  F8  UNL     1     -33.076   5.288   3.548  1.00 20.00    -0.189 F 
ENDROOT
BRANCH   1   4
HETATM    4  C2  UNL     1     -33.184   7.602   3.171  1.00 20.00     0.313 C 
HETATM    5  C1  UNL     1     -32.128   7.787   2.103  1.00 20.00     0.097 C 
HETATM    6  F5  UNL     1     -34.102   8.598   3.036  1.00 20.00    -0.200 F 
HETATM    7  F6  UNL     1     -32.612   7.776   4.391  1.00 20.00    -0.200 F 
ENDBRANCH   1   4
BRANCH   1   8
HETATM    8  C4  UNL     1     -35.182   6.202   3.961  1.00 20.00     0.460 C 
HETATM    9  F9  UNL     1     -36.267   6.561   3.244  1.00 20.00    -0.165 F 
HETATM   10  F10 UNL     1     -35.105   7.035   5.022  1.00 20.00    -0.165 F 
HETATM   11  F11 UNL     1     -35.392   4.955   4.434  1.00 20.00    -0.165 F 
ENDBRANCH   1   8
TORSDOF 2
ENDMDL
MODEL 8
REMARK VINA RESULT:      -2.2      1.130      3.323
REMARK  2 active torsions:
REMARK  status: ('A' for Active; 'I' for Inactive)
REMARK    1  A    between atoms: C2_2  and  C3_3 
REMARK    2  A    between atoms: C3_3  and  C4_4 
ROOT
HETATM    1  C3  UNL     1     -33.392   7.669   3.302  1.00 20.00     0.402 C 
HETATM    2  F7  UNL     1     -32.905   7.757   4.570  1.00 20.00    -0.189 F 
HETATM    3  F8  UNL     1     -34.301   8.670   3.171  1.00 20.00    -0.189 F 
ENDROOT
BRANCH   1   4
HETATM    4  C2  UNL     1     -32.243   7.909   2.339  1.00 20.00     0.313 C 
HETATM    5  C1  UNL     1     -32.550   8.823   1.173  1.00 20.00     0.097 C 
HETATM    6  F5  UNL     1     -31.208   8.450   3.040  1.00 20.00    -0.200 F 
HETATM    7  F6  UNL     1     -31.797   6.718   1.861  1.00 20.00    -0.200 F 
ENDBRANCH   1   4
BRANCH   1   8
HETATM    8  C4  UNL     1     -34.101   6.345   3.163  1.00 20.00     0.460 C 
HETATM    9  F9  UNL     1     -33.528   5.386   3.920  1.00 20.00    -0.165 F 
HETATM   10  F10 UNL     1     -34.065   5.923   1.880  1.00 20.00    -0.165 F 
HETATM   11  F11 UNL     1     -35.397   6.441   3.527  1.00 20.00    -0.165 F 
ENDBRANCH   1   8
TORSDOF 2
ENDMDL
MODEL 9
REMARK VINA RESULT:      -2.1      1.260      3.555
REMARK  2 active torsions:
REMARK  status: ('A' for Active; 'I' for Inactive)
REMARK    1  A    between atoms: C2_2  and  C3_3 
REMARK    2  A    between atoms: C3_3  and  C4_4 
ROOT
HETATM    1  C3  UNL     1     -33.811   7.311   3.343  1.00 20.00     0.402 C 
HETATM    2  F7  UNL     1     -32.947   7.577   4.361  1.00 20.00    -0.189 F 
HETATM    3  F8  UNL     1     -34.367   8.500   2.992  1.00 20.00    -0.189 F 
ENDROOT
BRANCH   1   4
HETATM    4  C2  UNL     1     -33.006   6.772   2.173  1.00 20.00     0.313 C 
HETATM    5  C1  UNL     1     -31.911   7.681   1.661  1.00 20.00     0.097 C 
HETATM    6  F5  UNL     1     -32.436   5.596   2.556  1.00 20.00    -0.200 F 
HETATM    7  F6  UNL     1     -33.845   6.471   1.147  1.00 20.00    -0.200 F 
ENDBRANCH   1   4
BRANCH   1   8
HETATM    8  C4  UNL     1     -34.893   6.403   3.871  1.00 20.00     0.460 C 
HETATM    9  F9  UNL     1     -36.023   6.488   3.139  1.00 20.00    -0.165 F 
HETATM   10  F10 UNL     1     -35.209   6.737   5.143  1.00 20.00    -0.165 F 
HETATM   11  F11 UNL     1     -34.496   5.114   3.873  1.00 20.00    -0.165 F 
ENDBRANCH   1   8
TORSDOF 2
ENDMDL
