MODEL 1
REMARK VINA RESULT:      -1.3      0.000      0.000
REMARK  3 active torsions:
REMARK  status: ('A' for Active; 'I' for Inactive)
REMARK    1  A    between atoms: C5_5  and  C7_7 
REMARK    2  A    between atoms: C6_6  and  C8_8 
REMARK    3  A    between atoms: C7_7  and  C8_8 
ROOT
HETATM    1  C1  UNL     1     -32.222   6.490   1.558  1.00 20.00     0.069 C 
HETATM    2  C4  UNL     1     -31.160   8.349   2.758  1.00 20.00     0.031 C 
HETATM    3  C8  UNL     1     -32.353   7.934   1.874  1.00 20.00     0.045 C 
HETATM    4  N9  UNL     1     -32.119   5.360   1.313  1.00 20.00    -0.196 NA
ENDROOT
BRANCH   3   5
HETATM    5  C6  UNL     1     -32.269   8.756   0.556  1.00 20.00     0.020 C 
HETATM    6  C3  UNL     1     -32.636  10.233   0.671  1.00 20.00     0.007 C 
ENDBRANCH   3   5
BRANCH   3   7
HETATM    7  C7  UNL     1     -33.703   8.197   2.595  1.00 20.00     0.024 C 
BRANCH   7   8
HETATM    8  C5  UNL     1     -33.883   7.478   3.941  1.00 20.00    -0.003 C 
HETATM    9  C2  UNL     1     -35.026   6.476   3.881  1.00 20.00     0.005 C 
ENDBRANCH   7   8
ENDBRANCH   3   7
TORSDOF 3
ENDMDL
MODEL 2
REMARK VINA RESULT:      -1.2      2.523      3.898
REMARK  3 active torsions:
REMARK  status: ('A' for Active; 'I' for Inactive)
REMARK    1  A    between atoms: C5_5  and  C7_7 
REMARK    2  A    between atoms: C6_6  and  C8_8 
REMARK    3  A    between atoms: C7_7  and  C8_8 
ROOT
HETATM    1  C1  UNL     1     -33.815   7.381   4.402  1.00 20.00     0.069 C 
HETATM    2  C4  UNL     1     -35.799   6.773   3.092  1.00 20.00     0.031 C 
HETATM    3  C8  UNL     1     -34.417   6.299   3.583  1.00 20.00     0.045 C 
HETATM    4  N9  UNL     1     -33.346   8.227   5.043  1.00 20.00    -0.196 NA
ENDROOT
BRANCH   3   5
HETATM    5  C6  UNL     1     -33.531   6.053   2.327  1.00 20.00     0.020 C 
HETATM    6  C3  UNL     1     -32.618   7.207   1.924  1.00 20.00     0.007 C 
ENDBRANCH   3   5
BRANCH   3   7
HETATM    7  C7  UNL     1     -34.537   5.001   4.427  1.00 20.00     0.024 C 
BRANCH   7   8
HETATM    8  C5  UNL     1     -33.782   3.782   3.875  1.00 20.00    -0.003 C 
HETATM    9  C2  UNL     1     -33.107   3.000   4.992  1.00 20.00     0.005 C 
ENDBRANCH   7   8
ENDBRANCH   3   7
TORSDOF 3
ENDMDL
MODEL 3
REMARK VINA RESULT:      -0.8      1.777      3.751
REMARK  3 active torsions:
REMARK  status: ('A' for Active; 'I' for Inactive)
REMARK    1  A    between atoms: C5_5  and  C7_7 
REMARK    2  A    between atoms: C6_6  and  C8_8 
REMARK    3  A    between atoms: C7_7  and  C8_8 
ROOT
HETATM    1  C1  UNL     1     -33.975   4.859   3.857  1.00 20.00     0.069 C 
HETATM    2  C4  UNL     1     -35.455   6.758   3.382  1.00 20.00     0.031 C 
HETATM    3  C8  UNL     1     -33.996   6.259   3.367  1.00 20.00     0.045 C 
HETATM    4  N9  UNL     1     -33.960   3.763   4.239  1.00 20.00    -0.196 NA
ENDROOT
BRANCH   3   5
HETATM    5  C6  UNL     1     -33.183   7.157   4.345  1.00 20.00     0.020 C 
HETATM    6  C3  UNL     1     -33.935   8.346   4.934  1.00 20.00     0.007 C 
ENDBRANCH   3   5
BRANCH   3   7
HETATM    7  C7  UNL     1     -33.394   6.329   1.937  1.00 20.00     0.024 C 
BRANCH   7   8
HETATM    8  C5  UNL     1     -32.050   7.063   1.822  1.00 20.00    -0.003 C 
HETATM    9  C2  UNL     1     -32.229   8.452   1.227  1.00 20.00     0.005 C 
ENDBRANCH   7   8
ENDBRANCH   3   7
TORSDOF 3
ENDMDL
MODEL 4
REMARK VINA RESULT:      -0.7      1.605      3.583
REMARK  3 active torsions:
REMARK  status: ('A' for Active; 'I' for Inactive)
REMARK    1  A    between atoms: C5_5  and  C7_7 
REMARK    2  A    between atoms: C6_6  and  C8_8 
REMARK    3  A    between atoms: C7_7  and  C8_8 
ROOT
HETATM    1  C1  UNL     1     -33.455   7.443   3.222  1.00 20.00     0.069 C 
HETATM    2  C4  UNL     1     -31.240   8.443   2.889  1.00 20.00     0.031 C 
HETATM    3  C8  UNL     1     -32.396   7.680   2.211  1.00 20.00     0.045 C 
HETATM    4  N9  UNL     1     -34.285   7.258   4.013  1.00 20.00    -0.196 NA
ENDROOT
BRANCH   3   5
HETATM    5  C6  UNL     1     -31.834   6.312   1.726  1.00 20.00     0.020 C 
HETATM    6  C3  UNL     1     -32.859   5.344   1.142  1.00 20.00     0.007 C 
ENDBRANCH   3   5
BRANCH   3   7
HETATM    7  C7  UNL     1     -32.975   8.486   1.016  1.00 20.00     0.024 C 
BRANCH   7   8
HETATM    8  C5  UNL     1     -32.013   9.497   0.375  1.00 20.00    -0.003 C 
HETATM    9  C2  UNL     1     -32.766  10.697  -0.182  1.00 20.00     0.005 C 
ENDBRANCH   7   8
ENDBRANCH   3   7
TORSDOF 3
ENDMDL
MODEL 5
REMARK VINA RESULT:      -0.5      1.825      3.351
REMARK  3 active torsions:
REMARK  status: ('A' for Active; 'I' for Inactive)
REMARK    1  A    between atoms: C5_5  and  C7_7 
REMARK    2  A    between atoms: C6_6  and  C8_8 
REMARK    3  A    between atoms: C7_7  and  C8_8 
ROOT
HETATM    1  C1  UNL     1     -32.445   9.107   1.029  1.00 20.00     0.069 C 
HETATM    2  C4  UNL     1     -31.510   8.642   3.250  1.00 20.00     0.031 C 
HETATM    3  C8  UNL     1     -32.330   8.065   2.078  1.00 20.00     0.045 C 
HETATM    4  N9  UNL     1     -32.534   9.923   0.208  1.00 20.00    -0.196 NA
ENDROOT
BRANCH   3   5
HETATM    5  C6  UNL     1     -33.748   7.725   2.621  1.00 20.00     0.020 C 
HETATM    6  C3  UNL     1     -33.891   7.709   4.140  1.00 20.00     0.007 C 
ENDBRANCH   3   5
BRANCH   3   7
HETATM    7  C7  UNL     1     -31.653   6.796   1.492  1.00 20.00     0.024 C 
BRANCH   7   8
HETATM    8  C5  UNL     1     -32.520   5.528   1.487  1.00 20.00    -0.003 C 
HETATM    9  C2  UNL     1     -32.021   4.524   0.458  1.00 20.00     0.005 C 
ENDBRANCH   7   8
ENDBRANCH   3   7
TORSDOF 3
ENDMDL
MODEL 6
REMARK VINA RESULT:      -0.4      2.432      3.281
REMARK  3 active torsions:
REMARK  status: ('A' for Active; 'I' for Inactive)
REMARK    1  A    between atoms: C5_5  and  C7_7 
REMARK    2  A    between atoms: C6_6  and  C8_8 
REMARK    3  A    between atoms: C7_7  and  C8_8 
ROOT
HETATM    1  C1  UNL     1     -33.883   6.864   3.304  1.00 20.00     0.069 C 
HETATM    2  C4  UNL     1     -34.040   5.947   1.034  1.00 20.00     0.031 C 
HETATM    3  C8  UNL     1     -33.159   6.052   2.296  1.00 20.00     0.045 C 
HETATM    4  N9  UNL     1     -34.450   7.499   4.094  1.00 20.00    -0.196 NA
ENDROOT
BRANCH   3   5
HETATM    5  C6  UNL     1     -31.847   6.785   1.892  1.00 20.00     0.020 C 
HETATM    6  C3  UNL     1     -31.993   8.263   1.545  1.00 20.00     0.007 C 
ENDBRANCH   3   5
BRANCH   3   7
HETATM    7  C7  UNL     1     -32.842   4.647   2.876  1.00 20.00     0.024 C 
BRANCH   7   8
HETATM    8  C5  UNL     1     -33.868   4.101   3.881  1.00 20.00    -0.003 C 
HETATM    9  C2  UNL     1     -33.277   2.973   4.714  1.00 20.00     0.005 C 
ENDBRANCH   7   8
ENDBRANCH   3   7
TORSDOF 3
ENDMDL
MODEL 7
REMARK VINA RESULT:      -0.4      1.051      3.439
REMARK  3 active torsions:
REMARK  status: ('A' for Active; 'I' for Inactive)
REMARK    1  A    between atoms: C5_5  and  C7_7 
REMARK    2  A    between atoms: C6_6  and  C8_8 
REMARK    3  A    between atoms: C7_7  and  C8_8 
ROOT
HETATM    1  C1  UNL     1     -31.918   5.493   1.542  1.00 20.00     0.069 C 
HETATM    2  C4  UNL     1     -33.940   6.526   0.612  1.00 20.00     0.031 C 
HETATM    3  C8  UNL     1     -32.943   6.537   1.788  1.00 20.00     0.045 C 
HETATM    4  N9  UNL     1     -31.115   4.677   1.349  1.00 20.00    -0.196 NA
ENDROOT
BRANCH   3   5
HETATM    5  C6  UNL     1     -33.736   6.183   3.080  1.00 20.00     0.020 C 
HETATM    6  C3  UNL     1     -34.202   7.370   3.918  1.00 20.00     0.007 C 
ENDBRANCH   3   5
BRANCH   3   7
HETATM    7  C7  UNL     1     -32.261   7.926   1.931  1.00 20.00     0.024 C 
BRANCH   7   8
HETATM    8  C5  UNL     1     -31.810   8.577   0.615  1.00 20.00    -0.003 C 
HETATM    9  C2  UNL     1     -32.486   9.924   0.407  1.00 20.00     0.005 C 
ENDBRANCH   7   8
ENDBRANCH   3   7
TORSDOF 3
ENDMDL
MODEL 8
REMARK VINA RESULT:      -0.3      1.850      3.244
REMARK  3 active torsions:
REMARK  status: ('A' for Active; 'I' for Inactive)
REMARK    1  A    between atoms: C5_5  and  C7_7 
REMARK    2  A    between atoms: C6_6  and  C8_8 
REMARK    3  A    between atoms: C7_7  and  C8_8 
ROOT
HETATM    1  C1  UNL     1     -32.289   7.389   1.574  1.00 20.00     0.069 C 
HETATM    2  C4  UNL     1     -33.662   5.690   0.456  1.00 20.00     0.031 C 
HETATM    3  C8  UNL     1     -32.689   5.961   1.621  1.00 20.00     0.045 C 
HETATM    4  N9  UNL     1     -31.977   8.507   1.537  1.00 20.00    -0.196 NA
ENDROOT
BRANCH   3   5
HETATM    5  C6  UNL     1     -31.433   5.069   1.402  1.00 20.00     0.020 C 
HETATM    6  C3  UNL     1     -31.461   4.178   0.164  1.00 20.00     0.007 C 
ENDBRANCH   3   5
BRANCH   3   7
HETATM    7  C7  UNL     1     -33.352   5.642   2.989  1.00 20.00     0.024 C 
BRANCH   7   8
HETATM    8  C5  UNL     1     -34.214   6.766   3.582  1.00 20.00    -0.003 C 
HETATM    9  C2  UNL     1     -35.543   6.229   4.093  1.00 20.00     0.005 C 
ENDBRANCH   7   8
ENDBRANCH   3   7
TORSDOF 3
ENDMDL
MODEL 9
REMARK VINA RESULT:      -0.1      1.736      3.595
REMARK  3 active torsions:
REMARK  status: ('A' for Active; 'I' for Inactive)
REMARK    1  A    between atoms: C5_5  and  C7_7 
REMARK    2  A    between atoms: C6_6  and  C8_8 
REMARK    3  A    between atoms: C7_7  and  C8_8 
ROOT
HETATM    1  C1  UNL     1     -33.723   6.508   2.914  1.00 20.00     0.069 C 
HETATM    2  C4  UNL     1     -31.755   5.493   1.856  1.00 20.00     0.031 C 
HETATM    3  C8  UNL     1     -32.786   6.637   1.770  1.00 20.00     0.045 C 
HETATM    4  N9  UNL     1     -34.456   6.408   3.809  1.00 20.00    -0.196 NA
ENDROOT
BRANCH   3   5
HETATM    5  C6  UNL     1     -33.573   6.460   0.440  1.00 20.00     0.020 C 
HETATM    6  C3  UNL     1     -33.822   5.020   0.003  1.00 20.00     0.007 C 
ENDBRANCH   3   5
BRANCH   3   7
HETATM    7  C7  UNL     1     -32.089   8.024   1.811  1.00 20.00     0.024 C 
BRANCH   7   8
HETATM    8  C5  UNL     1     -31.860   8.687   0.444  1.00 20.00    -0.003 C 
HETATM    9  C2  UNL     1     -32.555  10.038   0.364  1.00 20.00     0.005 C 
ENDBRANCH   7   8
ENDBRANCH   3   7
TORSDOF 3
ENDMDL
