MODEL 1
REMARK VINA RESULT:      -0.6      0.000      0.000
REMARK  5 active torsions:
REMARK  status: ('A' for Active; 'I' for Inactive)
REMARK    1  A    between atoms: C6_6  and  C8_8 
REMARK    2  A    between atoms: C7_7  and  C11_11 
REMARK    3  A    between atoms: C8_8  and  C10_10 
REMARK    4  A    between atoms: C9_9  and  C10_10 
REMARK    5  A    between atoms: C9_9  and  C11_11 
ROOT
HETATM    1  C1  UNL     1     -32.088   6.403   1.511  1.00 20.00     0.069 C 
HETATM    2  C5  UNL     1     -31.124   8.375   2.618  1.00 20.00     0.031 C 
HETATM    3  C11 UNL     1     -32.423   7.707   2.132  1.00 20.00     0.045 C 
HETATM    4  N12 UNL     1     -31.825   5.386   1.017  1.00 20.00    -0.196 NA
ENDROOT
BRANCH   3   5
HETATM    5  C7  UNL     1     -33.036   8.628   1.031  1.00 20.00     0.020 C 
HETATM    6  C3  UNL     1     -32.071   9.625   0.394  1.00 20.00     0.007 C 
ENDBRANCH   3   5
BRANCH   3   7
HETATM    7  C9  UNL     1     -33.441   7.520   3.296  1.00 20.00     0.028 C 
BRANCH   7   8
HETATM    8  C10 UNL     1     -34.263   6.204   3.379  1.00 20.00    -0.017 C 
HETATM    9  C4  UNL     1     -35.709   6.564   3.756  1.00 20.00     0.010 C 
BRANCH   8  10
HETATM   10  C8  UNL     1     -33.662   5.180   4.363  1.00 20.00     0.004 C 
BRANCH  10  11
HETATM   11  C6  UNL     1     -33.861   3.721   3.945  1.00 20.00    -0.004 C 
HETATM   12  C2  UNL     1     -33.084   2.775   4.849  1.00 20.00     0.005 C 
ENDBRANCH  10  11
ENDBRANCH   8  10
ENDBRANCH   7   8
ENDBRANCH   3   7
TORSDOF 5
ENDMDL
MODEL 2
REMARK VINA RESULT:      -0.4      1.498      2.528
REMARK  5 active torsions:
REMARK  status: ('A' for Active; 'I' for Inactive)
REMARK    1  A    between atoms: C6_6  and  C8_8 
REMARK    2  A    between atoms: C7_7  and  C11_11 
REMARK    3  A    between atoms: C8_8  and  C10_10 
REMARK    4  A    between atoms: C9_9  and  C10_10 
REMARK    5  A    between atoms: C9_9  and  C11_11 
ROOT
HETATM    1  C1  UNL     1     -32.237   7.751   1.359  1.00 20.00     0.069 C 
HETATM    2  C5  UNL     1     -33.754   5.926   0.718  1.00 20.00     0.031 C 
HETATM    3  C11 UNL     1     -32.659   6.373   1.705  1.00 20.00     0.045 C 
HETATM    4  N12 UNL     1     -31.900   8.828   1.085  1.00 20.00    -0.196 NA
ENDROOT
BRANCH   3   5
HETATM    5  C7  UNL     1     -31.437   5.422   1.504  1.00 20.00     0.020 C 
HETATM    6  C3  UNL     1     -31.578   4.395   0.383  1.00 20.00     0.007 C 
ENDBRANCH   3   5
BRANCH   3   7
HETATM    7  C9  UNL     1     -33.154   6.298   3.180  1.00 20.00     0.028 C 
BRANCH   7   8
HETATM    8  C10 UNL     1     -34.573   5.737   3.474  1.00 20.00    -0.017 C 
HETATM    9  C4  UNL     1     -35.432   6.877   4.045  1.00 20.00     0.010 C 
BRANCH   8  10
HETATM   10  C8  UNL     1     -34.554   4.518   4.418  1.00 20.00     0.004 C 
BRANCH  10  11
HETATM   11  C6  UNL     1     -33.568   3.422   4.005  1.00 20.00    -0.004 C 
HETATM   12  C2  UNL     1     -32.831   2.857   5.211  1.00 20.00     0.005 C 
ENDBRANCH  10  11
ENDBRANCH   8  10
ENDBRANCH   7   8
ENDBRANCH   3   7
TORSDOF 5
ENDMDL
MODEL 3
REMARK VINA RESULT:      -0.4      1.806      4.800
REMARK  5 active torsions:
REMARK  status: ('A' for Active; 'I' for Inactive)
REMARK    1  A    between atoms: C6_6  and  C8_8 
REMARK    2  A    between atoms: C7_7  and  C11_11 
REMARK    3  A    between atoms: C8_8  and  C10_10 
REMARK    4  A    between atoms: C9_9  and  C10_10 
REMARK    5  A    between atoms: C9_9  and  C11_11 
ROOT
HETATM    1  C1  UNL     1     -34.245   5.125   4.023  1.00 20.00     0.069 C 
HETATM    2  C5  UNL     1     -35.372   6.876   2.716  1.00 20.00     0.031 C 
HETATM    3  C11 UNL     1     -34.179   6.554   3.634  1.00 20.00     0.045 C 
HETATM    4  N12 UNL     1     -34.301   4.008   4.335  1.00 20.00    -0.196 NA
ENDROOT
BRANCH   3   5
HETATM    5  C7  UNL     1     -34.338   7.419   4.924  1.00 20.00     0.020 C 
HETATM    6  C3  UNL     1     -33.188   8.379   5.219  1.00 20.00     0.007 C 
ENDBRANCH   3   5
BRANCH   3   7
HETATM    7  C9  UNL     1     -32.821   6.877   2.942  1.00 20.00     0.028 C 
BRANCH   7   8
HETATM    8  C10 UNL     1     -32.731   6.822   1.392  1.00 20.00    -0.017 C 
HETATM    9  C4  UNL     1     -32.287   5.407   0.986  1.00 20.00     0.010 C 
BRANCH   8  10
HETATM   10  C8  UNL     1     -31.794   7.897   0.805  1.00 20.00     0.004 C 
BRANCH  10  11
HETATM   11  C6  UNL     1     -32.289   9.332   1.002  1.00 20.00    -0.004 C 
HETATM   12  C2  UNL     1     -32.628   9.989  -0.328  1.00 20.00     0.005 C 
ENDBRANCH  10  11
ENDBRANCH   8  10
ENDBRANCH   7   8
ENDBRANCH   3   7
TORSDOF 5
ENDMDL
MODEL 4
REMARK VINA RESULT:       0.0      0.837      1.193
REMARK  5 active torsions:
REMARK  status: ('A' for Active; 'I' for Inactive)
REMARK    1  A    between atoms: C6_6  and  C8_8 
REMARK    2  A    between atoms: C7_7  and  C11_11 
REMARK    3  A    between atoms: C8_8  and  C10_10 
REMARK    4  A    between atoms: C9_9  and  C10_10 
REMARK    5  A    between atoms: C9_9  and  C11_11 
ROOT
HETATM    1  C1  UNL     1     -32.091   6.563   1.453  1.00 20.00     0.069 C 
HETATM    2  C5  UNL     1     -31.201   8.404   2.818  1.00 20.00     0.031 C 
HETATM    3  C11 UNL     1     -32.292   7.987   1.815  1.00 20.00     0.045 C 
HETATM    4  N12 UNL     1     -31.929   5.451   1.162  1.00 20.00    -0.196 NA
ENDROOT
BRANCH   3   5
HETATM    5  C7  UNL     1     -32.096   8.851   0.530  1.00 20.00     0.020 C 
HETATM    6  C3  UNL     1     -32.638  10.276   0.605  1.00 20.00     0.007 C 
ENDBRANCH   3   5
BRANCH   3   7
HETATM    7  C9  UNL     1     -33.720   8.214   2.395  1.00 20.00     0.028 C 
BRANCH   7   8
HETATM    8  C10 UNL     1     -34.221   7.301   3.548  1.00 20.00    -0.017 C 
HETATM    9  C4  UNL     1     -33.557   7.768   4.854  1.00 20.00     0.010 C 
BRANCH   8  10
HETATM   10  C8  UNL     1     -33.962   5.804   3.287  1.00 20.00     0.004 C 
BRANCH  10  11
HETATM   11  C6  UNL     1     -34.576   4.871   4.335  1.00 20.00    -0.004 C 
HETATM   12  C2  UNL     1     -33.781   3.579   4.460  1.00 20.00     0.005 C 
ENDBRANCH  10  11
ENDBRANCH   8  10
ENDBRANCH   7   8
ENDBRANCH   3   7
TORSDOF 5
ENDMDL
MODEL 5
REMARK VINA RESULT:       0.3      1.414      2.145
REMARK  5 active torsions:
REMARK  status: ('A' for Active; 'I' for Inactive)
REMARK    1  A    between atoms: C6_6  and  C8_8 
REMARK    2  A    between atoms: C7_7  and  C11_11 
REMARK    3  A    between atoms: C8_8  and  C10_10 
REMARK    4  A    between atoms: C9_9  and  C10_10 
REMARK    5  A    between atoms: C9_9  and  C11_11 
ROOT
HETATM    1  C1  UNL     1     -32.532   8.793   0.975  1.00 20.00     0.069 C 
HETATM    2  C5  UNL     1     -31.972   6.428   1.346  1.00 20.00     0.031 C 
HETATM    3  C11 UNL     1     -32.356   7.758   2.022  1.00 20.00     0.045 C 
HETATM    4  N12 UNL     1     -32.663   9.606   0.156  1.00 20.00    -0.196 NA
ENDROOT
BRANCH   3   5
HETATM    5  C7  UNL     1     -31.158   8.180   2.929  1.00 20.00     0.020 C 
HETATM    6  C3  UNL     1     -31.526   8.983   4.175  1.00 20.00     0.007 C 
ENDBRANCH   3   5
BRANCH   3   7
HETATM    7  C9  UNL     1     -33.647   7.613   2.880  1.00 20.00     0.028 C 
BRANCH   7   8
HETATM    8  C10 UNL     1     -34.295   6.209   3.040  1.00 20.00    -0.017 C 
HETATM    9  C4  UNL     1     -35.543   6.354   3.926  1.00 20.00     0.010 C 
BRANCH   8  10
HETATM   10  C8  UNL     1     -33.320   5.157   3.606  1.00 20.00     0.004 C 
BRANCH  10  11
HETATM   11  C6  UNL     1     -34.006   3.913   4.178  1.00 20.00    -0.004 C 
HETATM   12  C2  UNL     1     -32.996   2.961   4.802  1.00 20.00     0.005 C 
ENDBRANCH  10  11
ENDBRANCH   8  10
ENDBRANCH   7   8
ENDBRANCH   3   7
TORSDOF 5
ENDMDL
MODEL 6
REMARK VINA RESULT:       0.5      1.754      2.826
REMARK  5 active torsions:
REMARK  status: ('A' for Active; 'I' for Inactive)
REMARK    1  A    between atoms: C6_6  and  C8_8 
REMARK    2  A    between atoms: C7_7  and  C11_11 
REMARK    3  A    between atoms: C8_8  and  C10_10 
REMARK    4  A    between atoms: C9_9  and  C10_10 
REMARK    5  A    between atoms: C9_9  and  C11_11 
ROOT
HETATM    1  C1  UNL     1     -32.526   9.119   1.066  1.00 20.00     0.069 C 
HETATM    2  C5  UNL     1     -30.764   7.674   1.988  1.00 20.00     0.031 C 
HETATM    3  C11 UNL     1     -32.270   7.994   1.997  1.00 20.00     0.045 C 
HETATM    4  N12 UNL     1     -32.726  10.006   0.344  1.00 20.00    -0.196 NA
ENDROOT
BRANCH   3   5
HETATM    5  C7  UNL     1     -32.638   8.460   3.440  1.00 20.00     0.020 C 
HETATM    6  C3  UNL     1     -33.939   7.892   4.004  1.00 20.00     0.007 C 
ENDBRANCH   3   5
BRANCH   3   7
HETATM    7  C9  UNL     1     -33.121   6.749   1.607  1.00 20.00     0.028 C 
BRANCH   7   8
HETATM    8  C10 UNL     1     -32.648   5.338   2.056  1.00 20.00    -0.017 C 
HETATM    9  C4  UNL     1     -31.965   4.657   0.858  1.00 20.00     0.010 C 
BRANCH   8  10
HETATM   10  C8  UNL     1     -33.791   4.472   2.622  1.00 20.00     0.004 C 
BRANCH  10  11
HETATM   11  C6  UNL     1     -33.773   4.332   4.147  1.00 20.00    -0.004 C 
HETATM   12  C2  UNL     1     -33.219   2.981   4.573  1.00 20.00     0.005 C 
ENDBRANCH  10  11
ENDBRANCH   8  10
ENDBRANCH   7   8
ENDBRANCH   3   7
TORSDOF 5
ENDMDL
MODEL 7
REMARK VINA RESULT:       0.6      1.836      5.035
REMARK  5 active torsions:
REMARK  status: ('A' for Active; 'I' for Inactive)
REMARK    1  A    between atoms: C6_6  and  C8_8 
REMARK    2  A    between atoms: C7_7  and  C11_11 
REMARK    3  A    between atoms: C8_8  and  C10_10 
REMARK    4  A    between atoms: C9_9  and  C10_10 
REMARK    5  A    between atoms: C9_9  and  C11_11 
ROOT
HETATM    1  C1  UNL     1     -35.687   6.607   3.167  1.00 20.00     0.069 C 
HETATM    2  C5  UNL     1     -34.016   7.384   4.794  1.00 20.00     0.031 C 
HETATM    3  C11 UNL     1     -34.442   6.224   3.876  1.00 20.00     0.045 C 
HETATM    4  N12 UNL     1     -36.666   6.903   2.618  1.00 20.00    -0.196 NA
ENDROOT
BRANCH   3   5
HETATM    5  C7  UNL     1     -34.757   4.999   4.790  1.00 20.00     0.020 C 
HETATM    6  C3  UNL     1     -33.934   3.743   4.515  1.00 20.00     0.007 C 
ENDBRANCH   3   5
BRANCH   3   7
HETATM    7  C9  UNL     1     -33.319   5.855   2.862  1.00 20.00     0.028 C 
BRANCH   7   8
HETATM    8  C10 UNL     1     -33.199   6.662   1.539  1.00 20.00    -0.017 C 
HETATM    9  C4  UNL     1     -33.126   5.664   0.372  1.00 20.00     0.010 C 
BRANCH   8  10
HETATM   10  C8  UNL     1     -31.997   7.629   1.531  1.00 20.00     0.004 C 
BRANCH  10  11
HETATM   11  C6  UNL     1     -32.385   9.109   1.471  1.00 20.00    -0.004 C 
HETATM   12  C2  UNL     1     -32.349   9.634   0.043  1.00 20.00     0.005 C 
ENDBRANCH  10  11
ENDBRANCH   8  10
ENDBRANCH   7   8
ENDBRANCH   3   7
TORSDOF 5
ENDMDL
MODEL 8
REMARK VINA RESULT:       0.8      1.849      3.092
REMARK  5 active torsions:
REMARK  status: ('A' for Active; 'I' for Inactive)
REMARK    1  A    between atoms: C6_6  and  C8_8 
REMARK    2  A    between atoms: C7_7  and  C11_11 
REMARK    3  A    between atoms: C8_8  and  C10_10 
REMARK    4  A    between atoms: C9_9  and  C10_10 
REMARK    5  A    between atoms: C9_9  and  C11_11 
ROOT
HETATM    1  C1  UNL     1     -32.438   9.404   1.010  1.00 20.00     0.069 C 
HETATM    2  C5  UNL     1     -31.033   8.445   2.785  1.00 20.00     0.031 C 
HETATM    3  C11 UNL     1     -32.286   8.239   1.914  1.00 20.00     0.045 C 
HETATM    4  N12 UNL     1     -32.562  10.320   0.308  1.00 20.00    -0.196 NA
ENDROOT
BRANCH   3   5
HETATM    5  C7  UNL     1     -33.517   8.201   2.873  1.00 20.00     0.020 C 
HETATM    6  C3  UNL     1     -33.189   8.162   4.364  1.00 20.00     0.007 C 
ENDBRANCH   3   5
BRANCH   3   7
HETATM    7  C9  UNL     1     -32.205   6.913   1.101  1.00 20.00     0.028 C 
BRANCH   7   8
HETATM    8  C10 UNL     1     -32.263   5.557   1.857  1.00 20.00    -0.017 C 
HETATM    9  C4  UNL     1     -31.610   4.484   0.970  1.00 20.00     0.010 C 
BRANCH   8  10
HETATM   10  C8  UNL     1     -33.695   5.156   2.265  1.00 20.00     0.004 C 
BRANCH  10  11
HETATM   11  C6  UNL     1     -33.798   4.539   3.662  1.00 20.00    -0.004 C 
HETATM   12  C2  UNL     1     -35.054   5.005   4.383  1.00 20.00     0.005 C 
ENDBRANCH  10  11
ENDBRANCH   8  10
ENDBRANCH   7   8
ENDBRANCH   3   7
TORSDOF 5
ENDMDL
MODEL 9
REMARK VINA RESULT:       0.9      2.179      4.819
REMARK  5 active torsions:
REMARK  status: ('A' for Active; 'I' for Inactive)
REMARK    1  A    between atoms: C6_6  and  C8_8 
REMARK    2  A    between atoms: C7_7  and  C11_11 
REMARK    3  A    between atoms: C8_8  and  C10_10 
REMARK    4  A    between atoms: C9_9  and  C10_10 
REMARK    5  A    between atoms: C9_9  and  C11_11 
ROOT
HETATM    1  C1  UNL     1     -33.999   7.467   4.567  1.00 20.00     0.069 C 
HETATM    2  C5  UNL     1     -35.243   5.348   4.489  1.00 20.00     0.031 C 
HETATM    3  C11 UNL     1     -34.447   6.378   3.666  1.00 20.00     0.045 C 
HETATM    4  N12 UNL     1     -33.655   8.325   5.270  1.00 20.00    -0.196 NA
ENDROOT
BRANCH   3   5
HETATM    5  C7  UNL     1     -35.425   6.987   2.612  1.00 20.00     0.020 C 
HETATM    6  C3  UNL     1     -36.911   6.817   2.918  1.00 20.00     0.007 C 
ENDBRANCH   3   5
BRANCH   3   7
HETATM    7  C9  UNL     1     -33.233   5.720   2.947  1.00 20.00     0.028 C 
BRANCH   7   8
HETATM    8  C10 UNL     1     -32.811   6.241   1.545  1.00 20.00    -0.017 C 
HETATM    9  C4  UNL     1     -32.264   5.053   0.735  1.00 20.00     0.010 C 
BRANCH   8  10
HETATM   10  C8  UNL     1     -31.790   7.394   1.614  1.00 20.00     0.004 C 
BRANCH  10  11
HETATM   11  C6  UNL     1     -32.421   8.789   1.605  1.00 20.00    -0.004 C 
HETATM   12  C2  UNL     1     -32.232   9.474   0.259  1.00 20.00     0.005 C 
ENDBRANCH  10  11
ENDBRANCH   8  10
ENDBRANCH   7   8
ENDBRANCH   3   7
TORSDOF 5
ENDMDL
