MODEL 1
REMARK VINA RESULT:      -1.5      0.000      0.000
REMARK  3 active torsions:
REMARK  status: ('A' for Active; 'I' for Inactive)
REMARK    1  A    between atoms: C3_3  and  C7_7 
REMARK    2  A    between atoms: C3_3  and  C10_10 
REMARK    3  A    between atoms: C8_8  and  C11_11 
ROOT
HETATM    1  C1  UNL     1     -33.475   3.283   4.485  1.00 20.00     0.012 C 
HETATM    2  C2  UNL     1     -34.151   4.265   4.347  1.00 20.00    -0.110 C 
HETATM    3  C10 UNL     1     -34.983   5.461   4.179  1.00 20.00     0.171 C 
ENDROOT
BRANCH   3   4
HETATM    4  C3  UNL     1     -34.175   6.683   3.790  1.00 20.00     0.142 C 
HETATM    5  O12 UNL     1     -33.626   7.415   4.612  1.00 20.00    -0.297 OA
BRANCH   4   6
HETATM    6  C7  UNL     1     -34.071   6.969   2.293  1.00 20.00     0.057 C 
HETATM    7  C4  UNL     1     -33.123   6.005   1.583  1.00 20.00     0.013 C 
HETATM    8  C5  UNL     1     -31.739   6.591   1.832  1.00 20.00     0.005 C 
HETATM    9  C8  UNL     1     -31.947   8.102   1.850  1.00 20.00    -0.014 C 
HETATM   10  C6  UNL     1     -33.448   8.342   2.016  1.00 20.00     0.016 C 
BRANCH   9  11
HETATM   11  C11 UNL     1     -31.496   8.670   0.517  1.00 20.00     0.000 C 
HETATM   12  C9  UNL     1     -32.347   9.823   0.083  1.00 20.00     0.005 C 
ENDBRANCH   9  11
ENDBRANCH   4   6
ENDBRANCH   3   4
TORSDOF 3
ENDMDL
MODEL 2
REMARK VINA RESULT:      -0.9      1.025      5.139
REMARK  3 active torsions:
REMARK  status: ('A' for Active; 'I' for Inactive)
REMARK    1  A    between atoms: C3_3  and  C7_7 
REMARK    2  A    between atoms: C3_3  and  C10_10 
REMARK    3  A    between atoms: C8_8  and  C11_11 
ROOT
HETATM    1  C1  UNL     1     -32.814  10.587  -0.147  1.00 20.00     0.012 C 
HETATM    2  C2  UNL     1     -32.286   9.595   0.277  1.00 20.00    -0.110 C 
HETATM    3  C10 UNL     1     -31.637   8.383   0.788  1.00 20.00     0.171 C 
ENDROOT
BRANCH   3   4
HETATM    4  C3  UNL     1     -32.292   7.862   2.052  1.00 20.00     0.142 C 
HETATM    5  O12 UNL     1     -32.015   8.280   3.175  1.00 20.00    -0.297 OA
BRANCH   4   6
HETATM    6  C7  UNL     1     -33.339   6.765   1.861  1.00 20.00     0.057 C 
HETATM    7  C4  UNL     1     -34.611   7.033   2.662  1.00 20.00     0.013 C 
HETATM    8  C5  UNL     1     -34.283   6.531   4.063  1.00 20.00     0.005 C 
HETATM    9  C8  UNL     1     -33.359   5.336   3.848  1.00 20.00    -0.014 C 
HETATM   10  C6  UNL     1     -32.859   5.416   2.405  1.00 20.00     0.016 C 
BRANCH   9  11
HETATM   11  C11 UNL     1     -34.164   4.062   4.026  1.00 20.00     0.000 C 
HETATM   12  C9  UNL     1     -33.343   2.958   4.615  1.00 20.00     0.005 C 
ENDBRANCH   9  11
ENDBRANCH   4   6
ENDBRANCH   3   4
TORSDOF 3
ENDMDL
MODEL 3
REMARK VINA RESULT:      -0.4      1.488      2.164
REMARK  3 active torsions:
REMARK  status: ('A' for Active; 'I' for Inactive)
REMARK    1  A    between atoms: C3_3  and  C7_7 
REMARK    2  A    between atoms: C3_3  and  C10_10 
REMARK    3  A    between atoms: C8_8  and  C11_11 
ROOT
HETATM    1  C1  UNL     1     -33.307   8.371   5.221  1.00 20.00     0.012 C 
HETATM    2  C2  UNL     1     -33.933   7.614   4.529  1.00 20.00    -0.110 C 
HETATM    3  C10 UNL     1     -34.703   6.693   3.688  1.00 20.00     0.171 C 
ENDROOT
BRANCH   3   4
HETATM    4  C3  UNL     1     -33.832   5.649   3.019  1.00 20.00     0.142 C 
HETATM    5  O12 UNL     1     -33.508   4.595   3.565  1.00 20.00    -0.297 OA
BRANCH   4   6
HETATM    6  C7  UNL     1     -33.362   5.974   1.602  1.00 20.00     0.057 C 
HETATM    7  C4  UNL     1     -31.864   5.741   1.421  1.00 20.00     0.013 C 
HETATM    8  C5  UNL     1     -31.220   7.009   1.968  1.00 20.00     0.005 C 
HETATM    9  C8  UNL     1     -32.200   8.128   1.629  1.00 20.00    -0.014 C 
HETATM   10  C6  UNL     1     -33.529   7.461   1.272  1.00 20.00     0.016 C 
BRANCH   9  11
HETATM   11  C11 UNL     1     -31.679   8.878   0.417  1.00 20.00     0.000 C 
HETATM   12  C9  UNL     1     -32.595   9.990   0.010  1.00 20.00     0.005 C 
ENDBRANCH   9  11
ENDBRANCH   4   6
ENDBRANCH   3   4
TORSDOF 3
ENDMDL
MODEL 4
REMARK VINA RESULT:      -0.1      1.094      1.751
REMARK  3 active torsions:
REMARK  status: ('A' for Active; 'I' for Inactive)
REMARK    1  A    between atoms: C3_3  and  C7_7 
REMARK    2  A    between atoms: C3_3  and  C10_10 
REMARK    3  A    between atoms: C8_8  and  C11_11 
ROOT
HETATM    1  C1  UNL     1     -32.983   2.983   4.527  1.00 20.00     0.012 C 
HETATM    2  C2  UNL     1     -33.930   3.722   4.550  1.00 20.00    -0.110 C 
HETATM    3  C10 UNL     1     -35.091   4.618   4.580  1.00 20.00     0.171 C 
ENDROOT
BRANCH   3   4
HETATM    4  C3  UNL     1     -34.836   5.924   3.855  1.00 20.00     0.142 C 
HETATM    5  O12 UNL     1     -35.738   6.647   3.435  1.00 20.00    -0.297 OA
BRANCH   4   6
HETATM    6  C7  UNL     1     -33.370   6.313   3.668  1.00 20.00     0.057 C 
HETATM    7  C4  UNL     1     -33.074   7.721   4.178  1.00 20.00     0.013 C 
HETATM    8  C5  UNL     1     -33.502   8.630   3.032  1.00 20.00     0.005 C 
HETATM    9  C8  UNL     1     -33.193   7.840   1.764  1.00 20.00    -0.014 C 
HETATM   10  C6  UNL     1     -32.983   6.386   2.187  1.00 20.00     0.016 C 
BRANCH   9  11
HETATM   11  C11 UNL     1     -31.907   8.374   1.161  1.00 20.00     0.000 C 
HETATM   12  C9  UNL     1     -32.147   9.577   0.304  1.00 20.00     0.005 C 
ENDBRANCH   9  11
ENDBRANCH   4   6
ENDBRANCH   3   4
TORSDOF 3
ENDMDL
MODEL 5
REMARK VINA RESULT:       0.6      1.698      5.033
REMARK  3 active torsions:
REMARK  status: ('A' for Active; 'I' for Inactive)
REMARK    1  A    between atoms: C3_3  and  C7_7 
REMARK    2  A    between atoms: C3_3  and  C10_10 
REMARK    3  A    between atoms: C8_8  and  C11_11 
ROOT
HETATM    1  C1  UNL     1     -32.724  10.642  -0.767  1.00 20.00     0.012 C 
HETATM    2  C2  UNL     1     -32.695  10.104   0.307  1.00 20.00    -0.110 C 
HETATM    3  C10 UNL     1     -32.662   9.453   1.620  1.00 20.00     0.171 C 
ENDROOT
BRANCH   3   4
HETATM    4  C3  UNL     1     -31.945   8.118   1.590  1.00 20.00     0.142 C 
HETATM    5  O12 UNL     1     -31.207   7.772   0.668  1.00 20.00    -0.297 OA
BRANCH   4   6
HETATM    6  C7  UNL     1     -32.187   7.199   2.787  1.00 20.00     0.057 C 
HETATM    7  C4  UNL     1     -32.568   5.783   2.362  1.00 20.00     0.013 C 
HETATM    8  C5  UNL     1     -34.062   5.869   2.075  1.00 20.00     0.005 C 
HETATM    9  C8  UNL     1     -34.599   6.891   3.072  1.00 20.00    -0.014 C 
HETATM   10  C6  UNL     1     -33.390   7.652   3.621  1.00 20.00     0.016 C 
BRANCH   9  11
HETATM   11  C11 UNL     1     -35.277   6.150   4.209  1.00 20.00     0.000 C 
HETATM   12  C9  UNL     1     -34.760   4.753   4.355  1.00 20.00     0.005 C 
ENDBRANCH   9  11
ENDBRANCH   4   6
ENDBRANCH   3   4
TORSDOF 3
ENDMDL
MODEL 6
REMARK VINA RESULT:       1.0      1.569      2.186
REMARK  3 active torsions:
REMARK  status: ('A' for Active; 'I' for Inactive)
REMARK    1  A    between atoms: C3_3  and  C7_7 
REMARK    2  A    between atoms: C3_3  and  C10_10 
REMARK    3  A    between atoms: C8_8  and  C11_11 
ROOT
HETATM    1  C1  UNL     1     -33.499   3.202   4.447  1.00 20.00     0.012 C 
HETATM    2  C2  UNL     1     -33.647   4.267   3.911  1.00 20.00    -0.110 C 
HETATM    3  C10 UNL     1     -33.833   5.568   3.261  1.00 20.00     0.171 C 
ENDROOT
BRANCH   3   4
HETATM    4  C3  UNL     1     -32.959   5.736   2.034  1.00 20.00     0.142 C 
HETATM    5  O12 UNL     1     -33.042   5.009   1.046  1.00 20.00    -0.297 OA
BRANCH   4   6
HETATM    6  C7  UNL     1     -31.947   6.880   2.084  1.00 20.00     0.057 C 
HETATM    7  C4  UNL     1     -32.475   8.088   2.853  1.00 20.00     0.013 C 
HETATM    8  C5  UNL     1     -33.328   8.835   1.835  1.00 20.00     0.005 C 
HETATM    9  C8  UNL     1     -32.632   8.612   0.496  1.00 20.00    -0.014 C 
HETATM   10  C6  UNL     1     -31.659   7.448   0.690  1.00 20.00     0.016 C 
BRANCH   9  11
HETATM   11  C11 UNL     1     -31.848   9.862   0.143  1.00 20.00     0.000 C 
HETATM   12  C9  UNL     1     -32.565  11.109   0.557  1.00 20.00     0.005 C 
ENDBRANCH   9  11
ENDBRANCH   4   6
ENDBRANCH   3   4
TORSDOF 3
ENDMDL
