MODEL 1
REMARK VINA RESULT:      -0.5      0.000      0.000
REMARK  2 active torsions:
REMARK  status: ('A' for Active; 'I' for Inactive)
REMARK    1  A    between atoms: C5_5  and  C8_8 
REMARK    2  A    between atoms: C8_8  and  C9_9 
ROOT
HETATM    1  C1  UNL     1     -32.370   9.055   0.885  1.00 20.00     0.068 C 
HETATM    2  C6  UNL     1     -31.150   8.298   2.885  1.00 20.00     0.031 C 
HETATM    3  C7  UNL     1     -32.099   6.651   1.266  1.00 20.00     0.031 C 
HETATM    4  C9  UNL     1     -32.331   8.017   1.941  1.00 20.00     0.046 C 
HETATM    5  N10 UNL     1     -32.396   9.866   0.055  1.00 20.00    -0.196 NA
ENDROOT
BRANCH   4   6
HETATM    6  C8  UNL     1     -33.682   7.955   2.706  1.00 20.00     0.062 C 
BRANCH   6   7
HETATM    7  C5  UNL     1     -34.049   6.622   3.321  1.00 20.00    -0.050 A 
HETATM    8  C2  UNL     1     -35.216   6.404   4.109  1.00 20.00     0.014 A 
HETATM    9  C3  UNL     1     -35.309   5.101   4.546  1.00 20.00     0.050 A 
HETATM   10  S11 UNL     1     -33.994   4.147   4.007  1.00 20.00    -0.113 SA
HETATM   11  C4  UNL     1     -33.295   5.477   3.186  1.00 20.00     0.056 A 
ENDBRANCH   6   7
ENDBRANCH   4   6
TORSDOF 2
ENDMDL
MODEL 2
REMARK VINA RESULT:       0.2      0.729      1.239
REMARK  2 active torsions:
REMARK  status: ('A' for Active; 'I' for Inactive)
REMARK    1  A    between atoms: C5_5  and  C8_8 
REMARK    2  A    between atoms: C8_8  and  C9_9 
ROOT
HETATM    1  C1  UNL     1     -32.385   9.056   0.811  1.00 20.00     0.068 C 
HETATM    2  C6  UNL     1     -30.928   8.224   2.613  1.00 20.00     0.031 C 
HETATM    3  C7  UNL     1     -32.250   6.642   1.203  1.00 20.00     0.031 C 
HETATM    4  C9  UNL     1     -32.263   8.030   1.874  1.00 20.00     0.046 C 
HETATM    5  N10 UNL     1     -32.478   9.857  -0.023  1.00 20.00    -0.196 NA
ENDROOT
BRANCH   4   6
HETATM    6  C8  UNL     1     -33.477   8.088   2.842  1.00 20.00     0.062 C 
BRANCH   6   7
HETATM    7  C5  UNL     1     -33.973   6.765   3.381  1.00 20.00    -0.050 A 
HETATM    8  C2  UNL     1     -33.281   5.529   3.216  1.00 20.00     0.014 A 
HETATM    9  C3  UNL     1     -33.951   4.479   3.804  1.00 20.00     0.050 A 
HETATM   10  S11 UNL     1     -35.408   4.983   4.549  1.00 20.00    -0.113 SA
HETATM   11  C4  UNL     1     -35.145   6.610   4.087  1.00 20.00     0.056 A 
ENDBRANCH   6   7
ENDBRANCH   4   6
TORSDOF 2
ENDMDL
MODEL 3
REMARK VINA RESULT:       0.7      1.348      1.877
REMARK  2 active torsions:
REMARK  status: ('A' for Active; 'I' for Inactive)
REMARK    1  A    between atoms: C5_5  and  C8_8 
REMARK    2  A    between atoms: C8_8  and  C9_9 
ROOT
HETATM    1  C1  UNL     1     -32.056   6.589   1.393  1.00 20.00     0.068 C 
HETATM    2  C6  UNL     1     -32.332   8.969   0.828  1.00 20.00     0.031 C 
HETATM    3  C7  UNL     1     -31.160   8.279   2.922  1.00 20.00     0.031 C 
HETATM    4  C9  UNL     1     -32.316   7.932   1.963  1.00 20.00     0.046 C 
HETATM    5  N10 UNL     1     -31.849   5.538   0.945  1.00 20.00    -0.196 NA
ENDROOT
BRANCH   4   6
HETATM    6  C8  UNL     1     -33.639   7.941   2.777  1.00 20.00     0.062 C 
BRANCH   6   7
HETATM    7  C5  UNL     1     -34.059   6.627   3.398  1.00 20.00    -0.050 A 
HETATM    8  C2  UNL     1     -35.312   6.417   4.044  1.00 20.00     0.014 A 
HETATM    9  C3  UNL     1     -35.439   5.132   4.521  1.00 20.00     0.050 A 
HETATM   10  S11 UNL     1     -34.052   4.183   4.190  1.00 20.00    -0.113 SA
HETATM   11  C4  UNL     1     -33.277   5.493   3.406  1.00 20.00     0.056 A 
ENDBRANCH   6   7
ENDBRANCH   4   6
TORSDOF 2
ENDMDL
MODEL 4
REMARK VINA RESULT:       0.9      3.097      4.851
REMARK  2 active torsions:
REMARK  status: ('A' for Active; 'I' for Inactive)
REMARK    1  A    between atoms: C5_5  and  C8_8 
REMARK    2  A    between atoms: C8_8  and  C9_9 
ROOT
HETATM    1  C1  UNL     1     -33.767   6.354   2.910  1.00 20.00     0.068 C 
HETATM    2  C6  UNL     1     -33.626   6.050   0.471  1.00 20.00     0.031 C 
HETATM    3  C7  UNL     1     -32.175   4.725   2.011  1.00 20.00     0.031 C 
HETATM    4  C9  UNL     1     -32.833   6.101   1.788  1.00 20.00     0.046 C 
HETATM    5  N10 UNL     1     -34.500   6.549   3.789  1.00 20.00    -0.196 NA
ENDROOT
BRANCH   4   6
HETATM    6  C8  UNL     1     -31.710   7.173   1.748  1.00 20.00     0.062 C 
BRANCH   6   7
HETATM    7  C5  UNL     1     -32.066   8.499   1.112  1.00 20.00    -0.050 A 
HETATM    8  C2  UNL     1     -31.780   8.832  -0.244  1.00 20.00     0.014 A 
HETATM    9  C3  UNL     1     -32.209  10.100  -0.567  1.00 20.00     0.050 A 
HETATM   10  S11 UNL     1     -32.953  10.885   0.761  1.00 20.00    -0.113 SA
HETATM   11  C4  UNL     1     -32.702   9.526   1.773  1.00 20.00     0.056 A 
ENDBRANCH   6   7
ENDBRANCH   4   6
TORSDOF 2
ENDMDL
MODEL 5
REMARK VINA RESULT:       1.0      3.245      4.851
REMARK  2 active torsions:
REMARK  status: ('A' for Active; 'I' for Inactive)
REMARK    1  A    between atoms: C5_5  and  C8_8 
REMARK    2  A    between atoms: C8_8  and  C9_9 
ROOT
HETATM    1  C1  UNL     1     -33.773   4.787   3.882  1.00 20.00     0.068 C 
HETATM    2  C6  UNL     1     -35.503   6.514   3.591  1.00 20.00     0.031 C 
HETATM    3  C7  UNL     1     -34.095   5.777   1.665  1.00 20.00     0.031 C 
HETATM    4  C9  UNL     1     -34.094   6.053   3.182  1.00 20.00     0.046 C 
HETATM    5  N10 UNL     1     -33.524   3.794   4.428  1.00 20.00    -0.196 NA
ENDROOT
BRANCH   4   6
HETATM    6  C8  UNL     1     -33.020   7.136   3.476  1.00 20.00     0.062 C 
BRANCH   6   7
HETATM    7  C5  UNL     1     -32.556   7.963   2.297  1.00 20.00    -0.050 A 
HETATM    8  C2  UNL     1     -31.455   7.609   1.463  1.00 20.00     0.014 A 
HETATM    9  C3  UNL     1     -31.245   8.534   0.464  1.00 20.00     0.050 A 
HETATM   10  S11 UNL     1     -32.372   9.822   0.533  1.00 20.00    -0.113 SA
HETATM   11  C4  UNL     1     -33.144   9.143   1.903  1.00 20.00     0.056 A 
ENDBRANCH   6   7
ENDBRANCH   4   6
TORSDOF 2
ENDMDL
MODEL 6
REMARK VINA RESULT:       1.1      1.651      1.962
REMARK  2 active torsions:
REMARK  status: ('A' for Active; 'I' for Inactive)
REMARK    1  A    between atoms: C5_5  and  C8_8 
REMARK    2  A    between atoms: C8_8  and  C9_9 
ROOT
HETATM    1  C1  UNL     1     -32.421   8.280   3.423  1.00 20.00     0.068 C 
HETATM    2  C6  UNL     1     -30.931   7.465   1.641  1.00 20.00     0.031 C 
HETATM    3  C7  UNL     1     -32.668   9.195   1.165  1.00 20.00     0.031 C 
HETATM    4  C9  UNL     1     -32.356   7.927   1.986  1.00 20.00     0.046 C 
HETATM    5  N10 UNL     1     -32.469   8.559   4.549  1.00 20.00    -0.196 NA
ENDROOT
BRANCH   4   6
HETATM    6  C8  UNL     1     -33.418   6.849   1.632  1.00 20.00     0.062 C 
BRANCH   6   7
HETATM    7  C5  UNL     1     -33.889   5.968   2.768  1.00 20.00    -0.050 A 
HETATM    8  C2  UNL     1     -35.014   6.265   3.591  1.00 20.00     0.014 A 
HETATM    9  C3  UNL     1     -35.223   5.299   4.549  1.00 20.00     0.050 A 
HETATM   10  S11 UNL     1     -34.068   4.038   4.455  1.00 20.00    -0.113 SA
HETATM   11  C4  UNL     1     -33.282   4.786   3.129  1.00 20.00     0.056 A 
ENDBRANCH   6   7
ENDBRANCH   4   6
TORSDOF 2
ENDMDL
MODEL 7
REMARK VINA RESULT:       1.1      3.200      4.739
REMARK  2 active torsions:
REMARK  status: ('A' for Active; 'I' for Inactive)
REMARK    1  A    between atoms: C5_5  and  C8_8 
REMARK    2  A    between atoms: C8_8  and  C9_9 
ROOT
HETATM    1  C1  UNL     1     -33.818   6.348   2.924  1.00 20.00     0.068 C 
HETATM    2  C6  UNL     1     -33.634   6.168   0.476  1.00 20.00     0.031 C 
HETATM    3  C7  UNL     1     -32.176   4.800   1.972  1.00 20.00     0.031 C 
HETATM    4  C9  UNL     1     -32.863   6.171   1.806  1.00 20.00     0.046 C 
HETATM    5  N10 UNL     1     -34.569   6.482   3.800  1.00 20.00    -0.196 NA
ENDROOT
BRANCH   4   6
HETATM    6  C8  UNL     1     -31.764   7.269   1.838  1.00 20.00     0.062 C 
BRANCH   6   7
HETATM    7  C5  UNL     1     -32.083   8.563   1.122  1.00 20.00    -0.050 A 
HETATM    8  C2  UNL     1     -32.793   9.646   1.717  1.00 20.00     0.014 A 
HETATM    9  C3  UNL     1     -32.948  10.703   0.847  1.00 20.00     0.050 A 
HETATM   10  S11 UNL     1     -32.239  10.388  -0.680  1.00 20.00    -0.113 SA
HETATM   11  C4  UNL     1     -31.723   8.833  -0.179  1.00 20.00     0.056 A 
ENDBRANCH   6   7
ENDBRANCH   4   6
TORSDOF 2
ENDMDL
MODEL 8
REMARK VINA RESULT:       1.2      3.266      4.851
REMARK  2 active torsions:
REMARK  status: ('A' for Active; 'I' for Inactive)
REMARK    1  A    between atoms: C5_5  and  C8_8 
REMARK    2  A    between atoms: C8_8  and  C9_9 
ROOT
HETATM    1  C1  UNL     1     -34.188   4.949   4.106  1.00 20.00     0.068 C 
HETATM    2  C6  UNL     1     -33.499   7.301   4.334  1.00 20.00     0.031 C 
HETATM    3  C7  UNL     1     -35.654   6.701   3.225  1.00 20.00     0.031 C 
HETATM    4  C9  UNL     1     -34.189   6.267   3.430  1.00 20.00     0.046 C 
HETATM    5  N10 UNL     1     -34.190   3.918   4.640  1.00 20.00    -0.196 NA
ENDROOT
BRANCH   4   6
HETATM    6  C8  UNL     1     -33.513   6.173   2.034  1.00 20.00     0.062 C 
BRANCH   6   7
HETATM    7  C5  UNL     1     -32.771   7.403   1.560  1.00 20.00    -0.050 A 
HETATM    8  C2  UNL     1     -31.369   7.598   1.724  1.00 20.00     0.014 A 
HETATM    9  C3  UNL     1     -30.949   8.802   1.203  1.00 20.00     0.050 A 
HETATM   10  S11 UNL     1     -32.242   9.692   0.520  1.00 20.00    -0.113 SA
HETATM   11  C4  UNL     1     -33.369   8.466   0.920  1.00 20.00     0.056 A 
ENDBRANCH   6   7
ENDBRANCH   4   6
TORSDOF 2
ENDMDL
MODEL 9
REMARK VINA RESULT:       1.4      2.769      4.547
REMARK  2 active torsions:
REMARK  status: ('A' for Active; 'I' for Inactive)
REMARK    1  A    between atoms: C5_5  and  C8_8 
REMARK    2  A    between atoms: C8_8  and  C9_9 
ROOT
HETATM    1  C1  UNL     1     -33.807   7.404   4.409  1.00 20.00     0.068 C 
HETATM    2  C6  UNL     1     -35.802   6.767   3.115  1.00 20.00     0.031 C 
HETATM    3  C7  UNL     1     -34.467   5.047   4.338  1.00 20.00     0.031 C 
HETATM    4  C9  UNL     1     -34.379   6.357   3.530  1.00 20.00     0.046 C 
HETATM    5  N10 UNL     1     -33.361   8.223   5.100  1.00 20.00    -0.196 NA
ENDROOT
BRANCH   4   6
HETATM    6  C8  UNL     1     -33.465   6.106   2.300  1.00 20.00     0.062 C 
BRANCH   6   7
HETATM    7  C5  UNL     1     -32.772   7.318   1.715  1.00 20.00    -0.050 A 
HETATM    8  C2  UNL     1     -31.360   7.510   1.729  1.00 20.00     0.014 A 
HETATM    9  C3  UNL     1     -30.994   8.696   1.132  1.00 20.00     0.050 A 
HETATM   10  S11 UNL     1     -32.348   9.573   0.559  1.00 20.00    -0.113 SA
HETATM   11  C4  UNL     1     -33.430   8.365   1.110  1.00 20.00     0.056 A 
ENDBRANCH   6   7
ENDBRANCH   4   6
TORSDOF 2
ENDMDL
