MODEL 1
REMARK VINA RESULT:      -0.5      0.000      0.000
REMARK  1 active torsions:
REMARK  status: ('A' for Active; 'I' for Inactive)
REMARK    1  A    between atoms: C1_1  and  N10_10 
ROOT
HETATM    1  C2  UNL     1     -31.492   6.811   0.952  1.00 20.00     0.002 C 
HETATM    2  C3  UNL     1     -34.517   7.517   4.638  1.00 20.00     0.020 C 
HETATM    3  C4  UNL     1     -32.125   8.044   1.616  1.00 20.00     0.007 C 
HETATM    4  C5  UNL     1     -33.917   8.308   3.472  1.00 20.00     0.008 C 
HETATM    5  C6  UNL     1     -32.105   5.582   1.643  1.00 20.00     0.026 C 
HETATM    6  C7  UNL     1     -34.950   6.105   4.233  1.00 20.00     0.125 C 
HETATM    7  C8  UNL     1     -32.806   7.478   2.853  1.00 20.00     0.009 C 
HETATM    8  C9  UNL     1     -33.340   6.138   2.348  1.00 20.00     0.090 C 
HETATM    9  N10 UNL     1     -33.952   5.384   3.435  1.00 20.00    -0.354 N 
ENDROOT
BRANCH   9  10
HETATM   10  C1  UNL     1     -33.898   4.000   3.503  1.00 20.00     0.351 C 
HETATM   11  O11 UNL     1     -33.847   3.307   4.514  1.00 20.00    -0.284 OA
ENDBRANCH   9  10
TORSDOF 1
ENDMDL
MODEL 2
REMARK VINA RESULT:       0.6      1.831      3.416
REMARK  1 active torsions:
REMARK  status: ('A' for Active; 'I' for Inactive)
REMARK    1  A    between atoms: C1_1  and  N10_10 
ROOT
HETATM    1  C2  UNL     1     -35.086   6.132   4.312  1.00 20.00     0.002 C 
HETATM    2  C3  UNL     1     -31.898   8.474   1.557  1.00 20.00     0.020 C 
HETATM    3  C4  UNL     1     -34.418   7.514   4.362  1.00 20.00     0.007 C 
HETATM    4  C5  UNL     1     -32.544   8.607   2.938  1.00 20.00     0.008 C 
HETATM    5  C6  UNL     1     -34.450   5.383   3.128  1.00 20.00     0.026 C 
HETATM    6  C7  UNL     1     -31.491   7.033   1.230  1.00 20.00     0.125 C 
HETATM    7  C8  UNL     1     -33.686   7.610   3.031  1.00 20.00     0.009 C 
HETATM    8  C9  UNL     1     -33.183   6.181   2.831  1.00 20.00     0.090 C 
HETATM    9  N10 UNL     1     -32.528   6.040   1.536  1.00 20.00    -0.354 N 
ENDROOT
BRANCH   9  10
HETATM   10  C1  UNL     1     -32.587   4.869   0.796  1.00 20.00     0.351 C 
HETATM   11  O11 UNL     1     -31.671   4.330   0.183  1.00 20.00    -0.284 OA
ENDBRANCH   9  10
TORSDOF 1
ENDMDL
MODEL 3
REMARK VINA RESULT:       0.9      2.519      4.419
REMARK  1 active torsions:
REMARK  status: ('A' for Active; 'I' for Inactive)
REMARK    1  A    between atoms: C1_1  and  N10_10 
ROOT
HETATM    1  C2  UNL     1     -34.973   6.812   4.533  1.00 20.00     0.002 C 
HETATM    2  C3  UNL     1     -31.911   4.880   1.352  1.00 20.00     0.020 C 
HETATM    3  C4  UNL     1     -34.736   5.400   3.976  1.00 20.00     0.007 C 
HETATM    4  C5  UNL     1     -33.191   4.496   2.098  1.00 20.00     0.008 C 
HETATM    5  C6  UNL     1     -34.027   7.749   3.765  1.00 20.00     0.026 C 
HETATM    6  C7  UNL     1     -31.945   6.315   0.817  1.00 20.00     0.125 C 
HETATM    7  C8  UNL     1     -33.455   5.543   3.165  1.00 20.00     0.009 C 
HETATM    8  C9  UNL     1     -33.615   6.930   2.544  1.00 20.00     0.090 C 
HETATM    9  N10 UNL     1     -32.421   7.301   1.794  1.00 20.00    -0.354 N 
ENDROOT
BRANCH   9  10
HETATM   10  C1  UNL     1     -31.969   8.609   1.715  1.00 20.00     0.351 C 
HETATM   11  O11 UNL     1     -32.281   9.455   0.883  1.00 20.00    -0.284 OA
ENDBRANCH   9  10
TORSDOF 1
ENDMDL
MODEL 4
REMARK VINA RESULT:       1.8      1.458      2.906
REMARK  1 active torsions:
REMARK  status: ('A' for Active; 'I' for Inactive)
REMARK    1  A    between atoms: C1_1  and  N10_10 
ROOT
HETATM    1  C2  UNL     1     -32.334   9.564   1.327  1.00 20.00     0.002 C 
HETATM    2  C3  UNL     1     -32.681   4.764   1.595  1.00 20.00     0.020 C 
HETATM    3  C4  UNL     1     -31.590   8.385   0.683  1.00 20.00     0.007 C 
HETATM    4  C5  UNL     1     -31.714   5.821   1.056  1.00 20.00     0.008 C 
HETATM    5  C6  UNL     1     -33.327   8.956   2.332  1.00 20.00     0.026 C 
HETATM    6  C7  UNL     1     -33.245   5.127   2.973  1.00 20.00     0.125 C 
HETATM    7  C8  UNL     1     -32.408   7.171   1.099  1.00 20.00     0.009 C 
HETATM    8  C9  UNL     1     -32.821   7.529   2.526  1.00 20.00     0.090 C 
HETATM    9  N10 UNL     1     -33.712   6.515   3.075  1.00 20.00    -0.354 N 
ENDROOT
BRANCH   9  10
HETATM   10  C1  UNL     1     -34.737   6.824   3.957  1.00 20.00     0.351 C 
HETATM   11  O11 UNL     1     -35.699   6.122   4.253  1.00 20.00    -0.284 OA
ENDBRANCH   9  10
TORSDOF 1
ENDMDL
MODEL 5
REMARK VINA RESULT:       1.8      2.645      3.579
REMARK  1 active torsions:
REMARK  status: ('A' for Active; 'I' for Inactive)
REMARK    1  A    between atoms: C1_1  and  N10_10 
ROOT
HETATM    1  C2  UNL     1     -32.255   4.628   0.764  1.00 20.00     0.002 C 
HETATM    2  C3  UNL     1     -34.397   7.520   3.971  1.00 20.00     0.020 C 
HETATM    3  C4  UNL     1     -33.157   4.410   1.988  1.00 20.00     0.007 C 
HETATM    4  C5  UNL     1     -34.092   6.031   3.785  1.00 20.00     0.008 C 
HETATM    5  C6  UNL     1     -31.963   6.137   0.700  1.00 20.00     0.026 C 
HETATM    6  C7  UNL     1     -33.218   8.418   3.581  1.00 20.00     0.125 C 
HETATM    7  C8  UNL     1     -33.600   5.817   2.364  1.00 20.00     0.009 C 
HETATM    8  C9  UNL     1     -32.342   6.640   2.091  1.00 20.00     0.090 C 
HETATM    9  N10 UNL     1     -32.598   8.060   2.300  1.00 20.00    -0.354 N 
ENDROOT
BRANCH   9  10
HETATM   10  C1  UNL     1     -31.985   9.046   1.542  1.00 20.00     0.351 C 
HETATM   11  O11 UNL     1     -32.389   9.537   0.493  1.00 20.00    -0.284 OA
ENDBRANCH   9  10
TORSDOF 1
ENDMDL
MODEL 6
REMARK VINA RESULT:       2.1      1.822      3.064
REMARK  1 active torsions:
REMARK  status: ('A' for Active; 'I' for Inactive)
REMARK    1  A    between atoms: C1_1  and  N10_10 
ROOT
HETATM    1  C2  UNL     1     -31.661   9.249   1.029  1.00 20.00     0.002 C 
HETATM    2  C3  UNL     1     -33.225   4.774   1.899  1.00 20.00     0.020 C 
HETATM    3  C4  UNL     1     -31.329   7.857   0.472  1.00 20.00     0.007 C 
HETATM    4  C5  UNL     1     -32.081   5.471   1.159  1.00 20.00     0.008 C 
HETATM    5  C6  UNL     1     -32.660   9.033   2.178  1.00 20.00     0.026 C 
HETATM    6  C7  UNL     1     -33.517   5.405   3.265  1.00 20.00     0.125 C 
HETATM    7  C8  UNL     1     -32.386   6.957   1.096  1.00 20.00     0.009 C 
HETATM    8  C9  UNL     1     -32.529   7.546   2.500  1.00 20.00     0.090 C 
HETATM    9  N10 UNL     1     -33.588   6.870   3.238  1.00 20.00    -0.354 N 
ENDROOT
BRANCH   9  10
HETATM   10  C1  UNL     1     -34.391   7.529   4.157  1.00 20.00     0.351 C 
HETATM   11  O11 UNL     1     -34.027   8.180   5.130  1.00 20.00    -0.284 OA
ENDBRANCH   9  10
TORSDOF 1
ENDMDL
MODEL 7
REMARK VINA RESULT:       2.3      1.844      2.312
REMARK  1 active torsions:
REMARK  status: ('A' for Active; 'I' for Inactive)
REMARK    1  A    between atoms: C1_1  and  N10_10 
ROOT
HETATM    1  C2  UNL     1     -31.857   9.201   1.051  1.00 20.00     0.002 C 
HETATM    2  C3  UNL     1     -34.138   6.143   3.997  1.00 20.00     0.020 C 
HETATM    3  C4  UNL     1     -32.914   9.344   2.156  1.00 20.00     0.007 C 
HETATM    4  C5  UNL     1     -34.240   7.603   3.548  1.00 20.00     0.008 C 
HETATM    5  C6  UNL     1     -31.618   7.692   0.870  1.00 20.00     0.026 C 
HETATM    6  C7  UNL     1     -33.837   5.187   2.838  1.00 20.00     0.125 C 
HETATM    7  C8  UNL     1     -32.984   7.954   2.772  1.00 20.00     0.009 C 
HETATM    8  C9  UNL     1     -32.822   7.048   1.552  1.00 20.00     0.090 C 
HETATM    9  N10 UNL     1     -32.762   5.648   1.953  1.00 20.00    -0.354 N 
ENDROOT
BRANCH   9  10
HETATM   10  C1  UNL     1     -31.987   4.714   1.281  1.00 20.00     0.351 C 
HETATM   11  O11 UNL     1     -32.132   4.320   0.128  1.00 20.00    -0.284 OA
ENDBRANCH   9  10
TORSDOF 1
ENDMDL
MODEL 8
REMARK VINA RESULT:       2.3      2.108      3.649
REMARK  1 active torsions:
REMARK  status: ('A' for Active; 'I' for Inactive)
REMARK    1  A    between atoms: C1_1  and  N10_10 
ROOT
HETATM    1  C2  UNL     1     -32.556   2.831   4.111  1.00 20.00     0.002 C 
HETATM    2  C3  UNL     1     -35.623   6.528   3.717  1.00 20.00     0.020 C 
HETATM    3  C4  UNL     1     -33.838   3.258   4.840  1.00 20.00     0.007 C 
HETATM    4  C5  UNL     1     -35.309   5.390   4.692  1.00 20.00     0.008 C 
HETATM    5  C6  UNL     1     -32.223   3.957   3.118  1.00 20.00     0.026 C 
HETATM    6  C7  UNL     1     -34.361   7.198   3.164  1.00 20.00     0.125 C 
HETATM    7  C8  UNL     1     -34.351   4.428   4.012  1.00 20.00     0.009 C 
HETATM    8  C9  UNL     1     -33.057   5.136   3.611  1.00 20.00     0.090 C 
HETATM    9  N10 UNL     1     -33.336   6.249   2.713  1.00 20.00    -0.354 N 
ENDROOT
BRANCH   9  10
HETATM   10  C1  UNL     1     -32.469   6.619   1.695  1.00 20.00     0.351 C 
HETATM   11  O11 UNL     1     -31.781   7.633   1.637  1.00 20.00    -0.284 OA
ENDBRANCH   9  10
TORSDOF 1
ENDMDL
MODEL 9
REMARK VINA RESULT:       2.3      0.872      2.880
REMARK  1 active torsions:
REMARK  status: ('A' for Active; 'I' for Inactive)
REMARK    1  A    between atoms: C1_1  and  N10_10 
ROOT
HETATM    1  C2  UNL     1     -34.605   8.110   4.077  1.00 20.00     0.002 C 
HETATM    2  C3  UNL     1     -32.062   5.327   1.074  1.00 20.00     0.020 C 
HETATM    3  C4  UNL     1     -33.633   8.372   2.917  1.00 20.00     0.007 C 
HETATM    4  C5  UNL     1     -32.143   6.798   1.492  1.00 20.00     0.008 C 
HETATM    5  C6  UNL     1     -34.622   6.588   4.297  1.00 20.00     0.026 C 
HETATM    6  C7  UNL     1     -32.169   4.368   2.264  1.00 20.00     0.125 C 
HETATM    7  C8  UNL     1     -33.399   6.990   2.324  1.00 20.00     0.009 C 
HETATM    8  C9  UNL     1     -33.373   6.101   3.567  1.00 20.00     0.090 C 
HETATM    9  N10 UNL     1     -33.256   4.697   3.194  1.00 20.00    -0.354 N 
ENDROOT
BRANCH   9  10
HETATM   10  C1  UNL     1     -33.858   3.681   3.922  1.00 20.00     0.351 C 
HETATM   11  O11 UNL     1     -33.322   2.920   4.721  1.00 20.00    -0.284 OA
ENDBRANCH   9  10
TORSDOF 1
ENDMDL
