MODEL 1
REMARK VINA RESULT:       1.3      0.000      0.000
REMARK  3 active torsions:
REMARK  status: ('A' for Active; 'I' for Inactive)
REMARK    1  A    between atoms: C6_6  and  C11_11 
REMARK    2  A    between atoms: C7_7  and  C12_12 
REMARK    3  A    between atoms: C12_12  and  C13_13 
ROOT
HETATM    1  C1  UNL     1     -33.240   7.507   4.035  1.00 20.00     0.069 C 
HETATM    2  C2  UNL     1     -35.796   5.901   4.360  1.00 20.00     0.002 C 
HETATM    3  C3  UNL     1     -34.856   4.797   4.848  1.00 20.00     0.005 C 
HETATM    4  C4  UNL     1     -35.324   6.595   3.077  1.00 20.00     0.024 C 
HETATM    5  C5  UNL     1     -33.165   5.249   3.005  1.00 20.00     0.029 C 
HETATM    6  C6  UNL     1     -34.047   4.191   3.701  1.00 20.00    -0.013 C 
HETATM    7  C7  UNL     1     -33.792   6.667   2.945  1.00 20.00     0.050 C 
HETATM    8  N14 UNL     1     -32.809   8.164   4.889  1.00 20.00    -0.196 NA
ENDROOT
BRANCH   7   9
HETATM    9  C12 UNL     1     -33.423   7.336   1.608  1.00 20.00     0.028 C 
BRANCH   9  10
HETATM   10  C13 UNL     1     -32.276   8.342   1.740  1.00 20.00    -0.021 C 
HETATM   11  C9  UNL     1     -30.902   7.699   1.538  1.00 20.00     0.009 C 
HETATM   12  C10 UNL     1     -32.475   9.468   0.724  1.00 20.00     0.009 C 
ENDBRANCH   9  10
ENDBRANCH   7   9
BRANCH   6  13
HETATM   13  C11 UNL     1     -33.199   3.017   4.187  1.00 20.00     0.000 C 
HETATM   14  C8  UNL     1     -32.852   3.149   5.634  1.00 20.00     0.005 C 
ENDBRANCH   6  13
TORSDOF 3
ENDMDL
MODEL 2
REMARK VINA RESULT:       2.9      1.007      1.372
REMARK  3 active torsions:
REMARK  status: ('A' for Active; 'I' for Inactive)
REMARK    1  A    between atoms: C6_6  and  C11_11 
REMARK    2  A    between atoms: C7_7  and  C12_12 
REMARK    3  A    between atoms: C12_12  and  C13_13 
ROOT
HETATM    1  C1  UNL     1     -33.403   7.831   4.885  1.00 20.00     0.069 C 
HETATM    2  C2  UNL     1     -35.884   6.592   3.649  1.00 20.00     0.002 C 
HETATM    3  C3  UNL     1     -35.452   5.342   4.416  1.00 20.00     0.005 C 
HETATM    4  C4  UNL     1     -34.744   7.278   2.888  1.00 20.00     0.024 C 
HETATM    5  C5  UNL     1     -33.010   5.643   3.781  1.00 20.00     0.029 C 
HETATM    6  C6  UNL     1     -34.220   4.687   3.789  1.00 20.00    -0.013 C 
HETATM    7  C7  UNL     1     -33.373   7.138   3.576  1.00 20.00     0.050 C 
HETATM    8  N14 UNL     1     -33.428   8.374   5.911  1.00 20.00    -0.196 NA
ENDROOT
BRANCH   7   9
HETATM    9  C12 UNL     1     -32.293   7.816   2.713  1.00 20.00     0.028 C 
BRANCH   9  10
HETATM   10  C13 UNL     1     -32.477   7.557   1.215  1.00 20.00    -0.021 C 
HETATM   11  C9  UNL     1     -31.850   8.650   0.347  1.00 20.00     0.009 C 
HETATM   12  C10 UNL     1     -31.865   6.200   0.859  1.00 20.00     0.009 C 
ENDBRANCH   9  10
ENDBRANCH   7   9
BRANCH   6  13
HETATM   13  C11 UNL     1     -33.871   3.380   4.498  1.00 20.00     0.000 C 
HETATM   14  C8  UNL     1     -32.417   3.304   4.828  1.00 20.00     0.005 C 
ENDBRANCH   6  13
TORSDOF 3
ENDMDL
MODEL 3
REMARK VINA RESULT:       3.1      0.856      1.308
REMARK  3 active torsions:
REMARK  status: ('A' for Active; 'I' for Inactive)
REMARK    1  A    between atoms: C6_6  and  C11_11 
REMARK    2  A    between atoms: C7_7  and  C12_12 
REMARK    3  A    between atoms: C12_12  and  C13_13 
ROOT
HETATM    1  C1  UNL     1     -32.759   7.913   4.219  1.00 20.00     0.069 C 
HETATM    2  C2  UNL     1     -35.511   6.849   3.507  1.00 20.00     0.002 C 
HETATM    3  C3  UNL     1     -34.996   5.547   4.121  1.00 20.00     0.005 C 
HETATM    4  C4  UNL     1     -34.523   7.513   2.540  1.00 20.00     0.024 C 
HETATM    5  C5  UNL     1     -32.733   5.759   2.985  1.00 20.00     0.029 C 
HETATM    6  C6  UNL     1     -33.966   4.863   3.223  1.00 20.00    -0.013 C 
HETATM    7  C7  UNL     1     -33.047   7.277   2.912  1.00 20.00     0.050 C 
HETATM    8  N14 UNL     1     -32.534   8.412   5.243  1.00 20.00    -0.196 NA
ENDROOT
BRANCH   7   9
HETATM    9  C12 UNL     1     -32.141   7.940   1.859  1.00 20.00     0.028 C 
BRANCH   9  10
HETATM   10  C13 UNL     1     -32.878   8.972   1.001  1.00 20.00    -0.021 C 
HETATM   11  C9  UNL     1     -32.660  10.405   1.488  1.00 20.00     0.009 C 
HETATM   12  C10 UNL     1     -32.414   8.843  -0.452  1.00 20.00     0.009 C 
ENDBRANCH   9  10
ENDBRANCH   7   9
BRANCH   6  13
HETATM   13  C11 UNL     1     -33.547   3.510   3.798  1.00 20.00     0.000 C 
HETATM   14  C8  UNL     1     -33.294   3.591   5.267  1.00 20.00     0.005 C 
ENDBRANCH   6  13
TORSDOF 3
ENDMDL
MODEL 4
REMARK VINA RESULT:       3.6      1.573      4.724
REMARK  3 active torsions:
REMARK  status: ('A' for Active; 'I' for Inactive)
REMARK    1  A    between atoms: C6_6  and  C11_11 
REMARK    2  A    between atoms: C7_7  and  C12_12 
REMARK    3  A    between atoms: C12_12  and  C13_13 
ROOT
HETATM    1  C1  UNL     1     -35.743   6.373   3.362  1.00 20.00     0.069 C 
HETATM    2  C2  UNL     1     -33.684   8.310   4.467  1.00 20.00     0.002 C 
HETATM    3  C3  UNL     1     -33.216   8.398   3.014  1.00 20.00     0.005 C 
HETATM    4  C4  UNL     1     -33.927   6.878   4.955  1.00 20.00     0.024 C 
HETATM    5  C5  UNL     1     -33.409   5.888   2.668  1.00 20.00     0.029 C 
HETATM    6  C6  UNL     1     -32.493   7.126   2.571  1.00 20.00    -0.013 C 
HETATM    7  C7  UNL     1     -34.416   5.925   3.848  1.00 20.00     0.050 C 
HETATM    8  N14 UNL     1     -36.782   6.723   2.981  1.00 20.00    -0.196 NA
ENDROOT
BRANCH   7   9
HETATM    9  C12 UNL     1     -34.584   4.509   4.426  1.00 20.00     0.028 C 
BRANCH   9  10
HETATM   10  C13 UNL     1     -33.259   3.749   4.537  1.00 20.00    -0.021 C 
HETATM   11  C9  UNL     1     -32.803   3.568   5.986  1.00 20.00     0.009 C 
HETATM   12  C10 UNL     1     -33.405   2.381   3.866  1.00 20.00     0.009 C 
ENDBRANCH   9  10
ENDBRANCH   7   9
BRANCH   6  13
HETATM   13  C11 UNL     1     -31.934   7.274   1.157  1.00 20.00     0.000 C 
HETATM   14  C8  UNL     1     -32.010   8.687   0.681  1.00 20.00     0.005 C 
ENDBRANCH   6  13
TORSDOF 3
ENDMDL
MODEL 5
REMARK VINA RESULT:       4.0      1.051      5.299
REMARK  3 active torsions:
REMARK  status: ('A' for Active; 'I' for Inactive)
REMARK    1  A    between atoms: C6_6  and  C11_11 
REMARK    2  A    between atoms: C7_7  and  C12_12 
REMARK    3  A    between atoms: C12_12  and  C13_13 
ROOT
HETATM    1  C1  UNL     1     -33.053   7.691   3.637  1.00 20.00     0.069 C 
HETATM    2  C2  UNL     1     -30.616   7.525   1.835  1.00 20.00     0.002 C 
HETATM    3  C3  UNL     1     -31.172   8.813   1.225  1.00 20.00     0.005 C 
HETATM    4  C4  UNL     1     -31.667   6.427   2.032  1.00 20.00     0.024 C 
HETATM    5  C5  UNL     1     -33.554   7.929   1.217  1.00 20.00     0.029 C 
HETATM    6  C6  UNL     1     -32.418   8.550   0.379  1.00 20.00    -0.013 C 
HETATM    7  C7  UNL     1     -33.075   6.972   2.341  1.00 20.00     0.050 C 
HETATM    8  N14 UNL     1     -33.035   8.254   4.652  1.00 20.00    -0.196 NA
ENDROOT
BRANCH   7   9
HETATM    9  C12 UNL     1     -34.062   5.799   2.474  1.00 20.00     0.028 C 
BRANCH   9  10
HETATM   10  C13 UNL     1     -34.183   5.281   3.910  1.00 20.00    -0.021 C 
HETATM   11  C9  UNL     1     -35.595   5.439   4.476  1.00 20.00     0.009 C 
HETATM   12  C10 UNL     1     -33.772   3.807   3.949  1.00 20.00     0.009 C 
ENDBRANCH   9  10
ENDBRANCH   7   9
BRANCH   6  13
HETATM   13  C11 UNL     1     -32.893   9.827  -0.312  1.00 20.00     0.000 C 
HETATM   14  C8  UNL     1     -32.756  11.019   0.578  1.00 20.00     0.005 C 
ENDBRANCH   6  13
TORSDOF 3
ENDMDL
MODEL 6
REMARK VINA RESULT:       4.0      2.131      3.315
REMARK  3 active torsions:
REMARK  status: ('A' for Active; 'I' for Inactive)
REMARK    1  A    between atoms: C6_6  and  C11_11 
REMARK    2  A    between atoms: C7_7  and  C12_12 
REMARK    3  A    between atoms: C12_12  and  C13_13 
ROOT
HETATM    1  C1  UNL     1     -33.330   5.023   0.563  1.00 20.00     0.069 C 
HETATM    2  C2  UNL     1     -32.577   3.831   3.252  1.00 20.00     0.002 C 
HETATM    3  C3  UNL     1     -34.003   4.219   3.647  1.00 20.00     0.005 C 
HETATM    4  C4  UNL     1     -31.816   4.937   2.511  1.00 20.00     0.024 C 
HETATM    5  C5  UNL     1     -33.838   6.483   2.506  1.00 20.00     0.029 C 
HETATM    6  C6  UNL     1     -34.155   5.731   3.814  1.00 20.00    -0.013 C 
HETATM    7  C7  UNL     1     -32.722   5.833   1.646  1.00 20.00     0.050 C 
HETATM    8  N14 UNL     1     -33.805   4.388  -0.284  1.00 20.00    -0.196 NA
ENDROOT
BRANCH   7   9
HETATM    9  C12 UNL     1     -31.874   6.935   0.985  1.00 20.00     0.028 C 
BRANCH   9  10
HETATM   10  C13 UNL     1     -32.175   8.331   1.537  1.00 20.00    -0.021 C 
HETATM   11  C9  UNL     1     -31.242   8.726   2.683  1.00 20.00     0.009 C 
HETATM   12  C10 UNL     1     -32.065   9.354   0.404  1.00 20.00     0.009 C 
ENDBRANCH   9  10
ENDBRANCH   7   9
BRANCH   6  13
HETATM   13  C11 UNL     1     -35.552   6.090   4.319  1.00 20.00     0.000 C 
HETATM   14  C8  UNL     1     -36.375   6.732   3.251  1.00 20.00     0.005 C 
ENDBRANCH   6  13
TORSDOF 3
ENDMDL
MODEL 7
REMARK VINA RESULT:       4.1      1.923      2.996
REMARK  3 active torsions:
REMARK  status: ('A' for Active; 'I' for Inactive)
REMARK    1  A    between atoms: C6_6  and  C11_11 
REMARK    2  A    between atoms: C7_7  and  C12_12 
REMARK    3  A    between atoms: C12_12  and  C13_13 
ROOT
HETATM    1  C1  UNL     1     -31.882   6.360   1.728  1.00 20.00     0.069 C 
HETATM    2  C2  UNL     1     -32.218   8.073   4.211  1.00 20.00     0.002 C 
HETATM    3  C3  UNL     1     -33.298   7.054   4.578  1.00 20.00     0.005 C 
HETATM    4  C4  UNL     1     -32.295   8.563   2.761  1.00 20.00     0.024 C 
HETATM    5  C5  UNL     1     -34.230   7.003   2.215  1.00 20.00     0.029 C 
HETATM    6  C6  UNL     1     -34.546   7.211   3.710  1.00 20.00    -0.013 C 
HETATM    7  C7  UNL     1     -32.827   7.501   1.780  1.00 20.00     0.050 C 
HETATM    8  N14 UNL     1     -31.143   5.466   1.687  1.00 20.00    -0.196 NA
ENDROOT
BRANCH   7   9
HETATM    9  C12 UNL     1     -32.910   8.103   0.366  1.00 20.00     0.028 C 
BRANCH   9  10
HETATM   10  C13 UNL     1     -32.098   9.393   0.218  1.00 20.00    -0.021 C 
HETATM   11  C9  UNL     1     -30.823   9.196  -0.603  1.00 20.00     0.009 C 
HETATM   12  C10 UNL     1     -32.972  10.467  -0.435  1.00 20.00     0.009 C 
ENDBRANCH   9  10
ENDBRANCH   7   9
BRANCH   6  13
HETATM   13  C11 UNL     1     -35.655   6.263   4.165  1.00 20.00     0.000 C 
HETATM   14  C8  UNL     1     -35.121   4.908   4.493  1.00 20.00     0.005 C 
ENDBRANCH   6  13
TORSDOF 3
ENDMDL
MODEL 8
REMARK VINA RESULT:       4.1      1.899      2.546
REMARK  3 active torsions:
REMARK  status: ('A' for Active; 'I' for Inactive)
REMARK    1  A    between atoms: C6_6  and  C11_11 
REMARK    2  A    between atoms: C7_7  and  C12_12 
REMARK    3  A    between atoms: C12_12  and  C13_13 
ROOT
HETATM    1  C1  UNL     1     -32.605   7.358   2.801  1.00 20.00     0.069 C 
HETATM    2  C2  UNL     1     -35.533   6.781   3.354  1.00 20.00     0.002 C 
HETATM    3  C3  UNL     1     -34.989   5.948   4.515  1.00 20.00     0.005 C 
HETATM    4  C4  UNL     1     -34.803   6.546   2.026  1.00 20.00     0.024 C 
HETATM    5  C5  UNL     1     -33.133   4.950   3.095  1.00 20.00     0.029 C 
HETATM    6  C6  UNL     1     -34.325   4.659   4.029  1.00 20.00    -0.013 C 
HETATM    7  C7  UNL     1     -33.311   6.203   2.198  1.00 20.00     0.050 C 
HETATM    8  N14 UNL     1     -32.052   8.263   3.274  1.00 20.00    -0.196 NA
ENDROOT
BRANCH   7   9
HETATM    9  C12 UNL     1     -32.683   5.941   0.817  1.00 20.00     0.028 C 
BRANCH   9  10
HETATM   10  C13 UNL     1     -32.629   4.453   0.459  1.00 20.00    -0.021 C 
HETATM   11  C9  UNL     1     -33.676   4.060  -0.584  1.00 20.00     0.009 C 
HETATM   12  C10 UNL     1     -31.230   4.110  -0.058  1.00 20.00     0.009 C 
ENDBRANCH   9  10
ENDBRANCH   7   9
BRANCH   6  13
HETATM   13  C11 UNL     1     -33.889   3.787   5.206  1.00 20.00     0.000 C 
HETATM   14  C8  UNL     1     -32.996   2.675   4.765  1.00 20.00     0.005 C 
ENDBRANCH   6  13
TORSDOF 3
ENDMDL
MODEL 9
REMARK VINA RESULT:       4.1      1.742      4.576
REMARK  3 active torsions:
REMARK  status: ('A' for Active; 'I' for Inactive)
REMARK    1  A    between atoms: C6_6  and  C11_11 
REMARK    2  A    between atoms: C7_7  and  C12_12 
REMARK    3  A    between atoms: C12_12  and  C13_13 
ROOT
HETATM    1  C1  UNL     1     -35.605   6.205   3.455  1.00 20.00     0.069 C 
HETATM    2  C2  UNL     1     -33.304   8.123   3.947  1.00 20.00     0.002 C 
HETATM    3  C3  UNL     1     -33.002   7.896   2.466  1.00 20.00     0.005 C 
HETATM    4  C4  UNL     1     -33.586   6.834   4.728  1.00 20.00     0.024 C 
HETATM    5  C5  UNL     1     -33.406   5.393   2.638  1.00 20.00     0.029 C 
HETATM    6  C6  UNL     1     -32.425   6.504   2.209  1.00 20.00    -0.013 C 
HETATM    7  C7  UNL     1     -34.264   5.739   3.883  1.00 20.00     0.050 C 
HETATM    8  N14 UNL     1     -36.654   6.569   3.121  1.00 20.00    -0.196 NA
ENDROOT
BRANCH   7   9
HETATM    9  C12 UNL     1     -34.459   4.476   4.741  1.00 20.00     0.028 C 
BRANCH   9  10
HETATM   10  C13 UNL     1     -33.205   3.600   4.807  1.00 20.00    -0.021 C 
HETATM   11  C9  UNL     1     -32.635   3.493   6.222  1.00 20.00     0.009 C 
HETATM   12  C10 UNL     1     -33.538   2.203   4.277  1.00 20.00     0.009 C 
ENDBRANCH   9  10
ENDBRANCH   7   9
BRANCH   6  13
HETATM   13  C11 UNL     1     -32.024   6.335   0.745  1.00 20.00     0.000 C 
HETATM   14  C8  UNL     1     -31.837   4.897   0.387  1.00 20.00     0.005 C 
ENDBRANCH   6  13
TORSDOF 3
ENDMDL
