MODEL 1
REMARK VINA RESULT:      -1.9      0.000      0.000
REMARK  4 active torsions:
REMARK  status: ('A' for Active; 'I' for Inactive)
REMARK    1  A    between atoms: C6_6  and  C10_10 
REMARK    2  A    between atoms: C7_7  and  C11_11 
REMARK    3  A    between atoms: C9_9  and  C11_11 
REMARK    4  A    between atoms: C11_11  and  O12_12 
ROOT
HETATM    1  C1  UNL     1     -33.066   2.753   4.444  1.00 20.00     0.012 C 
HETATM    2  C2  UNL     1     -33.825   3.677   4.556  1.00 20.00    -0.115 C 
HETATM    3  C9  UNL     1     -34.757   4.807   4.697  1.00 20.00     0.125 C 
ENDROOT
BRANCH   3   4
HETATM    4  C11 UNL     1     -34.816   5.651   3.420  1.00 20.00     0.133 C 
BRANCH   4   5
HETATM    5  C7  UNL     1     -33.448   6.210   3.065  1.00 20.00     0.015 C 
HETATM    6  C4  UNL     1     -32.923   5.712   1.716  1.00 20.00     0.007 C 
HETATM    7  C3  UNL     1     -32.050   6.841   1.161  1.00 20.00     0.005 C 
HETATM    8  C6  UNL     1     -32.124   7.978   2.186  1.00 20.00    -0.014 C 
HETATM    9  C5  UNL     1     -33.440   7.728   2.916  1.00 20.00     0.012 C 
BRANCH   8  10
HETATM   10  C10 UNL     1     -32.041   9.359   1.557  1.00 20.00     0.000 C 
HETATM   11  C8  UNL     1     -32.380   9.332   0.101  1.00 20.00     0.005 C 
ENDBRANCH   8  10
ENDBRANCH   4   5
BRANCH   4  12
HETATM   12  O12 UNL     1     -35.714   6.741   3.634  1.00 20.00    -0.394 OA
HETATM   13  H30 UNL     1     -36.276   6.489   4.384  1.00 20.00     0.210 HD
ENDBRANCH   4  12
ENDBRANCH   3   4
TORSDOF 4
ENDMDL
MODEL 2
REMARK VINA RESULT:      -1.3      1.079      1.769
REMARK  4 active torsions:
REMARK  status: ('A' for Active; 'I' for Inactive)
REMARK    1  A    between atoms: C6_6  and  C10_10 
REMARK    2  A    between atoms: C7_7  and  C11_11 
REMARK    3  A    between atoms: C9_9  and  C11_11 
REMARK    4  A    between atoms: C11_11  and  O12_12 
ROOT
HETATM    1  C1  UNL     1     -33.188   1.654   4.671  1.00 20.00     0.012 C 
HETATM    2  C2  UNL     1     -33.269   2.852   4.633  1.00 20.00    -0.115 C 
HETATM    3  C9  UNL     1     -33.364   4.321   4.590  1.00 20.00     0.125 C 
ENDROOT
BRANCH   3   4
HETATM    4  C11 UNL     1     -34.644   4.780   3.885  1.00 20.00     0.133 C 
BRANCH   4   5
HETATM    5  C7  UNL     1     -34.472   6.160   3.272  1.00 20.00     0.015 C 
HETATM    6  C4  UNL     1     -34.175   7.248   4.308  1.00 20.00     0.007 C 
HETATM    7  C3  UNL     1     -33.306   8.287   3.590  1.00 20.00     0.005 C 
HETATM    8  C6  UNL     1     -33.093   7.753   2.170  1.00 20.00    -0.014 C 
HETATM    9  C5  UNL     1     -33.291   6.246   2.311  1.00 20.00     0.012 C 
BRANCH   8  10
HETATM   10  C10 UNL     1     -31.742   8.127   1.585  1.00 20.00     0.000 C 
HETATM   11  C8  UNL     1     -31.853   9.226   0.577  1.00 20.00     0.005 C 
ENDBRANCH   8  10
ENDBRANCH   4   5
BRANCH   4  12
HETATM   12  O12 UNL     1     -35.700   4.835   4.846  1.00 20.00    -0.394 OA
HETATM   13  H30 UNL     1     -36.431   5.310   4.422  1.00 20.00     0.210 HD
ENDBRANCH   4  12
ENDBRANCH   3   4
TORSDOF 4
ENDMDL
MODEL 3
REMARK VINA RESULT:      -1.2      1.595      5.474
REMARK  4 active torsions:
REMARK  status: ('A' for Active; 'I' for Inactive)
REMARK    1  A    between atoms: C6_6  and  C10_10 
REMARK    2  A    between atoms: C7_7  and  C11_11 
REMARK    3  A    between atoms: C9_9  and  C11_11 
REMARK    4  A    between atoms: C11_11  and  O12_12 
ROOT
HETATM    1  C1  UNL     1     -32.711  10.279  -0.407  1.00 20.00     0.012 C 
HETATM    2  C2  UNL     1     -32.421   9.579   0.525  1.00 20.00    -0.115 C 
HETATM    3  C9  UNL     1     -32.062   8.725   1.669  1.00 20.00     0.125 C 
ENDROOT
BRANCH   3   4
HETATM    4  C11 UNL     1     -32.717   7.344   1.567  1.00 20.00     0.133 C 
BRANCH   4   5
HETATM    5  C7  UNL     1     -33.183   6.853   2.928  1.00 20.00     0.015 C 
HETATM    6  C4  UNL     1     -34.669   7.116   3.189  1.00 20.00     0.007 C 
HETATM    7  C3  UNL     1     -35.142   5.982   4.104  1.00 20.00     0.005 C 
HETATM    8  C6  UNL     1     -33.927   5.073   4.317  1.00 20.00    -0.014 C 
HETATM    9  C5  UNL     1     -33.049   5.343   3.099  1.00 20.00     0.012 C 
BRANCH   8  10
HETATM   10  C10 UNL     1     -34.295   3.608   4.477  1.00 20.00     0.000 C 
HETATM   11  C8  UNL     1     -33.105   2.765   4.807  1.00 20.00     0.005 C 
ENDBRANCH   8  10
ENDBRANCH   4   5
BRANCH   4  12
HETATM   12  O12 UNL     1     -31.757   6.421   1.052  1.00 20.00    -0.394 OA
HETATM   13  H30 UNL     1     -31.652   6.632   0.111  1.00 20.00     0.210 HD
ENDBRANCH   4  12
ENDBRANCH   3   4
TORSDOF 4
ENDMDL
MODEL 4
REMARK VINA RESULT:      -0.8      1.620      5.262
REMARK  4 active torsions:
REMARK  status: ('A' for Active; 'I' for Inactive)
REMARK    1  A    between atoms: C6_6  and  C10_10 
REMARK    2  A    between atoms: C7_7  and  C11_11 
REMARK    3  A    between atoms: C9_9  and  C11_11 
REMARK    4  A    between atoms: C11_11  and  O12_12 
ROOT
HETATM    1  C1  UNL     1     -33.108  10.679   0.193  1.00 20.00     0.012 C 
HETATM    2  C2  UNL     1     -32.297   9.803   0.330  1.00 20.00    -0.115 C 
HETATM    3  C9  UNL     1     -31.303   8.730   0.492  1.00 20.00     0.125 C 
ENDROOT
BRANCH   3   4
HETATM    4  C11 UNL     1     -31.473   8.004   1.830  1.00 20.00     0.133 C 
BRANCH   4   5
HETATM    5  C7  UNL     1     -32.731   7.152   1.839  1.00 20.00     0.015 C 
HETATM    6  C4  UNL     1     -32.504   5.733   1.310  1.00 20.00     0.007 C 
HETATM    7  C3  UNL     1     -33.503   4.841   2.055  1.00 20.00     0.005 C 
HETATM    8  C6  UNL     1     -34.255   5.762   3.022  1.00 20.00    -0.014 C 
HETATM    9  C5  UNL     1     -33.295   6.928   3.238  1.00 20.00     0.012 C 
BRANCH   8  10
HETATM   10  C10 UNL     1     -34.660   5.073   4.314  1.00 20.00     0.000 C 
HETATM   11  C8  UNL     1     -33.936   3.779   4.509  1.00 20.00     0.005 C 
ENDBRANCH   8  10
ENDBRANCH   4   5
BRANCH   4  12
HETATM   12  O12 UNL     1     -31.573   8.979   2.869  1.00 20.00    -0.394 OA
HETATM   13  H30 UNL     1     -30.801   8.849   3.441  1.00 20.00     0.210 HD
ENDBRANCH   4  12
ENDBRANCH   3   4
TORSDOF 4
ENDMDL
MODEL 5
REMARK VINA RESULT:       0.6      1.997      4.738
REMARK  4 active torsions:
REMARK  status: ('A' for Active; 'I' for Inactive)
REMARK    1  A    between atoms: C6_6  and  C10_10 
REMARK    2  A    between atoms: C7_7  and  C11_11 
REMARK    3  A    between atoms: C9_9  and  C11_11 
REMARK    4  A    between atoms: C11_11  and  O12_12 
ROOT
HETATM    1  C1  UNL     1     -32.441   9.902  -0.050  1.00 20.00     0.012 C 
HETATM    2  C2  UNL     1     -31.958   8.939   0.482  1.00 20.00    -0.115 C 
HETATM    3  C9  UNL     1     -31.361   7.763   1.136  1.00 20.00     0.125 C 
ENDROOT
BRANCH   3   4
HETATM    4  C11 UNL     1     -32.259   6.528   0.999  1.00 20.00     0.133 C 
BRANCH   4   5
HETATM    5  C7  UNL     1     -33.471   6.624   1.910  1.00 20.00     0.015 C 
HETATM    6  C4  UNL     1     -33.746   5.335   2.689  1.00 20.00     0.007 C 
HETATM    7  C3  UNL     1     -34.386   5.770   4.011  1.00 20.00     0.005 C 
HETATM    8  C6  UNL     1     -34.430   7.301   3.978  1.00 20.00    -0.014 C 
HETATM    9  C5  UNL     1     -33.319   7.678   3.002  1.00 20.00     0.012 C 
BRANCH   8  10
HETATM   10  C10 UNL     1     -34.263   7.935   5.348  1.00 20.00     0.000 C 
HETATM   11  C8  UNL     1     -32.887   8.484   5.548  1.00 20.00     0.005 C 
ENDBRANCH   8  10
ENDBRANCH   4   5
BRANCH   4  12
HETATM   12  O12 UNL     1     -31.503   5.373   1.363  1.00 20.00    -0.394 OA
HETATM   13  H30 UNL     1     -31.436   5.383   2.330  1.00 20.00     0.210 HD
ENDBRANCH   4  12
ENDBRANCH   3   4
TORSDOF 4
ENDMDL
MODEL 6
REMARK VINA RESULT:       0.7      1.707      2.336
REMARK  4 active torsions:
REMARK  status: ('A' for Active; 'I' for Inactive)
REMARK    1  A    between atoms: C6_6  and  C10_10 
REMARK    2  A    between atoms: C7_7  and  C11_11 
REMARK    3  A    between atoms: C9_9  and  C11_11 
REMARK    4  A    between atoms: C11_11  and  O12_12 
ROOT
HETATM    1  C1  UNL     1     -35.647   4.984   4.736  1.00 20.00     0.012 C 
HETATM    2  C2  UNL     1     -35.044   5.887   4.223  1.00 20.00    -0.115 C 
HETATM    3  C9  UNL     1     -34.309   6.997   3.594  1.00 20.00     0.125 C 
ENDROOT
BRANCH   3   4
HETATM    4  C11 UNL     1     -33.011   6.513   2.940  1.00 20.00     0.133 C 
BRANCH   4   5
HETATM    5  C7  UNL     1     -32.185   7.680   2.424  1.00 20.00     0.015 C 
HETATM    6  C4  UNL     1     -31.401   7.349   1.151  1.00 20.00     0.007 C 
HETATM    7  C3  UNL     1     -31.295   8.661   0.368  1.00 20.00     0.005 C 
HETATM    8  C6  UNL     1     -32.054   9.708   1.191  1.00 20.00    -0.014 C 
HETATM    9  C5  UNL     1     -33.032   8.883   2.022  1.00 20.00     0.012 C 
BRANCH   8  10
HETATM   10  C10 UNL     1     -32.736  10.763   0.336  1.00 20.00     0.000 C 
HETATM   11  C8  UNL     1     -32.938  10.299  -1.071  1.00 20.00     0.005 C 
ENDBRANCH   8  10
ENDBRANCH   4   5
BRANCH   4  12
HETATM   12  O12 UNL     1     -33.343   5.665   1.840  1.00 20.00    -0.394 OA
HETATM   13  H30 UNL     1     -32.504   5.329   1.490  1.00 20.00     0.210 HD
ENDBRANCH   4  12
ENDBRANCH   3   4
TORSDOF 4
ENDMDL
MODEL 7
REMARK VINA RESULT:       0.8      1.423      1.857
REMARK  4 active torsions:
REMARK  status: ('A' for Active; 'I' for Inactive)
REMARK    1  A    between atoms: C6_6  and  C10_10 
REMARK    2  A    between atoms: C7_7  and  C11_11 
REMARK    3  A    between atoms: C9_9  and  C11_11 
REMARK    4  A    between atoms: C11_11  and  O12_12 
ROOT
HETATM    1  C1  UNL     1     -33.490   3.114   4.651  1.00 20.00     0.012 C 
HETATM    2  C2  UNL     1     -33.684   4.127   4.036  1.00 20.00    -0.115 C 
HETATM    3  C9  UNL     1     -33.926   5.370   3.285  1.00 20.00     0.125 C 
ENDROOT
BRANCH   3   4
HETATM    4  C11 UNL     1     -32.939   5.527   2.124  1.00 20.00     0.133 C 
BRANCH   4   5
HETATM    5  C7  UNL     1     -32.263   6.888   2.155  1.00 20.00     0.015 C 
HETATM    6  C4  UNL     1     -31.176   7.047   1.089  1.00 20.00     0.007 C 
HETATM    7  C3  UNL     1     -31.161   8.535   0.721  1.00 20.00     0.005 C 
HETATM    8  C6  UNL     1     -32.266   9.189   1.558  1.00 20.00    -0.014 C 
HETATM    9  C5  UNL     1     -33.220   8.040   1.868  1.00 20.00     0.012 C 
BRANCH   8  10
HETATM   10  C10 UNL     1     -32.940  10.354   0.854  1.00 20.00     0.000 C 
HETATM   11  C8  UNL     1     -32.814  10.259  -0.634  1.00 20.00     0.005 C 
ENDBRANCH   8  10
ENDBRANCH   4   5
BRANCH   4  12
HETATM   12  O12 UNL     1     -33.655   5.399   0.895  1.00 20.00    -0.394 OA
HETATM   13  H30 UNL     1     -34.400   6.018   0.948  1.00 20.00     0.210 HD
ENDBRANCH   4  12
ENDBRANCH   3   4
TORSDOF 4
ENDMDL
MODEL 8
REMARK VINA RESULT:       0.9      1.389      2.575
REMARK  4 active torsions:
REMARK  status: ('A' for Active; 'I' for Inactive)
REMARK    1  A    between atoms: C6_6  and  C10_10 
REMARK    2  A    between atoms: C7_7  and  C11_11 
REMARK    3  A    between atoms: C9_9  and  C11_11 
REMARK    4  A    between atoms: C11_11  and  O12_12 
ROOT
HETATM    1  C1  UNL     1     -33.935   4.009   4.460  1.00 20.00     0.012 C 
HETATM    2  C2  UNL     1     -34.599   4.991   4.271  1.00 20.00    -0.115 C 
HETATM    3  C9  UNL     1     -35.418   6.192   4.038  1.00 20.00     0.125 C 
ENDROOT
BRANCH   3   4
HETATM    4  C11 UNL     1     -34.558   7.459   3.991  1.00 20.00     0.133 C 
BRANCH   4   5
HETATM    5  C7  UNL     1     -33.760   7.536   2.700  1.00 20.00     0.015 C 
HETATM    6  C4  UNL     1     -32.401   8.222   2.868  1.00 20.00     0.007 C 
HETATM    7  C3  UNL     1     -31.471   7.573   1.838  1.00 20.00     0.005 C 
HETATM    8  C6  UNL     1     -32.306   6.503   1.127  1.00 20.00    -0.014 C 
HETATM    9  C5  UNL     1     -33.403   6.165   2.133  1.00 20.00     0.012 C 
BRANCH   8  10
HETATM   10  C10 UNL     1     -31.492   5.294   0.699  1.00 20.00     0.000 C 
HETATM   11  C8  UNL     1     -32.358   4.198   0.163  1.00 20.00     0.005 C 
ENDBRANCH   8  10
ENDBRANCH   4   5
BRANCH   4  12
HETATM   12  O12 UNL     1     -33.647   7.433   5.091  1.00 20.00    -0.394 OA
HETATM   13  H30 UNL     1     -33.612   6.513   5.395  1.00 20.00     0.210 HD
ENDBRANCH   4  12
ENDBRANCH   3   4
TORSDOF 4
ENDMDL
MODEL 9
REMARK VINA RESULT:       0.9      2.262      5.447
REMARK  4 active torsions:
REMARK  status: ('A' for Active; 'I' for Inactive)
REMARK    1  A    between atoms: C6_6  and  C10_10 
REMARK    2  A    between atoms: C7_7  and  C11_11 
REMARK    3  A    between atoms: C9_9  and  C11_11 
REMARK    4  A    between atoms: C11_11  and  O12_12 
ROOT
HETATM    1  C1  UNL     1     -32.677  11.268   0.551  1.00 20.00     0.012 C 
HETATM    2  C2  UNL     1     -32.767  10.099   0.291  1.00 20.00    -0.115 C 
HETATM    3  C9  UNL     1     -32.881   8.667  -0.032  1.00 20.00     0.125 C 
ENDROOT
BRANCH   3   4
HETATM    4  C11 UNL     1     -31.728   7.861   0.573  1.00 20.00     0.133 C 
BRANCH   4   5
HETATM    5  C7  UNL     1     -32.087   7.334   1.953  1.00 20.00     0.015 C 
HETATM    6  C4  UNL     1     -32.252   8.440   2.999  1.00 20.00     0.007 C 
HETATM    7  C3  UNL     1     -33.294   7.924   3.997  1.00 20.00     0.005 C 
HETATM    8  C6  UNL     1     -33.732   6.550   3.480  1.00 20.00    -0.014 C 
HETATM    9  C5  UNL     1     -33.427   6.605   1.986  1.00 20.00     0.012 C 
BRANCH   8  10
HETATM   10  C10 UNL     1     -35.186   6.231   3.783  1.00 20.00     0.000 C 
HETATM   11  C8  UNL     1     -35.328   4.992   4.608  1.00 20.00     0.005 C 
ENDBRANCH   8  10
ENDBRANCH   4   5
BRANCH   4  12
HETATM   12  O12 UNL     1     -30.588   8.714   0.692  1.00 20.00    -0.394 OA
HETATM   13  H30 UNL     1     -30.416   9.064  -0.195  1.00 20.00     0.210 HD
ENDBRANCH   4  12
ENDBRANCH   3   4
TORSDOF 4
ENDMDL
