MODEL 1
REMARK VINA RESULT:      -1.8      0.000      0.000
REMARK  4 active torsions:
REMARK  status: ('A' for Active; 'I' for Inactive)
REMARK    1  A    between atoms: C2_2  and  C8_8 
REMARK    2  A    between atoms: C6_6  and  C9_9 
REMARK    3  A    between atoms: C8_8  and  C9_9 
REMARK    4  A    between atoms: C9_9  and  O11_11 
ROOT
HETATM    1  C1  UNL     1     -33.906   3.929   4.426  1.00 20.00    -0.111 C 
HETATM    2  C2  UNL     1     -34.510   4.935   4.164  1.00 20.00    -0.104 C 
HETATM    3  C7  UNL     1     -33.173   2.706   4.745  1.00 20.00     0.112 C 
ENDROOT
BRANCH   2   4
HETATM    4  C8  UNL     1     -35.247   6.168   3.843  1.00 20.00     0.128 C 
BRANCH   4   5
HETATM    5  C9  UNL     1     -34.294   7.349   3.647  1.00 20.00     0.158 C 
BRANCH   5   6
HETATM    6  C6  UNL     1     -32.936   6.883   3.140  1.00 20.00     0.151 C 
HETATM    7  C4  UNL     1     -31.962   8.029   2.913  1.00 20.00     0.036 C 
HETATM    8  C3  UNL     1     -32.181   8.371   1.461  1.00 20.00     0.029 C 
HETATM    9  C5  UNL     1     -32.452   7.011   0.859  1.00 20.00     0.168 C 
HETATM   10  O10 UNL     1     -33.125   6.243   1.866  1.00 20.00    -0.383 OA
ENDBRANCH   5   6
BRANCH   5  11
HETATM   11  O11 UNL     1     -34.110   8.005   4.901  1.00 20.00    -0.392 OA
HETATM   12  H25 UNL     1     -34.604   7.488   5.555  1.00 20.00     0.210 HD
ENDBRANCH   5  11
ENDBRANCH   4   5
ENDBRANCH   2   4
TORSDOF 4
ENDMDL
MODEL 2
REMARK VINA RESULT:      -1.8      1.423      5.014
REMARK  4 active torsions:
REMARK  status: ('A' for Active; 'I' for Inactive)
REMARK    1  A    between atoms: C2_2  and  C8_8 
REMARK    2  A    between atoms: C6_6  and  C9_9 
REMARK    3  A    between atoms: C8_8  and  C9_9 
REMARK    4  A    between atoms: C9_9  and  O11_11 
ROOT
HETATM    1  C1  UNL     1     -32.362   9.593   0.500  1.00 20.00    -0.111 C 
HETATM    2  C2  UNL     1     -32.051   8.522   0.948  1.00 20.00    -0.104 C 
HETATM    3  C7  UNL     1     -32.738  10.896  -0.044  1.00 20.00     0.112 C 
ENDROOT
BRANCH   2   4
HETATM    4  C8  UNL     1     -31.675   7.210   1.497  1.00 20.00     0.128 C 
BRANCH   4   5
HETATM    5  C9  UNL     1     -32.909   6.352   1.784  1.00 20.00     0.158 C 
BRANCH   5   6
HETATM    6  C6  UNL     1     -33.114   6.166   3.281  1.00 20.00     0.151 C 
HETATM    7  C4  UNL     1     -34.339   5.329   3.614  1.00 20.00     0.036 C 
HETATM    8  C3  UNL     1     -35.419   6.369   3.781  1.00 20.00     0.029 C 
HETATM    9  C5  UNL     1     -34.654   7.512   4.409  1.00 20.00     0.168 C 
HETATM   10  O10 UNL     1     -33.325   7.461   3.872  1.00 20.00    -0.383 OA
ENDBRANCH   5   6
BRANCH   5  11
HETATM   11  O11 UNL     1     -32.726   5.068   1.188  1.00 20.00    -0.392 OA
HETATM   12  H25 UNL     1     -32.174   4.558   1.801  1.00 20.00     0.210 HD
ENDBRANCH   5  11
ENDBRANCH   4   5
ENDBRANCH   2   4
TORSDOF 4
ENDMDL
MODEL 3
REMARK VINA RESULT:      -1.1      1.342      4.777
REMARK  4 active torsions:
REMARK  status: ('A' for Active; 'I' for Inactive)
REMARK    1  A    between atoms: C2_2  and  C8_8 
REMARK    2  A    between atoms: C6_6  and  C9_9 
REMARK    3  A    between atoms: C8_8  and  C9_9 
REMARK    4  A    between atoms: C9_9  and  O11_11 
ROOT
HETATM    1  C1  UNL     1     -32.451   9.467   0.645  1.00 20.00    -0.111 C 
HETATM    2  C2  UNL     1     -32.214   8.523   1.350  1.00 20.00    -0.104 C 
HETATM    3  C7  UNL     1     -32.737  10.616  -0.211  1.00 20.00     0.112 C 
ENDROOT
BRANCH   2   4
HETATM    4  C8  UNL     1     -31.926   7.364   2.210  1.00 20.00     0.128 C 
BRANCH   4   5
HETATM    5  C9  UNL     1     -33.015   7.173   3.268  1.00 20.00     0.158 C 
BRANCH   5   6
HETATM    6  C6  UNL     1     -34.023   6.117   2.835  1.00 20.00     0.151 C 
HETATM    7  C4  UNL     1     -35.293   6.131   3.672  1.00 20.00     0.036 C 
HETATM    8  C3  UNL     1     -34.988   5.131   4.759  1.00 20.00     0.029 C 
HETATM    9  C5  UNL     1     -34.163   4.106   4.015  1.00 20.00     0.168 C 
HETATM   10  O10 UNL     1     -33.425   4.821   3.014  1.00 20.00    -0.383 OA
ENDBRANCH   5   6
BRANCH   5  11
HETATM   11  O11 UNL     1     -33.703   8.410   3.449  1.00 20.00    -0.392 OA
HETATM   12  H25 UNL     1     -33.894   8.481   4.396  1.00 20.00     0.210 HD
ENDBRANCH   5  11
ENDBRANCH   4   5
ENDBRANCH   2   4
TORSDOF 4
ENDMDL
MODEL 4
REMARK VINA RESULT:      -0.3      2.143      3.549
REMARK  4 active torsions:
REMARK  status: ('A' for Active; 'I' for Inactive)
REMARK    1  A    between atoms: C2_2  and  C8_8 
REMARK    2  A    between atoms: C6_6  and  C9_9 
REMARK    3  A    between atoms: C8_8  and  C9_9 
REMARK    4  A    between atoms: C9_9  and  O11_11 
ROOT
HETATM    1  C1  UNL     1     -34.363   6.790   3.845  1.00 20.00    -0.111 C 
HETATM    2  C2  UNL     1     -33.397   7.453   3.576  1.00 20.00    -0.104 C 
HETATM    3  C7  UNL     1     -35.537   5.983   4.171  1.00 20.00     0.112 C 
ENDROOT
BRANCH   2   4
HETATM    4  C8  UNL     1     -32.214   8.265   3.250  1.00 20.00     0.128 C 
BRANCH   4   5
HETATM    5  C9  UNL     1     -31.834   8.126   1.774  1.00 20.00     0.158 C 
BRANCH   5   6
HETATM    6  C6  UNL     1     -32.863   8.800   0.876  1.00 20.00     0.151 C 
HETATM    7  C4  UNL     1     -32.405   8.912  -0.570  1.00 20.00     0.036 C 
HETATM    8  C3  UNL     1     -31.752  10.271  -0.609  1.00 20.00     0.029 C 
HETATM    9  C5  UNL     1     -32.621  11.061   0.343  1.00 20.00     0.168 C 
HETATM   10  O10 UNL     1     -33.067  10.142   1.350  1.00 20.00    -0.383 OA
ENDBRANCH   5   6
BRANCH   5  11
HETATM   11  O11 UNL     1     -31.780   6.739   1.442  1.00 20.00    -0.392 OA
HETATM   12  H25 UNL     1     -31.840   6.254   2.279  1.00 20.00     0.210 HD
ENDBRANCH   5  11
ENDBRANCH   4   5
ENDBRANCH   2   4
TORSDOF 4
ENDMDL
MODEL 5
REMARK VINA RESULT:      -0.2      1.494      1.906
REMARK  4 active torsions:
REMARK  status: ('A' for Active; 'I' for Inactive)
REMARK    1  A    between atoms: C2_2  and  C8_8 
REMARK    2  A    between atoms: C6_6  and  C9_9 
REMARK    3  A    between atoms: C8_8  and  C9_9 
REMARK    4  A    between atoms: C9_9  and  O11_11 
ROOT
HETATM    1  C1  UNL     1     -33.377   4.163   3.715  1.00 20.00    -0.111 C 
HETATM    2  C2  UNL     1     -33.257   4.998   2.859  1.00 20.00    -0.104 C 
HETATM    3  C7  UNL     1     -33.523   3.149   4.757  1.00 20.00     0.112 C 
ENDROOT
BRANCH   2   4
HETATM    4  C8  UNL     1     -33.109   6.018   1.809  1.00 20.00     0.128 C 
BRANCH   4   5
HETATM    5  C9  UNL     1     -33.418   7.418   2.345  1.00 20.00     0.158 C 
BRANCH   5   6
HETATM    6  C6  UNL     1     -32.223   8.346   2.178  1.00 20.00     0.151 C 
HETATM    7  C4  UNL     1     -32.612   9.732   1.684  1.00 20.00     0.036 C 
HETATM    8  C3  UNL     1     -32.487   9.600   0.187  1.00 20.00     0.029 C 
HETATM    9  C5  UNL     1     -31.303   8.669   0.055  1.00 20.00     0.168 C 
HETATM   10  O10 UNL     1     -31.349   7.784   1.183  1.00 20.00    -0.383 OA
ENDBRANCH   5   6
BRANCH   5  11
HETATM   11  O11 UNL     1     -33.725   7.320   3.736  1.00 20.00    -0.392 OA
HETATM   12  H25 UNL     1     -33.231   6.557   4.072  1.00 20.00     0.210 HD
ENDBRANCH   5  11
ENDBRANCH   4   5
ENDBRANCH   2   4
TORSDOF 4
ENDMDL
MODEL 6
REMARK VINA RESULT:       0.2      1.923      3.066
REMARK  4 active torsions:
REMARK  status: ('A' for Active; 'I' for Inactive)
REMARK    1  A    between atoms: C2_2  and  C8_8 
REMARK    2  A    between atoms: C6_6  and  C9_9 
REMARK    3  A    between atoms: C8_8  and  C9_9 
REMARK    4  A    between atoms: C9_9  and  O11_11 
ROOT
HETATM    1  C1  UNL     1     -34.638   6.346   3.964  1.00 20.00    -0.111 C 
HETATM    2  C2  UNL     1     -33.954   7.256   3.579  1.00 20.00    -0.104 C 
HETATM    3  C7  UNL     1     -35.472   5.240   4.431  1.00 20.00     0.112 C 
ENDROOT
BRANCH   2   4
HETATM    4  C8  UNL     1     -33.113   8.368   3.109  1.00 20.00     0.128 C 
BRANCH   4   5
HETATM    5  C9  UNL     1     -32.049   7.882   2.122  1.00 20.00     0.158 C 
BRANCH   5   6
HETATM    6  C6  UNL     1     -31.499   9.035   1.294  1.00 20.00     0.151 C 
HETATM    7  C4  UNL     1     -32.412  10.251   1.290  1.00 20.00     0.036 C 
HETATM    8  C3  UNL     1     -33.268  10.023   0.070  1.00 20.00     0.029 C 
HETATM    9  C5  UNL     1     -32.289   9.370  -0.879  1.00 20.00     0.168 C 
HETATM   10  O10 UNL     1     -31.390   8.597  -0.072  1.00 20.00    -0.383 OA
ENDBRANCH   5   6
BRANCH   5  11
HETATM   11  O11 UNL     1     -32.641   6.930   1.239  1.00 20.00    -0.392 OA
HETATM   12  H25 UNL     1     -32.247   7.084   0.367  1.00 20.00     0.210 HD
ENDBRANCH   5  11
ENDBRANCH   4   5
ENDBRANCH   2   4
TORSDOF 4
ENDMDL
MODEL 7
REMARK VINA RESULT:       0.7      1.210      2.239
REMARK  4 active torsions:
REMARK  status: ('A' for Active; 'I' for Inactive)
REMARK    1  A    between atoms: C2_2  and  C8_8 
REMARK    2  A    between atoms: C6_6  and  C9_9 
REMARK    3  A    between atoms: C8_8  and  C9_9 
REMARK    4  A    between atoms: C9_9  and  O11_11 
ROOT
HETATM    1  C1  UNL     1     -33.544   3.222   4.361  1.00 20.00    -0.111 C 
HETATM    2  C2  UNL     1     -33.847   4.273   3.862  1.00 20.00    -0.104 C 
HETATM    3  C7  UNL     1     -33.177   1.945   4.968  1.00 20.00     0.112 C 
ENDROOT
BRANCH   2   4
HETATM    4  C8  UNL     1     -34.218   5.558   3.248  1.00 20.00     0.128 C 
BRANCH   4   5
HETATM    5  C9  UNL     1     -33.130   6.051   2.292  1.00 20.00     0.158 C 
BRANCH   5   6
HETATM    6  C6  UNL     1     -33.146   7.570   2.177  1.00 20.00     0.151 C 
HETATM    7  C4  UNL     1     -31.928   8.123   1.453  1.00 20.00     0.036 C 
HETATM    8  C3  UNL     1     -30.967   8.402   2.581  1.00 20.00     0.029 C 
HETATM    9  C5  UNL     1     -31.901   8.852   3.681  1.00 20.00     0.168 C 
HETATM   10  O10 UNL     1     -33.124   8.123   3.504  1.00 20.00    -0.383 OA
ENDBRANCH   5   6
BRANCH   5  11
HETATM   11  O11 UNL     1     -33.368   5.496   0.999  1.00 20.00    -0.392 OA
HETATM   12  H25 UNL     1     -32.498   5.348   0.599  1.00 20.00     0.210 HD
ENDBRANCH   5  11
ENDBRANCH   4   5
ENDBRANCH   2   4
TORSDOF 4
ENDMDL
MODEL 8
REMARK VINA RESULT:       0.8      1.491      3.807
REMARK  4 active torsions:
REMARK  status: ('A' for Active; 'I' for Inactive)
REMARK    1  A    between atoms: C2_2  and  C8_8 
REMARK    2  A    between atoms: C6_6  and  C9_9 
REMARK    3  A    between atoms: C8_8  and  C9_9 
REMARK    4  A    between atoms: C9_9  and  O11_11 
ROOT
HETATM    1  C1  UNL     1     -31.722   5.411   0.878  1.00 20.00    -0.111 C 
HETATM    2  C2  UNL     1     -32.026   6.379   1.523  1.00 20.00    -0.104 C 
HETATM    3  C7  UNL     1     -31.351   4.236   0.093  1.00 20.00     0.112 C 
ENDROOT
BRANCH   2   4
HETATM    4  C8  UNL     1     -32.400   7.562   2.315  1.00 20.00     0.128 C 
BRANCH   4   5
HETATM    5  C9  UNL     1     -33.307   7.182   3.487  1.00 20.00     0.158 C 
BRANCH   5   6
HETATM    6  C6  UNL     1     -34.249   6.047   3.109  1.00 20.00     0.151 C 
HETATM    7  C4  UNL     1     -35.580   6.111   3.843  1.00 20.00     0.036 C 
HETATM    8  C3  UNL     1     -35.332   5.255   5.059  1.00 20.00     0.029 C 
HETATM    9  C5  UNL     1     -34.424   4.182   4.503  1.00 20.00     0.168 C 
HETATM   10  O10 UNL     1     -33.631   4.803   3.482  1.00 20.00    -0.383 OA
ENDBRANCH   5   6
BRANCH   5  11
HETATM   11  O11 UNL     1     -34.088   8.319   3.851  1.00 20.00    -0.392 OA
HETATM   12  H25 UNL     1     -33.923   8.476   4.793  1.00 20.00     0.210 HD
ENDBRANCH   5  11
ENDBRANCH   4   5
ENDBRANCH   2   4
TORSDOF 4
ENDMDL
