MODEL 1
REMARK VINA RESULT:      -2.2      0.000      0.000
REMARK  3 active torsions:
REMARK  status: ('A' for Active; 'I' for Inactive)
REMARK    1  A    between atoms: C3_3  and  C7_7 
REMARK    2  A    between atoms: C3_3  and  C9_9 
REMARK    3  A    between atoms: C8_8  and  C9_9 
ROOT
HETATM    1  C1  UNL     1     -32.756  10.658  -0.016  1.00 20.00     0.012 C 
HETATM    2  C2  UNL     1     -32.289   9.589   0.268  1.00 20.00    -0.117 C 
HETATM    3  C8  UNL     1     -31.716   8.279   0.613  1.00 20.00     0.100 C 
ENDROOT
BRANCH   3   4
HETATM    4  C9  UNL     1     -32.032   7.880   2.052  1.00 20.00     0.091 C 
BRANCH   4   5
HETATM    5  C3  UNL     1     -32.826   6.587   2.172  1.00 20.00     0.134 C 
HETATM    6  O10 UNL     1     -33.018   5.829   1.222  1.00 20.00    -0.297 OA
BRANCH   5   7
HETATM    7  C7  UNL     1     -33.361   6.259   3.551  1.00 20.00     0.081 C 
HETATM    8  C4  UNL     1     -33.902   4.847   3.562  1.00 20.00     0.040 C 
HETATM    9  C5  UNL     1     -35.163   4.971   4.383  1.00 20.00     0.168 C 
HETATM   10  O11 UNL     1     -35.684   6.265   4.071  1.00 20.00    -0.390 OA
HETATM   11  C6  UNL     1     -34.563   7.135   3.861  1.00 20.00     0.179 C 
ENDBRANCH   5   7
ENDBRANCH   4   5
ENDBRANCH   3   4
TORSDOF 3
ENDMDL
MODEL 2
REMARK VINA RESULT:      -2.0      1.457      1.743
REMARK  3 active torsions:
REMARK  status: ('A' for Active; 'I' for Inactive)
REMARK    1  A    between atoms: C3_3  and  C7_7 
REMARK    2  A    between atoms: C3_3  and  C9_9 
REMARK    3  A    between atoms: C8_8  and  C9_9 
ROOT
HETATM    1  C1  UNL     1     -32.747  10.132  -0.384  1.00 20.00     0.012 C 
HETATM    2  C2  UNL     1     -32.231   9.460   0.467  1.00 20.00    -0.117 C 
HETATM    3  C8  UNL     1     -31.598   8.640   1.510  1.00 20.00     0.100 C 
ENDROOT
BRANCH   3   4
HETATM    4  C9  UNL     1     -32.306   7.300   1.691  1.00 20.00     0.091 C 
BRANCH   4   5
HETATM    5  C3  UNL     1     -33.139   7.210   2.961  1.00 20.00     0.134 C 
HETATM    6  O10 UNL     1     -32.949   7.933   3.938  1.00 20.00    -0.297 OA
BRANCH   5   7
HETATM    7  C7  UNL     1     -34.250   6.180   2.958  1.00 20.00     0.081 C 
HETATM    8  C4  UNL     1     -35.159   6.411   4.144  1.00 20.00     0.040 C 
HETATM    9  C5  UNL     1     -35.452   5.011   4.627  1.00 20.00     0.168 C 
HETATM   10  O11 UNL     1     -34.252   4.274   4.385  1.00 20.00    -0.390 OA
HETATM   11  C6  UNL     1     -33.671   4.793   3.180  1.00 20.00     0.179 C 
ENDBRANCH   5   7
ENDBRANCH   4   5
ENDBRANCH   3   4
TORSDOF 3
ENDMDL
MODEL 3
REMARK VINA RESULT:      -1.7      1.843      4.930
REMARK  3 active torsions:
REMARK  status: ('A' for Active; 'I' for Inactive)
REMARK    1  A    between atoms: C3_3  and  C7_7 
REMARK    2  A    between atoms: C3_3  and  C9_9 
REMARK    3  A    between atoms: C8_8  and  C9_9 
ROOT
HETATM    1  C1  UNL     1     -33.455   3.290   4.242  1.00 20.00     0.012 C 
HETATM    2  C2  UNL     1     -34.264   4.137   4.509  1.00 20.00    -0.117 C 
HETATM    3  C8  UNL     1     -35.255   5.172   4.839  1.00 20.00     0.100 C 
ENDROOT
BRANCH   3   4
HETATM    4  C9  UNL     1     -35.379   6.215   3.732  1.00 20.00     0.091 C 
BRANCH   4   5
HETATM    5  C3  UNL     1     -34.162   7.119   3.600  1.00 20.00     0.134 C 
HETATM    6  O10 UNL     1     -33.663   7.715   4.554  1.00 20.00    -0.297 OA
BRANCH   5   7
HETATM    7  C7  UNL     1     -33.567   7.236   2.211  1.00 20.00     0.081 C 
HETATM    8  C4  UNL     1     -33.033   5.891   1.774  1.00 20.00     0.040 C 
HETATM    9  C5  UNL     1     -31.735   6.245   1.088  1.00 20.00     0.168 C 
HETATM   10  O11 UNL     1     -31.222   7.363   1.816  1.00 20.00    -0.390 OA
HETATM   11  C6  UNL     1     -32.348   8.142   2.246  1.00 20.00     0.179 C 
ENDBRANCH   5   7
ENDBRANCH   4   5
ENDBRANCH   3   4
TORSDOF 3
ENDMDL
MODEL 4
REMARK VINA RESULT:      -1.4      1.502      5.031
REMARK  3 active torsions:
REMARK  status: ('A' for Active; 'I' for Inactive)
REMARK    1  A    between atoms: C3_3  and  C7_7 
REMARK    2  A    between atoms: C3_3  and  C9_9 
REMARK    3  A    between atoms: C8_8  and  C9_9 
ROOT
HETATM    1  C1  UNL     1     -33.513   3.363   4.430  1.00 20.00     0.012 C 
HETATM    2  C2  UNL     1     -34.345   4.227   4.498  1.00 20.00    -0.117 C 
HETATM    3  C8  UNL     1     -35.364   5.283   4.584  1.00 20.00     0.100 C 
ENDROOT
BRANCH   3   4
HETATM    4  C9  UNL     1     -35.111   6.403   3.578  1.00 20.00     0.091 C 
BRANCH   4   5
HETATM    5  C3  UNL     1     -33.947   7.311   3.947  1.00 20.00     0.134 C 
HETATM    6  O10 UNL     1     -33.994   8.115   4.877  1.00 20.00    -0.297 OA
BRANCH   5   7
HETATM    7  C7  UNL     1     -32.692   7.157   3.112  1.00 20.00     0.081 C 
HETATM    8  C4  UNL     1     -32.305   8.497   2.528  1.00 20.00     0.040 C 
HETATM    9  C5  UNL     1     -31.875   8.146   1.124  1.00 20.00     0.168 C 
HETATM   10  O11 UNL     1     -32.725   7.065   0.734  1.00 20.00    -0.390 OA
HETATM   11  C6  UNL     1     -32.977   6.279   1.907  1.00 20.00     0.179 C 
ENDBRANCH   5   7
ENDBRANCH   4   5
ENDBRANCH   3   4
TORSDOF 3
ENDMDL
MODEL 5
REMARK VINA RESULT:      -1.3      1.452      5.085
REMARK  3 active torsions:
REMARK  status: ('A' for Active; 'I' for Inactive)
REMARK    1  A    between atoms: C3_3  and  C7_7 
REMARK    2  A    between atoms: C3_3  and  C9_9 
REMARK    3  A    between atoms: C8_8  and  C9_9 
ROOT
HETATM    1  C1  UNL     1     -33.943   3.850   4.345  1.00 20.00     0.012 C 
HETATM    2  C2  UNL     1     -34.324   4.943   4.027  1.00 20.00    -0.117 C 
HETATM    3  C8  UNL     1     -34.792   6.281   3.637  1.00 20.00     0.100 C 
ENDROOT
BRANCH   3   4
HETATM    4  C9  UNL     1     -33.642   7.279   3.529  1.00 20.00     0.091 C 
BRANCH   4   5
HETATM    5  C3  UNL     1     -32.842   7.159   2.241  1.00 20.00     0.134 C 
HETATM    6  O10 UNL     1     -32.822   6.135   1.558  1.00 20.00    -0.297 OA
BRANCH   5   7
HETATM    7  C7  UNL     1     -32.071   8.393   1.817  1.00 20.00     0.081 C 
HETATM    8  C4  UNL     1     -33.007   9.579   1.760  1.00 20.00     0.040 C 
HETATM    9  C5  UNL     1     -32.562  10.305   0.512  1.00 20.00     0.168 C 
HETATM   10  O11 UNL     1     -32.156   9.275  -0.392  1.00 20.00    -0.390 OA
HETATM   11  C6  UNL     1     -31.571   8.227   0.393  1.00 20.00     0.179 C 
ENDBRANCH   5   7
ENDBRANCH   4   5
ENDBRANCH   3   4
TORSDOF 3
ENDMDL
MODEL 6
REMARK VINA RESULT:      -0.7      1.877      5.008
REMARK  3 active torsions:
REMARK  status: ('A' for Active; 'I' for Inactive)
REMARK    1  A    between atoms: C3_3  and  C7_7 
REMARK    2  A    between atoms: C3_3  and  C9_9 
REMARK    3  A    between atoms: C8_8  and  C9_9 
ROOT
HETATM    1  C1  UNL     1     -35.093   6.530   4.001  1.00 20.00     0.012 C 
HETATM    2  C2  UNL     1     -34.185   6.185   3.295  1.00 20.00    -0.117 C 
HETATM    3  C8  UNL     1     -33.072   5.760   2.432  1.00 20.00     0.100 C 
ENDROOT
BRANCH   3   4
HETATM    4  C9  UNL     1     -32.710   6.826   1.402  1.00 20.00     0.091 C 
BRANCH   4   5
HETATM    5  C3  UNL     1     -32.092   8.079   2.005  1.00 20.00     0.134 C 
HETATM    6  O10 UNL     1     -31.870   8.204   3.209  1.00 20.00    -0.297 OA
BRANCH   5   7
HETATM    7  C7  UNL     1     -31.735   9.182   1.028  1.00 20.00     0.081 C 
HETATM    8  C4  UNL     1     -32.689  10.342   1.203  1.00 20.00     0.040 C 
HETATM    9  C5  UNL     1     -32.964  10.775  -0.217  1.00 20.00     0.168 C 
HETATM   10  O11 UNL     1     -32.947   9.569  -0.984  1.00 20.00    -0.390 OA
HETATM   11  C6  UNL     1     -31.964   8.705  -0.396  1.00 20.00     0.179 C 
ENDBRANCH   5   7
ENDBRANCH   4   5
ENDBRANCH   3   4
TORSDOF 3
ENDMDL
MODEL 7
REMARK VINA RESULT:      -0.4      1.883      5.174
REMARK  3 active torsions:
REMARK  status: ('A' for Active; 'I' for Inactive)
REMARK    1  A    between atoms: C3_3  and  C7_7 
REMARK    2  A    between atoms: C3_3  and  C9_9 
REMARK    3  A    between atoms: C8_8  and  C9_9 
ROOT
HETATM    1  C1  UNL     1     -32.392   3.126   6.332  1.00 20.00     0.012 C 
HETATM    2  C2  UNL     1     -33.059   3.277   5.345  1.00 20.00    -0.117 C 
HETATM    3  C8  UNL     1     -33.878   3.459   4.137  1.00 20.00     0.100 C 
ENDROOT
BRANCH   3   4
HETATM    4  C9  UNL     1     -33.458   4.694   3.345  1.00 20.00     0.091 C 
BRANCH   4   5
HETATM    5  C3  UNL     1     -34.365   5.898   3.553  1.00 20.00     0.134 C 
HETATM    6  O10 UNL     1     -35.362   5.868   4.274  1.00 20.00    -0.297 OA
BRANCH   5   7
HETATM    7  C7  UNL     1     -33.963   7.169   2.833  1.00 20.00     0.081 C 
HETATM    8  C4  UNL     1     -32.974   6.838   1.738  1.00 20.00     0.040 C 
HETATM    9  C5  UNL     1     -31.972   7.964   1.832  1.00 20.00     0.168 C 
HETATM   10  O11 UNL     1     -31.892   8.276   3.225  1.00 20.00    -0.390 OA
HETATM   11  C6  UNL     1     -33.200   8.080   3.780  1.00 20.00     0.179 C 
ENDBRANCH   5   7
ENDBRANCH   4   5
ENDBRANCH   3   4
TORSDOF 3
ENDMDL
MODEL 8
REMARK VINA RESULT:      -0.3      2.143      4.852
REMARK  3 active torsions:
REMARK  status: ('A' for Active; 'I' for Inactive)
REMARK    1  A    between atoms: C3_3  and  C7_7 
REMARK    2  A    between atoms: C3_3  and  C9_9 
REMARK    3  A    between atoms: C8_8  and  C9_9 
ROOT
HETATM    1  C1  UNL     1     -34.499   6.990   4.077  1.00 20.00     0.012 C 
HETATM    2  C2  UNL     1     -33.969   6.446   3.145  1.00 20.00    -0.117 C 
HETATM    3  C8  UNL     1     -33.324   5.779   2.005  1.00 20.00     0.100 C 
ENDROOT
BRANCH   3   4
HETATM    4  C9  UNL     1     -31.968   6.399   1.675  1.00 20.00     0.091 C 
BRANCH   4   5
HETATM    5  C3  UNL     1     -31.916   7.907   1.874  1.00 20.00     0.134 C 
HETATM    6  O10 UNL     1     -31.238   8.443   2.750  1.00 20.00    -0.297 OA
BRANCH   5   7
HETATM    7  C7  UNL     1     -32.740   8.736   0.909  1.00 20.00     0.081 C 
HETATM    8  C4  UNL     1     -31.945   8.982  -0.353  1.00 20.00     0.040 C 
HETATM    9  C5  UNL     1     -32.258  10.422  -0.679  1.00 20.00     0.168 C 
HETATM   10  O11 UNL     1     -32.394  11.069   0.588  1.00 20.00    -0.390 OA
HETATM   11  C6  UNL     1     -32.979  10.119   1.490  1.00 20.00     0.179 C 
ENDBRANCH   5   7
ENDBRANCH   4   5
ENDBRANCH   3   4
TORSDOF 3
ENDMDL
MODEL 9
REMARK VINA RESULT:       0.1      1.760      5.029
REMARK  3 active torsions:
REMARK  status: ('A' for Active; 'I' for Inactive)
REMARK    1  A    between atoms: C3_3  and  C7_7 
REMARK    2  A    between atoms: C3_3  and  C9_9 
REMARK    3  A    between atoms: C8_8  and  C9_9 
ROOT
HETATM    1  C1  UNL     1     -32.952   2.895   4.882  1.00 20.00     0.012 C 
HETATM    2  C2  UNL     1     -33.846   3.657   4.633  1.00 20.00    -0.117 C 
HETATM    3  C8  UNL     1     -34.943   4.587   4.329  1.00 20.00     0.100 C 
ENDROOT
BRANCH   3   4
HETATM    4  C9  UNL     1     -34.432   5.998   4.045  1.00 20.00     0.091 C 
BRANCH   4   5
HETATM    5  C3  UNL     1     -33.607   6.108   2.771  1.00 20.00     0.134 C 
HETATM    6  O10 UNL     1     -33.275   5.131   2.101  1.00 20.00    -0.297 OA
BRANCH   5   7
HETATM    7  C7  UNL     1     -33.223   7.511   2.346  1.00 20.00     0.081 C 
HETATM    8  C4  UNL     1     -32.052   7.448   1.392  1.00 20.00     0.040 C 
HETATM    9  C5  UNL     1     -31.188   8.606   1.834  1.00 20.00     0.168 C 
HETATM   10  O11 UNL     1     -31.351   8.670   3.253  1.00 20.00    -0.390 OA
HETATM   11  C6  UNL     1     -32.704   8.290   3.542  1.00 20.00     0.179 C 
ENDBRANCH   5   7
ENDBRANCH   4   5
ENDBRANCH   3   4
TORSDOF 3
ENDMDL
