MODEL 1
REMARK VINA RESULT:      -1.9      0.000      0.000
REMARK  3 active torsions:
REMARK  status: ('A' for Active; 'I' for Inactive)
REMARK    1  A    between atoms: C3_3  and  C7_7 
REMARK    2  A    between atoms: C3_3  and  C10_10 
REMARK    3  A    between atoms: C8_8  and  C11_11 
ROOT
HETATM    1  C1  UNL     1     -32.676  10.219  -0.026  1.00 20.00     0.012 C 
HETATM    2  C2  UNL     1     -32.187   9.370   0.668  1.00 20.00    -0.110 C 
HETATM    3  C10 UNL     1     -31.583   8.333   1.512  1.00 20.00     0.171 C 
ENDROOT
BRANCH   3   4
HETATM    4  C3  UNL     1     -32.500   7.891   2.635  1.00 20.00     0.142 C 
HETATM    5  O12 UNL     1     -32.380   8.285   3.795  1.00 20.00    -0.297 OA
BRANCH   4   6
HETATM    6  C7  UNL     1     -33.598   6.916   2.254  1.00 20.00     0.057 C 
HETATM    7  C4  UNL     1     -32.965   5.739   1.517  1.00 20.00     0.013 C 
HETATM    8  C5  UNL     1     -32.836   4.644   2.569  1.00 20.00     0.005 C 
HETATM    9  C8  UNL     1     -34.099   4.827   3.403  1.00 20.00    -0.014 C 
HETATM   10  C6  UNL     1     -34.228   6.349   3.527  1.00 20.00     0.016 C 
BRANCH   9  11
HETATM   11  C11 UNL     1     -34.037   4.119   4.745  1.00 20.00     0.000 C 
HETATM   12  C9  UNL     1     -33.202   2.878   4.686  1.00 20.00     0.005 C 
ENDBRANCH   9  11
ENDBRANCH   4   6
ENDBRANCH   3   4
TORSDOF 3
ENDMDL
MODEL 2
REMARK VINA RESULT:      -1.7      1.021      5.053
REMARK  3 active torsions:
REMARK  status: ('A' for Active; 'I' for Inactive)
REMARK    1  A    between atoms: C3_3  and  C7_7 
REMARK    2  A    between atoms: C3_3  and  C10_10 
REMARK    3  A    between atoms: C8_8  and  C11_11 
ROOT
HETATM    1  C1  UNL     1     -33.471   3.312   4.484  1.00 20.00     0.012 C 
HETATM    2  C2  UNL     1     -34.160   4.261   4.229  1.00 20.00    -0.110 C 
HETATM    3  C10 UNL     1     -35.008   5.417   3.917  1.00 20.00     0.171 C 
ENDROOT
BRANCH   3   4
HETATM    4  C3  UNL     1     -34.209   6.694   3.744  1.00 20.00     0.142 C 
HETATM    5  O12 UNL     1     -34.600   7.791   4.142  1.00 20.00    -0.297 OA
BRANCH   4   6
HETATM    6  C7  UNL     1     -32.872   6.553   3.040  1.00 20.00     0.057 C 
HETATM    7  C4  UNL     1     -33.120   6.003   1.638  1.00 20.00     0.013 C 
HETATM    8  C5  UNL     1     -33.078   7.224   0.727  1.00 20.00     0.005 C 
HETATM    9  C8  UNL     1     -31.988   8.080   1.361  1.00 20.00    -0.014 C 
HETATM   10  C6  UNL     1     -32.251   7.939   2.864  1.00 20.00     0.016 C 
BRANCH   9  11
HETATM   11  C11 UNL     1     -32.005   9.521   0.882  1.00 20.00     0.000 C 
HETATM   12  C9  UNL     1     -32.741   9.672  -0.414  1.00 20.00     0.005 C 
ENDBRANCH   9  11
ENDBRANCH   4   6
ENDBRANCH   3   4
TORSDOF 3
ENDMDL
MODEL 3
REMARK VINA RESULT:      -1.5      1.745      5.214
REMARK  3 active torsions:
REMARK  status: ('A' for Active; 'I' for Inactive)
REMARK    1  A    between atoms: C3_3  and  C7_7 
REMARK    2  A    between atoms: C3_3  and  C10_10 
REMARK    3  A    between atoms: C8_8  and  C11_11 
ROOT
HETATM    1  C1  UNL     1     -33.014   2.459   5.172  1.00 20.00     0.012 C 
HETATM    2  C2  UNL     1     -33.349   3.344   4.434  1.00 20.00    -0.110 C 
HETATM    3  C10 UNL     1     -33.753   4.425   3.528  1.00 20.00     0.171 C 
ENDROOT
BRANCH   3   4
HETATM    4  C3  UNL     1     -34.869   5.277   4.100  1.00 20.00     0.142 C 
HETATM    5  O12 UNL     1     -35.702   4.847   4.898  1.00 20.00    -0.297 OA
BRANCH   4   6
HETATM    6  C7  UNL     1     -34.913   6.719   3.630  1.00 20.00     0.057 C 
HETATM    7  C4  UNL     1     -34.229   7.590   4.679  1.00 20.00     0.013 C 
HETATM    8  C5  UNL     1     -32.824   7.821   4.138  1.00 20.00     0.005 C 
HETATM    9  C8  UNL     1     -33.056   7.943   2.637  1.00 20.00    -0.014 C 
HETATM   10  C6  UNL     1     -34.094   6.853   2.347  1.00 20.00     0.016 C 
BRANCH   9  11
HETATM   11  C11 UNL     1     -31.785   7.792   1.820  1.00 20.00     0.000 C 
HETATM   12  C9  UNL     1     -31.732   8.765   0.683  1.00 20.00     0.005 C 
ENDBRANCH   9  11
ENDBRANCH   4   6
ENDBRANCH   3   4
TORSDOF 3
ENDMDL
MODEL 4
REMARK VINA RESULT:      -0.2      1.399      1.805
REMARK  3 active torsions:
REMARK  status: ('A' for Active; 'I' for Inactive)
REMARK    1  A    between atoms: C3_3  and  C7_7 
REMARK    2  A    between atoms: C3_3  and  C10_10 
REMARK    3  A    between atoms: C8_8  and  C11_11 
ROOT
HETATM    1  C1  UNL     1     -32.719  10.280  -0.077  1.00 20.00     0.012 C 
HETATM    2  C2  UNL     1     -32.236   9.411   0.595  1.00 20.00    -0.110 C 
HETATM    3  C10 UNL     1     -31.639   8.351   1.416  1.00 20.00     0.171 C 
ENDROOT
BRANCH   3   4
HETATM    4  C3  UNL     1     -32.650   7.305   1.840  1.00 20.00     0.142 C 
HETATM    5  O12 UNL     1     -33.128   6.477   1.065  1.00 20.00    -0.297 OA
BRANCH   4   6
HETATM    6  C7  UNL     1     -33.057   7.327   3.302  1.00 20.00     0.057 C 
HETATM    7  C4  UNL     1     -34.510   7.784   3.393  1.00 20.00     0.013 C 
HETATM    8  C5  UNL     1     -35.314   6.498   3.548  1.00 20.00     0.005 C 
HETATM    9  C8  UNL     1     -34.409   5.638   4.422  1.00 20.00    -0.014 C 
HETATM   10  C6  UNL     1     -33.009   5.903   3.856  1.00 20.00     0.016 C 
BRANCH   9  11
HETATM   11  C11 UNL     1     -34.790   4.168   4.414  1.00 20.00     0.000 C 
HETATM   12  C9  UNL     1     -33.590   3.277   4.498  1.00 20.00     0.005 C 
ENDBRANCH   9  11
ENDBRANCH   4   6
ENDBRANCH   3   4
TORSDOF 3
ENDMDL
MODEL 5
REMARK VINA RESULT:      -0.1      0.883      1.141
REMARK  3 active torsions:
REMARK  status: ('A' for Active; 'I' for Inactive)
REMARK    1  A    between atoms: C3_3  and  C7_7 
REMARK    2  A    between atoms: C3_3  and  C10_10 
REMARK    3  A    between atoms: C8_8  and  C11_11 
ROOT
HETATM    1  C1  UNL     1     -32.979  10.592  -0.251  1.00 20.00     0.012 C 
HETATM    2  C2  UNL     1     -32.263   9.775   0.259  1.00 20.00    -0.110 C 
HETATM    3  C10 UNL     1     -31.382   8.777   0.877  1.00 20.00     0.171 C 
ENDROOT
BRANCH   3   4
HETATM    4  C3  UNL     1     -32.078   7.982   1.964  1.00 20.00     0.142 C 
HETATM    5  O12 UNL     1     -31.878   8.166   3.165  1.00 20.00    -0.297 OA
BRANCH   4   6
HETATM    6  C7  UNL     1     -33.055   6.922   1.492  1.00 20.00     0.057 C 
HETATM    7  C4  UNL     1     -32.268   5.669   1.120  1.00 20.00     0.013 C 
HETATM    8  C5  UNL     1     -32.397   4.753   2.331  1.00 20.00     0.005 C 
HETATM    9  C8  UNL     1     -33.822   5.017   2.803  1.00 20.00    -0.014 C 
HETATM   10  C6  UNL     1     -33.973   6.535   2.652  1.00 20.00     0.016 C 
BRANCH   9  11
HETATM   11  C11 UNL     1     -34.085   4.526   4.216  1.00 20.00     0.000 C 
HETATM   12  C9  UNL     1     -35.370   5.065   4.766  1.00 20.00     0.005 C 
ENDBRANCH   9  11
ENDBRANCH   4   6
ENDBRANCH   3   4
TORSDOF 3
ENDMDL
MODEL 6
REMARK VINA RESULT:      -0.1      1.384      5.417
REMARK  3 active torsions:
REMARK  status: ('A' for Active; 'I' for Inactive)
REMARK    1  A    between atoms: C3_3  and  C7_7 
REMARK    2  A    between atoms: C3_3  and  C10_10 
REMARK    3  A    between atoms: C8_8  and  C11_11 
ROOT
HETATM    1  C1  UNL     1     -33.042   2.514   4.835  1.00 20.00     0.012 C 
HETATM    2  C2  UNL     1     -33.654   3.496   4.515  1.00 20.00    -0.110 C 
HETATM    3  C10 UNL     1     -34.408   4.693   4.128  1.00 20.00     0.171 C 
ENDROOT
BRANCH   3   4
HETATM    4  C3  UNL     1     -33.684   5.526   3.089  1.00 20.00     0.142 C 
HETATM    5  O12 UNL     1     -32.883   5.050   2.285  1.00 20.00    -0.297 OA
BRANCH   4   6
HETATM    6  C7  UNL     1     -33.999   7.010   3.087  1.00 20.00     0.057 C 
HETATM    7  C4  UNL     1     -33.072   7.703   4.083  1.00 20.00     0.013 C 
HETATM    8  C5  UNL     1     -31.956   8.293   3.230  1.00 20.00     0.005 C 
HETATM    9  C8  UNL     1     -32.692   8.735   1.970  1.00 20.00    -0.014 C 
HETATM   10  C6  UNL     1     -33.675   7.589   1.710  1.00 20.00     0.016 C 
BRANCH   9  11
HETATM   11  C11 UNL     1     -31.763   9.006   0.799  1.00 20.00     0.000 C 
HETATM   12  C9  UNL     1     -32.378   9.938  -0.199  1.00 20.00     0.005 C 
ENDBRANCH   9  11
ENDBRANCH   4   6
ENDBRANCH   3   4
TORSDOF 3
ENDMDL
MODEL 7
REMARK VINA RESULT:       0.1      1.416      5.355
REMARK  3 active torsions:
REMARK  status: ('A' for Active; 'I' for Inactive)
REMARK    1  A    between atoms: C3_3  and  C7_7 
REMARK    2  A    between atoms: C3_3  and  C10_10 
REMARK    3  A    between atoms: C8_8  and  C11_11 
ROOT
HETATM    1  C1  UNL     1     -33.536   3.260   4.486  1.00 20.00     0.012 C 
HETATM    2  C2  UNL     1     -33.870   4.310   4.010  1.00 20.00    -0.110 C 
HETATM    3  C10 UNL     1     -34.285   5.593   3.432  1.00 20.00     0.171 C 
ENDROOT
BRANCH   3   4
HETATM    4  C3  UNL     1     -33.373   6.047   2.310  1.00 20.00     0.142 C 
HETATM    5  O12 UNL     1     -33.418   5.575   1.174  1.00 20.00    -0.297 OA
BRANCH   4   6
HETATM    6  C7  UNL     1     -32.379   7.138   2.660  1.00 20.00     0.057 C 
HETATM    7  C4  UNL     1     -31.235   7.092   1.651  1.00 20.00     0.013 C 
HETATM    8  C5  UNL     1     -31.558   8.191   0.645  1.00 20.00     0.005 C 
HETATM    9  C8  UNL     1     -32.166   9.280   1.520  1.00 20.00    -0.014 C 
HETATM   10  C6  UNL     1     -33.053   8.501   2.497  1.00 20.00     0.016 C 
BRANCH   9  11
HETATM   11  C11 UNL     1     -32.926  10.330   0.727  1.00 20.00     0.000 C 
HETATM   12  C9  UNL     1     -32.774  10.134  -0.750  1.00 20.00     0.005 C 
ENDBRANCH   9  11
ENDBRANCH   4   6
ENDBRANCH   3   4
TORSDOF 3
ENDMDL
MODEL 8
REMARK VINA RESULT:       0.1      1.425      4.303
REMARK  3 active torsions:
REMARK  status: ('A' for Active; 'I' for Inactive)
REMARK    1  A    between atoms: C3_3  and  C7_7 
REMARK    2  A    between atoms: C3_3  and  C10_10 
REMARK    3  A    between atoms: C8_8  and  C11_11 
ROOT
HETATM    1  C1  UNL     1     -33.604   3.448   4.523  1.00 20.00     0.012 C 
HETATM    2  C2  UNL     1     -34.265   4.438   4.373  1.00 20.00    -0.110 C 
HETATM    3  C10 UNL     1     -35.080   5.644   4.190  1.00 20.00     0.171 C 
ENDROOT
BRANCH   3   4
HETATM    4  C3  UNL     1     -34.252   6.849   3.787  1.00 20.00     0.142 C 
HETATM    5  O12 UNL     1     -33.848   7.687   4.593  1.00 20.00    -0.297 OA
BRANCH   4   6
HETATM    6  C7  UNL     1     -33.939   6.977   2.308  1.00 20.00     0.057 C 
HETATM    7  C4  UNL     1     -32.774   7.949   2.143  1.00 20.00     0.013 C 
HETATM    8  C5  UNL     1     -31.547   7.062   1.970  1.00 20.00     0.005 C 
HETATM    9  C8  UNL     1     -32.087   5.895   1.153  1.00 20.00    -0.014 C 
HETATM   10  C6  UNL     1     -33.460   5.625   1.779  1.00 20.00     0.016 C 
BRANCH   9  11
HETATM   11  C11 UNL     1     -31.174   4.681   1.167  1.00 20.00     0.000 C 
HETATM   12  C9  UNL     1     -31.229   3.924  -0.124  1.00 20.00     0.005 C 
ENDBRANCH   9  11
ENDBRANCH   4   6
ENDBRANCH   3   4
TORSDOF 3
ENDMDL
MODEL 9
REMARK VINA RESULT:       0.7      1.792      4.562
REMARK  3 active torsions:
REMARK  status: ('A' for Active; 'I' for Inactive)
REMARK    1  A    between atoms: C3_3  and  C7_7 
REMARK    2  A    between atoms: C3_3  and  C10_10 
REMARK    3  A    between atoms: C8_8  and  C11_11 
ROOT
HETATM    1  C1  UNL     1     -33.537   8.380   5.270  1.00 20.00     0.012 C 
HETATM    2  C2  UNL     1     -34.005   7.634   4.454  1.00 20.00    -0.110 C 
HETATM    3  C10 UNL     1     -34.583   6.727   3.456  1.00 20.00     0.171 C 
ENDROOT
BRANCH   3   4
HETATM    4  C3  UNL     1     -33.710   5.514   3.198  1.00 20.00     0.142 C 
HETATM    5  O12 UNL     1     -33.896   4.425   3.739  1.00 20.00    -0.297 OA
BRANCH   4   6
HETATM    6  C7  UNL     1     -32.569   5.712   2.219  1.00 20.00     0.057 C 
HETATM    7  C4  UNL     1     -33.125   5.612   0.801  1.00 20.00     0.013 C 
HETATM    8  C5  UNL     1     -33.302   7.056   0.348  1.00 20.00     0.005 C 
HETATM    9  C8  UNL     1     -32.104   7.756   0.978  1.00 20.00    -0.014 C 
HETATM   10  C6  UNL     1     -32.016   7.129   2.373  1.00 20.00     0.016 C 
BRANCH   9  11
HETATM   11  C11 UNL     1     -32.243   9.269   1.008  1.00 20.00     0.000 C 
HETATM   12  C9  UNL     1     -32.594   9.826  -0.337  1.00 20.00     0.005 C 
ENDBRANCH   9  11
ENDBRANCH   4   6
ENDBRANCH   3   4
TORSDOF 3
ENDMDL
