MODEL 1
REMARK VINA RESULT:      -1.5      0.000      0.000
REMARK  5 active torsions:
REMARK  status: ('A' for Active; 'I' for Inactive)
REMARK    1  A    between atoms: C1_1  and  C6_6 
REMARK    2  A    between atoms: C1_1  and  C10_10 
REMARK    3  A    between atoms: C7_7  and  C11_11 
REMARK    4  A    between atoms: C10_10  and  C13_13 
REMARK    5  A    between atoms: C12_12  and  C13_13 
ROOT
HETATM    1  C2  UNL     1     -35.334   6.088   4.107  1.00 20.00     0.001 C 
HETATM    2  C3  UNL     1     -34.241   6.826   3.338  1.00 20.00     0.012 C 
HETATM    3  C4  UNL     1     -34.785   4.852   4.818  1.00 20.00     0.005 C 
HETATM    4  C5  UNL     1     -32.962   4.663   3.078  1.00 20.00     0.016 C 
HETATM    5  C6  UNL     1     -33.524   5.892   2.370  1.00 20.00     0.056 C 
HETATM    6  C7  UNL     1     -34.060   3.912   3.845  1.00 20.00    -0.014 C 
ENDROOT
BRANCH   5   7
HETATM    7  C1  UNL     1     -32.356   6.656   1.776  1.00 20.00     0.131 C 
HETATM    8  O14 UNL     1     -31.531   6.123   1.025  1.00 20.00    -0.298 OA
BRANCH   7   9
HETATM    9  C10 UNL     1     -32.250   8.127   2.152  1.00 20.00     0.079 C 
BRANCH   9  10
HETATM   10  C13 UNL     1     -31.658   8.984   1.035  1.00 20.00     0.007 C 
BRANCH  10  11
HETATM   11  C12 UNL     1     -32.576  10.154   0.686  1.00 20.00    -0.004 C 
HETATM   12  C9  UNL     1     -32.899  10.185  -0.799  1.00 20.00     0.005 C 
ENDBRANCH  10  11
ENDBRANCH   9  10
ENDBRANCH   7   9
ENDBRANCH   5   7
BRANCH   6  13
HETATM   13  C11 UNL     1     -33.476   2.713   4.589  1.00 20.00     0.000 C 
HETATM   14  C8  UNL     1     -32.648   3.138   5.757  1.00 20.00     0.005 C 
ENDBRANCH   6  13
TORSDOF 5
ENDMDL
MODEL 2
REMARK VINA RESULT:      -0.2      1.670      5.827
REMARK  5 active torsions:
REMARK  status: ('A' for Active; 'I' for Inactive)
REMARK    1  A    between atoms: C1_1  and  C6_6 
REMARK    2  A    between atoms: C1_1  and  C10_10 
REMARK    3  A    between atoms: C7_7  and  C11_11 
REMARK    4  A    between atoms: C10_10  and  C13_13 
REMARK    5  A    between atoms: C12_12  and  C13_13 
ROOT
HETATM    1  C2  UNL     1     -32.094   8.723   4.256  1.00 20.00     0.001 C 
HETATM    2  C3  UNL     1     -33.361   7.912   4.514  1.00 20.00     0.012 C 
HETATM    3  C4  UNL     1     -31.961   9.105   2.783  1.00 20.00     0.005 C 
HETATM    4  C5  UNL     1     -33.308   7.067   2.134  1.00 20.00     0.016 C 
HETATM    5  C6  UNL     1     -33.426   6.689   3.607  1.00 20.00     0.056 C 
HETATM    6  C7  UNL     1     -32.028   7.875   1.867  1.00 20.00    -0.014 C 
ENDROOT
BRANCH   5   7
HETATM    7  C1  UNL     1     -34.782   6.039   3.809  1.00 20.00     0.131 C 
HETATM    8  O14 UNL     1     -35.838   6.610   3.512  1.00 20.00    -0.298 OA
BRANCH   7   9
HETATM    9  C10 UNL     1     -34.778   4.636   4.398  1.00 20.00     0.079 C 
BRANCH   9  10
HETATM   10  C13 UNL     1     -33.728   3.728   3.762  1.00 20.00     0.007 C 
BRANCH  10  11
HETATM   11  C12 UNL     1     -33.285   2.630   4.727  1.00 20.00    -0.004 C 
HETATM   12  C9  UNL     1     -32.669   3.211   5.989  1.00 20.00     0.005 C 
ENDBRANCH  10  11
ENDBRANCH   9  10
ENDBRANCH   7   9
ENDBRANCH   5   7
BRANCH   6  13
HETATM   13  C11 UNL     1     -31.946   8.289   0.400  1.00 20.00     0.000 C 
HETATM   14  C8  UNL     1     -32.363   9.709   0.203  1.00 20.00     0.005 C 
ENDBRANCH   6  13
TORSDOF 5
ENDMDL
MODEL 3
REMARK VINA RESULT:      -0.2      1.511      5.952
REMARK  5 active torsions:
REMARK  status: ('A' for Active; 'I' for Inactive)
REMARK    1  A    between atoms: C1_1  and  C6_6 
REMARK    2  A    between atoms: C1_1  and  C10_10 
REMARK    3  A    between atoms: C7_7  and  C11_11 
REMARK    4  A    between atoms: C10_10  and  C13_13 
REMARK    5  A    between atoms: C12_12  and  C13_13 
ROOT
HETATM    1  C2  UNL     1     -31.932   5.847   1.116  1.00 20.00     0.001 C 
HETATM    2  C3  UNL     1     -32.713   5.797   2.427  1.00 20.00     0.012 C 
HETATM    3  C4  UNL     1     -31.349   7.236   0.862  1.00 20.00     0.005 C 
HETATM    4  C5  UNL     1     -33.208   8.266   2.229  1.00 20.00     0.016 C 
HETATM    5  C6  UNL     1     -33.789   6.876   2.468  1.00 20.00     0.056 C 
HETATM    6  C7  UNL     1     -32.430   8.324   0.906  1.00 20.00    -0.014 C 
ENDROOT
BRANCH   5   7
HETATM    7  C1  UNL     1     -34.398   6.863   3.857  1.00 20.00     0.131 C 
HETATM    8  O14 UNL     1     -34.064   7.670   4.733  1.00 20.00    -0.298 OA
BRANCH   7   9
HETATM    9  C10 UNL     1     -35.452   5.798   4.123  1.00 20.00     0.079 C 
BRANCH   9  10
HETATM   10  C13 UNL     1     -34.913   4.617   4.926  1.00 20.00     0.007 C 
BRANCH  10  11
HETATM   11  C12 UNL     1     -33.967   3.760   4.087  1.00 20.00    -0.004 C 
HETATM   12  C9  UNL     1     -33.050   2.921   4.962  1.00 20.00     0.005 C 
ENDBRANCH  10  11
ENDBRANCH   9  10
ENDBRANCH   7   9
ENDBRANCH   5   7
BRANCH   6  13
HETATM   13  C11 UNL     1     -31.813   9.706   0.702  1.00 20.00     0.000 C 
HETATM   14  C8  UNL     1     -32.717  10.605  -0.076  1.00 20.00     0.005 C 
ENDBRANCH   6  13
TORSDOF 5
ENDMDL
MODEL 4
REMARK VINA RESULT:      -0.0      1.056      1.840
REMARK  5 active torsions:
REMARK  status: ('A' for Active; 'I' for Inactive)
REMARK    1  A    between atoms: C1_1  and  C6_6 
REMARK    2  A    between atoms: C1_1  and  C10_10 
REMARK    3  A    between atoms: C7_7  and  C11_11 
REMARK    4  A    between atoms: C10_10  and  C13_13 
REMARK    5  A    between atoms: C12_12  and  C13_13 
ROOT
HETATM    1  C2  UNL     1     -33.952   8.427   4.534  1.00 20.00     0.001 C 
HETATM    2  C3  UNL     1     -32.840   8.342   3.492  1.00 20.00     0.012 C 
HETATM    3  C4  UNL     1     -34.354   7.043   5.042  1.00 20.00     0.005 C 
HETATM    4  C5  UNL     1     -33.614   6.025   2.850  1.00 20.00     0.016 C 
HETATM    5  C6  UNL     1     -33.227   7.412   2.348  1.00 20.00     0.056 C 
HETATM    6  C7  UNL     1     -34.742   6.105   3.891  1.00 20.00    -0.014 C 
ENDROOT
BRANCH   5   7
HETATM    7  C1  UNL     1     -32.011   7.256   1.454  1.00 20.00     0.131 C 
HETATM    8  O14 UNL     1     -31.547   6.149   1.158  1.00 20.00    -0.298 OA
BRANCH   7   9
HETATM    9  C10 UNL     1     -31.386   8.542   0.933  1.00 20.00     0.079 C 
BRANCH   9  10
HETATM   10  C13 UNL     1     -31.849   8.897  -0.479  1.00 20.00     0.007 C 
BRANCH  10  11
HETATM   11  C12 UNL     1     -32.782  10.106  -0.470  1.00 20.00    -0.004 C 
HETATM   12  C9  UNL     1     -32.748  10.827   0.868  1.00 20.00     0.005 C 
ENDBRANCH  10  11
ENDBRANCH   9  10
ENDBRANCH   7   9
ENDBRANCH   5   7
BRANCH   6  13
HETATM   13  C11 UNL     1     -35.087   4.715   4.421  1.00 20.00     0.000 C 
HETATM   14  C8  UNL     1     -33.911   3.796   4.367  1.00 20.00     0.005 C 
ENDBRANCH   6  13
TORSDOF 5
ENDMDL
MODEL 5
REMARK VINA RESULT:       0.7      1.895      5.157
REMARK  5 active torsions:
REMARK  status: ('A' for Active; 'I' for Inactive)
REMARK    1  A    between atoms: C1_1  and  C6_6 
REMARK    2  A    between atoms: C1_1  and  C10_10 
REMARK    3  A    between atoms: C7_7  and  C11_11 
REMARK    4  A    between atoms: C10_10  and  C13_13 
REMARK    5  A    between atoms: C12_12  and  C13_13 
ROOT
HETATM    1  C2  UNL     1     -31.576   8.378   1.602  1.00 20.00     0.001 C 
HETATM    2  C3  UNL     1     -32.745   8.443   2.581  1.00 20.00     0.012 C 
HETATM    3  C4  UNL     1     -31.721   7.209   0.630  1.00 20.00     0.005 C 
HETATM    4  C5  UNL     1     -33.082   5.950   2.349  1.00 20.00     0.016 C 
HETATM    5  C6  UNL     1     -32.922   7.119   3.316  1.00 20.00     0.056 C 
HETATM    6  C7  UNL     1     -31.902   5.875   1.367  1.00 20.00    -0.014 C 
ENDROOT
BRANCH   5   7
HETATM    7  C1  UNL     1     -34.194   7.216   4.136  1.00 20.00     0.131 C 
HETATM    8  O14 UNL     1     -34.380   8.117   4.963  1.00 20.00    -0.298 OA
BRANCH   7   9
HETATM    9  C10 UNL     1     -35.242   6.141   3.887  1.00 20.00     0.079 C 
BRANCH   9  10
HETATM   10  C13 UNL     1     -35.005   4.878   4.711  1.00 20.00     0.007 C 
BRANCH  10  11
HETATM   11  C12 UNL     1     -34.106   3.891   3.969  1.00 20.00    -0.004 C 
HETATM   12  C9  UNL     1     -33.228   3.105   4.929  1.00 20.00     0.005 C 
ENDBRANCH  10  11
ENDBRANCH   9  10
ENDBRANCH   7   9
ENDBRANCH   5   7
BRANCH   6  13
HETATM   13  C11 UNL     1     -32.098   4.731   0.374  1.00 20.00     0.000 C 
HETATM   14  C8  UNL     1     -33.538   4.545   0.024  1.00 20.00     0.005 C 
ENDBRANCH   6  13
TORSDOF 5
ENDMDL
