MODEL 1
REMARK VINA RESULT:      -0.2      0.000      0.000
REMARK  0 active torsions:
REMARK  status: ('A' for Active; 'I' for Inactive)
ROOT
HETATM    1  C1  UNL     1     -32.416   9.119   0.892  1.00 20.00     0.071 C 
HETATM    2  C2  UNL     1     -32.166   6.667   1.129  1.00 20.00     0.052 C 
HETATM    3  C3  UNL     1     -32.714   5.683   2.143  1.00 20.00     0.169 C 
HETATM    4  C4  UNL     1     -33.574   7.795   2.640  1.00 20.00     0.192 C 
HETATM    5  C5  UNL     1     -32.289   8.004   1.844  1.00 20.00     0.069 C 
HETATM    6  C6  UNL     1     -31.095   8.252   2.775  1.00 20.00     0.033 C 
HETATM    7  N7  UNL     1     -32.517   9.997   0.142  1.00 20.00    -0.196 NA
HETATM    8  O8  UNL     1     -33.669   6.393   2.941  1.00 20.00    -0.389 OA
ENDROOT
TORSDOF 0
ENDMDL
MODEL 2
REMARK VINA RESULT:      -0.2      3.170      4.052
REMARK  0 active torsions:
REMARK  status: ('A' for Active; 'I' for Inactive)
ROOT
HETATM    1  C1  UNL     1     -34.082   4.925   3.960  1.00 20.00     0.071 C 
HETATM    2  C2  UNL     1     -33.238   6.251   2.047  1.00 20.00     0.052 C 
HETATM    3  C3  UNL     1     -32.718   7.670   1.946  1.00 20.00     0.169 C 
HETATM    4  C4  UNL     1     -33.186   7.226   4.189  1.00 20.00     0.192 C 
HETATM    5  C5  UNL     1     -34.022   6.262   3.350  1.00 20.00     0.069 C 
HETATM    6  C6  UNL     1     -35.444   6.801   3.143  1.00 20.00     0.033 C 
HETATM    7  N7  UNL     1     -34.129   3.870   4.440  1.00 20.00    -0.196 NA
HETATM    8  O8  UNL     1     -32.574   8.160   3.284  1.00 20.00    -0.389 OA
ENDROOT
TORSDOF 0
ENDMDL
MODEL 3
REMARK VINA RESULT:       0.0      2.049      2.564
REMARK  0 active torsions:
REMARK  status: ('A' for Active; 'I' for Inactive)
ROOT
HETATM    1  C1  UNL     1     -32.808   7.702   2.466  1.00 20.00     0.071 C 
HETATM    2  C2  UNL     1     -33.568   5.658   3.639  1.00 20.00     0.052 C 
HETATM    3  C3  UNL     1     -34.906   5.265   4.231  1.00 20.00     0.169 C 
HETATM    4  C4  UNL     1     -35.148   7.349   3.209  1.00 20.00     0.192 C 
HETATM    5  C5  UNL     1     -33.667   7.173   3.536  1.00 20.00     0.069 C 
HETATM    6  C6  UNL     1     -33.311   7.848   4.867  1.00 20.00     0.033 C 
HETATM    7  N7  UNL     1     -32.131   8.119   1.622  1.00 20.00    -0.196 NA
HETATM    8  O8  UNL     1     -35.854   6.256   3.817  1.00 20.00    -0.389 OA
ENDROOT
TORSDOF 0
ENDMDL
MODEL 4
REMARK VINA RESULT:       0.8      1.916      2.881
REMARK  0 active torsions:
REMARK  status: ('A' for Active; 'I' for Inactive)
ROOT
HETATM    1  C1  UNL     1     -32.353   7.330   2.206  1.00 20.00     0.071 C 
HETATM    2  C2  UNL     1     -34.510   7.059   3.392  1.00 20.00     0.052 C 
HETATM    3  C3  UNL     1     -35.172   5.857   4.035  1.00 20.00     0.169 C 
HETATM    4  C4  UNL     1     -33.074   5.199   3.251  1.00 20.00     0.192 C 
HETATM    5  C5  UNL     1     -33.492   6.431   2.452  1.00 20.00     0.069 C 
HETATM    6  C6  UNL     1     -34.135   6.033   1.117  1.00 20.00     0.033 C 
HETATM    7  N7  UNL     1     -31.456   8.038   2.013  1.00 20.00    -0.196 NA
HETATM    8  O8  UNL     1     -34.202   4.802   4.047  1.00 20.00    -0.389 OA
ENDROOT
TORSDOF 0
ENDMDL
MODEL 5
REMARK VINA RESULT:       1.0      2.618      3.359
REMARK  0 active torsions:
REMARK  status: ('A' for Active; 'I' for Inactive)
ROOT
HETATM    1  C1  UNL     1     -34.606   6.754   3.645  1.00 20.00     0.071 C 
HETATM    2  C2  UNL     1     -33.611   8.495   2.192  1.00 20.00     0.052 C 
HETATM    3  C3  UNL     1     -32.296   8.564   1.444  1.00 20.00     0.169 C 
HETATM    4  C4  UNL     1     -32.440   6.472   2.469  1.00 20.00     0.192 C 
HETATM    5  C5  UNL     1     -33.359   7.419   3.237  1.00 20.00     0.069 C 
HETATM    6  C6  UNL     1     -32.652   7.994   4.472  1.00 20.00     0.033 C 
HETATM    7  N7  UNL     1     -35.589   6.229   3.965  1.00 20.00    -0.196 NA
HETATM    8  O8  UNL     1     -31.698   7.264   1.528  1.00 20.00    -0.389 OA
ENDROOT
TORSDOF 0
ENDMDL
MODEL 6
REMARK VINA RESULT:       1.1      1.139      1.312
REMARK  0 active torsions:
REMARK  status: ('A' for Active; 'I' for Inactive)
ROOT
HETATM    1  C1  UNL     1     -32.522   9.112   0.984  1.00 20.00     0.071 C 
HETATM    2  C2  UNL     1     -31.228   7.088   1.586  1.00 20.00     0.052 C 
HETATM    3  C3  UNL     1     -31.632   5.638   1.756  1.00 20.00     0.169 C 
HETATM    4  C4  UNL     1     -33.507   6.837   1.054  1.00 20.00     0.192 C 
HETATM    5  C5  UNL     1     -32.550   7.831   1.707  1.00 20.00     0.069 C 
HETATM    6  C6  UNL     1     -32.923   8.074   3.176  1.00 20.00     0.033 C 
HETATM    7  N7  UNL     1     -32.499  10.121   0.414  1.00 20.00    -0.196 NA
HETATM    8  O8  UNL     1     -32.980   5.520   1.284  1.00 20.00    -0.389 OA
ENDROOT
TORSDOF 0
ENDMDL
MODEL 7
REMARK VINA RESULT:       1.1      3.644      4.434
REMARK  0 active torsions:
REMARK  status: ('A' for Active; 'I' for Inactive)
ROOT
HETATM    1  C1  UNL     1     -33.810   4.299   4.020  1.00 20.00     0.071 C 
HETATM    2  C2  UNL     1     -33.134   6.666   4.289  1.00 20.00     0.052 C 
HETATM    3  C3  UNL     1     -33.873   7.967   4.049  1.00 20.00     0.169 C 
HETATM    4  C4  UNL     1     -35.349   6.207   3.640  1.00 20.00     0.192 C 
HETATM    5  C5  UNL     1     -33.934   5.660   3.475  1.00 20.00     0.069 C 
HETATM    6  C6  UNL     1     -33.506   5.667   2.001  1.00 20.00     0.033 C 
HETATM    7  N7  UNL     1     -33.714   3.227   4.451  1.00 20.00    -0.196 NA
HETATM    8  O8  UNL     1     -35.243   7.631   3.800  1.00 20.00    -0.389 OA
ENDROOT
TORSDOF 0
ENDMDL
MODEL 8
REMARK VINA RESULT:       1.2      2.491      3.234
REMARK  0 active torsions:
REMARK  status: ('A' for Active; 'I' for Inactive)
ROOT
HETATM    1  C1  UNL     1     -33.527   7.309   3.112  1.00 20.00     0.071 C 
HETATM    2  C2  UNL     1     -33.142   9.237   1.606  1.00 20.00     0.052 C 
HETATM    3  C3  UNL     1     -32.078   9.516   0.565  1.00 20.00     0.169 C 
HETATM    4  C4  UNL     1     -31.715   7.375   1.419  1.00 20.00     0.192 C 
HETATM    5  C5  UNL     1     -32.509   8.153   2.465  1.00 20.00     0.069 C 
HETATM    6  C6  UNL     1     -31.582   8.753   3.530  1.00 20.00     0.033 C 
HETATM    7  N7  UNL     1     -34.329   6.644   3.621  1.00 20.00    -0.196 NA
HETATM    8  O8  UNL     1     -31.333   8.305   0.393  1.00 20.00    -0.389 OA
ENDROOT
TORSDOF 0
ENDMDL
MODEL 9
REMARK VINA RESULT:       1.3      2.537      3.294
REMARK  0 active torsions:
REMARK  status: ('A' for Active; 'I' for Inactive)
ROOT
HETATM    1  C1  UNL     1     -34.100   6.784   3.211  1.00 20.00     0.071 C 
HETATM    2  C2  UNL     1     -31.854   7.806   2.996  1.00 20.00     0.052 C 
HETATM    3  C3  UNL     1     -31.182   8.551   1.861  1.00 20.00     0.169 C 
HETATM    4  C4  UNL     1     -33.366   8.052   1.209  1.00 20.00     0.192 C 
HETATM    5  C5  UNL     1     -32.978   7.055   2.298  1.00 20.00     0.069 C 
HETATM    6  C6  UNL     1     -32.478   5.738   1.689  1.00 20.00     0.033 C 
HETATM    7  N7  UNL     1     -34.984   6.572   3.931  1.00 20.00    -0.196 NA
HETATM    8  O8  UNL     1     -32.185   8.795   0.868  1.00 20.00    -0.389 OA
ENDROOT
TORSDOF 0
ENDMDL
