MODEL 1
REMARK VINA RESULT:      -2.1      0.000      0.000
REMARK  5 active torsions:
REMARK  status: ('A' for Active; 'I' for Inactive)
REMARK    1  A    between atoms: C1_1  and  C5_5 
REMARK    2  A    between atoms: C1_1  and  C9_9 
REMARK    3  A    between atoms: C6_6  and  C10_10 
REMARK    4  A    between atoms: C9_9  and  C12_12 
REMARK    5  A    between atoms: C11_11  and  C12_12 
ROOT
HETATM    1  C2  UNL     1     -35.310   6.196   3.924  1.00 20.00     0.012 C 
HETATM    2  C3  UNL     1     -34.947   4.927   4.684  1.00 20.00     0.005 C 
HETATM    3  C4  UNL     1     -33.284   5.187   2.976  1.00 20.00     0.016 C 
HETATM    4  C5  UNL     1     -34.089   6.491   3.049  1.00 20.00     0.056 C 
HETATM    5  C6  UNL     1     -34.160   4.128   3.651  1.00 20.00    -0.014 C 
ENDROOT
BRANCH   4   6
HETATM    6  C1  UNL     1     -33.257   7.581   3.653  1.00 20.00     0.131 C 
HETATM    7  O13 UNL     1     -33.538   8.105   4.735  1.00 20.00    -0.298 OA
BRANCH   6   8
HETATM    8  C9  UNL     1     -32.032   8.013   2.859  1.00 20.00     0.079 C 
BRANCH   8   9
HETATM    9  C12 UNL     1     -32.326   8.208   1.374  1.00 20.00     0.007 C 
BRANCH   9  10
HETATM   10  C11 UNL     1     -32.333   9.689   0.997  1.00 20.00    -0.004 C 
HETATM   11  C8  UNL     1     -32.679   9.891  -0.469  1.00 20.00     0.005 C 
ENDBRANCH   9  10
ENDBRANCH   8   9
ENDBRANCH   6   8
ENDBRANCH   4   6
BRANCH   5  12
HETATM   12  C10 UNL     1     -33.360   2.988   4.259  1.00 20.00     0.000 C 
HETATM   13  C7  UNL     1     -32.835   3.334   5.616  1.00 20.00     0.005 C 
ENDBRANCH   5  12
TORSDOF 5
ENDMDL
MODEL 2
REMARK VINA RESULT:      -1.1      1.523      2.080
REMARK  5 active torsions:
REMARK  status: ('A' for Active; 'I' for Inactive)
REMARK    1  A    between atoms: C1_1  and  C5_5 
REMARK    2  A    between atoms: C1_1  and  C9_9 
REMARK    3  A    between atoms: C6_6  and  C10_10 
REMARK    4  A    between atoms: C9_9  and  C12_12 
REMARK    5  A    between atoms: C11_11  and  C12_12 
ROOT
HETATM    1  C2  UNL     1     -33.926   7.990   3.307  1.00 20.00     0.012 C 
HETATM    2  C3  UNL     1     -34.098   7.048   4.491  1.00 20.00     0.005 C 
HETATM    3  C4  UNL     1     -34.155   5.675   2.525  1.00 20.00     0.016 C 
HETATM    4  C5  UNL     1     -33.674   7.072   2.109  1.00 20.00     0.056 C 
HETATM    5  C6  UNL     1     -34.844   5.868   3.879  1.00 20.00    -0.014 C 
ENDROOT
BRANCH   4   6
HETATM    6  C1  UNL     1     -32.216   7.037   1.767  1.00 20.00     0.131 C 
HETATM    7  O13 UNL     1     -31.599   5.979   1.606  1.00 20.00    -0.298 OA
BRANCH   6   8
HETATM    8  C9  UNL     1     -31.523   8.385   1.624  1.00 20.00     0.079 C 
BRANCH   8   9
HETATM    9  C12 UNL     1     -31.381   8.828   0.170  1.00 20.00     0.007 C 
BRANCH   9  10
HETATM   10  C11 UNL     1     -32.543   9.725  -0.255  1.00 20.00    -0.004 C 
HETATM   11  C8  UNL     1     -32.811  10.814   0.772  1.00 20.00     0.005 C 
ENDBRANCH   9  10
ENDBRANCH   8   9
ENDBRANCH   6   8
ENDBRANCH   4   6
BRANCH   5  12
HETATM   12  C10 UNL     1     -34.814   4.623   4.749  1.00 20.00     0.000 C 
HETATM   13  C7  UNL     1     -33.745   3.667   4.322  1.00 20.00     0.005 C 
ENDBRANCH   5  12
TORSDOF 5
ENDMDL
MODEL 3
REMARK VINA RESULT:      -0.8      0.843      5.456
REMARK  5 active torsions:
REMARK  status: ('A' for Active; 'I' for Inactive)
REMARK    1  A    between atoms: C1_1  and  C5_5 
REMARK    2  A    between atoms: C1_1  and  C9_9 
REMARK    3  A    between atoms: C6_6  and  C10_10 
REMARK    4  A    between atoms: C9_9  and  C12_12 
REMARK    5  A    between atoms: C11_11  and  C12_12 
ROOT
HETATM    1  C2  UNL     1     -31.697   8.049   3.351  1.00 20.00     0.012 C 
HETATM    2  C3  UNL     1     -31.742   9.096   2.246  1.00 20.00     0.005 C 
HETATM    3  C4  UNL     1     -33.054   7.245   1.471  1.00 20.00     0.016 C 
HETATM    4  C5  UNL     1     -32.765   7.024   2.962  1.00 20.00     0.056 C 
HETATM    5  C6  UNL     1     -32.011   8.261   0.999  1.00 20.00    -0.014 C 
ENDROOT
BRANCH   4   6
HETATM    6  C1  UNL     1     -34.011   7.227   3.767  1.00 20.00     0.131 C 
HETATM    7  O13 UNL     1     -34.162   8.195   4.521  1.00 20.00    -0.298 OA
BRANCH   6   8
HETATM    8  C9  UNL     1     -35.097   6.172   3.609  1.00 20.00     0.079 C 
BRANCH   8   9
HETATM    9  C12 UNL     1     -34.867   4.947   4.491  1.00 20.00     0.007 C 
BRANCH   9  10
HETATM   10  C11 UNL     1     -33.929   3.946   3.820  1.00 20.00    -0.004 C 
HETATM   11  C8  UNL     1     -33.240   3.055   4.841  1.00 20.00     0.005 C 
ENDBRANCH   9  10
ENDBRANCH   8   9
ENDBRANCH   6   8
ENDBRANCH   4   6
BRANCH   5  12
HETATM   12  C10 UNL     1     -32.475   9.089  -0.187  1.00 20.00     0.000 C 
HETATM   13  C7  UNL     1     -32.657  10.530   0.173  1.00 20.00     0.005 C 
ENDBRANCH   5  12
TORSDOF 5
ENDMDL
MODEL 4
REMARK VINA RESULT:      -0.0      1.503      5.720
REMARK  5 active torsions:
REMARK  status: ('A' for Active; 'I' for Inactive)
REMARK    1  A    between atoms: C1_1  and  C5_5 
REMARK    2  A    between atoms: C1_1  and  C9_9 
REMARK    3  A    between atoms: C6_6  and  C10_10 
REMARK    4  A    between atoms: C9_9  and  C12_12 
REMARK    5  A    between atoms: C11_11  and  C12_12 
ROOT
HETATM    1  C2  UNL     1     -32.630   8.158   3.196  1.00 20.00     0.012 C 
HETATM    2  C3  UNL     1     -32.833   9.201   2.106  1.00 20.00     0.005 C 
HETATM    3  C4  UNL     1     -31.874   7.283   1.032  1.00 20.00     0.016 C 
HETATM    4  C5  UNL     1     -32.299   6.866   2.446  1.00 20.00     0.056 C 
HETATM    5  C6  UNL     1     -31.787   8.811   1.066  1.00 20.00    -0.014 C 
ENDROOT
BRANCH   4   6
HETATM    6  C1  UNL     1     -33.499   5.970   2.383  1.00 20.00     0.131 C 
HETATM    7  O13 UNL     1     -33.693   5.189   1.445  1.00 20.00    -0.298 OA
BRANCH   6   8
HETATM    8  C9  UNL     1     -34.476   6.068   3.546  1.00 20.00     0.079 C 
BRANCH   8   9
HETATM    9  C12 UNL     1     -34.646   4.747   4.292  1.00 20.00     0.007 C 
BRANCH   9  10
HETATM   10  C11 UNL     1     -33.572   3.738   3.887  1.00 20.00    -0.004 C 
HETATM   11  C8  UNL     1     -33.132   2.888   5.068  1.00 20.00     0.005 C 
ENDBRANCH   9  10
ENDBRANCH   8   9
ENDBRANCH   6   8
ENDBRANCH   4   6
BRANCH   5  12
HETATM   12  C10 UNL     1     -32.023   9.455  -0.290  1.00 20.00     0.000 C 
HETATM   13  C7  UNL     1     -32.955  10.622  -0.202  1.00 20.00     0.005 C 
ENDBRANCH   5  12
TORSDOF 5
ENDMDL
MODEL 5
REMARK VINA RESULT:       0.5      1.875      5.637
REMARK  5 active torsions:
REMARK  status: ('A' for Active; 'I' for Inactive)
REMARK    1  A    between atoms: C1_1  and  C5_5 
REMARK    2  A    between atoms: C1_1  and  C9_9 
REMARK    3  A    between atoms: C6_6  and  C10_10 
REMARK    4  A    between atoms: C9_9  and  C12_12 
REMARK    5  A    between atoms: C11_11  and  C12_12 
ROOT
HETATM    1  C2  UNL     1     -32.397   7.904   2.789  1.00 20.00     0.012 C 
HETATM    2  C3  UNL     1     -32.963   8.972   1.863  1.00 20.00     0.005 C 
HETATM    3  C4  UNL     1     -31.348   7.751   0.576  1.00 20.00     0.016 C 
HETATM    4  C5  UNL     1     -31.602   6.971   1.873  1.00 20.00     0.056 C 
HETATM    5  C6  UNL     1     -31.837   9.175   0.854  1.00 20.00    -0.014 C 
ENDROOT
BRANCH   4   6
HETATM    6  C1  UNL     1     -32.381   5.724   1.583  1.00 20.00     0.131 C 
HETATM    7  O13 UNL     1     -31.954   4.835   0.839  1.00 20.00    -0.298 OA
BRANCH   6   8
HETATM    8  C9  UNL     1     -33.740   5.605   2.261  1.00 20.00     0.079 C 
BRANCH   8   9
HETATM    9  C12 UNL     1     -33.743   4.600   3.410  1.00 20.00     0.007 C 
BRANCH   9  10
HETATM   10  C11 UNL     1     -34.849   4.909   4.417  1.00 20.00    -0.004 C 
HETATM   11  C8  UNL     1     -35.460   6.280   4.171  1.00 20.00     0.005 C 
ENDBRANCH   9  10
ENDBRANCH   8   9
ENDBRANCH   6   8
ENDBRANCH   4   6
BRANCH   5  12
HETATM   12  C10 UNL     1     -32.281   9.911  -0.398  1.00 20.00     0.000 C 
HETATM   13  C7  UNL     1     -33.352  10.914  -0.108  1.00 20.00     0.005 C 
ENDBRANCH   5  12
TORSDOF 5
ENDMDL
MODEL 6
REMARK VINA RESULT:       0.6      1.886      4.888
REMARK  5 active torsions:
REMARK  status: ('A' for Active; 'I' for Inactive)
REMARK    1  A    between atoms: C1_1  and  C5_5 
REMARK    2  A    between atoms: C1_1  and  C9_9 
REMARK    3  A    between atoms: C6_6  and  C10_10 
REMARK    4  A    between atoms: C9_9  and  C12_12 
REMARK    5  A    between atoms: C11_11  and  C12_12 
ROOT
HETATM    1  C2  UNL     1     -31.596   5.699   1.786  1.00 20.00     0.012 C 
HETATM    2  C3  UNL     1     -31.284   7.187   1.867  1.00 20.00     0.005 C 
HETATM    3  C4  UNL     1     -33.558   7.017   1.126  1.00 20.00     0.016 C 
HETATM    4  C5  UNL     1     -33.113   5.626   1.600  1.00 20.00     0.056 C 
HETATM    5  C6  UNL     1     -32.265   7.794   0.869  1.00 20.00    -0.014 C 
ENDROOT
BRANCH   4   6
HETATM    6  C1  UNL     1     -33.788   5.279   2.892  1.00 20.00     0.131 C 
HETATM    7  O13 UNL     1     -33.409   4.344   3.605  1.00 20.00    -0.298 OA
BRANCH   6   8
HETATM    8  C9  UNL     1     -34.975   6.145   3.289  1.00 20.00     0.079 C 
BRANCH   8   9
HETATM    9  C12 UNL     1     -34.718   6.960   4.554  1.00 20.00     0.007 C 
BRANCH   9  10
HETATM   10  C11 UNL     1     -33.957   8.248   4.241  1.00 20.00    -0.004 C 
HETATM   11  C8  UNL     1     -32.714   8.386   5.105  1.00 20.00     0.005 C 
ENDBRANCH   9  10
ENDBRANCH   8   9
ENDBRANCH   6   8
ENDBRANCH   4   6
BRANCH   5  12
HETATM   12  C10 UNL     1     -32.427   9.296   1.027  1.00 20.00     0.000 C 
HETATM   13  C7  UNL     1     -32.596   9.983  -0.291  1.00 20.00     0.005 C 
ENDBRANCH   5  12
TORSDOF 5
ENDMDL
