MODEL 1
REMARK VINA RESULT:      -1.1      0.000      0.000
REMARK  3 active torsions:
REMARK  status: ('A' for Active; 'I' for Inactive)
REMARK    1  A    between atoms: C5_5  and  C9_9 
REMARK    2  A    between atoms: C6_6  and  C10_10 
REMARK    3  A    between atoms: C10_10  and  O11_11 
ROOT
HETATM    1  C1  UNL     1     -32.120   5.742   1.472  1.00 20.00     0.001 C 
HETATM    2  C2  UNL     1     -32.052   7.167   0.929  1.00 20.00     0.005 C 
HETATM    3  C3  UNL     1     -33.403   5.501   2.264  1.00 20.00     0.007 C 
HETATM    4  C4  UNL     1     -33.508   7.960   2.836  1.00 20.00     0.011 C 
HETATM    5  C5  UNL     1     -32.215   8.205   2.046  1.00 20.00    -0.014 C 
HETATM    6  C6  UNL     1     -33.574   6.529   3.389  1.00 20.00     0.014 C 
ENDROOT
BRANCH   6   7
HETATM    7  C10 UNL     1     -34.888   6.299   4.135  1.00 20.00     0.118 C 
HETATM    8  C8  UNL     1     -35.067   4.841   4.517  1.00 20.00     0.040 C 
BRANCH   7   9
HETATM    9  O11 UNL     1     -35.968   6.708   3.306  1.00 20.00    -0.396 OA
HETATM   10  H31 UNL     1     -36.683   6.065   3.441  1.00 20.00     0.210 HD
ENDBRANCH   7   9
ENDBRANCH   6   7
BRANCH   5  11
HETATM   11  C9  UNL     1     -32.196   9.621   1.471  1.00 20.00     0.000 C 
HETATM   12  C7  UNL     1     -32.421   9.621  -0.006  1.00 20.00     0.005 C 
ENDBRANCH   5  11
TORSDOF 3
ENDMDL
MODEL 2
REMARK VINA RESULT:      -0.8      2.150      3.345
REMARK  3 active torsions:
REMARK  status: ('A' for Active; 'I' for Inactive)
REMARK    1  A    between atoms: C5_5  and  C9_9 
REMARK    2  A    between atoms: C6_6  and  C10_10 
REMARK    3  A    between atoms: C10_10  and  O11_11 
ROOT
HETATM    1  C1  UNL     1     -35.320   6.430   3.761  1.00 20.00     0.001 C 
HETATM    2  C2  UNL     1     -34.124   7.041   3.035  1.00 20.00     0.005 C 
HETATM    3  C3  UNL     1     -34.901   5.271   4.661  1.00 20.00     0.007 C 
HETATM    4  C4  UNL     1     -32.921   4.821   3.156  1.00 20.00     0.011 C 
HETATM    5  C5  UNL     1     -33.343   5.983   2.246  1.00 20.00    -0.014 C 
HETATM    6  C6  UNL     1     -34.125   4.202   3.882  1.00 20.00     0.014 C 
ENDROOT
BRANCH   6   7
HETATM    7  C10 UNL     1     -33.673   3.077   4.812  1.00 20.00     0.118 C 
HETATM    8  C8  UNL     1     -32.276   3.322   5.352  1.00 20.00     0.040 C 
BRANCH   7   9
HETATM    9  O11 UNL     1     -33.696   1.848   4.096  1.00 20.00    -0.396 OA
HETATM   10  H31 UNL     1     -33.231   2.005   3.258  1.00 20.00     0.210 HD
ENDBRANCH   7   9
ENDBRANCH   6   7
BRANCH   5  11
HETATM   11  C9  UNL     1     -32.123   6.608   1.570  1.00 20.00     0.000 C 
HETATM   12  C7  UNL     1     -31.997   8.061   1.892  1.00 20.00     0.005 C 
ENDBRANCH   5  11
TORSDOF 3
ENDMDL
MODEL 3
REMARK VINA RESULT:      -0.5      1.024      1.080
REMARK  3 active torsions:
REMARK  status: ('A' for Active; 'I' for Inactive)
REMARK    1  A    between atoms: C5_5  and  C9_9 
REMARK    2  A    between atoms: C6_6  and  C10_10 
REMARK    3  A    between atoms: C10_10  and  O11_11 
ROOT
HETATM    1  C1  UNL     1     -32.315   5.358   1.430  1.00 20.00     0.001 C 
HETATM    2  C2  UNL     1     -31.979   6.585   0.587  1.00 20.00     0.005 C 
HETATM    3  C3  UNL     1     -33.448   5.641   2.412  1.00 20.00     0.007 C 
HETATM    4  C4  UNL     1     -32.802   8.084   2.449  1.00 20.00     0.011 C 
HETATM    5  C5  UNL     1     -31.658   7.801   1.465  1.00 20.00    -0.014 C 
HETATM    6  C6  UNL     1     -33.136   6.852   3.301  1.00 20.00     0.014 C 
ENDROOT
BRANCH   6   7
HETATM    7  C10 UNL     1     -34.304   7.146   4.241  1.00 20.00     0.118 C 
HETATM    8  C8  UNL     1     -35.456   6.182   4.024  1.00 20.00     0.040 C 
BRANCH   7   9
HETATM    9  O11 UNL     1     -34.752   8.478   4.019  1.00 20.00    -0.396 OA
HETATM   10  H31 UNL     1     -34.754   8.920   4.883  1.00 20.00     0.210 HD
ENDBRANCH   7   9
ENDBRANCH   6   7
BRANCH   5  11
HETATM   11  C9  UNL     1     -31.376   9.029   0.600  1.00 20.00     0.000 C 
HETATM   12  C7  UNL     1     -32.617   9.817   0.337  1.00 20.00     0.005 C 
ENDBRANCH   5  11
TORSDOF 3
ENDMDL
MODEL 4
REMARK VINA RESULT:      -0.5      2.056      4.469
REMARK  3 active torsions:
REMARK  status: ('A' for Active; 'I' for Inactive)
REMARK    1  A    between atoms: C5_5  and  C9_9 
REMARK    2  A    between atoms: C6_6  and  C10_10 
REMARK    3  A    between atoms: C10_10  and  O11_11 
ROOT
HETATM    1  C1  UNL     1     -32.470   5.356   1.406  1.00 20.00     0.001 C 
HETATM    2  C2  UNL     1     -33.188   5.393   2.752  1.00 20.00     0.005 C 
HETATM    3  C3  UNL     1     -31.710   6.651   1.136  1.00 20.00     0.007 C 
HETATM    4  C4  UNL     1     -33.345   7.911   2.594  1.00 20.00     0.011 C 
HETATM    5  C5  UNL     1     -34.115   6.610   2.862  1.00 20.00    -0.014 C 
HETATM    6  C6  UNL     1     -32.627   7.876   1.237  1.00 20.00     0.014 C 
ENDROOT
BRANCH   6   7
HETATM    7  C10 UNL     1     -31.835   9.163   1.013  1.00 20.00     0.118 C 
HETATM    8  C8  UNL     1     -32.724  10.289   0.517  1.00 20.00     0.040 C 
BRANCH   7   9
HETATM    9  O11 UNL     1     -30.809   8.915   0.059  1.00 20.00    -0.396 OA
HETATM   10  H31 UNL     1     -30.749   9.706  -0.499  1.00 20.00     0.210 HD
ENDBRANCH   7   9
ENDBRANCH   6   7
BRANCH   5  11
HETATM   11  C9  UNL     1     -34.783   6.654   4.236  1.00 20.00     0.000 C 
HETATM   12  C7  UNL     1     -35.409   5.345   4.588  1.00 20.00     0.005 C 
ENDBRANCH   5  11
TORSDOF 3
ENDMDL
MODEL 5
REMARK VINA RESULT:      -0.4      1.949      4.830
REMARK  3 active torsions:
REMARK  status: ('A' for Active; 'I' for Inactive)
REMARK    1  A    between atoms: C5_5  and  C9_9 
REMARK    2  A    between atoms: C6_6  and  C10_10 
REMARK    3  A    between atoms: C10_10  and  O11_11 
ROOT
HETATM    1  C1  UNL     1     -34.858   7.467   4.130  1.00 20.00     0.001 C 
HETATM    2  C2  UNL     1     -35.071   5.957   4.048  1.00 20.00     0.005 C 
HETATM    3  C3  UNL     1     -34.004   7.979   2.974  1.00 20.00     0.007 C 
HETATM    4  C4  UNL     1     -32.884   5.720   2.804  1.00 20.00     0.011 C 
HETATM    5  C5  UNL     1     -33.738   5.203   3.971  1.00 20.00    -0.014 C 
HETATM    6  C6  UNL     1     -32.664   7.237   2.889  1.00 20.00     0.014 C 
ENDROOT
BRANCH   6   7
HETATM    7  C10 UNL     1     -31.848   7.732   1.696  1.00 20.00     0.118 C 
HETATM    8  C8  UNL     1     -32.489   8.941   1.040  1.00 20.00     0.040 C 
BRANCH   7   9
HETATM    9  O11 UNL     1     -31.735   6.680   0.745  1.00 20.00    -0.396 OA
HETATM   10  H31 UNL     1     -32.637   6.374   0.560  1.00 20.00     0.210 HD
ENDBRANCH   7   9
ENDBRANCH   6   7
BRANCH   5  11
HETATM   11  C9  UNL     1     -33.978   3.700   3.838  1.00 20.00     0.000 C 
HETATM   12  C7  UNL     1     -33.163   2.922   4.818  1.00 20.00     0.005 C 
ENDBRANCH   5  11
TORSDOF 3
ENDMDL
MODEL 6
REMARK VINA RESULT:      -0.2      2.029      4.942
REMARK  3 active torsions:
REMARK  status: ('A' for Active; 'I' for Inactive)
REMARK    1  A    between atoms: C5_5  and  C9_9 
REMARK    2  A    between atoms: C6_6  and  C10_10 
REMARK    3  A    between atoms: C10_10  and  O11_11 
ROOT
HETATM    1  C1  UNL     1     -35.428   6.613   4.267  1.00 20.00     0.001 C 
HETATM    2  C2  UNL     1     -35.308   5.095   4.361  1.00 20.00     0.005 C 
HETATM    3  C3  UNL     1     -34.721   7.160   3.030  1.00 20.00     0.007 C 
HETATM    4  C4  UNL     1     -33.139   5.190   3.067  1.00 20.00     0.011 C 
HETATM    5  C5  UNL     1     -33.844   4.641   4.315  1.00 20.00    -0.014 C 
HETATM    6  C6  UNL     1     -33.254   6.718   2.976  1.00 20.00     0.014 C 
ENDROOT
BRANCH   6   7
HETATM    7  C10 UNL     1     -32.581   7.235   1.705  1.00 20.00     0.118 C 
HETATM    8  C8  UNL     1     -31.939   6.110   0.913  1.00 20.00     0.040 C 
BRANCH   7   9
HETATM    9  O11 UNL     1     -31.588   8.189   2.063  1.00 20.00    -0.396 OA
HETATM   10  H31 UNL     1     -30.743   7.853   1.724  1.00 20.00     0.210 HD
ENDBRANCH   7   9
ENDBRANCH   6   7
BRANCH   5  11
HETATM   11  C9  UNL     1     -33.752   3.116   4.358  1.00 20.00     0.000 C 
HETATM   12  C7  UNL     1     -32.649   2.653   5.252  1.00 20.00     0.005 C 
ENDBRANCH   5  11
TORSDOF 3
ENDMDL
MODEL 7
REMARK VINA RESULT:      -0.1      1.417      2.779
REMARK  3 active torsions:
REMARK  status: ('A' for Active; 'I' for Inactive)
REMARK    1  A    between atoms: C5_5  and  C9_9 
REMARK    2  A    between atoms: C6_6  and  C10_10 
REMARK    3  A    between atoms: C10_10  and  O11_11 
ROOT
HETATM    1  C1  UNL     1     -33.481   8.286   2.929  1.00 20.00     0.001 C 
HETATM    2  C2  UNL     1     -32.343   7.745   2.068  1.00 20.00     0.005 C 
HETATM    3  C3  UNL     1     -33.860   7.311   4.040  1.00 20.00     0.007 C 
HETATM    4  C4  UNL     1     -33.053   5.383   2.620  1.00 20.00     0.011 C 
HETATM    5  C5  UNL     1     -32.676   6.361   1.498  1.00 20.00    -0.014 C 
HETATM    6  C6  UNL     1     -34.202   5.924   3.482  1.00 20.00     0.014 C 
ENDROOT
BRANCH   6   7
HETATM    7  C10 UNL     1     -34.531   4.953   4.615  1.00 20.00     0.118 C 
HETATM    8  C8  UNL     1     -33.874   3.601   4.402  1.00 20.00     0.040 C 
BRANCH   7   9
HETATM    9  O11 UNL     1     -35.942   4.788   4.688  1.00 20.00    -0.396 OA
HETATM   10  H31 UNL     1     -36.336   5.561   4.254  1.00 20.00     0.210 HD
ENDBRANCH   7   9
ENDBRANCH   6   7
BRANCH   5  11
HETATM   11  C9  UNL     1     -31.503   5.818   0.684  1.00 20.00     0.000 C 
HETATM   12  C7  UNL     1     -31.673   4.369   0.367  1.00 20.00     0.005 C 
ENDBRANCH   5  11
TORSDOF 3
ENDMDL
MODEL 8
REMARK VINA RESULT:       0.2      1.902      4.814
REMARK  3 active torsions:
REMARK  status: ('A' for Active; 'I' for Inactive)
REMARK    1  A    between atoms: C5_5  and  C9_9 
REMARK    2  A    between atoms: C6_6  and  C10_10 
REMARK    3  A    between atoms: C10_10  and  O11_11 
ROOT
HETATM    1  C1  UNL     1     -34.974   7.199   4.326  1.00 20.00     0.001 C 
HETATM    2  C2  UNL     1     -35.058   5.680   4.211  1.00 20.00     0.005 C 
HETATM    3  C3  UNL     1     -34.354   7.826   3.081  1.00 20.00     0.007 C 
HETATM    4  C4  UNL     1     -33.070   5.692   2.650  1.00 20.00     0.011 C 
HETATM    5  C5  UNL     1     -33.688   5.061   3.906  1.00 20.00    -0.014 C 
HETATM    6  C6  UNL     1     -32.980   7.220   2.768  1.00 20.00     0.014 C 
ENDROOT
BRANCH   6   7
HETATM    7  C10 UNL     1     -32.401   7.826   1.491  1.00 20.00     0.118 C 
HETATM    8  C8  UNL     1     -30.886   7.727   1.460  1.00 20.00     0.040 C 
BRANCH   7   9
HETATM    9  O11 UNL     1     -32.788   9.192   1.410  1.00 20.00    -0.396 OA
HETATM   10  H31 UNL     1     -33.703   9.242   1.732  1.00 20.00     0.210 HD
ENDBRANCH   7   9
ENDBRANCH   6   7
BRANCH   5  11
HETATM   11  C9  UNL     1     -33.807   3.546   3.745  1.00 20.00     0.000 C 
HETATM   12  C7  UNL     1     -33.094   2.816   4.836  1.00 20.00     0.005 C 
ENDBRANCH   5  11
TORSDOF 3
ENDMDL
MODEL 9
REMARK VINA RESULT:       0.5      1.832      4.447
REMARK  3 active torsions:
REMARK  status: ('A' for Active; 'I' for Inactive)
REMARK    1  A    between atoms: C5_5  and  C9_9 
REMARK    2  A    between atoms: C6_6  and  C10_10 
REMARK    3  A    between atoms: C10_10  and  O11_11 
ROOT
HETATM    1  C1  UNL     1     -32.418   5.049   1.026  1.00 20.00     0.001 C 
HETATM    2  C2  UNL     1     -32.933   4.467   2.339  1.00 20.00     0.005 C 
HETATM    3  C3  UNL     1     -31.910   6.477   1.202  1.00 20.00     0.007 C 
HETATM    4  C4  UNL     1     -33.491   6.795   3.148  1.00 20.00     0.011 C 
HETATM    5  C5  UNL     1     -34.008   5.361   2.969  1.00 20.00    -0.014 C 
HETATM    6  C6  UNL     1     -32.978   7.383   1.826  1.00 20.00     0.014 C 
ENDROOT
BRANCH   6   7
HETATM    7  C10 UNL     1     -32.432   8.794   2.038  1.00 20.00     0.118 C 
HETATM    8  C8  UNL     1     -32.220   9.518   0.721  1.00 20.00     0.040 C 
BRANCH   7   9
HETATM    9  O11 UNL     1     -31.197   8.711   2.738  1.00 20.00    -0.396 OA
HETATM   10  H31 UNL     1     -31.222   7.888   3.252  1.00 20.00     0.210 HD
ENDBRANCH   7   9
ENDBRANCH   6   7
BRANCH   5  11
HETATM   11  C9  UNL     1     -34.470   4.785   4.307  1.00 20.00     0.000 C 
HETATM   12  C7  UNL     1     -33.743   3.525   4.647  1.00 20.00     0.005 C 
ENDBRANCH   5  11
TORSDOF 3
ENDMDL
