MODEL 1
REMARK VINA RESULT:       1.2      0.000      0.000
REMARK  0 active torsions:
REMARK  status: ('A' for Active; 'I' for Inactive)
ROOT
HETATM    1  C1  UNL     1     -33.844   4.831   3.830  1.00 20.00     0.071 C 
HETATM    2  C2  UNL     1     -31.519   6.709   1.884  1.00 20.00     0.034 C 
HETATM    3  C3  UNL     1     -32.524   5.709   1.314  1.00 20.00     0.036 C 
HETATM    4  C4  UNL     1     -33.040   7.203   3.829  1.00 20.00     0.058 C 
HETATM    5  C5  UNL     1     -32.436   7.746   2.531  1.00 20.00     0.123 C 
HETATM    6  C6  UNL     1     -33.862   6.292   1.783  1.00 20.00     0.144 C 
HETATM    7  C7  UNL     1     -34.080   6.187   3.308  1.00 20.00     0.074 C 
HETATM    8  C8  UNL     1     -35.503   6.630   3.682  1.00 20.00     0.034 C 
HETATM    9  N9  UNL     1     -33.657   3.763   4.242  1.00 20.00    -0.196 NA
HETATM   10  O10 UNL     1     -33.577   7.709   1.644  1.00 20.00    -0.379 OA
ENDROOT
TORSDOF 0
ENDMDL
MODEL 2
REMARK VINA RESULT:       2.5      1.774      3.142
REMARK  0 active torsions:
REMARK  status: ('A' for Active; 'I' for Inactive)
ROOT
HETATM    1  C1  UNL     1     -32.969   5.897   1.365  1.00 20.00     0.071 C 
HETATM    2  C2  UNL     1     -35.390   6.106   3.975  1.00 20.00     0.034 C 
HETATM    3  C3  UNL     1     -34.098   5.294   4.050  1.00 20.00     0.036 C 
HETATM    4  C4  UNL     1     -34.329   7.739   2.379  1.00 20.00     0.058 C 
HETATM    5  C5  UNL     1     -34.861   7.528   3.799  1.00 20.00     0.123 C 
HETATM    6  C6  UNL     1     -33.027   6.369   3.835  1.00 20.00     0.144 C 
HETATM    7  C7  UNL     1     -33.006   6.942   2.401  1.00 20.00     0.074 C 
HETATM    8  C8  UNL     1     -31.806   7.881   2.212  1.00 20.00     0.034 C 
HETATM    9  N9  UNL     1     -32.940   5.074   0.548  1.00 20.00    -0.196 NA
HETATM   10  O10 UNL     1     -33.633   7.471   4.561  1.00 20.00    -0.379 OA
ENDROOT
TORSDOF 0
ENDMDL
MODEL 3
REMARK VINA RESULT:       2.8      1.795      2.928
REMARK  0 active torsions:
REMARK  status: ('A' for Active; 'I' for Inactive)
ROOT
HETATM    1  C1  UNL     1     -33.764   6.547   2.871  1.00 20.00     0.071 C 
HETATM    2  C2  UNL     1     -32.531   9.592   1.483  1.00 20.00     0.034 C 
HETATM    3  C3  UNL     1     -31.955   8.903   2.719  1.00 20.00     0.036 C 
HETATM    4  C4  UNL     1     -33.311   7.385   0.556  1.00 20.00     0.058 C 
HETATM    5  C5  UNL     1     -32.312   8.536   0.401  1.00 20.00     0.123 C 
HETATM    6  C6  UNL     1     -31.558   7.529   2.168  1.00 20.00     0.144 C 
HETATM    7  C7  UNL     1     -32.765   6.641   1.795  1.00 20.00     0.074 C 
HETATM    8  C8  UNL     1     -32.299   5.228   1.415  1.00 20.00     0.034 C 
HETATM    9  N9  UNL     1     -34.552   6.473   3.719  1.00 20.00    -0.196 NA
HETATM   10  O10 UNL     1     -31.086   7.917   0.851  1.00 20.00    -0.379 OA
ENDROOT
TORSDOF 0
ENDMDL
MODEL 4
REMARK VINA RESULT:       2.8      2.067      3.324
REMARK  0 active torsions:
REMARK  status: ('A' for Active; 'I' for Inactive)
ROOT
HETATM    1  C1  UNL     1     -31.927   8.504   3.235  1.00 20.00     0.071 C 
HETATM    2  C2  UNL     1     -33.227   5.192   3.004  1.00 20.00     0.034 C 
HETATM    3  C3  UNL     1     -34.061   6.434   3.315  1.00 20.00     0.036 C 
HETATM    4  C4  UNL     1     -31.579   6.566   1.688  1.00 20.00     0.058 C 
HETATM    5  C5  UNL     1     -32.687   5.512   1.612  1.00 20.00     0.123 C 
HETATM    6  C6  UNL     1     -33.813   7.307   2.080  1.00 20.00     0.144 C 
HETATM    7  C7  UNL     1     -32.372   7.856   1.991  1.00 20.00     0.074 C 
HETATM    8  C8  UNL     1     -32.245   8.854   0.830  1.00 20.00     0.034 C 
HETATM    9  N9  UNL     1     -31.575   9.014   4.216  1.00 20.00    -0.196 NA
HETATM   10  O10 UNL     1     -33.778   6.280   1.054  1.00 20.00    -0.379 OA
ENDROOT
TORSDOF 0
ENDMDL
MODEL 5
REMARK VINA RESULT:       3.1      2.662      3.653
REMARK  0 active torsions:
REMARK  status: ('A' for Active; 'I' for Inactive)
ROOT
HETATM    1  C1  UNL     1     -32.353   8.852   1.000  1.00 20.00     0.071 C 
HETATM    2  C2  UNL     1     -33.961   5.675   1.209  1.00 20.00     0.034 C 
HETATM    3  C3  UNL     1     -32.595   5.919   0.570  1.00 20.00     0.036 C 
HETATM    4  C4  UNL     1     -33.633   7.625   2.768  1.00 20.00     0.058 C 
HETATM    5  C5  UNL     1     -33.714   6.100   2.656  1.00 20.00     0.123 C 
HETATM    6  C6  UNL     1     -31.794   6.512   1.734  1.00 20.00     0.144 C 
HETATM    7  C7  UNL     1     -32.254   7.929   2.142  1.00 20.00     0.074 C 
HETATM    8  C8  UNL     1     -31.304   8.524   3.191  1.00 20.00     0.034 C 
HETATM    9  N9  UNL     1     -32.432   9.580   0.100  1.00 20.00    -0.196 NA
HETATM   10  O10 UNL     1     -32.329   5.724   2.830  1.00 20.00    -0.379 OA
ENDROOT
TORSDOF 0
ENDMDL
MODEL 6
REMARK VINA RESULT:       3.3      2.190      3.312
REMARK  0 active torsions:
REMARK  status: ('A' for Active; 'I' for Inactive)
ROOT
HETATM    1  C1  UNL     1     -32.134   7.198   1.886  1.00 20.00     0.071 C 
HETATM    2  C2  UNL     1     -34.076   7.255   4.876  1.00 20.00     0.034 C 
HETATM    3  C3  UNL     1     -34.252   8.221   3.706  1.00 20.00     0.036 C 
HETATM    4  C4  UNL     1     -33.216   5.463   3.331  1.00 20.00     0.058 C 
HETATM    5  C5  UNL     1     -34.379   5.908   4.223  1.00 20.00     0.123 C 
HETATM    6  C6  UNL     1     -34.560   7.270   2.544  1.00 20.00     0.144 C 
HETATM    7  C7  UNL     1     -33.353   6.407   2.116  1.00 20.00     0.074 C 
HETATM    8  C8  UNL     1     -33.684   5.608   0.846  1.00 20.00     0.034 C 
HETATM    9  N9  UNL     1     -31.172   7.821   1.704  1.00 20.00    -0.196 NA
HETATM   10  O10 UNL     1     -35.369   6.284   3.239  1.00 20.00    -0.379 OA
ENDROOT
TORSDOF 0
ENDMDL
MODEL 7
REMARK VINA RESULT:       3.7      1.829      2.535
REMARK  0 active torsions:
REMARK  status: ('A' for Active; 'I' for Inactive)
ROOT
HETATM    1  C1  UNL     1     -34.035   7.137   3.811  1.00 20.00     0.071 C 
HETATM    2  C2  UNL     1     -32.444   7.768   0.682  1.00 20.00     0.034 C 
HETATM    3  C3  UNL     1     -31.724   7.709   2.028  1.00 20.00     0.036 C 
HETATM    4  C4  UNL     1     -34.216   6.179   1.504  1.00 20.00     0.058 C 
HETATM    5  C5  UNL     1     -33.018   6.357   0.567  1.00 20.00     0.123 C 
HETATM    6  C6  UNL     1     -32.055   6.292   2.510  1.00 20.00     0.144 C 
HETATM    7  C7  UNL     1     -33.540   6.101   2.891  1.00 20.00     0.074 C 
HETATM    8  C8  UNL     1     -33.761   4.718   3.523  1.00 20.00     0.034 C 
HETATM    9  N9  UNL     1     -34.426   7.954   4.535  1.00 20.00    -0.196 NA
HETATM   10  O10 UNL     1     -32.003   5.581   1.245  1.00 20.00    -0.379 OA
ENDROOT
TORSDOF 0
ENDMDL
MODEL 8
REMARK VINA RESULT:       3.7      2.731      3.853
REMARK  0 active torsions:
REMARK  status: ('A' for Active; 'I' for Inactive)
ROOT
HETATM    1  C1  UNL     1     -32.608   8.992   1.176  1.00 20.00     0.071 C 
HETATM    2  C2  UNL     1     -34.327   8.078   4.164  1.00 20.00     0.034 C 
HETATM    3  C3  UNL     1     -34.750   7.664   2.756  1.00 20.00     0.036 C 
HETATM    4  C4  UNL     1     -31.916   8.214   3.453  1.00 20.00     0.058 C 
HETATM    5  C5  UNL     1     -32.945   7.439   4.281  1.00 20.00     0.123 C 
HETATM    6  C6  UNL     1     -33.514   6.909   2.256  1.00 20.00     0.144 C 
HETATM    7  C7  UNL     1     -32.292   7.820   2.008  1.00 20.00     0.074 C 
HETATM    8  C8  UNL     1     -31.153   7.027   1.349  1.00 20.00     0.034 C 
HETATM    9  N9  UNL     1     -32.857   9.916   0.521  1.00 20.00    -0.196 NA
HETATM   10  O10 UNL     1     -33.116   6.244   3.484  1.00 20.00    -0.379 OA
ENDROOT
TORSDOF 0
ENDMDL
MODEL 9
REMARK VINA RESULT:       3.7      1.593      2.216
REMARK  0 active torsions:
REMARK  status: ('A' for Active; 'I' for Inactive)
ROOT
HETATM    1  C1  UNL     1     -34.929   6.586   3.438  1.00 20.00     0.071 C 
HETATM    2  C2  UNL     1     -33.010   5.293   0.724  1.00 20.00     0.034 C 
HETATM    3  C3  UNL     1     -33.798   6.601   0.687  1.00 20.00     0.036 C 
HETATM    4  C4  UNL     1     -32.682   5.504   3.211  1.00 20.00     0.058 C 
HETATM    5  C5  UNL     1     -32.002   5.561   1.840  1.00 20.00     0.123 C 
HETATM    6  C6  UNL     1     -33.165   7.393   1.836  1.00 20.00     0.144 C 
HETATM    7  C7  UNL     1     -33.490   6.820   3.233  1.00 20.00     0.074 C 
HETATM    8  C8  UNL     1     -32.970   7.756   4.335  1.00 20.00     0.034 C 
HETATM    9  N9  UNL     1     -36.062   6.402   3.600  1.00 20.00    -0.196 NA
HETATM   10  O10 UNL     1     -31.780   6.982   1.687  1.00 20.00    -0.379 OA
ENDROOT
TORSDOF 0
ENDMDL
