MODEL 1
REMARK VINA RESULT:      -1.8      0.000      0.000
REMARK  4 active torsions:
REMARK  status: ('A' for Active; 'I' for Inactive)
REMARK    1  A    between atoms: C6_6  and  C10_10 
REMARK    2  A    between atoms: C7_7  and  C11_11 
REMARK    3  A    between atoms: C9_9  and  C11_11 
REMARK    4  A    between atoms: C11_11  and  O12_12 
ROOT
HETATM    1  C1  UNL     1     -32.729  10.452   0.326  1.00 20.00     0.012 C 
HETATM    2  C2  UNL     1     -32.160   9.420   0.556  1.00 20.00    -0.115 C 
HETATM    3  C9  UNL     1     -31.461   8.156   0.837  1.00 20.00     0.125 C 
ENDROOT
BRANCH   3   4
HETATM    4  C11 UNL     1     -31.967   7.507   2.129  1.00 20.00     0.133 C 
BRANCH   4   5
HETATM    5  C7  UNL     1     -33.388   6.973   1.960  1.00 20.00     0.015 C 
HETATM    6  C4  UNL     1     -34.328   7.501   3.048  1.00 20.00     0.007 C 
HETATM    7  C3  UNL     1     -34.386   6.427   4.138  1.00 20.00     0.005 C 
HETATM    8  C6  UNL     1     -33.530   5.258   3.641  1.00 20.00    -0.014 C 
HETATM    9  C5  UNL     1     -33.468   5.455   2.128  1.00 20.00     0.012 C 
BRANCH   8  10
HETATM   10  C10 UNL     1     -34.083   3.900   4.041  1.00 20.00     0.000 C 
HETATM   11  C8  UNL     1     -33.061   3.067   4.747  1.00 20.00     0.005 C 
ENDBRANCH   8  10
ENDBRANCH   4   5
BRANCH   4  12
HETATM   12  O12 UNL     1     -31.969   8.492   3.163  1.00 20.00    -0.394 OA
HETATM   13  H30 UNL     1     -32.163   8.022   3.987  1.00 20.00     0.210 HD
ENDBRANCH   4  12
ENDBRANCH   3   4
TORSDOF 4
ENDMDL
MODEL 2
REMARK VINA RESULT:      -0.5      1.480      5.124
REMARK  4 active torsions:
REMARK  status: ('A' for Active; 'I' for Inactive)
REMARK    1  A    between atoms: C6_6  and  C10_10 
REMARK    2  A    between atoms: C7_7  and  C11_11 
REMARK    3  A    between atoms: C9_9  and  C11_11 
REMARK    4  A    between atoms: C11_11  and  O12_12 
ROOT
HETATM    1  C1  UNL     1     -33.134   3.027   4.466  1.00 20.00     0.012 C 
HETATM    2  C2  UNL     1     -33.977   3.881   4.421  1.00 20.00    -0.115 C 
HETATM    3  C9  UNL     1     -35.012   4.926   4.369  1.00 20.00     0.125 C 
ENDROOT
BRANCH   3   4
HETATM    4  C11 UNL     1     -34.629   6.048   3.400  1.00 20.00     0.133 C 
BRANCH   4   5
HETATM    5  C7  UNL     1     -33.121   6.291   3.403  1.00 20.00     0.015 C 
HETATM    6  C4  UNL     1     -32.758   7.607   4.098  1.00 20.00     0.007 C 
HETATM    7  C3  UNL     1     -32.612   8.661   2.996  1.00 20.00     0.005 C 
HETATM    8  C6  UNL     1     -32.829   7.932   1.667  1.00 20.00    -0.014 C 
HETATM    9  C5  UNL     1     -32.553   6.466   1.994  1.00 20.00     0.012 C 
BRANCH   8  10
HETATM   10  C10 UNL     1     -31.956   8.465   0.543  1.00 20.00     0.000 C 
HETATM   11  C8  UNL     1     -32.370   9.838   0.117  1.00 20.00     0.005 C 
ENDBRANCH   8  10
ENDBRANCH   4   5
BRANCH   4  12
HETATM   12  O12 UNL     1     -35.286   7.248   3.809  1.00 20.00    -0.394 OA
HETATM   13  H30 UNL     1     -35.374   7.796   3.016  1.00 20.00     0.210 HD
ENDBRANCH   4  12
ENDBRANCH   3   4
TORSDOF 4
ENDMDL
MODEL 3
REMARK VINA RESULT:       0.1      1.808      4.597
REMARK  4 active torsions:
REMARK  status: ('A' for Active; 'I' for Inactive)
REMARK    1  A    between atoms: C6_6  and  C10_10 
REMARK    2  A    between atoms: C7_7  and  C11_11 
REMARK    3  A    between atoms: C9_9  and  C11_11 
REMARK    4  A    between atoms: C11_11  and  O12_12 
ROOT
HETATM    1  C1  UNL     1     -33.291   8.534   5.205  1.00 20.00     0.012 C 
HETATM    2  C2  UNL     1     -33.883   7.674   4.613  1.00 20.00    -0.115 C 
HETATM    3  C9  UNL     1     -34.611   6.619   3.888  1.00 20.00     0.125 C 
ENDROOT
BRANCH   3   4
HETATM    4  C11 UNL     1     -33.659   5.546   3.351  1.00 20.00     0.133 C 
BRANCH   4   5
HETATM    5  C7  UNL     1     -33.505   5.651   1.835  1.00 20.00     0.015 C 
HETATM    6  C4  UNL     1     -32.175   5.061   1.356  1.00 20.00     0.007 C 
HETATM    7  C3  UNL     1     -31.196   6.231   1.225  1.00 20.00     0.005 C 
HETATM    8  C6  UNL     1     -31.985   7.498   1.568  1.00 20.00    -0.014 C 
HETATM    9  C5  UNL     1     -33.444   7.101   1.351  1.00 20.00     0.012 C 
BRANCH   8  10
HETATM   10  C10 UNL     1     -31.568   8.704   0.742  1.00 20.00     0.000 C 
HETATM   11  C8  UNL     1     -32.663   9.719   0.644  1.00 20.00     0.005 C 
ENDBRANCH   8  10
ENDBRANCH   4   5
BRANCH   4  12
HETATM   12  O12 UNL     1     -34.195   4.261   3.668  1.00 20.00    -0.394 OA
HETATM   13  H30 UNL     1     -33.994   3.688   2.915  1.00 20.00     0.210 HD
ENDBRANCH   4  12
ENDBRANCH   3   4
TORSDOF 4
ENDMDL
MODEL 4
REMARK VINA RESULT:       0.5      1.503      2.253
REMARK  4 active torsions:
REMARK  status: ('A' for Active; 'I' for Inactive)
REMARK    1  A    between atoms: C6_6  and  C10_10 
REMARK    2  A    between atoms: C7_7  and  C11_11 
REMARK    3  A    between atoms: C9_9  and  C11_11 
REMARK    4  A    between atoms: C11_11  and  O12_12 
ROOT
HETATM    1  C1  UNL     1     -33.096  11.005  -0.795  1.00 20.00     0.012 C 
HETATM    2  C2  UNL     1     -32.767  10.346   0.153  1.00 20.00    -0.115 C 
HETATM    3  C9  UNL     1     -32.364   9.540   1.317  1.00 20.00     0.125 C 
ENDROOT
BRANCH   3   4
HETATM    4  C11 UNL     1     -32.047   8.096   0.918  1.00 20.00     0.133 C 
BRANCH   4   5
HETATM    5  C7  UNL     1     -31.841   7.214   2.149  1.00 20.00     0.015 C 
HETATM    6  C4  UNL     1     -32.112   5.738   1.843  1.00 20.00     0.007 C 
HETATM    7  C3  UNL     1     -33.556   5.458   2.268  1.00 20.00     0.005 C 
HETATM    8  C6  UNL     1     -34.089   6.759   2.876  1.00 20.00    -0.014 C 
HETATM    9  C5  UNL     1     -32.832   7.532   3.270  1.00 20.00     0.012 C 
BRANCH   8  10
HETATM   10  C10 UNL     1     -35.035   6.530   4.044  1.00 20.00     0.000 C 
HETATM   11  C8  UNL     1     -35.120   5.085   4.419  1.00 20.00     0.005 C 
ENDBRANCH   8  10
ENDBRANCH   4   5
BRANCH   4  12
HETATM   12  O12 UNL     1     -30.846   8.089   0.145  1.00 20.00    -0.394 OA
HETATM   13  H30 UNL     1     -30.221   7.520   0.617  1.00 20.00     0.210 HD
ENDBRANCH   4  12
ENDBRANCH   3   4
TORSDOF 4
ENDMDL
MODEL 5
REMARK VINA RESULT:       0.9      1.514      5.236
REMARK  4 active torsions:
REMARK  status: ('A' for Active; 'I' for Inactive)
REMARK    1  A    between atoms: C6_6  and  C10_10 
REMARK    2  A    between atoms: C7_7  and  C11_11 
REMARK    3  A    between atoms: C9_9  and  C11_11 
REMARK    4  A    between atoms: C11_11  and  O12_12 
ROOT
HETATM    1  C1  UNL     1     -33.782   3.592   4.390  1.00 20.00     0.012 C 
HETATM    2  C2  UNL     1     -33.783   4.590   3.725  1.00 20.00    -0.115 C 
HETATM    3  C9  UNL     1     -33.786   5.817   2.910  1.00 20.00     0.125 C 
ENDROOT
BRANCH   3   4
HETATM    4  C11 UNL     1     -32.707   5.774   1.825  1.00 20.00     0.133 C 
BRANCH   4   5
HETATM    5  C7  UNL     1     -31.724   6.934   1.974  1.00 20.00     0.015 C 
HETATM    6  C4  UNL     1     -32.243   7.997   2.947  1.00 20.00     0.007 C 
HETATM    7  C3  UNL     1     -32.913   9.081   2.098  1.00 20.00     0.005 C 
HETATM    8  C6  UNL     1     -32.720   8.668   0.636  1.00 20.00    -0.014 C 
HETATM    9  C5  UNL     1     -31.532   7.710   0.671  1.00 20.00     0.012 C 
BRANCH   8  10
HETATM   10  C10 UNL     1     -32.505   9.850  -0.296  1.00 20.00     0.000 C 
HETATM   11  C8  UNL     1     -32.447  11.145   0.449  1.00 20.00     0.005 C 
ENDBRANCH   8  10
ENDBRANCH   4   5
BRANCH   4  12
HETATM   12  O12 UNL     1     -33.340   5.872   0.548  1.00 20.00    -0.394 OA
HETATM   13  H30 UNL     1     -32.943   5.185  -0.007  1.00 20.00     0.210 HD
ENDBRANCH   4  12
ENDBRANCH   3   4
TORSDOF 4
ENDMDL
MODEL 6
REMARK VINA RESULT:       1.1      1.044      5.075
REMARK  4 active torsions:
REMARK  status: ('A' for Active; 'I' for Inactive)
REMARK    1  A    between atoms: C6_6  and  C10_10 
REMARK    2  A    between atoms: C7_7  and  C11_11 
REMARK    3  A    between atoms: C9_9  and  C11_11 
REMARK    4  A    between atoms: C11_11  and  O12_12 
ROOT
HETATM    1  C1  UNL     1     -33.443   3.349   4.649  1.00 20.00     0.012 C 
HETATM    2  C2  UNL     1     -34.178   4.285   4.494  1.00 20.00    -0.115 C 
HETATM    3  C9  UNL     1     -35.082   5.432   4.305  1.00 20.00     0.125 C 
ENDROOT
BRANCH   3   4
HETATM    4  C11 UNL     1     -34.329   6.661   3.787  1.00 20.00     0.133 C 
BRANCH   4   5
HETATM    5  C7  UNL     1     -34.156   6.605   2.270  1.00 20.00     0.015 C 
HETATM    6  C4  UNL     1     -33.038   5.642   1.860  1.00 20.00     0.007 C 
HETATM    7  C3  UNL     1     -31.778   6.489   1.661  1.00 20.00     0.005 C 
HETATM    8  C6  UNL     1     -32.193   7.945   1.895  1.00 20.00    -0.014 C 
HETATM    9  C5  UNL     1     -33.705   7.942   1.682  1.00 20.00     0.012 C 
BRANCH   8  10
HETATM   10  C10 UNL     1     -31.467   8.926   0.989  1.00 20.00     0.000 C 
HETATM   11  C8  UNL     1     -32.415   9.693   0.123  1.00 20.00     0.005 C 
ENDBRANCH   8  10
ENDBRANCH   4   5
BRANCH   4  12
HETATM   12  O12 UNL     1     -33.037   6.695   4.393  1.00 20.00    -0.394 OA
HETATM   13  H30 UNL     1     -32.879   5.808   4.749  1.00 20.00     0.210 HD
ENDBRANCH   4  12
ENDBRANCH   3   4
TORSDOF 4
ENDMDL
