MODEL 1
REMARK VINA RESULT:       0.4      0.000      0.000
REMARK  2 active torsions:
REMARK  status: ('A' for Active; 'I' for Inactive)
REMARK    1  A    between atoms: C9_9  and  C10_10 
REMARK    2  A    between atoms: C9_9  and  N11_11 
ROOT
HETATM    1  C1  UNL     1     -35.134   6.576   4.472  1.00 20.00     0.002 C 
HETATM    2  C2  UNL     1     -31.749   5.341   1.272  1.00 20.00     0.028 C 
HETATM    3  C3  UNL     1     -34.779   5.282   3.720  1.00 20.00     0.007 C 
HETATM    4  C4  UNL     1     -33.041   4.766   1.859  1.00 20.00     0.008 C 
HETATM    5  C5  UNL     1     -34.175   7.661   3.950  1.00 20.00     0.034 C 
HETATM    6  C6  UNL     1     -31.843   6.838   0.967  1.00 20.00     0.235 C 
HETATM    7  C7  UNL     1     -33.445   5.600   3.060  1.00 20.00     0.016 C 
HETATM    8  C8  UNL     1     -33.638   7.057   2.663  1.00 20.00     0.192 C 
HETATM    9  N11 UNL     1     -32.330   7.609   2.186  1.00 20.00    -0.065 N 
HETATM   10  H31 UNL     1     -31.633   7.473   2.931  1.00 20.00     0.280 HD
ENDROOT
BRANCH   9  11
HETATM   11  C9  UNL     1     -32.378   9.086   1.904  1.00 20.00     0.250 C 
BRANCH  11  12
HETATM   12  C10 UNL     1     -31.825   9.370   0.520  1.00 20.00     0.142 C 
HETATM   13 CL12 UNL     1     -32.977  10.304  -0.466  1.00 20.00    -0.129 Cl
ENDBRANCH  11  12
ENDBRANCH   9  11
TORSDOF 2
ENDMDL
MODEL 2
REMARK VINA RESULT:       1.2      2.973      5.052
REMARK  2 active torsions:
REMARK  status: ('A' for Active; 'I' for Inactive)
REMARK    1  A    between atoms: C9_9  and  C10_10 
REMARK    2  A    between atoms: C9_9  and  N11_11 
ROOT
HETATM    1  C1  UNL     1     -31.431   7.123   0.875  1.00 20.00     0.002 C 
HETATM    2  C2  UNL     1     -34.504   7.613   4.555  1.00 20.00     0.028 C 
HETATM    3  C3  UNL     1     -32.184   8.309   1.504  1.00 20.00     0.007 C 
HETATM    4  C4  UNL     1     -33.978   8.440   3.378  1.00 20.00     0.008 C 
HETATM    5  C5  UNL     1     -31.899   5.863   1.624  1.00 20.00     0.034 C 
HETATM    6  C6  UNL     1     -34.794   6.157   4.183  1.00 20.00     0.235 C 
HETATM    7  C7  UNL     1     -32.785   7.724   2.774  1.00 20.00     0.016 C 
HETATM    8  C8  UNL     1     -33.171   6.324   2.317  1.00 20.00     0.192 C 
HETATM    9  N11 UNL     1     -33.586   5.520   3.509  1.00 20.00    -0.065 N 
HETATM   10  H31 UNL     1     -32.815   5.533   4.190  1.00 20.00     0.280 HD
ENDROOT
BRANCH   9  11
HETATM   11  C9  UNL     1     -33.852   4.075   3.184  1.00 20.00     0.250 C 
BRANCH  11  12
HETATM   12  C10 UNL     1     -33.937   3.261   4.462  1.00 20.00     0.142 C 
HETATM   13 CL12 UNL     1     -32.337   3.061   5.218  1.00 20.00    -0.129 Cl
ENDBRANCH  11  12
ENDBRANCH   9  11
TORSDOF 2
ENDMDL
MODEL 3
REMARK VINA RESULT:       1.7      2.683      4.712
REMARK  2 active torsions:
REMARK  status: ('A' for Active; 'I' for Inactive)
REMARK    1  A    between atoms: C9_9  and  C10_10 
REMARK    2  A    between atoms: C9_9  and  N11_11 
ROOT
HETATM    1  C1  UNL     1     -32.213   5.819   0.582  1.00 20.00     0.002 C 
HETATM    2  C2  UNL     1     -32.589   8.610   4.493  1.00 20.00     0.028 C 
HETATM    3  C3  UNL     1     -31.550   7.128   1.043  1.00 20.00     0.007 C 
HETATM    4  C4  UNL     1     -31.963   8.665   3.096  1.00 20.00     0.008 C 
HETATM    5  C5  UNL     1     -33.259   5.459   1.653  1.00 20.00     0.034 C 
HETATM    6  C6  UNL     1     -33.986   7.985   4.499  1.00 20.00     0.235 C 
HETATM    7  C7  UNL     1     -32.004   7.276   2.488  1.00 20.00     0.016 C 
HETATM    8  C8  UNL     1     -33.436   6.762   2.415  1.00 20.00     0.192 C 
HETATM    9  N11 UNL     1     -33.977   6.630   3.805  1.00 20.00    -0.065 N 
HETATM   10  H31 UNL     1     -33.346   6.019   4.338  1.00 20.00     0.280 HD
ENDROOT
BRANCH   9  11
HETATM   11  C9  UNL     1     -35.339   5.994   3.851  1.00 20.00     0.250 C 
BRANCH  11  12
HETATM   12  C10 UNL     1     -35.305   4.754   4.725  1.00 20.00     0.142 C 
HETATM   13 CL12 UNL     1     -33.889   3.737   4.364  1.00 20.00    -0.129 Cl
ENDBRANCH  11  12
ENDBRANCH   9  11
TORSDOF 2
ENDMDL
MODEL 4
REMARK VINA RESULT:       1.7      2.264      3.442
REMARK  2 active torsions:
REMARK  status: ('A' for Active; 'I' for Inactive)
REMARK    1  A    between atoms: C9_9  and  C10_10 
REMARK    2  A    between atoms: C9_9  and  N11_11 
ROOT
HETATM    1  C1  UNL     1     -35.069   6.316   4.478  1.00 20.00     0.002 C 
HETATM    2  C2  UNL     1     -31.823   8.442   1.619  1.00 20.00     0.028 C 
HETATM    3  C3  UNL     1     -34.233   7.605   4.563  1.00 20.00     0.007 C 
HETATM    4  C4  UNL     1     -32.357   8.572   3.049  1.00 20.00     0.008 C 
HETATM    5  C5  UNL     1     -34.632   5.598   3.188  1.00 20.00     0.034 C 
HETATM    6  C6  UNL     1     -31.621   6.988   1.185  1.00 20.00     0.235 C 
HETATM    7  C7  UNL     1     -33.608   7.725   3.181  1.00 20.00     0.016 C 
HETATM    8  C8  UNL     1     -33.311   6.269   2.849  1.00 20.00     0.192 C 
HETATM    9  N11 UNL     1     -32.886   6.173   1.417  1.00 20.00    -0.065 N 
HETATM   10  H31 UNL     1     -33.626   6.586   0.834  1.00 20.00     0.280 HD
ENDROOT
BRANCH   9  11
HETATM   11  C9  UNL     1     -32.705   4.755   0.947  1.00 20.00     0.250 C 
BRANCH  11  12
HETATM   12  C10 UNL     1     -31.228   4.411   0.885  1.00 20.00     0.142 C 
HETATM   13 CL12 UNL     1     -30.836   3.473  -0.576  1.00 20.00    -0.129 Cl
ENDBRANCH  11  12
ENDBRANCH   9  11
TORSDOF 2
ENDMDL
MODEL 5
REMARK VINA RESULT:       1.7      1.547      3.059
REMARK  2 active torsions:
REMARK  status: ('A' for Active; 'I' for Inactive)
REMARK    1  A    between atoms: C9_9  and  C10_10 
REMARK    2  A    between atoms: C9_9  and  N11_11 
ROOT
HETATM    1  C1  UNL     1     -32.720   2.876   4.142  1.00 20.00     0.002 C 
HETATM    2  C2  UNL     1     -35.529   6.754   3.599  1.00 20.00     0.028 C 
HETATM    3  C3  UNL     1     -33.925   3.453   4.905  1.00 20.00     0.007 C 
HETATM    4  C4  UNL     1     -35.259   5.667   4.643  1.00 20.00     0.008 C 
HETATM    5  C5  UNL     1     -32.387   3.883   3.027  1.00 20.00     0.034 C 
HETATM    6  C6  UNL     1     -34.253   7.278   2.935  1.00 20.00     0.235 C 
HETATM    7  C7  UNL     1     -34.421   4.575   4.005  1.00 20.00     0.016 C 
HETATM    8  C8  UNL     1     -33.114   5.143   3.470  1.00 20.00     0.192 C 
HETATM    9  N11 UNL     1     -33.418   6.129   2.385  1.00 20.00    -0.065 N 
HETATM   10  H31 UNL     1     -33.985   5.654   1.670  1.00 20.00     0.280 HD
ENDROOT
BRANCH   9  11
HETATM   11  C9  UNL     1     -32.187   6.644   1.691  1.00 20.00     0.250 C 
BRANCH  11  12
HETATM   12  C10 UNL     1     -31.980   8.111   2.017  1.00 20.00     0.142 C 
HETATM   13 CL12 UNL     1     -32.214   9.140   0.583  1.00 20.00    -0.129 Cl
ENDBRANCH  11  12
ENDBRANCH   9  11
TORSDOF 2
ENDMDL
MODEL 6
REMARK VINA RESULT:       2.0      1.802      3.185
REMARK  2 active torsions:
REMARK  status: ('A' for Active; 'I' for Inactive)
REMARK    1  A    between atoms: C9_9  and  C10_10 
REMARK    2  A    between atoms: C9_9  and  N11_11 
ROOT
HETATM    1  C1  UNL     1     -35.067   6.137   4.370  1.00 20.00     0.002 C 
HETATM    2  C2  UNL     1     -31.922   8.476   1.566  1.00 20.00     0.028 C 
HETATM    3  C3  UNL     1     -34.392   7.518   4.422  1.00 20.00     0.007 C 
HETATM    4  C4  UNL     1     -32.552   8.618   2.955  1.00 20.00     0.008 C 
HETATM    5  C5  UNL     1     -34.474   5.408   3.151  1.00 20.00     0.034 C 
HETATM    6  C6  UNL     1     -31.529   7.036   1.231  1.00 20.00     0.235 C 
HETATM    7  C7  UNL     1     -33.704   7.637   3.070  1.00 20.00     0.016 C 
HETATM    8  C8  UNL     1     -33.222   6.211   2.843  1.00 20.00     0.192 C 
HETATM    9  N11 UNL     1     -32.703   6.090   1.444  1.00 20.00    -0.065 N 
HETATM   10  H31 UNL     1     -33.450   6.381   0.798  1.00 20.00     0.280 HD
ENDROOT
BRANCH   9  11
HETATM   11  C9  UNL     1     -32.333   4.681   1.070  1.00 20.00     0.250 C 
BRANCH  11  12
HETATM   12  C10 UNL     1     -33.152   4.225  -0.123  1.00 20.00     0.142 C 
HETATM   13 CL12 UNL     1     -34.483   5.355  -0.473  1.00 20.00    -0.129 Cl
ENDBRANCH  11  12
ENDBRANCH   9  11
TORSDOF 2
ENDMDL
MODEL 7
REMARK VINA RESULT:       2.2      0.845      2.772
REMARK  2 active torsions:
REMARK  status: ('A' for Active; 'I' for Inactive)
REMARK    1  A    between atoms: C9_9  and  C10_10 
REMARK    2  A    between atoms: C9_9  and  N11_11 
ROOT
HETATM    1  C1  UNL     1     -32.130   4.640   0.914  1.00 20.00     0.002 C 
HETATM    2  C2  UNL     1     -34.615   7.355   4.026  1.00 20.00     0.028 C 
HETATM    3  C3  UNL     1     -33.016   4.346   2.137  1.00 20.00     0.007 C 
HETATM    4  C4  UNL     1     -34.164   5.899   3.875  1.00 20.00     0.008 C 
HETATM    5  C5  UNL     1     -32.031   6.172   0.806  1.00 20.00     0.034 C 
HETATM    6  C6  UNL     1     -33.533   8.361   3.628  1.00 20.00     0.235 C 
HETATM    7  C7  UNL     1     -33.640   5.694   2.466  1.00 20.00     0.016 C 
HETATM    8  C8  UNL     1     -32.488   6.646   2.176  1.00 20.00     0.192 C 
HETATM    9  N11 UNL     1     -32.992   8.055   2.239  1.00 20.00    -0.065 N 
HETATM   10  H31 UNL     1     -33.777   8.144   1.579  1.00 20.00     0.280 HD
ENDROOT
BRANCH   9  11
HETATM   11  C9  UNL     1     -31.962   9.070   1.827  1.00 20.00     0.250 C 
BRANCH  11  12
HETATM   12  C10 UNL     1     -32.614  10.174   1.015  1.00 20.00     0.142 C 
HETATM   13 CL12 UNL     1     -32.721   9.743  -0.709  1.00 20.00    -0.129 Cl
ENDBRANCH  11  12
ENDBRANCH   9  11
TORSDOF 2
ENDMDL
MODEL 8
REMARK VINA RESULT:       2.2      3.168      4.420
REMARK  2 active torsions:
REMARK  status: ('A' for Active; 'I' for Inactive)
REMARK    1  A    between atoms: C9_9  and  C10_10 
REMARK    2  A    between atoms: C9_9  and  N11_11 
ROOT
HETATM    1  C1  UNL     1     -34.136   8.528   4.136  1.00 20.00     0.002 C 
HETATM    2  C2  UNL     1     -32.242   5.296   1.104  1.00 20.00     0.028 C 
HETATM    3  C3  UNL     1     -33.067   8.580   3.030  1.00 20.00     0.007 C 
HETATM    4  C4  UNL     1     -31.972   6.729   1.573  1.00 20.00     0.008 C 
HETATM    5  C5  UNL     1     -34.569   7.055   4.255  1.00 20.00     0.034 C 
HETATM    6  C6  UNL     1     -32.648   4.358   2.243  1.00 20.00     0.235 C 
HETATM    7  C7  UNL     1     -33.175   7.219   2.357  1.00 20.00     0.016 C 
HETATM    8  C8  UNL     1     -33.452   6.308   3.545  1.00 20.00     0.192 C 
HETATM    9  N11 UNL     1     -33.805   4.944   3.040  1.00 20.00    -0.065 N 
HETATM   10  H31 UNL     1     -34.603   5.036   2.397  1.00 20.00     0.280 HD
ENDROOT
BRANCH   9  11
HETATM   11  C9  UNL     1     -34.237   4.003   4.132  1.00 20.00     0.250 C 
BRANCH  11  12
HETATM   12  C10 UNL     1     -33.152   2.974   4.392  1.00 20.00     0.142 C 
HETATM   13 CL12 UNL     1     -32.503   3.112   6.044  1.00 20.00    -0.129 Cl
ENDBRANCH  11  12
ENDBRANCH   9  11
TORSDOF 2
ENDMDL
MODEL 9
REMARK VINA RESULT:       2.6      0.932      2.586
REMARK  2 active torsions:
REMARK  status: ('A' for Active; 'I' for Inactive)
REMARK    1  A    between atoms: C9_9  and  C10_10 
REMARK    2  A    between atoms: C9_9  and  N11_11 
ROOT
HETATM    1  C1  UNL     1     -33.686   3.885   2.854  1.00 20.00     0.002 C 
HETATM    2  C2  UNL     1     -34.219   8.538   3.992  1.00 20.00     0.028 C 
HETATM    3  C3  UNL     1     -34.297   4.643   4.046  1.00 20.00     0.007 C 
HETATM    4  C4  UNL     1     -34.364   7.167   4.659  1.00 20.00     0.008 C 
HETATM    5  C5  UNL     1     -33.081   4.951   1.923  1.00 20.00     0.034 C 
HETATM    6  C6  UNL     1     -32.981   8.642   3.098  1.00 20.00     0.235 C 
HETATM    7  C7  UNL     1     -34.303   6.094   3.588  1.00 20.00     0.016 C 
HETATM    8  C8  UNL     1     -32.995   6.179   2.814  1.00 20.00     0.192 C 
HETATM    9  N11 UNL     1     -32.936   7.494   2.099  1.00 20.00    -0.065 N 
HETATM   10  H31 UNL     1     -33.773   7.574   1.506  1.00 20.00     0.280 HD
ENDROOT
BRANCH   9  11
HETATM   11  C9  UNL     1     -31.746   7.620   1.189  1.00 20.00     0.250 C 
BRANCH  11  12
HETATM   12  C10 UNL     1     -31.510   9.077   0.837  1.00 20.00     0.142 C 
HETATM   13 CL12 UNL     1     -32.701   9.665  -0.348  1.00 20.00    -0.129 Cl
ENDBRANCH  11  12
ENDBRANCH   9  11
TORSDOF 2
ENDMDL
