MODEL 1
REMARK VINA RESULT:       0.6      0.000      0.000
REMARK  2 active torsions:
REMARK  status: ('A' for Active; 'I' for Inactive)
REMARK    1  A    between atoms: C6_6  and  C10_10 
REMARK    2  A    between atoms: C7_7  and  C11_11 
ROOT
HETATM    1  C1  UNL     1     -33.191   7.560   4.181  1.00 20.00     0.069 C 
HETATM    2  C2  UNL     1     -35.792   5.993   4.212  1.00 20.00     0.002 C 
HETATM    3  C3  UNL     1     -34.916   4.851   4.728  1.00 20.00     0.005 C 
HETATM    4  C4  UNL     1     -35.199   6.733   3.007  1.00 20.00     0.024 C 
HETATM    5  C5  UNL     1     -33.065   5.347   3.060  1.00 20.00     0.029 C 
HETATM    6  C6  UNL     1     -34.021   4.278   3.629  1.00 20.00    -0.013 C 
HETATM    7  C7  UNL     1     -33.659   6.779   3.010  1.00 20.00     0.049 C 
HETATM    8  N12 UNL     1     -32.825   8.170   5.098  1.00 20.00    -0.196 NA
ENDROOT
BRANCH   7   9
HETATM    9  C11 UNL     1     -33.165   7.497   1.742  1.00 20.00     0.020 C 
HETATM   10  C9  UNL     1     -31.704   7.772   1.814  1.00 20.00     0.007 C 
ENDBRANCH   7   9
BRANCH   6  11
HETATM   11  C10 UNL     1     -33.238   3.067   4.132  1.00 20.00     0.000 C 
HETATM   12  C8  UNL     1     -32.929   3.177   5.589  1.00 20.00     0.005 C 
ENDBRANCH   6  11
TORSDOF 2
ENDMDL
MODEL 2
REMARK VINA RESULT:       1.7      1.729      4.833
REMARK  2 active torsions:
REMARK  status: ('A' for Active; 'I' for Inactive)
REMARK    1  A    between atoms: C6_6  and  C10_10 
REMARK    2  A    between atoms: C7_7  and  C11_11 
ROOT
HETATM    1  C1  UNL     1     -33.227   7.695   4.419  1.00 20.00     0.069 C 
HETATM    2  C2  UNL     1     -31.712   6.530   2.060  1.00 20.00     0.002 C 
HETATM    3  C3  UNL     1     -31.493   7.994   1.678  1.00 20.00     0.005 C 
HETATM    4  C4  UNL     1     -33.158   6.202   2.454  1.00 20.00     0.024 C 
HETATM    5  C5  UNL     1     -33.893   8.628   2.216  1.00 20.00     0.029 C 
HETATM    6  C6  UNL     1     -32.772   8.645   1.155  1.00 20.00    -0.013 C 
HETATM    7  C7  UNL     1     -33.891   7.375   3.131  1.00 20.00     0.049 C 
HETATM    8  N12 UNL     1     -32.707   7.945   5.426  1.00 20.00    -0.196 NA
ENDROOT
BRANCH   7   9
HETATM    9  C11 UNL     1     -35.340   6.963   3.443  1.00 20.00     0.020 C 
HETATM   10  C9  UNL     1     -35.383   5.739   4.288  1.00 20.00     0.007 C 
ENDBRANCH   7   9
BRANCH   6  11
HETATM   11  C10 UNL     1     -32.508  10.070   0.673  1.00 20.00     0.000 C 
HETATM   12  C8  UNL     1     -32.787  10.218  -0.787  1.00 20.00     0.005 C 
ENDBRANCH   6  11
TORSDOF 2
ENDMDL
MODEL 3
REMARK VINA RESULT:       1.8      1.723      4.143
REMARK  2 active torsions:
REMARK  status: ('A' for Active; 'I' for Inactive)
REMARK    1  A    between atoms: C6_6  and  C10_10 
REMARK    2  A    between atoms: C7_7  and  C11_11 
ROOT
HETATM    1  C1  UNL     1     -35.869   6.531   3.267  1.00 20.00     0.069 C 
HETATM    2  C2  UNL     1     -33.769   8.397   4.417  1.00 20.00     0.002 C 
HETATM    3  C3  UNL     1     -33.245   8.440   2.981  1.00 20.00     0.005 C 
HETATM    4  C4  UNL     1     -34.090   6.983   4.918  1.00 20.00     0.024 C 
HETATM    5  C5  UNL     1     -33.535   5.936   2.665  1.00 20.00     0.029 C 
HETATM    6  C6  UNL     1     -32.563   7.132   2.584  1.00 20.00    -0.013 C 
HETATM    7  C7  UNL     1     -34.580   6.035   3.807  1.00 20.00     0.049 C 
HETATM    8  N12 UNL     1     -36.878   6.920   2.844  1.00 20.00    -0.196 NA
ENDROOT
BRANCH   7   9
HETATM    9  C11 UNL     1     -34.829   4.637   4.399  1.00 20.00     0.020 C 
HETATM   10  C9  UNL     1     -33.662   3.741   4.177  1.00 20.00     0.007 C 
ENDBRANCH   7   9
BRANCH   6  11
HETATM   11  C10 UNL     1     -31.947   7.233   1.190  1.00 20.00     0.000 C 
HETATM   12  C8  UNL     1     -31.899   8.647   0.711  1.00 20.00     0.005 C 
ENDBRANCH   6  11
TORSDOF 2
ENDMDL
MODEL 4
REMARK VINA RESULT:       2.4      2.200      3.468
REMARK  2 active torsions:
REMARK  status: ('A' for Active; 'I' for Inactive)
REMARK    1  A    between atoms: C6_6  and  C10_10 
REMARK    2  A    between atoms: C7_7  and  C11_11 
ROOT
HETATM    1  C1  UNL     1     -32.508   8.737   1.040  1.00 20.00     0.069 C 
HETATM    2  C2  UNL     1     -32.452   5.701   1.047  1.00 20.00     0.002 C 
HETATM    3  C3  UNL     1     -33.867   5.832   1.613  1.00 20.00     0.005 C 
HETATM    4  C4  UNL     1     -31.428   6.624   1.720  1.00 20.00     0.024 C 
HETATM    5  C5  UNL     1     -33.200   7.707   3.191  1.00 20.00     0.029 C 
HETATM    6  C6  UNL     1     -33.858   6.318   3.061  1.00 20.00    -0.013 C 
HETATM    7  C7  UNL     1     -32.028   7.956   2.207  1.00 20.00     0.049 C 
HETATM    8  N12 UNL     1     -32.885   9.346   0.127  1.00 20.00    -0.196 NA
ENDROOT
BRANCH   7   9
HETATM    9  C11 UNL     1     -30.936   8.786   2.905  1.00 20.00     0.020 C 
HETATM   10  C9  UNL     1     -31.357   9.187   4.275  1.00 20.00     0.007 C 
ENDBRANCH   7   9
BRANCH   6  11
HETATM   11  C10 UNL     1     -35.270   6.333   3.645  1.00 20.00     0.000 C 
HETATM   12  C8  UNL     1     -35.483   5.206   4.601  1.00 20.00     0.005 C 
ENDBRANCH   6  11
TORSDOF 2
ENDMDL
MODEL 5
REMARK VINA RESULT:       2.8      1.546      2.125
REMARK  2 active torsions:
REMARK  status: ('A' for Active; 'I' for Inactive)
REMARK    1  A    between atoms: C6_6  and  C10_10 
REMARK    2  A    between atoms: C7_7  and  C11_11 
ROOT
HETATM    1  C1  UNL     1     -31.495   8.248   2.662  1.00 20.00     0.069 C 
HETATM    2  C2  UNL     1     -34.249   7.922   3.898  1.00 20.00     0.002 C 
HETATM    3  C3  UNL     1     -33.820   6.466   4.088  1.00 20.00     0.005 C 
HETATM    4  C4  UNL     1     -33.948   8.480   2.502  1.00 20.00     0.024 C 
HETATM    5  C5  UNL     1     -32.797   6.332   1.766  1.00 20.00     0.029 C 
HETATM    6  C6  UNL     1     -33.793   5.704   2.764  1.00 20.00    -0.013 C 
HETATM    7  C7  UNL     1     -32.685   7.877   1.858  1.00 20.00     0.049 C 
HETATM    8  N12 UNL     1     -30.564   8.538   3.292  1.00 20.00    -0.196 NA
ENDROOT
BRANCH   7   9
HETATM    9  C11 UNL     1     -32.497   8.464   0.448  1.00 20.00     0.020 C 
HETATM   10  C9  UNL     1     -32.556   9.951   0.471  1.00 20.00     0.007 C 
ENDBRANCH   7   9
BRANCH   6  11
HETATM   11  C10 UNL     1     -33.473   4.227   2.986  1.00 20.00     0.000 C 
HETATM   12  C8  UNL     1     -33.823   3.790   4.371  1.00 20.00     0.005 C 
ENDBRANCH   6  11
TORSDOF 2
ENDMDL
MODEL 6
REMARK VINA RESULT:       3.0      2.608      4.674
REMARK  2 active torsions:
REMARK  status: ('A' for Active; 'I' for Inactive)
REMARK    1  A    between atoms: C6_6  and  C10_10 
REMARK    2  A    between atoms: C7_7  and  C11_11 
ROOT
HETATM    1  C1  UNL     1     -33.542   5.407   0.538  1.00 20.00     0.069 C 
HETATM    2  C2  UNL     1     -34.122   6.594   3.271  1.00 20.00     0.002 C 
HETATM    3  C3  UNL     1     -33.854   7.929   2.576  1.00 20.00     0.005 C 
HETATM    4  C4  UNL     1     -33.079   5.513   2.960  1.00 20.00     0.024 C 
HETATM    5  C5  UNL     1     -31.832   7.023   1.334  1.00 20.00     0.029 C 
HETATM    6  C6  UNL     1     -32.370   8.125   2.270  1.00 20.00    -0.013 C 
HETATM    7  C7  UNL     1     -32.477   5.628   1.547  1.00 20.00     0.049 C 
HETATM    8  N12 UNL     1     -34.375   5.235  -0.252  1.00 20.00    -0.196 NA
ENDROOT
BRANCH   7   9
HETATM    9  C11 UNL     1     -31.414   4.534   1.350  1.00 20.00     0.020 C 
HETATM   10  C9  UNL     1     -31.350   4.093  -0.070  1.00 20.00     0.007 C 
ENDBRANCH   7   9
BRANCH   6  11
HETATM   11  C10 UNL     1     -32.107   9.509   1.680  1.00 20.00     0.000 C 
HETATM   12  C8  UNL     1     -32.417   9.553   0.219  1.00 20.00     0.005 C 
ENDBRANCH   6  11
TORSDOF 2
ENDMDL
MODEL 7
REMARK VINA RESULT:       3.3      2.068      3.258
REMARK  2 active torsions:
REMARK  status: ('A' for Active; 'I' for Inactive)
REMARK    1  A    between atoms: C6_6  and  C10_10 
REMARK    2  A    between atoms: C7_7  and  C11_11 
ROOT
HETATM    1  C1  UNL     1     -31.784   6.517   1.618  1.00 20.00     0.069 C 
HETATM    2  C2  UNL     1     -32.124   8.232   4.100  1.00 20.00     0.002 C 
HETATM    3  C3  UNL     1     -33.221   7.228   4.454  1.00 20.00     0.005 C 
HETATM    4  C4  UNL     1     -32.180   8.725   2.649  1.00 20.00     0.024 C 
HETATM    5  C5  UNL     1     -34.130   7.189   2.083  1.00 20.00     0.029 C 
HETATM    6  C6  UNL     1     -34.458   7.401   3.575  1.00 20.00    -0.013 C 
HETATM    7  C7  UNL     1     -32.716   7.670   1.662  1.00 20.00     0.049 C 
HETATM    8  N12 UNL     1     -31.056   5.614   1.585  1.00 20.00    -0.196 NA
ENDROOT
BRANCH   7   9
HETATM    9  C11 UNL     1     -32.777   8.274   0.248  1.00 20.00     0.020 C 
HETATM   10  C9  UNL     1     -32.431   9.721   0.264  1.00 20.00     0.007 C 
ENDBRANCH   7   9
BRANCH   6  11
HETATM   11  C10 UNL     1     -35.584   6.467   4.017  1.00 20.00     0.000 C 
HETATM   12  C8  UNL     1     -35.065   5.115   4.383  1.00 20.00     0.005 C 
ENDBRANCH   6  11
TORSDOF 2
ENDMDL
MODEL 8
REMARK VINA RESULT:       3.3      1.695      2.671
REMARK  2 active torsions:
REMARK  status: ('A' for Active; 'I' for Inactive)
REMARK    1  A    between atoms: C6_6  and  C10_10 
REMARK    2  A    between atoms: C7_7  and  C11_11 
ROOT
HETATM    1  C1  UNL     1     -35.652   6.906   3.202  1.00 20.00     0.069 C 
HETATM    2  C2  UNL     1     -33.182   6.138   1.613  1.00 20.00     0.002 C 
HETATM    3  C3  UNL     1     -33.512   4.720   2.083  1.00 20.00     0.005 C 
HETATM    4  C4  UNL     1     -33.247   7.190   2.727  1.00 20.00     0.024 C 
HETATM    5  C5  UNL     1     -34.038   5.488   4.446  1.00 20.00     0.029 C 
HETATM    6  C6  UNL     1     -33.210   4.527   3.568  1.00 20.00    -0.013 C 
HETATM    7  C7  UNL     1     -34.299   6.878   3.808  1.00 20.00     0.049 C 
HETATM    8  N12 UNL     1     -36.711   6.928   2.727  1.00 20.00    -0.196 NA
ENDROOT
BRANCH   7   9
HETATM    9  C11 UNL     1     -34.253   7.962   4.898  1.00 20.00     0.020 C 
HETATM   10  C9  UNL     1     -32.857   8.411   5.154  1.00 20.00     0.007 C 
ENDBRANCH   7   9
BRANCH   6  11
HETATM   11  C10 UNL     1     -33.438   3.077   3.992  1.00 20.00     0.000 C 
HETATM   12  C8  UNL     1     -32.821   2.790   5.322  1.00 20.00     0.005 C 
ENDBRANCH   6  11
TORSDOF 2
ENDMDL
MODEL 9
REMARK VINA RESULT:       3.4      2.446      5.097
REMARK  2 active torsions:
REMARK  status: ('A' for Active; 'I' for Inactive)
REMARK    1  A    between atoms: C6_6  and  C10_10 
REMARK    2  A    between atoms: C7_7  and  C11_11 
ROOT
HETATM    1  C1  UNL     1     -33.753   6.889   2.863  1.00 20.00     0.069 C 
HETATM    2  C2  UNL     1     -31.040   8.236   2.655  1.00 20.00     0.002 C 
HETATM    3  C3  UNL     1     -31.794   9.276   1.826  1.00 20.00     0.005 C 
HETATM    4  C4  UNL     1     -31.359   6.786   2.269  1.00 20.00     0.024 C 
HETATM    5  C5  UNL     1     -33.092   7.505   0.550  1.00 20.00     0.029 C 
HETATM    6  C6  UNL     1     -32.173   8.740   0.446  1.00 20.00    -0.013 C 
HETATM    7  C7  UNL     1     -32.801   6.587   1.766  1.00 20.00     0.049 C 
HETATM    8  N12 UNL     1     -34.497   7.126   3.721  1.00 20.00    -0.196 NA
ENDROOT
BRANCH   7   9
HETATM    9  C11 UNL     1     -33.005   5.117   1.362  1.00 20.00     0.020 C 
HETATM   10  C9  UNL     1     -31.870   4.621   0.537  1.00 20.00     0.007 C 
ENDBRANCH   7   9
BRANCH   6  11
HETATM   11  C10 UNL     1     -32.823   9.827  -0.408  1.00 20.00     0.000 C 
HETATM   12  C8  UNL     1     -33.035  11.084   0.369  1.00 20.00     0.005 C 
ENDBRANCH   6  11
TORSDOF 2
ENDMDL
