MODEL 1
REMARK VINA RESULT:      -2.5      0.000      0.000
REMARK  3 active torsions:
REMARK  status: ('A' for Active; 'I' for Inactive)
REMARK    1  A    between atoms: C1_1  and  C5_5 
REMARK    2  A    between atoms: C1_1  and  C9_9 
REMARK    3  A    between atoms: C6_6  and  C10_10 
ROOT
HETATM    1  C2  UNL     1     -32.887   6.075   2.130  1.00 20.00     0.012 C 
HETATM    2  C3  UNL     1     -31.953   6.545   1.017  1.00 20.00     0.005 C 
HETATM    3  C4  UNL     1     -32.451   8.376   2.565  1.00 20.00     0.016 C 
HETATM    4  C5  UNL     1     -33.586   7.351   2.585  1.00 20.00     0.056 C 
HETATM    5  C6  UNL     1     -31.619   8.001   1.341  1.00 20.00    -0.014 C 
ENDROOT
BRANCH   4   6
HETATM    6  C1  UNL     1     -34.248   7.219   3.946  1.00 20.00     0.130 C 
HETATM    7  O11 UNL     1     -33.878   7.899   4.900  1.00 20.00    -0.298 OA
BRANCH   6   8
HETATM    8  C9  UNL     1     -35.376   6.208   4.043  1.00 20.00     0.074 C 
HETATM    9  C7  UNL     1     -34.891   4.830   4.455  1.00 20.00     0.013 C 
ENDBRANCH   6   8
ENDBRANCH   4   6
BRANCH   5  10
HETATM   10  C10 UNL     1     -32.038   8.881   0.179  1.00 20.00     0.000 C 
HETATM   11  C8  UNL     1     -32.529  10.219   0.638  1.00 20.00     0.005 C 
ENDBRANCH   5  10
TORSDOF 3
ENDMDL
MODEL 2
REMARK VINA RESULT:      -2.3      1.273      1.535
REMARK  3 active torsions:
REMARK  status: ('A' for Active; 'I' for Inactive)
REMARK    1  A    between atoms: C1_1  and  C5_5 
REMARK    2  A    between atoms: C1_1  and  C9_9 
REMARK    3  A    between atoms: C6_6  and  C10_10 
ROOT
HETATM    1  C2  UNL     1     -32.726   5.844   1.699  1.00 20.00     0.012 C 
HETATM    2  C3  UNL     1     -31.939   7.018   1.120  1.00 20.00     0.005 C 
HETATM    3  C4  UNL     1     -32.994   7.639   3.242  1.00 20.00     0.016 C 
HETATM    4  C5  UNL     1     -33.780   6.508   2.579  1.00 20.00     0.056 C 
HETATM    5  C6  UNL     1     -32.054   8.143   2.149  1.00 20.00    -0.014 C 
ENDROOT
BRANCH   4   6
HETATM    6  C1  UNL     1     -34.413   5.554   3.577  1.00 20.00     0.130 C 
HETATM    7  O11 UNL     1     -35.276   5.940   4.363  1.00 20.00    -0.298 OA
BRANCH   6   8
HETATM    8  C9  UNL     1     -33.916   4.121   3.538  1.00 20.00     0.074 C 
HETATM    9  C7  UNL     1     -33.581   3.581   4.917  1.00 20.00     0.013 C 
ENDBRANCH   6   8
ENDBRANCH   4   6
BRANCH   5  10
HETATM   10  C10 UNL     1     -32.679   9.360   1.492  1.00 20.00     0.000 C 
HETATM   11  C8  UNL     1     -32.231   9.523   0.073  1.00 20.00     0.005 C 
ENDBRANCH   5  10
TORSDOF 3
ENDMDL
MODEL 3
REMARK VINA RESULT:      -1.7      1.703      2.694
REMARK  3 active torsions:
REMARK  status: ('A' for Active; 'I' for Inactive)
REMARK    1  A    between atoms: C1_1  and  C5_5 
REMARK    2  A    between atoms: C1_1  and  C9_9 
REMARK    3  A    between atoms: C6_6  and  C10_10 
ROOT
HETATM    1  C2  UNL     1     -34.376   7.143   4.137  1.00 20.00     0.012 C 
HETATM    2  C3  UNL     1     -33.761   8.213   3.237  1.00 20.00     0.005 C 
HETATM    3  C4  UNL     1     -33.552   5.995   2.219  1.00 20.00     0.016 C 
HETATM    4  C5  UNL     1     -33.644   5.865   3.740  1.00 20.00     0.056 C 
HETATM    5  C6  UNL     1     -33.300   7.481   1.976  1.00 20.00    -0.014 C 
ENDROOT
BRANCH   4   6
HETATM    6  C1  UNL     1     -34.357   4.602   4.191  1.00 20.00     0.130 C 
HETATM    7  O11 UNL     1     -35.490   4.650   4.666  1.00 20.00    -0.298 OA
BRANCH   6   8
HETATM    8  C9  UNL     1     -33.590   3.305   4.018  1.00 20.00     0.074 C 
HETATM    9  C7  UNL     1     -32.837   2.901   5.272  1.00 20.00     0.013 C 
ENDBRANCH   6   8
ENDBRANCH   4   6
BRANCH   5  10
HETATM   10  C10 UNL     1     -31.810   7.698   1.789  1.00 20.00     0.000 C 
HETATM   11  C8  UNL     1     -31.521   8.819   0.841  1.00 20.00     0.005 C 
ENDBRANCH   5  10
TORSDOF 3
ENDMDL
MODEL 4
REMARK VINA RESULT:      -1.1      1.342      1.493
REMARK  3 active torsions:
REMARK  status: ('A' for Active; 'I' for Inactive)
REMARK    1  A    between atoms: C1_1  and  C5_5 
REMARK    2  A    between atoms: C1_1  and  C9_9 
REMARK    3  A    between atoms: C6_6  and  C10_10 
ROOT
HETATM    1  C2  UNL     1     -32.144   6.371   1.314  1.00 20.00     0.012 C 
HETATM    2  C3  UNL     1     -31.524   7.650   0.756  1.00 20.00     0.005 C 
HETATM    3  C4  UNL     1     -32.759   8.111   2.820  1.00 20.00     0.016 C 
HETATM    4  C5  UNL     1     -33.328   6.866   2.138  1.00 20.00     0.056 C 
HETATM    5  C6  UNL     1     -31.860   8.749   1.764  1.00 20.00    -0.014 C 
ENDROOT
BRANCH   4   6
HETATM    6  C1  UNL     1     -33.849   5.831   3.120  1.00 20.00     0.130 C 
HETATM    7  O11 UNL     1     -33.330   4.719   3.203  1.00 20.00    -0.298 OA
BRANCH   6   8
HETATM    8  C9  UNL     1     -35.030   6.255   3.973  1.00 20.00     0.074 C 
HETATM    9  C7  UNL     1     -35.572   5.120   4.824  1.00 20.00     0.013 C 
ENDBRANCH   6   8
ENDBRANCH   4   6
BRANCH   5  10
HETATM   10  C10 UNL     1     -32.637   9.849   1.064  1.00 20.00     0.000 C 
HETATM   11  C8  UNL     1     -32.393   9.855  -0.413  1.00 20.00     0.005 C 
ENDBRANCH   5  10
TORSDOF 3
ENDMDL
MODEL 5
REMARK VINA RESULT:      -0.7      1.391      4.508
REMARK  3 active torsions:
REMARK  status: ('A' for Active; 'I' for Inactive)
REMARK    1  A    between atoms: C1_1  and  C5_5 
REMARK    2  A    between atoms: C1_1  and  C9_9 
REMARK    3  A    between atoms: C6_6  and  C10_10 
ROOT
HETATM    1  C2  UNL     1     -32.773   6.045   1.463  1.00 20.00     0.012 C 
HETATM    2  C3  UNL     1     -33.739   5.010   2.035  1.00 20.00     0.005 C 
HETATM    3  C4  UNL     1     -33.884   7.115   3.279  1.00 20.00     0.016 C 
HETATM    4  C5  UNL     1     -32.503   6.982   2.636  1.00 20.00     0.056 C 
HETATM    5  C6  UNL     1     -34.501   5.724   3.151  1.00 20.00    -0.014 C 
ENDROOT
BRANCH   4   6
HETATM    6  C1  UNL     1     -31.908   8.314   2.214  1.00 20.00     0.130 C 
HETATM    7  O11 UNL     1     -31.340   9.041   3.027  1.00 20.00    -0.298 OA
BRANCH   6   8
HETATM    8  C9  UNL     1     -32.061   8.679   0.749  1.00 20.00     0.074 C 
HETATM    9  C7  UNL     1     -32.510  10.115   0.549  1.00 20.00     0.013 C 
ENDBRANCH   6   8
ENDBRANCH   4   6
BRANCH   5  10
HETATM   10  C10 UNL     1     -34.292   4.978   4.456  1.00 20.00     0.000 C 
HETATM   11  C8  UNL     1     -33.715   3.614   4.235  1.00 20.00     0.005 C 
ENDBRANCH   5  10
TORSDOF 3
ENDMDL
MODEL 6
REMARK VINA RESULT:      -0.5      1.780      4.775
REMARK  3 active torsions:
REMARK  status: ('A' for Active; 'I' for Inactive)
REMARK    1  A    between atoms: C1_1  and  C5_5 
REMARK    2  A    between atoms: C1_1  and  C9_9 
REMARK    3  A    between atoms: C6_6  and  C10_10 
ROOT
HETATM    1  C2  UNL     1     -32.265   8.600   3.362  1.00 20.00     0.012 C 
HETATM    2  C3  UNL     1     -33.074   7.811   4.389  1.00 20.00     0.005 C 
HETATM    3  C4  UNL     1     -33.113   6.696   2.208  1.00 20.00     0.016 C 
HETATM    4  C5  UNL     1     -32.875   8.195   2.024  1.00 20.00     0.056 C 
HETATM    5  C6  UNL     1     -33.555   6.554   3.663  1.00 20.00    -0.014 C 
ENDROOT
BRANCH   4   6
HETATM    6  C1  UNL     1     -31.984   8.519   0.838  1.00 20.00     0.130 C 
HETATM    7  O11 UNL     1     -30.897   7.964   0.691  1.00 20.00    -0.298 OA
BRANCH   6   8
HETATM    8  C9  UNL     1     -32.518   9.554  -0.135  1.00 20.00     0.074 C 
HETATM    9  C7  UNL     1     -32.758  10.902   0.521  1.00 20.00     0.013 C 
ENDBRANCH   6   8
ENDBRANCH   4   6
BRANCH   5  10
HETATM   10  C10 UNL     1     -35.071   6.499   3.707  1.00 20.00     0.000 C 
HETATM   11  C8  UNL     1     -35.567   5.304   4.459  1.00 20.00     0.005 C 
ENDBRANCH   5  10
TORSDOF 3
ENDMDL
MODEL 7
REMARK VINA RESULT:      -0.3      1.113      2.579
REMARK  3 active torsions:
REMARK  status: ('A' for Active; 'I' for Inactive)
REMARK    1  A    between atoms: C1_1  and  C5_5 
REMARK    2  A    between atoms: C1_1  and  C9_9 
REMARK    3  A    between atoms: C6_6  and  C10_10 
ROOT
HETATM    1  C2  UNL     1     -32.412   8.098   2.511  1.00 20.00     0.012 C 
HETATM    2  C3  UNL     1     -31.597   7.507   1.363  1.00 20.00     0.005 C 
HETATM    3  C4  UNL     1     -33.437   6.014   1.982  1.00 20.00     0.016 C 
HETATM    4  C5  UNL     1     -33.042   6.881   3.179  1.00 20.00     0.056 C 
HETATM    5  C6  UNL     1     -32.302   6.206   0.979  1.00 20.00    -0.014 C 
ENDROOT
BRANCH   4   6
HETATM    6  C1  UNL     1     -34.216   7.231   4.077  1.00 20.00     0.130 C 
HETATM    7  O11 UNL     1     -34.159   8.184   4.851  1.00 20.00    -0.298 OA
BRANCH   6   8
HETATM    8  C9  UNL     1     -35.438   6.339   3.957  1.00 20.00     0.074 C 
HETATM    9  C7  UNL     1     -35.228   4.973   4.584  1.00 20.00     0.013 C 
ENDBRANCH   6   8
ENDBRANCH   4   6
BRANCH   5  10
HETATM   10  C10 UNL     1     -31.329   5.050   1.119  1.00 20.00     0.000 C 
HETATM   11  C8  UNL     1     -31.487   4.048   0.018  1.00 20.00     0.005 C 
ENDBRANCH   5  10
TORSDOF 3
ENDMDL
MODEL 8
REMARK VINA RESULT:      -0.1      1.962      4.423
REMARK  3 active torsions:
REMARK  status: ('A' for Active; 'I' for Inactive)
REMARK    1  A    between atoms: C1_1  and  C5_5 
REMARK    2  A    between atoms: C1_1  and  C9_9 
REMARK    3  A    between atoms: C6_6  and  C10_10 
ROOT
HETATM    1  C2  UNL     1     -32.400   6.289   1.480  1.00 20.00     0.012 C 
HETATM    2  C3  UNL     1     -33.314   5.599   2.490  1.00 20.00     0.005 C 
HETATM    3  C4  UNL     1     -33.769   8.004   2.407  1.00 20.00     0.016 C 
HETATM    4  C5  UNL     1     -32.328   7.729   1.976  1.00 20.00     0.056 C 
HETATM    5  C6  UNL     1     -34.239   6.691   3.028  1.00 20.00    -0.014 C 
ENDROOT
BRANCH   4   6
HETATM    6  C1  UNL     1     -31.823   8.700   0.922  1.00 20.00     0.130 C 
HETATM    7  O11 UNL     1     -30.860   8.419   0.211  1.00 20.00    -0.298 OA
BRANCH   6   8
HETATM    8  C9  UNL     1     -32.575  10.014   0.810  1.00 20.00     0.074 C 
HETATM    9  C7  UNL     1     -32.878  10.392  -0.629  1.00 20.00     0.013 C 
ENDBRANCH   6   8
ENDBRANCH   4   6
BRANCH   5  10
HETATM   10  C10 UNL     1     -34.083   6.781   4.535  1.00 20.00     0.000 C 
HETATM   11  C8  UNL     1     -33.674   8.153   4.974  1.00 20.00     0.005 C 
ENDBRANCH   5  10
TORSDOF 3
ENDMDL
MODEL 9
REMARK VINA RESULT:      -0.0      1.727      4.837
REMARK  3 active torsions:
REMARK  status: ('A' for Active; 'I' for Inactive)
REMARK    1  A    between atoms: C1_1  and  C5_5 
REMARK    2  A    between atoms: C1_1  and  C9_9 
REMARK    3  A    between atoms: C6_6  and  C10_10 
ROOT
HETATM    1  C2  UNL     1     -34.471   7.625   3.051  1.00 20.00     0.012 C 
HETATM    2  C3  UNL     1     -35.074   6.541   3.942  1.00 20.00     0.005 C 
HETATM    3  C4  UNL     1     -32.723   6.057   3.454  1.00 20.00     0.016 C 
HETATM    4  C5  UNL     1     -33.321   6.918   2.341  1.00 20.00     0.056 C 
HETATM    5  C6  UNL     1     -33.930   5.577   4.257  1.00 20.00    -0.014 C 
ENDROOT
BRANCH   4   6
HETATM    6  C1  UNL     1     -32.319   7.877   1.722  1.00 20.00     0.130 C 
HETATM    7  O11 UNL     1     -31.162   7.527   1.498  1.00 20.00    -0.298 OA
BRANCH   6   8
HETATM    8  C9  UNL     1     -32.835   9.269   1.407  1.00 20.00     0.074 C 
HETATM    9  C7  UNL     1     -32.395   9.758   0.038  1.00 20.00     0.013 C 
ENDBRANCH   6   8
ENDBRANCH   4   6
BRANCH   5  10
HETATM   10  C10 UNL     1     -34.306   4.185   3.786  1.00 20.00     0.000 C 
HETATM   11  C8  UNL     1     -33.493   3.125   4.463  1.00 20.00     0.005 C 
ENDBRANCH   5  10
TORSDOF 3
ENDMDL
