MODEL 1
REMARK VINA RESULT:      -0.0      0.000      0.000
REMARK  2 active torsions:
REMARK  status: ('A' for Active; 'I' for Inactive)
REMARK    1  A    between atoms: C5_5  and  C9_9 
REMARK    2  A    between atoms: C6_6  and  C10_10 
ROOT
HETATM    1  C1  UNL     1     -32.487   9.036   0.787  1.00 20.00     0.069 C 
HETATM    2  C2  UNL     1     -33.121   5.751   2.414  1.00 20.00     0.006 C 
HETATM    3  C3  UNL     1     -32.503   6.610   1.307  1.00 20.00     0.025 C 
HETATM    4  C4  UNL     1     -33.701   8.097   2.733  1.00 20.00     0.029 C 
HETATM    5  C5  UNL     1     -33.772   6.724   3.407  1.00 20.00    -0.013 C 
HETATM    6  C6  UNL     1     -32.435   8.036   1.868  1.00 20.00     0.049 C 
HETATM    7  N11 UNL     1     -32.528   9.823  -0.065  1.00 20.00    -0.196 NA
ENDROOT
BRANCH   6   8
HETATM    8  C10 UNL     1     -31.162   8.251   2.699  1.00 20.00     0.020 C 
HETATM    9  C8  UNL     1     -31.442   9.027   3.942  1.00 20.00     0.007 C 
ENDBRANCH   6   8
BRANCH   5  10
HETATM   10  C9  UNL     1     -35.191   6.327   3.785  1.00 20.00     0.000 C 
HETATM   11  C7  UNL     1     -35.231   5.023   4.517  1.00 20.00     0.005 C 
ENDBRANCH   5  10
TORSDOF 2
ENDMDL
MODEL 2
REMARK VINA RESULT:       0.2      1.731      3.184
REMARK  2 active torsions:
REMARK  status: ('A' for Active; 'I' for Inactive)
REMARK    1  A    between atoms: C5_5  and  C9_9 
REMARK    2  A    between atoms: C6_6  and  C10_10 
ROOT
HETATM    1  C1  UNL     1     -32.340   7.483   2.238  1.00 20.00     0.069 C 
HETATM    2  C2  UNL     1     -35.148   5.868   4.066  1.00 20.00     0.006 C 
HETATM    3  C3  UNL     1     -34.481   7.089   3.428  1.00 20.00     0.025 C 
HETATM    4  C4  UNL     1     -32.972   5.266   3.149  1.00 20.00     0.029 C 
HETATM    5  C5  UNL     1     -34.240   4.668   3.762  1.00 20.00    -0.013 C 
HETATM    6  C6  UNL     1     -33.452   6.537   2.434  1.00 20.00     0.049 C 
HETATM    7  N11 UNL     1     -31.464   8.229   2.084  1.00 20.00    -0.196 NA
ENDROOT
BRANCH   6   8
HETATM    8  C10 UNL     1     -34.096   6.222   1.076  1.00 20.00     0.020 C 
HETATM    9  C8  UNL     1     -33.305   5.212   0.314  1.00 20.00     0.007 C 
ENDBRANCH   6   8
BRANCH   5  10
HETATM   10  C9  UNL     1     -33.955   3.813   4.988  1.00 20.00     0.000 C 
HETATM   11  C7  UNL     1     -32.943   2.748   4.703  1.00 20.00     0.005 C 
ENDBRANCH   5  10
TORSDOF 2
ENDMDL
MODEL 3
REMARK VINA RESULT:       0.3      2.146      4.371
REMARK  2 active torsions:
REMARK  status: ('A' for Active; 'I' for Inactive)
REMARK    1  A    between atoms: C5_5  and  C9_9 
REMARK    2  A    between atoms: C6_6  and  C10_10 
ROOT
HETATM    1  C1  UNL     1     -33.962   6.607   3.130  1.00 20.00     0.069 C 
HETATM    2  C2  UNL     1     -31.246   8.767   1.792  1.00 20.00     0.006 C 
HETATM    3  C3  UNL     1     -31.912   7.989   2.930  1.00 20.00     0.025 C 
HETATM    4  C4  UNL     1     -33.311   7.728   1.019  1.00 20.00     0.029 C 
HETATM    5  C5  UNL     1     -32.072   8.483   0.529  1.00 20.00    -0.013 C 
HETATM    6  C6  UNL     1     -32.829   6.961   2.257  1.00 20.00     0.049 C 
HETATM    7  N11 UNL     1     -34.854   6.329   3.819  1.00 20.00    -0.196 NA
ENDROOT
BRANCH   6   8
HETATM    8  C10 UNL     1     -32.062   5.686   1.880  1.00 20.00     0.020 C 
HETATM    9  C8  UNL     1     -32.719   4.962   0.753  1.00 20.00     0.007 C 
ENDBRANCH   6   8
BRANCH   5  10
HETATM   10  C9  UNL     1     -32.420   9.742  -0.250  1.00 20.00     0.000 C 
HETATM   11  C7  UNL     1     -32.807  10.870   0.653  1.00 20.00     0.005 C 
ENDBRANCH   5  10
TORSDOF 2
ENDMDL
MODEL 4
REMARK VINA RESULT:       0.8      2.116      4.299
REMARK  2 active torsions:
REMARK  status: ('A' for Active; 'I' for Inactive)
REMARK    1  A    between atoms: C5_5  and  C9_9 
REMARK    2  A    between atoms: C6_6  and  C10_10 
ROOT
HETATM    1  C1  UNL     1     -35.118   6.476   3.369  1.00 20.00     0.069 C 
HETATM    2  C2  UNL     1     -31.817   8.163   3.058  1.00 20.00     0.006 C 
HETATM    3  C3  UNL     1     -33.034   7.722   3.877  1.00 20.00     0.025 C 
HETATM    4  C4  UNL     1     -33.418   6.991   1.642  1.00 20.00     0.029 C 
HETATM    5  C5  UNL     1     -32.000   7.570   1.654  1.00 20.00    -0.013 C 
HETATM    6  C6  UNL     1     -33.674   6.569   3.095  1.00 20.00     0.049 C 
HETATM    7  N11 UNL     1     -36.256   6.405   3.587  1.00 20.00    -0.196 NA
ENDROOT
BRANCH   6   8
HETATM    8  C10 UNL     1     -33.006   5.227   3.428  1.00 20.00     0.020 C 
HETATM    9  C8  UNL     1     -33.978   4.263   4.023  1.00 20.00     0.007 C 
ENDBRANCH   6   8
BRANCH   5  10
HETATM   10  C9  UNL     1     -31.770   8.585   0.545  1.00 20.00     0.000 C 
HETATM   11  C7  UNL     1     -32.639   9.792   0.702  1.00 20.00     0.005 C 
ENDBRANCH   5  10
TORSDOF 2
ENDMDL
MODEL 5
REMARK VINA RESULT:       1.5      2.077      4.220
REMARK  2 active torsions:
REMARK  status: ('A' for Active; 'I' for Inactive)
REMARK    1  A    between atoms: C5_5  and  C9_9 
REMARK    2  A    between atoms: C6_6  and  C10_10 
ROOT
HETATM    1  C1  UNL     1     -33.000   8.099   4.385  1.00 20.00     0.069 C 
HETATM    2  C2  UNL     1     -31.436   7.702   1.033  1.00 20.00     0.006 C 
HETATM    3  C3  UNL     1     -31.491   7.419   2.537  1.00 20.00     0.025 C 
HETATM    4  C4  UNL     1     -33.313   8.875   2.052  1.00 20.00     0.029 C 
HETATM    5  C5  UNL     1     -32.689   8.524   0.699  1.00 20.00    -0.013 C 
HETATM    6  C6  UNL     1     -32.935   7.703   2.967  1.00 20.00     0.049 C 
HETATM    7  N11 UNL     1     -33.050   8.411   5.501  1.00 20.00    -0.196 NA
ENDROOT
BRANCH   6   8
HETATM    8  C10 UNL     1     -33.839   6.482   2.739  1.00 20.00     0.020 C 
HETATM    9  C8  UNL     1     -34.937   6.416   3.747  1.00 20.00     0.007 C 
ENDBRANCH   6   8
BRANCH   5  10
HETATM   10  C9  UNL     1     -32.387   9.752  -0.147  1.00 20.00     0.000 C 
HETATM   11  C7  UNL     1     -32.699  11.022   0.580  1.00 20.00     0.005 C 
ENDBRANCH   5  10
TORSDOF 2
ENDMDL
MODEL 6
REMARK VINA RESULT:       1.6      1.456      2.320
REMARK  2 active torsions:
REMARK  status: ('A' for Active; 'I' for Inactive)
REMARK    1  A    between atoms: C5_5  and  C9_9 
REMARK    2  A    between atoms: C6_6  and  C10_10 
ROOT
HETATM    1  C1  UNL     1     -31.614   7.588   1.784  1.00 20.00     0.069 C 
HETATM    2  C2  UNL     1     -33.889   7.783   4.720  1.00 20.00     0.006 C 
HETATM    3  C3  UNL     1     -32.580   8.127   4.004  1.00 20.00     0.025 C 
HETATM    4  C4  UNL     1     -33.821   6.735   2.520  1.00 20.00     0.029 C 
HETATM    5  C5  UNL     1     -34.746   7.005   3.710  1.00 20.00    -0.013 C 
HETATM    6  C6  UNL     1     -32.851   7.925   2.508  1.00 20.00     0.049 C 
HETATM    7  N11 UNL     1     -30.638   7.322   1.214  1.00 20.00    -0.196 NA
ENDROOT
BRANCH   6   8
HETATM    8  C10 UNL     1     -33.484   9.175   1.879  1.00 20.00     0.020 C 
HETATM    9  C8  UNL     1     -32.657   9.701   0.754  1.00 20.00     0.007 C 
ENDBRANCH   6   8
BRANCH   5  10
HETATM   10  C9  UNL     1     -35.343   5.733   4.291  1.00 20.00     0.000 C 
HETATM   11  C7  UNL     1     -34.397   4.578   4.198  1.00 20.00     0.005 C 
ENDBRANCH   5  10
TORSDOF 2
ENDMDL
MODEL 7
REMARK VINA RESULT:       1.6      2.750      4.607
REMARK  2 active torsions:
REMARK  status: ('A' for Active; 'I' for Inactive)
REMARK    1  A    between atoms: C5_5  and  C9_9 
REMARK    2  A    between atoms: C6_6  and  C10_10 
ROOT
HETATM    1  C1  UNL     1     -33.393   4.061   4.130  1.00 20.00     0.069 C 
HETATM    2  C2  UNL     1     -33.287   6.142   1.049  1.00 20.00     0.006 C 
HETATM    3  C3  UNL     1     -33.554   4.820   1.774  1.00 20.00     0.025 C 
HETATM    4  C4  UNL     1     -32.794   6.361   3.426  1.00 20.00     0.029 C 
HETATM    5  C5  UNL     1     -32.934   7.170   2.134  1.00 20.00    -0.013 C 
HETATM    6  C6  UNL     1     -33.762   5.183   3.249  1.00 20.00     0.049 C 
HETATM    7  N11 UNL     1     -33.102   3.177   4.823  1.00 20.00    -0.196 NA
ENDROOT
BRANCH   6   8
HETATM    8  C10 UNL     1     -35.217   5.589   3.527  1.00 20.00     0.020 C 
HETATM    9  C8  UNL     1     -35.296   6.907   4.222  1.00 20.00     0.007 C 
ENDBRANCH   6   8
BRANCH   5  10
HETATM   10  C9  UNL     1     -31.686   7.976   1.807  1.00 20.00     0.000 C 
HETATM   11  C7  UNL     1     -31.972   9.082   0.841  1.00 20.00     0.005 C 
ENDBRANCH   5  10
TORSDOF 2
ENDMDL
MODEL 8
REMARK VINA RESULT:       1.8      1.864      2.575
REMARK  2 active torsions:
REMARK  status: ('A' for Active; 'I' for Inactive)
REMARK    1  A    between atoms: C5_5  and  C9_9 
REMARK    2  A    between atoms: C6_6  and  C10_10 
ROOT
HETATM    1  C1  UNL     1     -31.807   5.787   1.312  1.00 20.00     0.069 C 
HETATM    2  C2  UNL     1     -33.440   7.790   3.988  1.00 20.00     0.006 C 
HETATM    3  C3  UNL     1     -32.214   7.388   3.163  1.00 20.00     0.025 C 
HETATM    4  C4  UNL     1     -34.028   6.057   2.379  1.00 20.00     0.029 C 
HETATM    5  C5  UNL     1     -34.634   7.036   3.388  1.00 20.00    -0.013 C 
HETATM    6  C6  UNL     1     -32.760   6.760   1.875  1.00 20.00     0.049 C 
HETATM    7  N11 UNL     1     -31.056   5.021   0.870  1.00 20.00    -0.196 NA
ENDROOT
BRANCH   6   8
HETATM    8  C10 UNL     1     -33.077   7.829   0.820  1.00 20.00     0.020 C 
HETATM    9  C8  UNL     1     -32.119   8.972   0.891  1.00 20.00     0.007 C 
ENDBRANCH   6   8
BRANCH   5  10
HETATM   10  C9  UNL     1     -35.489   6.343   4.439  1.00 20.00     0.000 C 
HETATM   11  C7  UNL     1     -35.151   4.891   4.565  1.00 20.00     0.005 C 
ENDBRANCH   5  10
TORSDOF 2
ENDMDL
MODEL 9
REMARK VINA RESULT:       2.0      0.988      1.449
REMARK  2 active torsions:
REMARK  status: ('A' for Active; 'I' for Inactive)
REMARK    1  A    between atoms: C5_5  and  C9_9 
REMARK    2  A    between atoms: C6_6  and  C10_10 
ROOT
HETATM    1  C1  UNL     1     -32.455   9.001   0.858  1.00 20.00     0.069 C 
HETATM    2  C2  UNL     1     -34.029   5.830   2.000  1.00 20.00     0.006 C 
HETATM    3  C3  UNL     1     -33.479   6.742   0.899  1.00 20.00     0.025 C 
HETATM    4  C4  UNL     1     -33.248   7.934   2.950  1.00 20.00     0.029 C 
HETATM    5  C5  UNL     1     -33.750   6.539   3.332  1.00 20.00    -0.013 C 
HETATM    6  C6  UNL     1     -32.542   7.732   1.602  1.00 20.00     0.049 C 
HETATM    7  N11 UNL     1     -32.388  10.000   0.272  1.00 20.00    -0.196 NA
ENDROOT
BRANCH   6   8
HETATM    8  C10 UNL     1     -31.133   7.147   1.774  1.00 20.00     0.020 C 
HETATM    9  C8  UNL     1     -31.078   5.716   1.352  1.00 20.00     0.007 C 
ENDBRANCH   6   8
BRANCH   5  10
HETATM   10  C9  UNL     1     -34.964   6.582   4.248  1.00 20.00     0.000 C 
HETATM   11  C7  UNL     1     -35.460   5.211   4.584  1.00 20.00     0.005 C 
ENDBRANCH   5  10
TORSDOF 2
ENDMDL
