MODEL 1
REMARK VINA RESULT:      -1.3      0.000      0.000
REMARK  3 active torsions:
REMARK  status: ('A' for Active; 'I' for Inactive)
REMARK    1  A    between atoms: C1_1  and  C7_7 
REMARK    2  A    between atoms: C1_1  and  C8_8 
REMARK    3  A    between atoms: C9_9  and  C11_11 
ROOT
HETATM    1  C4  UNL     1     -34.349   7.392   4.319  1.00 20.00     0.013 C 
HETATM    2  C5  UNL     1     -33.212   8.063   3.553  1.00 20.00     0.005 C 
HETATM    3  C6  UNL     1     -33.855   6.177   2.250  1.00 20.00     0.016 C 
HETATM    4  C8  UNL     1     -34.809   6.227   3.441  1.00 20.00     0.056 C 
HETATM    5  C9  UNL     1     -32.613   6.936   2.720  1.00 20.00    -0.014 C 
ENDROOT
BRANCH   4   6
HETATM    6  C1  UNL     1     -34.682   4.933   4.223  1.00 20.00     0.135 C 
HETATM    7  O12 UNL     1     -35.579   4.538   4.966  1.00 20.00    -0.297 OA
BRANCH   6   8
HETATM    8  C7  UNL     1     -33.406   4.155   4.042  1.00 20.00     0.056 A 
HETATM    9  C2  UNL     1     -32.817   3.488   5.233  1.00 20.00     0.013 A 
HETATM   10  C3  UNL     1     -33.468   2.674   4.155  1.00 20.00     0.013 A 
ENDBRANCH   6   8
ENDBRANCH   4   6
BRANCH   5  11
HETATM   11  C11 UNL     1     -31.747   7.431   1.575  1.00 20.00     0.000 C 
HETATM   12  C10 UNL     1     -32.150   8.798   1.119  1.00 20.00     0.005 C 
ENDBRANCH   5  11
TORSDOF 3
ENDMDL
MODEL 2
REMARK VINA RESULT:      -1.1      2.034      5.277
REMARK  3 active torsions:
REMARK  status: ('A' for Active; 'I' for Inactive)
REMARK    1  A    between atoms: C1_1  and  C7_7 
REMARK    2  A    between atoms: C1_1  and  C8_8 
REMARK    3  A    between atoms: C9_9  and  C11_11 
ROOT
HETATM    1  C4  UNL     1     -32.261   5.807   1.135  1.00 20.00     0.013 C 
HETATM    2  C5  UNL     1     -32.753   4.682   2.042  1.00 20.00     0.005 C 
HETATM    3  C6  UNL     1     -34.002   6.614   2.658  1.00 20.00     0.016 C 
HETATM    4  C8  UNL     1     -33.119   7.024   1.482  1.00 20.00     0.056 C 
HETATM    5  C9  UNL     1     -33.288   5.408   3.270  1.00 20.00    -0.014 C 
ENDROOT
BRANCH   4   6
HETATM    6  C1  UNL     1     -32.217   8.162   1.923  1.00 20.00     0.135 C 
HETATM    7  O12 UNL     1     -31.865   8.288   3.095  1.00 20.00    -0.297 OA
BRANCH   6   8
HETATM    8  C7  UNL     1     -31.774   9.127   0.857  1.00 20.00     0.056 A 
HETATM    9  C2  UNL     1     -32.607   9.249  -0.368  1.00 20.00     0.013 A 
HETATM   10  C3  UNL     1     -32.584  10.355   0.645  1.00 20.00     0.013 A 
ENDBRANCH   6   8
ENDBRANCH   4   6
BRANCH   5  11
HETATM   11  C11 UNL     1     -34.199   4.546   4.126  1.00 20.00     0.000 C 
HETATM   12  C10 UNL     1     -33.538   3.267   4.535  1.00 20.00     0.005 C 
ENDBRANCH   5  11
TORSDOF 3
ENDMDL
MODEL 3
REMARK VINA RESULT:      -0.8      1.990      5.149
REMARK  3 active torsions:
REMARK  status: ('A' for Active; 'I' for Inactive)
REMARK    1  A    between atoms: C1_1  and  C7_7 
REMARK    2  A    between atoms: C1_1  and  C8_8 
REMARK    3  A    between atoms: C9_9  and  C11_11 
ROOT
HETATM    1  C4  UNL     1     -32.815   8.430   3.566  1.00 20.00     0.013 C 
HETATM    2  C5  UNL     1     -33.871   7.730   4.416  1.00 20.00     0.005 C 
HETATM    3  C6  UNL     1     -33.221   6.156   2.751  1.00 20.00     0.016 C 
HETATM    4  C8  UNL     1     -32.346   7.390   2.547  1.00 20.00     0.056 C 
HETATM    5  C9  UNL     1     -34.459   6.680   3.481  1.00 20.00    -0.014 C 
ENDROOT
BRANCH   4   6
HETATM    6  C1  UNL     1     -32.576   7.924   1.146  1.00 20.00     0.135 C 
HETATM    7  O12 UNL     1     -33.223   7.291   0.312  1.00 20.00    -0.297 OA
BRANCH   6   8
HETATM    8  C7  UNL     1     -31.976   9.267   0.826  1.00 20.00     0.056 A 
HETATM    9  C2  UNL     1     -32.343   9.909  -0.463  1.00 20.00     0.013 A 
HETATM   10  C3  UNL     1     -32.873  10.452   0.830  1.00 20.00     0.013 A 
ENDBRANCH   6   8
ENDBRANCH   4   6
BRANCH   5  11
HETATM   11  C11 UNL     1     -35.229   5.592   4.209  1.00 20.00     0.000 C 
HETATM   12  C10 UNL     1     -34.412   4.349   4.381  1.00 20.00     0.005 C 
ENDBRANCH   5  11
TORSDOF 3
ENDMDL
MODEL 4
REMARK VINA RESULT:      -0.8      1.525      2.657
REMARK  3 active torsions:
REMARK  status: ('A' for Active; 'I' for Inactive)
REMARK    1  A    between atoms: C1_1  and  C7_7 
REMARK    2  A    between atoms: C1_1  and  C8_8 
REMARK    3  A    between atoms: C9_9  and  C11_11 
ROOT
HETATM    1  C4  UNL     1     -32.642   6.043   1.770  1.00 20.00     0.013 C 
HETATM    2  C5  UNL     1     -32.170   6.996   0.675  1.00 20.00     0.005 C 
HETATM    3  C6  UNL     1     -32.246   8.284   2.677  1.00 20.00     0.016 C 
HETATM    4  C8  UNL     1     -32.616   6.854   3.066  1.00 20.00     0.056 C 
HETATM    5  C9  UNL     1     -32.577   8.373   1.186  1.00 20.00    -0.014 C 
ENDROOT
BRANCH   4   6
HETATM    6  C1  UNL     1     -34.004   6.859   3.681  1.00 20.00     0.135 C 
HETATM    7  O12 UNL     1     -34.453   7.853   4.249  1.00 20.00    -0.297 OA
BRANCH   6   8
HETATM    8  C7  UNL     1     -34.803   5.590   3.559  1.00 20.00     0.056 A 
HETATM    9  C2  UNL     1     -34.275   4.364   4.213  1.00 20.00     0.013 A 
HETATM   10  C3  UNL     1     -35.473   5.067   4.778  1.00 20.00     0.013 A 
ENDBRANCH   6   8
ENDBRANCH   4   6
BRANCH   5  11
HETATM   11  C11 UNL     1     -31.857   9.510   0.482  1.00 20.00     0.000 C 
HETATM   12  C10 UNL     1     -32.785  10.312  -0.376  1.00 20.00     0.005 C 
ENDBRANCH   5  11
TORSDOF 3
ENDMDL
MODEL 5
REMARK VINA RESULT:      -0.3      1.747      4.861
REMARK  3 active torsions:
REMARK  status: ('A' for Active; 'I' for Inactive)
REMARK    1  A    between atoms: C1_1  and  C7_7 
REMARK    2  A    between atoms: C1_1  and  C8_8 
REMARK    3  A    between atoms: C9_9  and  C11_11 
ROOT
HETATM    1  C4  UNL     1     -34.627   7.575   3.395  1.00 20.00     0.013 C 
HETATM    2  C5  UNL     1     -35.258   6.340   4.032  1.00 20.00     0.005 C 
HETATM    3  C6  UNL     1     -32.936   5.855   3.824  1.00 20.00     0.016 C 
HETATM    4  C8  UNL     1     -33.126   7.289   3.334  1.00 20.00     0.056 C 
HETATM    5  C9  UNL     1     -34.311   5.207   3.655  1.00 20.00    -0.014 C 
ENDROOT
BRANCH   4   6
HETATM    6  C1  UNL     1     -32.659   7.378   1.893  1.00 20.00     0.135 C 
HETATM    7  O12 UNL     1     -32.870   6.471   1.089  1.00 20.00    -0.297 OA
BRANCH   6   8
HETATM    8  C7  UNL     1     -31.925   8.630   1.496  1.00 20.00     0.056 A 
HETATM    9  C2  UNL     1     -31.496   8.772   0.080  1.00 20.00     0.013 A 
HETATM   10  C3  UNL     1     -32.625   9.601   0.615  1.00 20.00     0.013 A 
ENDBRANCH   6   8
ENDBRANCH   4   6
BRANCH   5  11
HETATM   11  C11 UNL     1     -34.494   3.963   4.507  1.00 20.00     0.000 C 
HETATM   12  C10 UNL     1     -33.227   3.174   4.624  1.00 20.00     0.005 C 
ENDBRANCH   5  11
TORSDOF 3
ENDMDL
MODEL 6
REMARK VINA RESULT:      -0.1      1.998      3.444
REMARK  3 active torsions:
REMARK  status: ('A' for Active; 'I' for Inactive)
REMARK    1  A    between atoms: C1_1  and  C7_7 
REMARK    2  A    between atoms: C1_1  and  C8_8 
REMARK    3  A    between atoms: C9_9  and  C11_11 
ROOT
HETATM    1  C4  UNL     1     -31.186   7.286   1.506  1.00 20.00     0.013 C 
HETATM    2  C5  UNL     1     -31.184   8.347   0.409  1.00 20.00     0.005 C 
HETATM    3  C6  UNL     1     -32.912   8.974   1.924  1.00 20.00     0.016 C 
HETATM    4  C8  UNL     1     -32.244   7.735   2.515  1.00 20.00     0.056 C 
HETATM    5  C9  UNL     1     -32.605   8.898   0.427  1.00 20.00    -0.014 C 
ENDROOT
BRANCH   4   6
HETATM    6  C1  UNL     1     -33.288   6.643   2.663  1.00 20.00     0.135 C 
HETATM    7  O12 UNL     1     -33.327   5.680   1.897  1.00 20.00    -0.297 OA
BRANCH   6   8
HETATM    8  C7  UNL     1     -34.271   6.794   3.791  1.00 20.00     0.056 A 
HETATM    9  C2  UNL     1     -35.720   6.673   3.480  1.00 20.00     0.013 A 
HETATM   10  C3  UNL     1     -35.015   5.587   4.237  1.00 20.00     0.013 A 
ENDBRANCH   6   8
ENDBRANCH   4   6
BRANCH   5  11
HETATM   11  C11 UNL     1     -32.739  10.235  -0.279  1.00 20.00     0.000 C 
HETATM   12  C10 UNL     1     -32.513  11.385   0.652  1.00 20.00     0.005 C 
ENDBRANCH   5  11
TORSDOF 3
ENDMDL
MODEL 7
REMARK VINA RESULT:       0.1      1.451      1.714
REMARK  3 active torsions:
REMARK  status: ('A' for Active; 'I' for Inactive)
REMARK    1  A    between atoms: C1_1  and  C7_7 
REMARK    2  A    between atoms: C1_1  and  C8_8 
REMARK    3  A    between atoms: C9_9  and  C11_11 
ROOT
HETATM    1  C4  UNL     1     -33.824   6.933   3.679  1.00 20.00     0.013 C 
HETATM    2  C5  UNL     1     -33.125   8.155   3.090  1.00 20.00     0.005 C 
HETATM    3  C6  UNL     1     -32.969   6.450   1.434  1.00 20.00     0.016 C 
HETATM    4  C8  UNL     1     -33.788   5.867   2.583  1.00 20.00     0.056 C 
HETATM    5  C9  UNL     1     -32.148   7.568   2.079  1.00 20.00    -0.014 C 
ENDROOT
BRANCH   4   6
HETATM    6  C1  UNL     1     -33.079   4.633   3.109  1.00 20.00     0.135 C 
HETATM    7  O12 UNL     1     -31.987   4.279   2.668  1.00 20.00    -0.297 OA
BRANCH   6   8
HETATM    8  C7  UNL     1     -33.777   3.864   4.198  1.00 20.00     0.056 A 
HETATM    9  C2  UNL     1     -33.423   2.432   4.384  1.00 20.00     0.013 A 
HETATM   10  C3  UNL     1     -32.982   3.457   5.386  1.00 20.00     0.013 A 
ENDBRANCH   6   8
ENDBRANCH   4   6
BRANCH   5  11
HETATM   11  C11 UNL     1     -31.637   8.589   1.077  1.00 20.00     0.000 C 
HETATM   12  C10 UNL     1     -32.696   9.574   0.693  1.00 20.00     0.005 C 
ENDBRANCH   5  11
TORSDOF 3
ENDMDL
MODEL 8
REMARK VINA RESULT:       0.6      1.748      3.044
REMARK  3 active torsions:
REMARK  status: ('A' for Active; 'I' for Inactive)
REMARK    1  A    between atoms: C1_1  and  C7_7 
REMARK    2  A    between atoms: C1_1  and  C8_8 
REMARK    3  A    between atoms: C9_9  and  C11_11 
ROOT
HETATM    1  C4  UNL     1     -33.367   5.888   0.511  1.00 20.00     0.013 C 
HETATM    2  C5  UNL     1     -33.033   7.275  -0.034  1.00 20.00     0.005 C 
HETATM    3  C6  UNL     1     -31.818   7.062   2.004  1.00 20.00     0.016 C 
HETATM    4  C8  UNL     1     -32.525   5.728   1.778  1.00 20.00     0.056 C 
HETATM    5  C9  UNL     1     -32.643   8.072   1.205  1.00 20.00    -0.014 C 
ENDROOT
BRANCH   4   6
HETATM    6  C1  UNL     1     -33.443   5.457   2.956  1.00 20.00     0.135 C 
HETATM    7  O12 UNL     1     -33.310   4.456   3.660  1.00 20.00    -0.297 OA
BRANCH   6   8
HETATM    8  C7  UNL     1     -34.521   6.472   3.222  1.00 20.00     0.056 A 
HETATM    9  C2  UNL     1     -35.427   6.247   4.379  1.00 20.00     0.013 A 
HETATM   10  C3  UNL     1     -34.391   7.330   4.430  1.00 20.00     0.013 A 
ENDBRANCH   6   8
ENDBRANCH   4   6
BRANCH   5  11
HETATM   11  C11 UNL     1     -31.879   9.345   0.882  1.00 20.00     0.000 C 
HETATM   12  C10 UNL     1     -32.616  10.208  -0.093  1.00 20.00     0.005 C 
ENDBRANCH   5  11
TORSDOF 3
ENDMDL
MODEL 9
REMARK VINA RESULT:       1.1      1.816      2.799
REMARK  3 active torsions:
REMARK  status: ('A' for Active; 'I' for Inactive)
REMARK    1  A    between atoms: C1_1  and  C7_7 
REMARK    2  A    between atoms: C1_1  and  C8_8 
REMARK    3  A    between atoms: C9_9  and  C11_11 
ROOT
HETATM    1  C4  UNL     1     -32.227   8.090   2.584  1.00 20.00     0.013 C 
HETATM    2  C5  UNL     1     -31.327   7.221   1.710  1.00 20.00     0.005 C 
HETATM    3  C6  UNL     1     -33.520   6.321   1.490  1.00 20.00     0.016 C 
HETATM    4  C8  UNL     1     -33.645   7.555   2.379  1.00 20.00     0.056 C 
HETATM    5  C9  UNL     1     -32.061   5.887   1.638  1.00 20.00    -0.014 C 
ENDROOT
BRANCH   4   6
HETATM    6  C1  UNL     1     -34.219   7.135   3.719  1.00 20.00     0.135 C 
HETATM    7  O12 UNL     1     -34.001   7.780   4.745  1.00 20.00    -0.297 OA
BRANCH   6   8
HETATM    8  C7  UNL     1     -35.069   5.894   3.733  1.00 20.00     0.056 A 
HETATM    9  C2  UNL     1     -34.437   4.616   4.154  1.00 20.00     0.013 A 
HETATM   10  C3  UNL     1     -35.423   5.303   5.050  1.00 20.00     0.013 A 
ENDBRANCH   6   8
ENDBRANCH   4   6
BRANCH   5  11
HETATM   11  C11 UNL     1     -31.583   5.001   0.501  1.00 20.00     0.000 C 
HETATM   12  C10 UNL     1     -32.700   4.201  -0.093  1.00 20.00     0.005 C 
ENDBRANCH   5  11
TORSDOF 3
ENDMDL
