MODEL 1
REMARK VINA RESULT:      -1.6      0.000      0.000
REMARK  1 active torsions:
REMARK  status: ('A' for Active; 'I' for Inactive)
REMARK    1  A    between atoms: C5_5  and  C9_9 
ROOT
HETATM    1  C1  UNL     1     -32.391   9.107   0.820  1.00 20.00     0.069 C 
HETATM    2  C2  UNL     1     -33.090   5.814   2.403  1.00 20.00     0.006 C 
HETATM    3  C3  UNL     1     -32.480   6.673   1.293  1.00 20.00     0.024 C 
HETATM    4  C4  UNL     1     -33.571   8.173   2.789  1.00 20.00     0.029 C 
HETATM    5  C5  UNL     1     -33.670   6.790   3.438  1.00 20.00    -0.013 C 
HETATM    6  C6  UNL     1     -32.339   8.084   1.879  1.00 20.00     0.046 C 
HETATM    7  C7  UNL     1     -31.031   8.235   2.667  1.00 20.00     0.031 C 
HETATM    8  N10 UNL     1     -32.432   9.914  -0.014  1.00 20.00    -0.196 NA
ENDROOT
BRANCH   5   9
HETATM    9  C9  UNL     1     -35.089   6.437   3.859  1.00 20.00     0.000 C 
HETATM   10  C8  UNL     1     -35.169   5.071   4.464  1.00 20.00     0.005 C 
ENDBRANCH   5   9
TORSDOF 1
ENDMDL
MODEL 2
REMARK VINA RESULT:      -0.3      1.703      2.836
REMARK  1 active torsions:
REMARK  status: ('A' for Active; 'I' for Inactive)
REMARK    1  A    between atoms: C5_5  and  C9_9 
ROOT
HETATM    1  C1  UNL     1     -32.230   7.384   2.044  1.00 20.00     0.069 C 
HETATM    2  C2  UNL     1     -35.045   5.929   3.994  1.00 20.00     0.006 C 
HETATM    3  C3  UNL     1     -34.348   7.106   3.308  1.00 20.00     0.024 C 
HETATM    4  C4  UNL     1     -32.924   5.216   3.025  1.00 20.00     0.029 C 
HETATM    5  C5  UNL     1     -34.197   4.685   3.690  1.00 20.00    -0.013 C 
HETATM    6  C6  UNL     1     -33.374   6.489   2.295  1.00 20.00     0.046 C 
HETATM    7  C7  UNL     1     -34.072   6.172   0.967  1.00 20.00     0.031 C 
HETATM    8  N10 UNL     1     -31.330   8.088   1.846  1.00 20.00    -0.196 NA
ENDROOT
BRANCH   5   9
HETATM    9  C9  UNL     1     -33.909   3.845   4.926  1.00 20.00     0.000 C 
HETATM   10  C8  UNL     1     -32.960   2.725   4.632  1.00 20.00     0.005 C 
ENDBRANCH   5   9
TORSDOF 1
ENDMDL
MODEL 3
REMARK VINA RESULT:       0.2      2.196      4.232
REMARK  1 active torsions:
REMARK  status: ('A' for Active; 'I' for Inactive)
REMARK    1  A    between atoms: C5_5  and  C9_9 
ROOT
HETATM    1  C1  UNL     1     -34.084   6.649   3.169  1.00 20.00     0.069 C 
HETATM    2  C2  UNL     1     -31.229   8.599   1.795  1.00 20.00     0.006 C 
HETATM    3  C3  UNL     1     -31.932   7.863   2.939  1.00 20.00     0.024 C 
HETATM    4  C4  UNL     1     -33.387   7.738   1.055  1.00 20.00     0.029 C 
HETATM    5  C5  UNL     1     -32.101   8.396   0.547  1.00 20.00    -0.013 C 
HETATM    6  C6  UNL     1     -32.945   6.920   2.276  1.00 20.00     0.046 C 
HETATM    7  C7  UNL     1     -32.290   5.592   1.869  1.00 20.00     0.031 C 
HETATM    8  N10 UNL     1     -34.982   6.435   3.873  1.00 20.00    -0.196 NA
ENDROOT
BRANCH   5   9
HETATM    9  C9  UNL     1     -32.362   9.688  -0.213  1.00 20.00     0.000 C 
HETATM   10  C8  UNL     1     -32.777  10.799   0.700  1.00 20.00     0.005 C 
ENDBRANCH   5   9
TORSDOF 1
ENDMDL
MODEL 4
REMARK VINA RESULT:       0.8      2.744      4.565
REMARK  1 active torsions:
REMARK  status: ('A' for Active; 'I' for Inactive)
REMARK    1  A    between atoms: C5_5  and  C9_9 
ROOT
HETATM    1  C1  UNL     1     -33.769   4.374   4.183  1.00 20.00     0.069 C 
HETATM    2  C2  UNL     1     -33.450   6.664   1.269  1.00 20.00     0.006 C 
HETATM    3  C3  UNL     1     -33.820   5.314   1.887  1.00 20.00     0.024 C 
HETATM    4  C4  UNL     1     -33.005   6.675   3.666  1.00 20.00     0.029 C 
HETATM    5  C5  UNL     1     -33.060   7.584   2.435  1.00 20.00    -0.013 C 
HETATM    6  C6  UNL     1     -34.042   5.579   3.382  1.00 20.00     0.046 C 
HETATM    7  C7  UNL     1     -35.473   6.060   3.658  1.00 20.00     0.031 C 
HETATM    8  N10 UNL     1     -33.554   3.425   4.815  1.00 20.00    -0.196 NA
ENDROOT
BRANCH   5   9
HETATM    9  C9  UNL     1     -31.754   8.328   2.196  1.00 20.00     0.000 C 
HETATM   10  C8  UNL     1     -31.761   9.063   0.892  1.00 20.00     0.005 C 
ENDBRANCH   5   9
TORSDOF 1
ENDMDL
MODEL 5
REMARK VINA RESULT:       1.4      2.286      4.024
REMARK  1 active torsions:
REMARK  status: ('A' for Active; 'I' for Inactive)
REMARK    1  A    between atoms: C5_5  and  C9_9 
ROOT
HETATM    1  C1  UNL     1     -33.412   4.957   0.347  1.00 20.00     0.069 C 
HETATM    2  C2  UNL     1     -32.977   7.574   2.956  1.00 20.00     0.006 C 
HETATM    3  C3  UNL     1     -33.544   6.238   2.469  1.00 20.00     0.024 C 
HETATM    4  C4  UNL     1     -32.319   7.162   0.645  1.00 20.00     0.029 C 
HETATM    5  C5  UNL     1     -32.074   8.099   1.831  1.00 20.00    -0.013 C 
HETATM    6  C6  UNL     1     -32.664   5.811   1.287  1.00 20.00     0.046 C 
HETATM    7  C7  UNL     1     -31.410   5.066   1.763  1.00 20.00     0.031 C 
HETATM    8  N10 UNL     1     -34.000   4.285  -0.392  1.00 20.00    -0.196 NA
ENDROOT
BRANCH   5   9
HETATM    9  C9  UNL     1     -32.334   9.559   1.491  1.00 20.00     0.000 C 
HETATM   10  C8  UNL     1     -32.438   9.779   0.014  1.00 20.00     0.005 C 
ENDBRANCH   5   9
TORSDOF 1
ENDMDL
