MODEL 1
REMARK VINA RESULT:       1.4      0.000      0.000
REMARK  1 active torsions:
REMARK  status: ('A' for Active; 'I' for Inactive)
REMARK    1  A    between atoms: C6_6  and  C8_8 
ROOT
HETATM    1  C1  UNL     1     -33.166   7.743   4.322  1.00 20.00     0.069 C 
HETATM    2  C2  UNL     1     -33.076   5.818   2.760  1.00 20.00     0.051 C 
HETATM    3  C3  UNL     1     -33.758   8.102   1.956  1.00 20.00     0.051 C 
HETATM    4  C4  UNL     1     -32.011   6.025   1.680  1.00 20.00     0.169 C 
HETATM    5  C5  UNL     1     -32.327   8.363   1.473  1.00 20.00     0.169 C 
HETATM    6  C6  UNL     1     -33.813   7.123   3.141  1.00 20.00     0.052 C 
HETATM    7  N9  UNL     1     -32.661   8.227   5.248  1.00 20.00    -0.196 NA
HETATM    8  O10 UNL     1     -31.418   7.311   1.797  1.00 20.00    -0.391 OA
ENDROOT
BRANCH   6   9
HETATM    9  C8  UNL     1     -35.272   6.815   3.503  1.00 20.00     0.020 C 
HETATM   10  C7  UNL     1     -35.375   5.579   4.328  1.00 20.00     0.007 C 
ENDBRANCH   6   9
TORSDOF 1
ENDMDL
MODEL 2
REMARK VINA RESULT:       2.0      1.998      2.724
REMARK  1 active torsions:
REMARK  status: ('A' for Active; 'I' for Inactive)
REMARK    1  A    between atoms: C6_6  and  C8_8 
ROOT
HETATM    1  C1  UNL     1     -35.712   6.577   3.168  1.00 20.00     0.069 C 
HETATM    2  C2  UNL     1     -33.764   7.207   4.571  1.00 20.00     0.051 C 
HETATM    3  C3  UNL     1     -33.492   5.666   2.600  1.00 20.00     0.051 C 
HETATM    4  C4  UNL     1     -32.737   8.011   3.771  1.00 20.00     0.169 C 
HETATM    5  C5  UNL     1     -33.053   6.850   1.731  1.00 20.00     0.169 C 
HETATM    6  C6  UNL     1     -34.434   6.087   3.741  1.00 20.00     0.052 C 
HETATM    7  N9  UNL     1     -36.712   6.961   2.722  1.00 20.00    -0.196 NA
HETATM    8  O10 UNL     1     -33.123   8.106   2.407  1.00 20.00    -0.391 OA
ENDROOT
BRANCH   6   9
HETATM    9  C8  UNL     1     -34.747   4.882   4.639  1.00 20.00     0.020 C 
HETATM   10  C7  UNL     1     -33.839   3.739   4.345  1.00 20.00     0.007 C 
ENDBRANCH   6   9
TORSDOF 1
ENDMDL
MODEL 3
REMARK VINA RESULT:       2.0      2.123      3.791
REMARK  1 active torsions:
REMARK  status: ('A' for Active; 'I' for Inactive)
REMARK    1  A    between atoms: C6_6  and  C8_8 
ROOT
HETATM    1  C1  UNL     1     -32.082   6.565   1.702  1.00 20.00     0.069 C 
HETATM    2  C2  UNL     1     -31.552   8.503   3.158  1.00 20.00     0.051 C 
HETATM    3  C3  UNL     1     -33.854   8.212   2.182  1.00 20.00     0.051 C 
HETATM    4  C4  UNL     1     -32.365   8.466   4.454  1.00 20.00     0.169 C 
HETATM    5  C5  UNL     1     -34.327   7.559   3.486  1.00 20.00     0.169 C 
HETATM    6  C6  UNL     1     -32.350   8.006   1.930  1.00 20.00     0.052 C 
HETATM    7  N9  UNL     1     -31.871   5.438   1.523  1.00 20.00    -0.196 NA
HETATM    8  O10 UNL     1     -33.282   7.381   4.443  1.00 20.00    -0.391 OA
ENDROOT
BRANCH   6   9
HETATM    9  C8  UNL     1     -31.916   8.775   0.674  1.00 20.00     0.020 C 
HETATM   10  C7  UNL     1     -32.653  10.063   0.548  1.00 20.00     0.007 C 
ENDBRANCH   6   9
TORSDOF 1
ENDMDL
MODEL 4
REMARK VINA RESULT:       2.3      1.800      3.395
REMARK  1 active torsions:
REMARK  status: ('A' for Active; 'I' for Inactive)
REMARK    1  A    between atoms: C6_6  and  C8_8 
ROOT
HETATM    1  C1  UNL     1     -33.263   7.683   4.414  1.00 20.00     0.069 C 
HETATM    2  C2  UNL     1     -35.317   7.238   3.095  1.00 20.00     0.051 C 
HETATM    3  C3  UNL     1     -33.366   5.650   3.021  1.00 20.00     0.051 C 
HETATM    4  C4  UNL     1     -36.020   5.965   3.569  1.00 20.00     0.169 C 
HETATM    5  C5  UNL     1     -34.040   4.769   4.080  1.00 20.00     0.169 C 
HETATM    6  C6  UNL     1     -33.774   7.128   3.137  1.00 20.00     0.052 C 
HETATM    7  N9  UNL     1     -32.863   8.117   5.413  1.00 20.00    -0.196 NA
HETATM    8  O10 UNL     1     -35.261   5.316   4.580  1.00 20.00    -0.391 OA
ENDROOT
BRANCH   6   9
HETATM    9  C8  UNL     1     -33.159   7.937   1.987  1.00 20.00     0.020 C 
HETATM   10  C7  UNL     1     -31.708   7.638   1.832  1.00 20.00     0.007 C 
ENDBRANCH   6   9
TORSDOF 1
ENDMDL
MODEL 5
REMARK VINA RESULT:       2.3      2.099      3.426
REMARK  1 active torsions:
REMARK  status: ('A' for Active; 'I' for Inactive)
REMARK    1  A    between atoms: C6_6  and  C8_8 
ROOT
HETATM    1  C1  UNL     1     -32.648   8.607   1.404  1.00 20.00     0.069 C 
HETATM    2  C2  UNL     1     -33.765   6.566   2.266  1.00 20.00     0.051 C 
HETATM    3  C3  UNL     1     -31.905   7.664   3.558  1.00 20.00     0.051 C 
HETATM    4  C4  UNL     1     -34.508   6.846   3.574  1.00 20.00     0.169 C 
HETATM    5  C5  UNL     1     -32.936   8.404   4.418  1.00 20.00     0.169 C 
HETATM    6  C6  UNL     1     -32.433   7.343   2.149  1.00 20.00     0.052 C 
HETATM    7  N9  UNL     1     -32.817   9.595   0.820  1.00 20.00    -0.196 NA
HETATM    8  O10 UNL     1     -34.284   8.182   4.004  1.00 20.00    -0.391 OA
ENDROOT
BRANCH   6   9
HETATM    9  C8  UNL     1     -31.402   6.506   1.378  1.00 20.00     0.020 C 
HETATM   10  C7  UNL     1     -31.966   5.186   0.982  1.00 20.00     0.007 C 
ENDBRANCH   6   9
TORSDOF 1
ENDMDL
MODEL 6
REMARK VINA RESULT:       2.3      2.633      3.874
REMARK  1 active torsions:
REMARK  status: ('A' for Active; 'I' for Inactive)
REMARK    1  A    between atoms: C6_6  and  C8_8 
ROOT
HETATM    1  C1  UNL     1     -33.881   5.863   1.115  1.00 20.00     0.069 C 
HETATM    2  C2  UNL     1     -32.777   4.748   3.037  1.00 20.00     0.051 C 
HETATM    3  C3  UNL     1     -33.879   6.994   3.307  1.00 20.00     0.051 C 
HETATM    4  C4  UNL     1     -33.785   4.395   4.133  1.00 20.00     0.169 C 
HETATM    5  C5  UNL     1     -35.146   6.311   3.837  1.00 20.00     0.169 C 
HETATM    6  C6  UNL     1     -33.084   6.096   2.344  1.00 20.00     0.052 C 
HETATM    7  N9  UNL     1     -34.504   5.680   0.154  1.00 20.00    -0.196 NA
HETATM    8  O10 UNL     1     -35.078   4.885   3.804  1.00 20.00    -0.391 OA
ENDROOT
BRANCH   6   9
HETATM    9  C8  UNL     1     -31.775   6.788   1.938  1.00 20.00     0.020 C 
HETATM   10  C7  UNL     1     -32.000   8.225   1.618  1.00 20.00     0.007 C 
ENDBRANCH   6   9
TORSDOF 1
ENDMDL
MODEL 7
REMARK VINA RESULT:       2.4      2.369      3.668
REMARK  1 active torsions:
REMARK  status: ('A' for Active; 'I' for Inactive)
REMARK    1  A    between atoms: C6_6  and  C8_8 
ROOT
HETATM    1  C1  UNL     1     -33.464   4.698   3.521  1.00 20.00     0.069 C 
HETATM    2  C2  UNL     1     -32.897   7.108   3.693  1.00 20.00     0.051 C 
HETATM    3  C3  UNL     1     -34.935   6.348   2.427  1.00 20.00     0.051 C 
HETATM    4  C4  UNL     1     -33.968   7.879   4.468  1.00 20.00     0.169 C 
HETATM    5  C5  UNL     1     -35.806   6.623   3.659  1.00 20.00     0.169 C 
HETATM    6  C6  UNL     1     -33.485   5.993   2.797  1.00 20.00     0.052 C 
HETATM    7  N9  UNL     1     -33.446   3.686   4.088  1.00 20.00    -0.196 NA
HETATM    8  O10 UNL     1     -35.056   7.030   4.804  1.00 20.00    -0.391 OA
ENDROOT
BRANCH   6   9
HETATM    9  C8  UNL     1     -32.639   5.840   1.525  1.00 20.00     0.020 C 
HETATM   10  C7  UNL     1     -31.846   7.071   1.253  1.00 20.00     0.007 C 
ENDBRANCH   6   9
TORSDOF 1
ENDMDL
MODEL 8
REMARK VINA RESULT:       2.4      2.074      3.010
REMARK  1 active torsions:
REMARK  status: ('A' for Active; 'I' for Inactive)
REMARK    1  A    between atoms: C6_6  and  C8_8 
ROOT
HETATM    1  C1  UNL     1     -32.841   6.682   1.685  1.00 20.00     0.069 C 
HETATM    2  C2  UNL     1     -33.494   9.075   1.733  1.00 20.00     0.051 C 
HETATM    3  C3  UNL     1     -31.119   8.376   2.181  1.00 20.00     0.051 C 
HETATM    4  C4  UNL     1     -32.793   9.868   0.627  1.00 20.00     0.169 C 
HETATM    5  C5  UNL     1     -30.755   8.664   0.720  1.00 20.00     0.169 C 
HETATM    6  C6  UNL     1     -32.595   7.982   2.356  1.00 20.00     0.052 C 
HETATM    7  N9  UNL     1     -33.034   5.665   1.160  1.00 20.00    -0.196 NA
HETATM    8  O10 UNL     1     -31.876   9.044  -0.079  1.00 20.00    -0.391 OA
ENDROOT
BRANCH   6   9
HETATM    9  C8  UNL     1     -32.924   7.817   3.846  1.00 20.00     0.020 C 
HETATM   10  C7  UNL     1     -34.315   7.322   4.040  1.00 20.00     0.007 C 
ENDBRANCH   6   9
TORSDOF 1
ENDMDL
MODEL 9
REMARK VINA RESULT:       3.0      1.808      3.405
REMARK  1 active torsions:
REMARK  status: ('A' for Active; 'I' for Inactive)
REMARK    1  A    between atoms: C6_6  and  C8_8 
ROOT
HETATM    1  C1  UNL     1     -31.320   8.028   2.366  1.00 20.00     0.069 C 
HETATM    2  C2  UNL     1     -33.658   7.946   3.191  1.00 20.00     0.051 C 
HETATM    3  C3  UNL     1     -33.051   7.009   0.935  1.00 20.00     0.051 C 
HETATM    4  C4  UNL     1     -34.130   6.503   3.390  1.00 20.00     0.169 C 
HETATM    5  C5  UNL     1     -32.950   5.605   1.542  1.00 20.00     0.169 C 
HETATM    6  C6  UNL     1     -32.742   8.117   1.956  1.00 20.00     0.052 C 
HETATM    7  N9  UNL     1     -30.207   7.958   2.687  1.00 20.00    -0.196 NA
HETATM    8  O10 UNL     1     -33.136   5.584   2.958  1.00 20.00    -0.391 OA
ENDROOT
BRANCH   6   9
HETATM    9  C8  UNL     1     -32.969   9.497   1.322  1.00 20.00     0.020 C 
HETATM   10  C7  UNL     1     -32.283   9.605   0.005  1.00 20.00     0.007 C 
ENDBRANCH   6   9
TORSDOF 1
ENDMDL
