MODEL 1
REMARK VINA RESULT:       0.2      0.000      0.000
REMARK  3 active torsions:
REMARK  status: ('A' for Active; 'I' for Inactive)
REMARK    1  A    between atoms: C6_6  and  C10_10 
REMARK    2  A    between atoms: C7_7  and  C11_11 
REMARK    3  A    between atoms: C11_11  and  C12_12 
ROOT
HETATM    1  C1  UNL     1     -35.438   6.579   3.116  1.00 20.00     0.069 C 
HETATM    2  C2  UNL     1     -32.873   8.315   2.984  1.00 20.00     0.006 C 
HETATM    3  C3  UNL     1     -33.009   6.546   1.190  1.00 20.00     0.006 C 
HETATM    4  C4  UNL     1     -33.249   7.276   4.044  1.00 20.00     0.025 C 
HETATM    5  C5  UNL     1     -33.387   5.500   2.243  1.00 20.00     0.025 C 
HETATM    6  C6  UNL     1     -32.161   7.673   1.787  1.00 20.00    -0.015 C 
HETATM    7  C7  UNL     1     -34.082   6.106   3.480  1.00 20.00     0.049 C 
HETATM    8  N13 UNL     1     -36.501   6.951   2.832  1.00 20.00    -0.196 NA
ENDROOT
BRANCH   7   9
HETATM    9  C11 UNL     1     -34.232   5.021   4.560  1.00 20.00     0.024 C 
BRANCH   9  10
HETATM   10  C12 UNL     1     -33.778   3.667   4.034  1.00 20.00    -0.003 C 
HETATM   11  C9  UNL     1     -32.991   2.911   5.093  1.00 20.00     0.005 C 
ENDBRANCH   9  10
ENDBRANCH   7   9
BRANCH   6  12
HETATM   12  C10 UNL     1     -31.837   8.724   0.726  1.00 20.00     0.000 C 
HETATM   13  C8  UNL     1     -32.650   9.963   0.912  1.00 20.00     0.005 C 
ENDBRANCH   6  12
TORSDOF 3
ENDMDL
MODEL 2
REMARK VINA RESULT:       1.4      1.863      5.190
REMARK  3 active torsions:
REMARK  status: ('A' for Active; 'I' for Inactive)
REMARK    1  A    between atoms: C6_6  and  C10_10 
REMARK    2  A    between atoms: C7_7  and  C11_11 
REMARK    3  A    between atoms: C11_11  and  C12_12 
ROOT
HETATM    1  C1  UNL     1     -31.746   7.976   2.641  1.00 20.00     0.069 C 
HETATM    2  C2  UNL     1     -34.361   6.718   3.734  1.00 20.00     0.006 C 
HETATM    3  C3  UNL     1     -32.776   5.052   2.693  1.00 20.00     0.006 C 
HETATM    4  C4  UNL     1     -34.198   7.638   2.521  1.00 20.00     0.025 C 
HETATM    5  C5  UNL     1     -32.607   5.966   1.476  1.00 20.00     0.025 C 
HETATM    6  C6  UNL     1     -34.140   5.247   3.364  1.00 20.00    -0.015 C 
HETATM    7  C7  UNL     1     -32.847   7.456   1.796  1.00 20.00     0.049 C 
HETATM    8  N13 UNL     1     -30.884   8.383   3.303  1.00 20.00    -0.196 NA
ENDROOT
BRANCH   7   9
HETATM    9  C11 UNL     1     -32.860   8.261   0.485  1.00 20.00     0.024 C 
BRANCH   9  10
HETATM   10  C12 UNL     1     -32.425   9.699   0.729  1.00 20.00    -0.003 C 
HETATM   11  C9  UNL     1     -32.829  10.591  -0.434  1.00 20.00     0.005 C 
ENDBRANCH   9  10
ENDBRANCH   7   9
BRANCH   6  12
HETATM   12  C10 UNL     1     -34.265   4.356   4.599  1.00 20.00     0.000 C 
HETATM   13  C8  UNL     1     -33.375   3.160   4.508  1.00 20.00     0.005 C 
ENDBRANCH   6  12
TORSDOF 3
ENDMDL
MODEL 3
REMARK VINA RESULT:       2.0      1.464      5.108
REMARK  3 active torsions:
REMARK  status: ('A' for Active; 'I' for Inactive)
REMARK    1  A    between atoms: C6_6  and  C10_10 
REMARK    2  A    between atoms: C7_7  and  C11_11 
REMARK    3  A    between atoms: C11_11  and  C12_12 
ROOT
HETATM    1  C1  UNL     1     -33.603   6.436   0.415  1.00 20.00     0.069 C 
HETATM    2  C2  UNL     1     -32.541   4.488   2.581  1.00 20.00     0.006 C 
HETATM    3  C3  UNL     1     -34.244   6.145   3.435  1.00 20.00     0.006 C 
HETATM    4  C4  UNL     1     -31.783   5.621   1.885  1.00 20.00     0.025 C 
HETATM    5  C5  UNL     1     -33.492   7.283   2.741  1.00 20.00     0.025 C 
HETATM    6  C6  UNL     1     -33.308   4.991   3.810  1.00 20.00    -0.015 C 
HETATM    7  C7  UNL     1     -32.683   6.818   1.512  1.00 20.00     0.049 C 
HETATM    8  N13 UNL     1     -34.324   6.137  -0.444  1.00 20.00    -0.196 NA
ENDROOT
BRANCH   7   9
HETATM    9  C11 UNL     1     -31.805   7.978   1.013  1.00 20.00     0.024 C 
BRANCH   9  10
HETATM   10  C12 UNL     1     -32.554   9.300   1.102  1.00 20.00    -0.003 C 
HETATM   11  C9  UNL     1     -32.608   9.984  -0.255  1.00 20.00     0.005 C 
ENDBRANCH   9  10
ENDBRANCH   7   9
BRANCH   6  12
HETATM   12  C10 UNL     1     -34.091   3.851   4.460  1.00 20.00     0.000 C 
HETATM   13  C8  UNL     1     -33.197   2.719   4.847  1.00 20.00     0.005 C 
ENDBRANCH   6  12
TORSDOF 3
ENDMDL
MODEL 4
REMARK VINA RESULT:       2.4      1.535      2.005
REMARK  3 active torsions:
REMARK  status: ('A' for Active; 'I' for Inactive)
REMARK    1  A    between atoms: C6_6  and  C10_10 
REMARK    2  A    between atoms: C7_7  and  C11_11 
REMARK    3  A    between atoms: C11_11  and  C12_12 
ROOT
HETATM    1  C1  UNL     1     -33.732   5.354   0.739  1.00 20.00     0.069 C 
HETATM    2  C2  UNL     1     -33.718   8.010   2.338  1.00 20.00     0.006 C 
HETATM    3  C3  UNL     1     -31.591   7.575   1.050  1.00 20.00     0.006 C 
HETATM    4  C4  UNL     1     -33.681   6.583   2.890  1.00 20.00     0.025 C 
HETATM    5  C5  UNL     1     -31.546   6.145   1.597  1.00 20.00     0.025 C 
HETATM    6  C6  UNL     1     -32.312   8.528   2.009  1.00 20.00    -0.015 C 
HETATM    7  C7  UNL     1     -32.938   5.592   1.968  1.00 20.00     0.049 C 
HETATM    8  N13 UNL     1     -34.353   5.167  -0.223  1.00 20.00    -0.196 NA
ENDROOT
BRANCH   7   9
HETATM    9  C11 UNL     1     -32.773   4.246   2.695  1.00 20.00     0.024 C 
BRANCH   9  10
HETATM   10  C12 UNL     1     -33.750   4.135   3.856  1.00 20.00    -0.003 C 
HETATM   11  C9  UNL     1     -33.334   3.025   4.808  1.00 20.00     0.005 C 
ENDBRANCH   9  10
ENDBRANCH   7   9
BRANCH   6  12
HETATM   12  C10 UNL     1     -32.381   9.936   1.420  1.00 20.00     0.000 C 
HETATM   13  C8  UNL     1     -32.521   9.904  -0.067  1.00 20.00     0.005 C 
ENDBRANCH   6  12
TORSDOF 3
ENDMDL
MODEL 5
REMARK VINA RESULT:       2.8      2.021      5.037
REMARK  3 active torsions:
REMARK  status: ('A' for Active; 'I' for Inactive)
REMARK    1  A    between atoms: C6_6  and  C10_10 
REMARK    2  A    between atoms: C7_7  and  C11_11 
REMARK    3  A    between atoms: C11_11  and  C12_12 
ROOT
HETATM    1  C1  UNL     1     -31.534   6.007   1.612  1.00 20.00     0.069 C 
HETATM    2  C2  UNL     1     -33.157   7.179   3.980  1.00 20.00     0.006 C 
HETATM    3  C3  UNL     1     -34.583   6.220   2.130  1.00 20.00     0.006 C 
HETATM    4  C4  UNL     1     -32.322   7.940   2.947  1.00 20.00     0.025 C 
HETATM    5  C5  UNL     1     -33.753   6.978   1.091  1.00 20.00     0.025 C 
HETATM    6  C6  UNL     1     -34.588   6.936   3.485  1.00 20.00    -0.015 C 
HETATM    7  C7  UNL     1     -32.311   7.268   1.558  1.00 20.00     0.049 C 
HETATM    8  N13 UNL     1     -30.925   5.020   1.655  1.00 20.00    -0.196 NA
ENDROOT
BRANCH   7   9
HETATM    9  C11 UNL     1     -31.628   8.203   0.545  1.00 20.00     0.024 C 
BRANCH   9  10
HETATM   10  C12 UNL     1     -32.135   9.630   0.699  1.00 20.00    -0.003 C 
HETATM   11  C9  UNL     1     -32.792  10.111  -0.585  1.00 20.00     0.005 C 
ENDBRANCH   9  10
ENDBRANCH   7   9
BRANCH   6  12
HETATM   12  C10 UNL     1     -35.386   6.137   4.514  1.00 20.00     0.000 C 
HETATM   13  C8  UNL     1     -34.963   4.705   4.547  1.00 20.00     0.005 C 
ENDBRANCH   6  12
TORSDOF 3
ENDMDL
MODEL 6
REMARK VINA RESULT:       3.0      1.723      2.207
REMARK  3 active torsions:
REMARK  status: ('A' for Active; 'I' for Inactive)
REMARK    1  A    between atoms: C6_6  and  C10_10 
REMARK    2  A    between atoms: C7_7  and  C11_11 
REMARK    3  A    between atoms: C11_11  and  C12_12 
ROOT
HETATM    1  C1  UNL     1     -33.164   7.756   4.708  1.00 20.00     0.069 C 
HETATM    2  C2  UNL     1     -31.809   7.527   1.928  1.00 20.00     0.006 C 
HETATM    3  C3  UNL     1     -33.785   9.098   1.982  1.00 20.00     0.006 C 
HETATM    4  C4  UNL     1     -32.630   6.464   2.662  1.00 20.00     0.025 C 
HETATM    5  C5  UNL     1     -34.612   8.040   2.717  1.00 20.00     0.025 C 
HETATM    6  C6  UNL     1     -32.702   8.463   1.104  1.00 20.00    -0.015 C 
HETATM    7  C7  UNL     1     -33.752   7.058   3.540  1.00 20.00     0.049 C 
HETATM    8  N13 UNL     1     -32.704   8.303   5.622  1.00 20.00    -0.196 NA
ENDROOT
BRANCH   7   9
HETATM    9  C11 UNL     1     -34.643   5.920   4.066  1.00 20.00     0.024 C 
BRANCH   9  10
HETATM   10  C12 UNL     1     -34.177   4.575   3.529  1.00 20.00    -0.003 C 
HETATM   11  C9  UNL     1     -33.756   3.656   4.665  1.00 20.00     0.005 C 
ENDBRANCH   9  10
ENDBRANCH   7   9
BRANCH   6  12
HETATM   12  C10 UNL     1     -31.864   9.540   0.417  1.00 20.00     0.000 C 
HETATM   13  C8  UNL     1     -32.713  10.658  -0.091  1.00 20.00     0.005 C 
ENDBRANCH   6  12
TORSDOF 3
ENDMDL
