MODEL 1
REMARK VINA RESULT:      -0.8      0.000      0.000
REMARK  2 active torsions:
REMARK  status: ('A' for Active; 'I' for Inactive)
REMARK    1  A    between atoms: C3_3  and  C8_8 
REMARK    2  A    between atoms: C3_3  and  C9_9 
ROOT
HETATM    1  C1  UNL     1     -32.515   9.751   0.270  1.00 20.00     0.012 C 
HETATM    2  C2  UNL     1     -32.190   8.932   1.085  1.00 20.00    -0.110 C 
HETATM    3  C9  UNL     1     -31.785   7.930   2.077  1.00 20.00     0.171 C 
ENDROOT
BRANCH   3   4
HETATM    4  C3  UNL     1     -32.921   7.532   2.999  1.00 20.00     0.142 C 
HETATM    5  O10 UNL     1     -32.996   7.900   4.170  1.00 20.00    -0.297 OA
BRANCH   4   6
HETATM    6  C8  UNL     1     -33.989   6.636   2.393  1.00 20.00     0.060 C 
HETATM    7  C4  UNL     1     -33.490   5.197   2.376  1.00 20.00     0.038 C 
HETATM    8  C6  UNL     1     -33.578   4.529   3.745  1.00 20.00     0.168 C 
HETATM    9  O11 UNL     1     -34.890   4.656   4.287  1.00 20.00    -0.391 OA
HETATM   10  C7  UNL     1     -35.246   6.020   4.507  1.00 20.00     0.168 C 
HETATM   11  C5  UNL     1     -35.278   6.791   3.192  1.00 20.00     0.038 C 
ENDBRANCH   4   6
ENDBRANCH   3   4
TORSDOF 2
ENDMDL
MODEL 2
REMARK VINA RESULT:      -0.4      1.590      4.535
REMARK  2 active torsions:
REMARK  status: ('A' for Active; 'I' for Inactive)
REMARK    1  A    between atoms: C3_3  and  C8_8 
REMARK    2  A    between atoms: C3_3  and  C9_9 
ROOT
HETATM    1  C1  UNL     1     -33.114   2.714   4.781  1.00 20.00     0.012 C 
HETATM    2  C2  UNL     1     -33.694   3.694   4.403  1.00 20.00    -0.110 C 
HETATM    3  C9  UNL     1     -34.411   4.890   3.947  1.00 20.00     0.171 C 
ENDROOT
BRANCH   3   4
HETATM    4  C3  UNL     1     -33.672   5.625   2.846  1.00 20.00     0.142 C 
HETATM    5  O10 UNL     1     -32.844   5.085   2.115  1.00 20.00    -0.297 OA
BRANCH   4   6
HETATM    6  C8  UNL     1     -34.011   7.098   2.684  1.00 20.00     0.060 C 
HETATM    7  C4  UNL     1     -34.082   7.754   4.058  1.00 20.00     0.038 C 
HETATM    8  C6  UNL     1     -32.703   8.042   4.642  1.00 20.00     0.168 C 
HETATM    9  O11 UNL     1     -31.904   8.776   3.717  1.00 20.00    -0.391 OA
HETATM   10  C7  UNL     1     -31.662   8.038   2.521  1.00 20.00     0.168 C 
HETATM   11  C5  UNL     1     -32.968   7.752   1.786  1.00 20.00     0.038 C 
ENDBRANCH   4   6
ENDBRANCH   3   4
TORSDOF 2
ENDMDL
MODEL 3
REMARK VINA RESULT:      -0.2      1.470      4.258
REMARK  2 active torsions:
REMARK  status: ('A' for Active; 'I' for Inactive)
REMARK    1  A    between atoms: C3_3  and  C8_8 
REMARK    2  A    between atoms: C3_3  and  C9_9 
ROOT
HETATM    1  C1  UNL     1     -33.614   3.392   4.477  1.00 20.00     0.012 C 
HETATM    2  C2  UNL     1     -34.243   4.397   4.292  1.00 20.00    -0.110 C 
HETATM    3  C9  UNL     1     -35.021   5.621   4.068  1.00 20.00     0.171 C 
ENDROOT
BRANCH   3   4
HETATM    4  C3  UNL     1     -34.151   6.798   3.674  1.00 20.00     0.142 C 
HETATM    5  O10 UNL     1     -33.595   7.527   4.495  1.00 20.00    -0.297 OA
BRANCH   4   6
HETATM    6  C8  UNL     1     -33.991   7.041   2.182  1.00 20.00     0.060 C 
HETATM    7  C4  UNL     1     -33.158   8.298   1.962  1.00 20.00     0.038 C 
HETATM    8  C6  UNL     1     -31.667   8.058   2.174  1.00 20.00     0.168 C 
HETATM    9  O11 UNL     1     -31.217   6.949   1.398  1.00 20.00    -0.391 OA
HETATM   10  C7  UNL     1     -31.855   5.734   1.785  1.00 20.00     0.168 C 
HETATM   11  C5  UNL     1     -33.359   5.810   1.544  1.00 20.00     0.038 C 
ENDBRANCH   4   6
ENDBRANCH   3   4
TORSDOF 2
ENDMDL
MODEL 4
REMARK VINA RESULT:       0.2      1.342      2.005
REMARK  2 active torsions:
REMARK  status: ('A' for Active; 'I' for Inactive)
REMARK    1  A    between atoms: C3_3  and  C8_8 
REMARK    2  A    between atoms: C3_3  and  C9_9 
ROOT
HETATM    1  C1  UNL     1     -32.671   9.894   0.380  1.00 20.00     0.012 C 
HETATM    2  C2  UNL     1     -32.257   8.908   0.925  1.00 20.00    -0.110 C 
HETATM    3  C9  UNL     1     -31.743   7.705   1.590  1.00 20.00     0.171 C 
ENDROOT
BRANCH   3   4
HETATM    4  C3  UNL     1     -32.851   6.785   2.065  1.00 20.00     0.142 C 
HETATM    5  O10 UNL     1     -33.570   6.147   1.298  1.00 20.00    -0.297 OA
BRANCH   4   6
HETATM    6  C8  UNL     1     -33.036   6.686   3.570  1.00 20.00     0.060 C 
HETATM    7  C4  UNL     1     -34.351   7.350   3.962  1.00 20.00     0.038 C 
HETATM    8  C6  UNL     1     -35.562   6.471   3.664  1.00 20.00     0.168 C 
HETATM    9  O11 UNL     1     -35.402   5.175   4.236  1.00 20.00    -0.391 OA
HETATM   10  C7  UNL     1     -34.286   4.482   3.680  1.00 20.00     0.168 C 
HETATM   11  C5  UNL     1     -32.985   5.219   3.981  1.00 20.00     0.038 C 
ENDBRANCH   4   6
ENDBRANCH   3   4
TORSDOF 2
ENDMDL
MODEL 5
REMARK VINA RESULT:       0.3      1.965      4.712
REMARK  2 active torsions:
REMARK  status: ('A' for Active; 'I' for Inactive)
REMARK    1  A    between atoms: C3_3  and  C8_8 
REMARK    2  A    between atoms: C3_3  and  C9_9 
ROOT
HETATM    1  C1  UNL     1     -35.336   5.750   4.150  1.00 20.00     0.012 C 
HETATM    2  C2  UNL     1     -34.572   6.604   3.795  1.00 20.00    -0.110 C 
HETATM    3  C9  UNL     1     -33.641   7.654   3.367  1.00 20.00     0.171 C 
ENDROOT
BRANCH   3   4
HETATM    4  C3  UNL     1     -32.798   7.235   2.179  1.00 20.00     0.142 C 
HETATM    5  O10 UNL     1     -33.006   6.206   1.537  1.00 20.00    -0.297 OA
BRANCH   4   6
HETATM    6  C8  UNL     1     -31.658   8.168   1.807  1.00 20.00     0.060 C 
HETATM    7  C4  UNL     1     -31.405   8.083   0.306  1.00 20.00     0.038 C 
HETATM    8  C6  UNL     1     -32.431   8.866  -0.506  1.00 20.00     0.168 C 
HETATM    9  O11 UNL     1     -32.534  10.208  -0.035  1.00 20.00    -0.391 OA
HETATM   10  C7  UNL     1     -32.996  10.265   1.313  1.00 20.00     0.168 C 
HETATM   11  C5  UNL     1     -32.008   9.583   2.254  1.00 20.00     0.038 C 
ENDBRANCH   4   6
ENDBRANCH   3   4
TORSDOF 2
ENDMDL
MODEL 6
REMARK VINA RESULT:       0.6      1.606      2.155
REMARK  2 active torsions:
REMARK  status: ('A' for Active; 'I' for Inactive)
REMARK    1  A    between atoms: C3_3  and  C8_8 
REMARK    2  A    between atoms: C3_3  and  C9_9 
ROOT
HETATM    1  C1  UNL     1     -32.726   9.896  -0.009  1.00 20.00     0.012 C 
HETATM    2  C2  UNL     1     -32.255   9.040   0.688  1.00 20.00    -0.110 C 
HETATM    3  C9  UNL     1     -31.671   7.999   1.541  1.00 20.00     0.171 C 
ENDROOT
BRANCH   3   4
HETATM    4  C3  UNL     1     -32.637   6.863   1.815  1.00 20.00     0.142 C 
HETATM    5  O10 UNL     1     -33.330   6.344   0.941  1.00 20.00    -0.297 OA
BRANCH   4   6
HETATM    6  C8  UNL     1     -32.710   6.382   3.255  1.00 20.00     0.060 C 
HETATM    7  C4  UNL     1     -32.972   7.572   4.171  1.00 20.00     0.038 C 
HETATM    8  C6  UNL     1     -34.430   8.018   4.150  1.00 20.00     0.168 C 
HETATM    9  O11 UNL     1     -35.301   6.918   4.405  1.00 20.00    -0.391 OA
HETATM   10  C7  UNL     1     -35.198   5.913   3.399  1.00 20.00     0.168 C 
HETATM   11  C5  UNL     1     -33.794   5.317   3.368  1.00 20.00     0.038 C 
ENDBRANCH   4   6
ENDBRANCH   3   4
TORSDOF 2
ENDMDL
MODEL 7
REMARK VINA RESULT:       0.9      1.596      4.267
REMARK  2 active torsions:
REMARK  status: ('A' for Active; 'I' for Inactive)
REMARK    1  A    between atoms: C3_3  and  C8_8 
REMARK    2  A    between atoms: C3_3  and  C9_9 
ROOT
HETATM    1  C1  UNL     1     -33.686   3.465   4.497  1.00 20.00     0.012 C 
HETATM    2  C2  UNL     1     -34.242   4.470   4.149  1.00 20.00    -0.110 C 
HETATM    3  C9  UNL     1     -34.930   5.694   3.723  1.00 20.00     0.171 C 
ENDROOT
BRANCH   3   4
HETATM    4  C3  UNL     1     -33.994   6.882   3.624  1.00 20.00     0.142 C 
HETATM    5  O10 UNL     1     -34.270   7.995   4.069  1.00 20.00    -0.297 OA
BRANCH   4   6
HETATM    6  C8  UNL     1     -32.664   6.628   2.932  1.00 20.00     0.060 C 
HETATM    7  C4  UNL     1     -32.909   5.880   1.627  1.00 20.00     0.038 C 
HETATM    8  C6  UNL     1     -33.417   6.792   0.515  1.00 20.00     0.168 C 
HETATM    9  O11 UNL     1     -32.562   7.922   0.356  1.00 20.00    -0.391 OA
HETATM   10  C7  UNL     1     -32.530   8.735   1.527  1.00 20.00     0.168 C 
HETATM   11  C5  UNL     1     -31.958   7.960   2.710  1.00 20.00     0.038 C 
ENDBRANCH   4   6
ENDBRANCH   3   4
TORSDOF 2
ENDMDL
MODEL 8
REMARK VINA RESULT:       1.7      1.857      3.871
REMARK  2 active torsions:
REMARK  status: ('A' for Active; 'I' for Inactive)
REMARK    1  A    between atoms: C3_3  and  C8_8 
REMARK    2  A    between atoms: C3_3  and  C9_9 
ROOT
HETATM    1  C1  UNL     1     -33.141   8.445   5.434  1.00 20.00     0.012 C 
HETATM    2  C2  UNL     1     -33.885   7.758   4.789  1.00 20.00    -0.110 C 
HETATM    3  C9  UNL     1     -34.801   6.922   4.006  1.00 20.00     0.171 C 
ENDROOT
BRANCH   3   4
HETATM    4  C3  UNL     1     -34.073   5.892   3.166  1.00 20.00     0.142 C 
HETATM    5  O10 UNL     1     -33.706   4.803   3.606  1.00 20.00    -0.297 OA
BRANCH   4   6
HETATM    6  C8  UNL     1     -33.812   6.275   1.718  1.00 20.00     0.060 C 
HETATM    7  C4  UNL     1     -33.308   7.713   1.660  1.00 20.00     0.038 C 
HETATM    8  C6  UNL     1     -31.839   7.835   2.053  1.00 20.00     0.168 C 
HETATM    9  O11 UNL     1     -31.035   6.933   1.296  1.00 20.00    -0.391 OA
HETATM   10  C7  UNL     1     -31.381   5.573   1.546  1.00 20.00     0.168 C 
HETATM   11  C5  UNL     1     -32.817   5.290   1.116  1.00 20.00     0.038 C 
ENDBRANCH   4   6
ENDBRANCH   3   4
TORSDOF 2
ENDMDL
MODEL 9
REMARK VINA RESULT:       1.8      1.450      2.430
REMARK  2 active torsions:
REMARK  status: ('A' for Active; 'I' for Inactive)
REMARK    1  A    between atoms: C3_3  and  C8_8 
REMARK    2  A    between atoms: C3_3  and  C9_9 
ROOT
HETATM    1  C1  UNL     1     -32.877  10.802  -1.027  1.00 20.00     0.012 C 
HETATM    2  C2  UNL     1     -32.418   9.940  -0.330  1.00 20.00    -0.110 C 
HETATM    3  C9  UNL     1     -31.852   8.883   0.516  1.00 20.00     0.171 C 
ENDROOT
BRANCH   3   4
HETATM    4  C3  UNL     1     -32.590   8.735   1.832  1.00 20.00     0.142 C 
HETATM    5  O10 UNL     1     -33.534   9.452   2.158  1.00 20.00    -0.297 OA
BRANCH   4   6
HETATM    6  C8  UNL     1     -32.096   7.631   2.753  1.00 20.00     0.060 C 
HETATM    7  C4  UNL     1     -33.066   7.473   3.918  1.00 20.00     0.038 C 
HETATM    8  C6  UNL     1     -34.329   6.710   3.530  1.00 20.00     0.168 C 
HETATM    9  O11 UNL     1     -34.000   5.469   2.908  1.00 20.00    -0.391 OA
HETATM   10  C7  UNL     1     -33.283   5.657   1.691  1.00 20.00     0.168 C 
HETATM   11  C5  UNL     1     -31.946   6.344   1.949  1.00 20.00     0.038 C 
ENDBRANCH   4   6
ENDBRANCH   3   4
TORSDOF 2
ENDMDL
