MODEL 1
REMARK VINA RESULT:      -0.5      0.000      0.000
REMARK  2 active torsions:
REMARK  status: ('A' for Active; 'I' for Inactive)
REMARK    1  A    between atoms: C1_1  and  C7_7 
REMARK    2  A    between atoms: C6_6  and  C10_10 
ROOT
HETATM    1  C2  UNL     1     -32.086   5.661   1.651  1.00 20.00     0.002 C 
HETATM    2  C3  UNL     1     -33.419   5.572   2.391  1.00 20.00     0.005 C 
HETATM    3  C4  UNL     1     -31.965   6.963   0.861  1.00 20.00     0.020 C 
HETATM    4  C5  UNL     1     -33.534   8.096   2.494  1.00 20.00     0.025 C 
HETATM    5  C6  UNL     1     -33.655   6.789   3.296  1.00 20.00    -0.014 C 
HETATM    6  C7  UNL     1     -32.207   8.199   1.734  1.00 20.00     0.045 C 
HETATM    7  C8  UNL     1     -31.025   8.510   2.651  1.00 20.00     0.027 C 
ENDROOT
BRANCH   6   8
HETATM    8  C1  UNL     1     -32.315   9.369   0.761  1.00 20.00     0.181 C 
HETATM    9  O11 UNL     1     -33.052  10.321   1.139  1.00 20.00    -0.647 OA
HETATM   10  O12 UNL     1     -31.649   9.234  -0.305  1.00 20.00    -0.647 OA
ENDBRANCH   6   8
BRANCH   5  11
HETATM   11  C10 UNL     1     -35.022   6.698   3.974  1.00 20.00     0.000 C 
HETATM   12  C9  UNL     1     -35.337   5.300   4.390  1.00 20.00     0.005 C 
ENDBRANCH   5  11
TORSDOF 2
ENDMDL
MODEL 2
REMARK VINA RESULT:      -0.2      1.989      3.348
REMARK  2 active torsions:
REMARK  status: ('A' for Active; 'I' for Inactive)
REMARK    1  A    between atoms: C1_1  and  C7_7 
REMARK    2  A    between atoms: C6_6  and  C10_10 
ROOT
HETATM    1  C2  UNL     1     -35.441   6.232   3.991  1.00 20.00     0.002 C 
HETATM    2  C3  UNL     1     -34.879   4.927   4.551  1.00 20.00     0.005 C 
HETATM    3  C4  UNL     1     -34.330   7.171   3.524  1.00 20.00     0.020 C 
HETATM    4  C5  UNL     1     -32.834   5.175   3.085  1.00 20.00     0.025 C 
HETATM    5  C6  UNL     1     -33.952   4.226   3.550  1.00 20.00    -0.014 C 
HETATM    6  C7  UNL     1     -33.377   6.496   2.531  1.00 20.00     0.045 C 
HETATM    7  C8  UNL     1     -33.991   6.344   1.140  1.00 20.00     0.027 C 
ENDROOT
BRANCH   6   8
HETATM    8  C1  UNL     1     -32.203   7.458   2.378  1.00 20.00     0.181 C 
HETATM    9  O11 UNL     1     -31.465   7.254   1.375  1.00 20.00    -0.647 OA
HETATM   10  O12 UNL     1     -32.120   8.340   3.280  1.00 20.00    -0.647 OA
ENDBRANCH   6   8
BRANCH   5  11
HETATM   11  C10 UNL     1     -33.360   2.957   4.163  1.00 20.00     0.000 C 
HETATM   12  C9  UNL     1     -32.878   3.192   5.556  1.00 20.00     0.005 C 
ENDBRANCH   5  11
TORSDOF 2
ENDMDL
MODEL 3
REMARK VINA RESULT:       1.3      2.697      4.594
REMARK  2 active torsions:
REMARK  status: ('A' for Active; 'I' for Inactive)
REMARK    1  A    between atoms: C1_1  and  C7_7 
REMARK    2  A    between atoms: C6_6  and  C10_10 
ROOT
HETATM    1  C2  UNL     1     -32.466   8.282   4.548  1.00 20.00     0.002 C 
HETATM    2  C3  UNL     1     -32.169   8.737   3.120  1.00 20.00     0.005 C 
HETATM    3  C4  UNL     1     -33.840   7.622   4.655  1.00 20.00     0.020 C 
HETATM    4  C5  UNL     1     -33.694   6.931   2.223  1.00 20.00     0.025 C 
HETATM    5  C6  UNL     1     -32.308   7.589   2.112  1.00 20.00    -0.014 C 
HETATM    6  C7  UNL     1     -34.016   6.478   3.650  1.00 20.00     0.045 C 
HETATM    7  C8  UNL     1     -33.252   5.219   4.056  1.00 20.00     0.027 C 
ENDROOT
BRANCH   6   8
HETATM    8  C1  UNL     1     -35.498   6.116   3.703  1.00 20.00     0.181 C 
HETATM    9  O11 UNL     1     -36.257   6.846   3.008  1.00 20.00    -0.647 OA
HETATM   10  O12 UNL     1     -35.776   5.128   4.440  1.00 20.00    -0.647 OA
ENDBRANCH   6   8
BRANCH   5  11
HETATM   11  C10 UNL     1     -32.063   8.092   0.689  1.00 20.00     0.000 C 
HETATM   12  C9  UNL     1     -32.410   9.537   0.549  1.00 20.00     0.005 C 
ENDBRANCH   5  11
TORSDOF 2
ENDMDL
MODEL 4
REMARK VINA RESULT:       1.4      2.460      3.286
REMARK  2 active torsions:
REMARK  status: ('A' for Active; 'I' for Inactive)
REMARK    1  A    between atoms: C1_1  and  C7_7 
REMARK    2  A    between atoms: C6_6  and  C10_10 
ROOT
HETATM    1  C2  UNL     1     -32.442   8.327   2.405  1.00 20.00     0.002 C 
HETATM    2  C3  UNL     1     -33.267   7.900   3.618  1.00 20.00     0.005 C 
HETATM    3  C4  UNL     1     -31.782   7.130   1.722  1.00 20.00     0.020 C 
HETATM    4  C5  UNL     1     -33.635   5.628   2.573  1.00 20.00     0.025 C 
HETATM    5  C6  UNL     1     -34.306   6.831   3.257  1.00 20.00    -0.014 C 
HETATM    6  C7  UNL     1     -32.793   6.037   1.360  1.00 20.00     0.045 C 
HETATM    7  C8  UNL     1     -33.646   6.405   0.147  1.00 20.00     0.027 C 
ENDROOT
BRANCH   6   8
HETATM    8  C1  UNL     1     -31.954   4.831   0.944  1.00 20.00     0.181 C 
HETATM    9  O11 UNL     1     -30.901   4.649   1.614  1.00 20.00    -0.647 OA
HETATM   10  O12 UNL     1     -32.425   4.167  -0.023  1.00 20.00    -0.647 OA
ENDBRANCH   6   8
BRANCH   5  11
HETATM   11  C10 UNL     1     -35.071   6.383   4.503  1.00 20.00     0.000 C 
HETATM   12  C9  UNL     1     -35.202   4.898   4.564  1.00 20.00     0.005 C 
ENDBRANCH   5  11
TORSDOF 2
ENDMDL
MODEL 5
REMARK VINA RESULT:       1.6      1.567      2.488
REMARK  2 active torsions:
REMARK  status: ('A' for Active; 'I' for Inactive)
REMARK    1  A    between atoms: C1_1  and  C7_7 
REMARK    2  A    between atoms: C6_6  and  C10_10 
ROOT
HETATM    1  C2  UNL     1     -32.535   8.702   4.663  1.00 20.00     0.002 C 
HETATM    2  C3  UNL     1     -33.570   7.629   4.993  1.00 20.00     0.005 C 
HETATM    3  C4  UNL     1     -31.694   8.322   3.446  1.00 20.00     0.020 C 
HETATM    4  C5  UNL     1     -33.611   6.919   2.566  1.00 20.00     0.025 C 
HETATM    5  C6  UNL     1     -34.462   7.304   3.788  1.00 20.00    -0.014 C 
HETATM    6  C7  UNL     1     -32.558   7.979   2.227  1.00 20.00     0.045 C 
HETATM    7  C8  UNL     1     -33.160   9.219   1.567  1.00 20.00     0.027 C 
ENDROOT
BRANCH   6   8
HETATM    8  C1  UNL     1     -31.597   7.374   1.206  1.00 20.00     0.181 C 
HETATM    9  O11 UNL     1     -31.002   8.206   0.467  1.00 20.00    -0.647 OA
HETATM   10  O12 UNL     1     -31.521   6.113   1.233  1.00 20.00    -0.647 OA
ENDBRANCH   6   8
BRANCH   5  11
HETATM   11  C10 UNL     1     -35.445   6.186   4.133  1.00 20.00     0.000 C 
HETATM   12  C9  UNL     1     -34.756   4.868   4.262  1.00 20.00     0.005 C 
ENDBRANCH   5  11
TORSDOF 2
ENDMDL
MODEL 6
REMARK VINA RESULT:       1.7      2.407      4.298
REMARK  2 active torsions:
REMARK  status: ('A' for Active; 'I' for Inactive)
REMARK    1  A    between atoms: C1_1  and  C7_7 
REMARK    2  A    between atoms: C6_6  and  C10_10 
ROOT
HETATM    1  C2  UNL     1     -32.582   5.427   1.611  1.00 20.00     0.002 C 
HETATM    2  C3  UNL     1     -31.758   6.648   1.207  1.00 20.00     0.005 C 
HETATM    3  C4  UNL     1     -33.227   5.610   2.984  1.00 20.00     0.020 C 
HETATM    4  C5  UNL     1     -33.230   8.119   2.644  1.00 20.00     0.025 C 
HETATM    5  C6  UNL     1     -32.585   7.939   1.259  1.00 20.00    -0.014 C 
HETATM    6  C7  UNL     1     -34.051   6.899   3.073  1.00 20.00     0.045 C 
HETATM    7  C8  UNL     1     -35.384   6.795   2.332  1.00 20.00     0.027 C 
ENDROOT
BRANCH   6   8
HETATM    8  C1  UNL     1     -34.393   7.061   4.551  1.00 20.00     0.181 C 
HETATM    9  O11 UNL     1     -33.695   7.904   5.178  1.00 20.00    -0.647 OA
HETATM   10  O12 UNL     1     -35.336   6.326   4.959  1.00 20.00    -0.647 OA
ENDBRANCH   6   8
BRANCH   5  11
HETATM   11  C10 UNL     1     -31.717   9.147   0.908  1.00 20.00     0.000 C 
HETATM   12  C9  UNL     1     -32.494  10.189   0.174  1.00 20.00     0.005 C 
ENDBRANCH   5  11
TORSDOF 2
ENDMDL
MODEL 7
REMARK VINA RESULT:       2.3      2.281      4.068
REMARK  2 active torsions:
REMARK  status: ('A' for Active; 'I' for Inactive)
REMARK    1  A    between atoms: C1_1  and  C7_7 
REMARK    2  A    between atoms: C6_6  and  C10_10 
ROOT
HETATM    1  C2  UNL     1     -33.530   6.708   3.586  1.00 20.00     0.002 C 
HETATM    2  C3  UNL     1     -33.305   8.135   3.090  1.00 20.00     0.005 C 
HETATM    3  C4  UNL     1     -33.888   5.763   2.441  1.00 20.00     0.020 C 
HETATM    4  C5  UNL     1     -32.618   7.243   0.826  1.00 20.00     0.025 C 
HETATM    5  C6  UNL     1     -32.250   8.195   1.977  1.00 20.00    -0.014 C 
HETATM    6  C7  UNL     1     -32.860   5.808   1.305  1.00 20.00     0.045 C 
HETATM    7  C8  UNL     1     -31.564   5.078   1.657  1.00 20.00     0.027 C 
ENDROOT
BRANCH   6   8
HETATM    8  C1  UNL     1     -33.492   5.030   0.155  1.00 20.00     0.181 C 
HETATM    9  O11 UNL     1     -34.553   5.526  -0.314  1.00 20.00    -0.647 OA
HETATM   10  O12 UNL     1     -32.868   3.984  -0.183  1.00 20.00    -0.647 OA
ENDBRANCH   6   8
BRANCH   5  11
HETATM   11  C10 UNL     1     -32.094   9.626   1.462  1.00 20.00     0.000 C 
HETATM   12  C9  UNL     1     -32.460   9.735   0.019  1.00 20.00     0.005 C 
ENDBRANCH   5  11
TORSDOF 2
ENDMDL
