MODEL 1
REMARK VINA RESULT:      -2.1      0.000      0.000
REMARK  3 active torsions:
REMARK  status: ('A' for Active; 'I' for Inactive)
REMARK    1  A    between atoms: C1_1  and  C7_7 
REMARK    2  A    between atoms: C1_1  and  C9_9 
REMARK    3  A    between atoms: C8_8  and  C9_9 
ROOT
HETATM    1  C1  UNL     1     -32.348   7.951   2.448  1.00 20.00     0.155 C 
HETATM    2  O10 UNL     1     -31.762   8.404   3.431  1.00 20.00    -0.295 OA
ENDROOT
BRANCH   1   3
HETATM    3  C7  UNL     1     -33.683   7.298   2.583  1.00 20.00     0.190 C 
HETATM    4  C3  UNL     1     -34.288   7.472   3.962  1.00 20.00     0.042 C 
HETATM    5  C2  UNL     1     -34.952   6.137   4.194  1.00 20.00     0.029 C 
HETATM    6  C6  UNL     1     -33.990   5.190   3.516  1.00 20.00     0.168 C 
HETATM    7  O11 UNL     1     -33.464   5.896   2.384  1.00 20.00    -0.378 OA
ENDBRANCH   1   3
BRANCH   1   8
HETATM    8  C9  UNL     1     -31.775   8.017   1.045  1.00 20.00     0.085 C 
BRANCH   8   9
HETATM    9  C8  UNL     1     -31.732   9.432   0.497  1.00 20.00    -0.007 A 
HETATM   10  C4  UNL     1     -32.688   9.856  -0.584  1.00 20.00     0.005 A 
HETATM   11  C5  UNL     1     -32.839  10.399   0.810  1.00 20.00     0.005 A 
ENDBRANCH   8   9
ENDBRANCH   1   8
TORSDOF 3
ENDMDL
MODEL 2
REMARK VINA RESULT:      -1.8      1.176      1.373
REMARK  3 active torsions:
REMARK  status: ('A' for Active; 'I' for Inactive)
REMARK    1  A    between atoms: C1_1  and  C7_7 
REMARK    2  A    between atoms: C1_1  and  C9_9 
REMARK    3  A    between atoms: C8_8  and  C9_9 
ROOT
HETATM    1  C1  UNL     1     -32.311   6.751   1.824  1.00 20.00     0.155 C 
HETATM    2  O10 UNL     1     -31.560   5.819   1.537  1.00 20.00    -0.295 OA
ENDROOT
BRANCH   1   3
HETATM    3  C7  UNL     1     -33.711   6.499   2.274  1.00 20.00     0.190 C 
HETATM    4  C3  UNL     1     -34.079   7.280   3.520  1.00 20.00     0.042 C 
HETATM    5  C2  UNL     1     -34.937   6.296   4.277  1.00 20.00     0.029 C 
HETATM    6  C6  UNL     1     -34.267   4.982   3.947  1.00 20.00     0.168 C 
HETATM    7  O11 UNL     1     -33.782   5.106   2.604  1.00 20.00    -0.378 OA
ENDBRANCH   1   3
BRANCH   1   8
HETATM    8  C9  UNL     1     -31.885   8.205   1.747  1.00 20.00     0.085 C 
BRANCH   8   9
HETATM    9  C8  UNL     1     -32.719   9.007   0.766  1.00 20.00    -0.007 A 
HETATM   10  C4  UNL     1     -32.653  10.510   0.765  1.00 20.00     0.005 A 
HETATM   11  C5  UNL     1     -32.059   9.730  -0.375  1.00 20.00     0.005 A 
ENDBRANCH   8   9
ENDBRANCH   1   8
TORSDOF 3
ENDMDL
MODEL 3
REMARK VINA RESULT:      -1.7      1.249      1.909
REMARK  3 active torsions:
REMARK  status: ('A' for Active; 'I' for Inactive)
REMARK    1  A    between atoms: C1_1  and  C7_7 
REMARK    2  A    between atoms: C1_1  and  C9_9 
REMARK    3  A    between atoms: C8_8  and  C9_9 
ROOT
HETATM    1  C1  UNL     1     -32.714   6.664   1.957  1.00 20.00     0.155 C 
HETATM    2  O10 UNL     1     -32.832   5.868   1.027  1.00 20.00    -0.295 OA
ENDROOT
BRANCH   1   3
HETATM    3  C7  UNL     1     -33.212   6.330   3.323  1.00 20.00     0.190 C 
HETATM    4  C3  UNL     1     -33.769   4.923   3.420  1.00 20.00     0.042 C 
HETATM    5  C2  UNL     1     -34.948   5.104   4.344  1.00 20.00     0.029 C 
HETATM    6  C6  UNL     1     -35.451   6.471   3.941  1.00 20.00     0.168 C 
HETATM    7  O11 UNL     1     -34.291   7.236   3.589  1.00 20.00    -0.378 OA
ENDBRANCH   1   3
BRANCH   1   8
HETATM    8  C9  UNL     1     -32.063   8.025   1.798  1.00 20.00     0.085 C 
BRANCH   8   9
HETATM    9  C8  UNL     1     -32.783   8.903   0.791  1.00 20.00    -0.007 A 
HETATM   10  C4  UNL     1     -32.633  10.399   0.846  1.00 20.00     0.005 A 
HETATM   11  C5  UNL     1     -32.008   9.621  -0.278  1.00 20.00     0.005 A 
ENDBRANCH   8   9
ENDBRANCH   1   8
TORSDOF 3
ENDMDL
MODEL 4
REMARK VINA RESULT:      -1.4      1.863      5.306
REMARK  3 active torsions:
REMARK  status: ('A' for Active; 'I' for Inactive)
REMARK    1  A    between atoms: C1_1  and  C7_7 
REMARK    2  A    between atoms: C1_1  and  C9_9 
REMARK    3  A    between atoms: C8_8  and  C9_9 
ROOT
HETATM    1  C1  UNL     1     -34.360   5.822   3.518  1.00 20.00     0.155 C 
HETATM    2  O10 UNL     1     -35.320   5.950   4.278  1.00 20.00    -0.295 OA
ENDROOT
BRANCH   1   3
HETATM    3  C7  UNL     1     -33.912   6.948   2.648  1.00 20.00     0.190 C 
HETATM    4  C3  UNL     1     -32.809   6.548   1.689  1.00 20.00     0.042 C 
HETATM    5  C2  UNL     1     -31.933   7.776   1.673  1.00 20.00     0.029 C 
HETATM    6  C6  UNL     1     -32.041   8.252   3.103  1.00 20.00     0.168 C 
HETATM    7  O11 UNL     1     -33.375   7.944   3.528  1.00 20.00    -0.378 OA
ENDBRANCH   1   3
BRANCH   1   8
HETATM    8  C9  UNL     1     -33.567   4.533   3.404  1.00 20.00     0.085 C 
BRANCH   8   9
HETATM    9  C8  UNL     1     -33.829   3.581   4.557  1.00 20.00    -0.007 A 
HETATM   10  C4  UNL     1     -33.275   2.183   4.526  1.00 20.00     0.005 A 
HETATM   11  C5  UNL     1     -32.713   3.194   5.487  1.00 20.00     0.005 A 
ENDBRANCH   8   9
ENDBRANCH   1   8
TORSDOF 3
ENDMDL
MODEL 5
REMARK VINA RESULT:      -1.1      1.356      4.606
REMARK  3 active torsions:
REMARK  status: ('A' for Active; 'I' for Inactive)
REMARK    1  A    between atoms: C1_1  and  C7_7 
REMARK    2  A    between atoms: C1_1  and  C9_9 
REMARK    3  A    between atoms: C8_8  and  C9_9 
ROOT
HETATM    1  C1  UNL     1     -32.322   7.383   1.961  1.00 20.00     0.155 C 
HETATM    2  O10 UNL     1     -31.967   6.348   1.399  1.00 20.00    -0.295 OA
ENDROOT
BRANCH   1   3
HETATM    3  C7  UNL     1     -31.862   8.718   1.480  1.00 20.00     0.190 C 
HETATM    4  C3  UNL     1     -32.909   9.800   1.654  1.00 20.00     0.042 C 
HETATM    5  C2  UNL     1     -32.728  10.628   0.405  1.00 20.00     0.029 C 
HETATM    6  C6  UNL     1     -32.383   9.573  -0.620  1.00 20.00     0.168 C 
HETATM    7  O11 UNL     1     -31.622   8.576   0.074  1.00 20.00    -0.378 OA
ENDBRANCH   1   3
BRANCH   1   8
HETATM    8  C9  UNL     1     -33.241   7.389   3.169  1.00 20.00     0.085 C 
BRANCH   8   9
HETATM    9  C8  UNL     1     -34.330   6.336   3.080  1.00 20.00    -0.007 A 
HETATM   10  C4  UNL     1     -34.345   5.178   4.041  1.00 20.00     0.005 A 
HETATM   11  C5  UNL     1     -35.391   6.252   4.142  1.00 20.00     0.005 A 
ENDBRANCH   8   9
ENDBRANCH   1   8
TORSDOF 3
ENDMDL
MODEL 6
REMARK VINA RESULT:      -1.1      1.897      5.248
REMARK  3 active torsions:
REMARK  status: ('A' for Active; 'I' for Inactive)
REMARK    1  A    between atoms: C1_1  and  C7_7 
REMARK    2  A    between atoms: C1_1  and  C9_9 
REMARK    3  A    between atoms: C8_8  and  C9_9 
ROOT
HETATM    1  C1  UNL     1     -34.619   5.874   3.766  1.00 20.00     0.155 C 
HETATM    2  O10 UNL     1     -35.598   6.603   3.615  1.00 20.00    -0.295 OA
ENDROOT
BRANCH   1   3
HETATM    3  C7  UNL     1     -33.257   6.317   3.347  1.00 20.00     0.190 C 
HETATM    4  C3  UNL     1     -33.106   7.825   3.335  1.00 20.00     0.042 C 
HETATM    5  C2  UNL     1     -32.240   8.054   2.121  1.00 20.00     0.029 C 
HETATM    6  C6  UNL     1     -32.736   6.981   1.179  1.00 20.00     0.168 C 
HETATM    7  O11 UNL     1     -33.084   5.858   2.000  1.00 20.00    -0.378 OA
ENDBRANCH   1   3
BRANCH   1   8
HETATM    8  C9  UNL     1     -34.711   4.490   4.381  1.00 20.00     0.085 C 
BRANCH   8   9
HETATM    9  C8  UNL     1     -33.421   3.702   4.243  1.00 20.00    -0.007 A 
HETATM   10  C4  UNL     1     -32.737   3.148   5.463  1.00 20.00     0.005 A 
HETATM   11  C5  UNL     1     -33.410   2.219   4.491  1.00 20.00     0.005 A 
ENDBRANCH   8   9
ENDBRANCH   1   8
TORSDOF 3
ENDMDL
MODEL 7
REMARK VINA RESULT:      -0.2      1.251      4.584
REMARK  3 active torsions:
REMARK  status: ('A' for Active; 'I' for Inactive)
REMARK    1  A    between atoms: C1_1  and  C7_7 
REMARK    2  A    between atoms: C1_1  and  C9_9 
REMARK    3  A    between atoms: C8_8  and  C9_9 
ROOT
HETATM    1  C1  UNL     1     -32.126   7.858   1.974  1.00 20.00     0.155 C 
HETATM    2  O10 UNL     1     -31.172   8.293   2.618  1.00 20.00    -0.295 OA
ENDROOT
BRANCH   1   3
HETATM    3  C7  UNL     1     -32.690   8.623   0.823  1.00 20.00     0.190 C 
HETATM    4  C3  UNL     1     -31.641   8.996  -0.206  1.00 20.00     0.042 C 
HETATM    5  C2  UNL     1     -32.080  10.376  -0.630  1.00 20.00     0.029 C 
HETATM    6  C6  UNL     1     -32.615  10.942   0.665  1.00 20.00     0.168 C 
HETATM    7  O11 UNL     1     -33.208   9.843   1.368  1.00 20.00    -0.378 OA
ENDBRANCH   1   3
BRANCH   1   8
HETATM    8  C9  UNL     1     -32.798   6.535   2.289  1.00 20.00     0.085 C 
BRANCH   8   9
HETATM    9  C8  UNL     1     -34.186   6.709   2.876  1.00 20.00    -0.007 A 
HETATM   10  C4  UNL     1     -34.614   5.894   4.066  1.00 20.00     0.005 A 
HETATM   11  C5  UNL     1     -34.365   7.369   4.215  1.00 20.00     0.005 A 
ENDBRANCH   8   9
ENDBRANCH   1   8
TORSDOF 3
ENDMDL
MODEL 8
REMARK VINA RESULT:       0.7      1.865      2.452
REMARK  3 active torsions:
REMARK  status: ('A' for Active; 'I' for Inactive)
REMARK    1  A    between atoms: C1_1  and  C7_7 
REMARK    2  A    between atoms: C1_1  and  C9_9 
REMARK    3  A    between atoms: C8_8  and  C9_9 
ROOT
HETATM    1  C1  UNL     1     -32.789   7.437   2.623  1.00 20.00     0.155 C 
HETATM    2  O10 UNL     1     -33.443   7.859   3.575  1.00 20.00    -0.295 OA
ENDROOT
BRANCH   1   3
HETATM    3  C7  UNL     1     -32.797   5.988   2.266  1.00 20.00     0.190 C 
HETATM    4  C3  UNL     1     -31.583   5.574   1.459  1.00 20.00     0.042 C 
HETATM    5  C2  UNL     1     -32.167   4.583   0.482  1.00 20.00     0.029 C 
HETATM    6  C6  UNL     1     -33.528   5.180   0.210  1.00 20.00     0.168 C 
HETATM    7  O11 UNL     1     -33.951   5.787   1.438  1.00 20.00    -0.378 OA
ENDBRANCH   1   3
BRANCH   1   8
HETATM    8  C9  UNL     1     -31.935   8.336   1.748  1.00 20.00     0.085 C 
BRANCH   8   9
HETATM    9  C8  UNL     1     -32.752   9.107   0.729  1.00 20.00    -0.007 A 
HETATM   10  C4  UNL     1     -32.702  10.610   0.697  1.00 20.00     0.005 A 
HETATM   11  C5  UNL     1     -32.071   9.813  -0.410  1.00 20.00     0.005 A 
ENDBRANCH   8   9
ENDBRANCH   1   8
TORSDOF 3
ENDMDL
MODEL 9
REMARK VINA RESULT:       0.7      1.972      3.199
REMARK  3 active torsions:
REMARK  status: ('A' for Active; 'I' for Inactive)
REMARK    1  A    between atoms: C1_1  and  C7_7 
REMARK    2  A    between atoms: C1_1  and  C9_9 
REMARK    3  A    between atoms: C8_8  and  C9_9 
ROOT
HETATM    1  C1  UNL     1     -34.522   6.119   3.675  1.00 20.00     0.155 C 
HETATM    2  O10 UNL     1     -35.667   6.547   3.813  1.00 20.00    -0.295 OA
ENDROOT
BRANCH   1   3
HETATM    3  C7  UNL     1     -34.255   4.655   3.564  1.00 20.00     0.190 C 
HETATM    4  C3  UNL     1     -34.377   3.932   4.892  1.00 20.00     0.042 C 
HETATM    5  C2  UNL     1     -33.262   2.919   4.811  1.00 20.00     0.029 C 
HETATM    6  C6  UNL     1     -32.200   3.685   4.058  1.00 20.00     0.168 C 
HETATM    7  O11 UNL     1     -32.896   4.527   3.129  1.00 20.00    -0.378 OA
ENDBRANCH   1   3
BRANCH   1   8
HETATM    8  C9  UNL     1     -33.307   7.026   3.607  1.00 20.00     0.085 C 
BRANCH   8   9
HETATM    9  C8  UNL     1     -33.068   7.579   2.214  1.00 20.00    -0.007 A 
HETATM   10  C4  UNL     1     -31.781   8.286   1.889  1.00 20.00     0.005 A 
HETATM   11  C5  UNL     1     -32.063   6.931   1.304  1.00 20.00     0.005 A 
ENDBRANCH   8   9
ENDBRANCH   1   8
TORSDOF 3
ENDMDL
