MODEL 1
REMARK VINA RESULT:      -2.4      0.000      0.000
REMARK  1 active torsions:
REMARK  status: ('A' for Active; 'I' for Inactive)
REMARK    1  A    between atoms: C3_3  and  C4_4 
ROOT
HETATM    1  C1  UNL     1     -32.188   8.847   1.027  1.00 20.00     0.064 C 
HETATM    2  C4  UNL     1     -31.810   7.897   2.081  1.00 20.00     0.175 C 
HETATM    3  N5  UNL     1     -32.485   9.601   0.195  1.00 20.00    -0.197 NA
ENDROOT
BRANCH   2   4
HETATM    4  C3  UNL     1     -32.791   6.760   2.142  1.00 20.00     0.035 C 
HETATM    5  C2  UNL     1     -33.793   6.609   3.017  1.00 20.00     0.105 C 
HETATM    6 CL6  UNL     1     -34.208   7.725   4.249  1.00 20.00    -0.096 Cl
HETATM    7 CL7  UNL     1     -32.526   5.503   0.967  1.00 20.00    -0.087 Cl
ENDBRANCH   2   4
TORSDOF 1
ENDMDL
MODEL 2
REMARK VINA RESULT:      -2.2      3.088      4.577
REMARK  1 active torsions:
REMARK  status: ('A' for Active; 'I' for Inactive)
REMARK    1  A    between atoms: C3_3  and  C4_4 
ROOT
HETATM    1  C1  UNL     1     -34.373   4.635   4.135  1.00 20.00     0.064 C 
HETATM    2  C4  UNL     1     -34.969   5.950   3.860  1.00 20.00     0.175 C 
HETATM    3  N5  UNL     1     -33.905   3.595   4.353  1.00 20.00    -0.197 NA
ENDROOT
BRANCH   2   4
HETATM    4  C3  UNL     1     -33.897   6.983   3.656  1.00 20.00     0.035 C 
HETATM    5  C2  UNL     1     -32.994   7.019   2.669  1.00 20.00     0.105 C 
HETATM    6 CL6  UNL     1     -32.895   5.899   1.377  1.00 20.00    -0.096 Cl
HETATM    7 CL7  UNL     1     -33.826   8.213   4.886  1.00 20.00    -0.087 Cl
ENDBRANCH   2   4
TORSDOF 1
ENDMDL
MODEL 3
REMARK VINA RESULT:      -2.1      2.778      3.332
REMARK  1 active torsions:
REMARK  status: ('A' for Active; 'I' for Inactive)
REMARK    1  A    between atoms: C3_3  and  C4_4 
ROOT
HETATM    1  C1  UNL     1     -33.931   7.235   3.552  1.00 20.00     0.064 C 
HETATM    2  C4  UNL     1     -32.814   8.103   3.159  1.00 20.00     0.175 C 
HETATM    3  N5  UNL     1     -34.815   6.551   3.866  1.00 20.00    -0.197 NA
ENDROOT
BRANCH   2   4
HETATM    4  C3  UNL     1     -32.330   7.749   1.780  1.00 20.00     0.035 C 
HETATM    5  C2  UNL     1     -32.202   8.577   0.736  1.00 20.00     0.105 C 
HETATM    6 CL6  UNL     1     -32.525  10.259   0.762  1.00 20.00    -0.096 Cl
HETATM    7 CL7  UNL     1     -31.959   6.064   1.548  1.00 20.00    -0.087 Cl
ENDBRANCH   2   4
TORSDOF 1
ENDMDL
MODEL 4
REMARK VINA RESULT:      -1.9      0.673      2.414
REMARK  1 active torsions:
REMARK  status: ('A' for Active; 'I' for Inactive)
REMARK    1  A    between atoms: C3_3  and  C4_4 
ROOT
HETATM    1  C1  UNL     1     -32.142   8.986   0.965  1.00 20.00     0.064 C 
HETATM    2  C4  UNL     1     -31.665   8.002   1.946  1.00 20.00     0.175 C 
HETATM    3  N5  UNL     1     -32.515   9.765   0.189  1.00 20.00    -0.197 NA
ENDROOT
BRANCH   2   4
HETATM    4  C3  UNL     1     -32.771   7.058   2.326  1.00 20.00     0.035 C 
HETATM    5  C2  UNL     1     -32.990   5.835   1.827  1.00 20.00     0.105 C 
HETATM    6 CL6  UNL     1     -32.012   5.053   0.659  1.00 20.00    -0.096 Cl
HETATM    7 CL7  UNL     1     -33.890   7.682   3.504  1.00 20.00    -0.087 Cl
ENDBRANCH   2   4
TORSDOF 1
ENDMDL
MODEL 5
REMARK VINA RESULT:      -1.9      2.046      2.957
REMARK  1 active torsions:
REMARK  status: ('A' for Active; 'I' for Inactive)
REMARK    1  A    between atoms: C3_3  and  C4_4 
ROOT
HETATM    1  C1  UNL     1     -32.484   7.014   1.901  1.00 20.00     0.064 C 
HETATM    2  C4  UNL     1     -33.160   5.738   2.170  1.00 20.00     0.175 C 
HETATM    3  N5  UNL     1     -31.947   8.021   1.685  1.00 20.00    -0.197 NA
ENDROOT
BRANCH   2   4
HETATM    4  C3  UNL     1     -33.954   5.821   3.444  1.00 20.00     0.035 C 
HETATM    5  C2  UNL     1     -34.208   4.823   4.298  1.00 20.00     0.105 C 
HETATM    6 CL6  UNL     1     -33.633   3.217   4.143  1.00 20.00    -0.096 Cl
HETATM    7 CL7  UNL     1     -34.640   7.386   3.776  1.00 20.00    -0.087 Cl
ENDBRANCH   2   4
TORSDOF 1
ENDMDL
MODEL 6
REMARK VINA RESULT:      -1.7      3.369      4.139
REMARK  1 active torsions:
REMARK  status: ('A' for Active; 'I' for Inactive)
REMARK    1  A    between atoms: C3_3  and  C4_4 
ROOT
HETATM    1  C1  UNL     1     -34.073   4.151   4.201  1.00 20.00     0.064 C 
HETATM    2  C4  UNL     1     -34.701   5.416   3.797  1.00 20.00     0.175 C 
HETATM    3  N5  UNL     1     -33.580   3.150   4.522  1.00 20.00    -0.197 NA
ENDROOT
BRANCH   2   4
HETATM    4  C3  UNL     1     -33.695   6.316   3.137  1.00 20.00     0.035 C 
HETATM    5  C2  UNL     1     -33.281   7.513   3.571  1.00 20.00     0.105 C 
HETATM    6 CL6  UNL     1     -33.785   8.267   5.024  1.00 20.00    -0.096 Cl
HETATM    7 CL7  UNL     1     -33.068   5.725   1.624  1.00 20.00    -0.087 Cl
ENDBRANCH   2   4
TORSDOF 1
ENDMDL
MODEL 7
REMARK VINA RESULT:      -1.6      3.517      4.450
REMARK  1 active torsions:
REMARK  status: ('A' for Active; 'I' for Inactive)
REMARK    1  A    between atoms: C3_3  and  C4_4 
ROOT
HETATM    1  C1  UNL     1     -33.632   4.051   3.805  1.00 20.00     0.064 C 
HETATM    2  C4  UNL     1     -33.468   5.096   2.786  1.00 20.00     0.175 C 
HETATM    3  N5  UNL     1     -33.761   3.223   4.608  1.00 20.00    -0.197 NA
ENDROOT
BRANCH   2   4
HETATM    4  C3  UNL     1     -34.006   6.408   3.284  1.00 20.00     0.035 C 
HETATM    5  C2  UNL     1     -33.473   7.620   3.091  1.00 20.00     0.105 C 
HETATM    6 CL6  UNL     1     -32.061   7.946   2.178  1.00 20.00    -0.096 Cl
HETATM    7 CL7  UNL     1     -35.446   6.284   4.254  1.00 20.00    -0.087 Cl
ENDBRANCH   2   4
TORSDOF 1
ENDMDL
MODEL 8
REMARK VINA RESULT:      -1.3      2.668      3.446
REMARK  1 active torsions:
REMARK  status: ('A' for Active; 'I' for Inactive)
REMARK    1  A    between atoms: C3_3  and  C4_4 
ROOT
HETATM    1  C1  UNL     1     -33.929   7.214   3.578  1.00 20.00     0.064 C 
HETATM    2  C4  UNL     1     -32.701   7.960   3.273  1.00 20.00     0.175 C 
HETATM    3  N5  UNL     1     -34.899   6.625   3.824  1.00 20.00    -0.197 NA
ENDROOT
BRANCH   2   4
HETATM    4  C3  UNL     1     -32.398   7.897   1.802  1.00 20.00     0.035 C 
HETATM    5  C2  UNL     1     -32.147   6.799   1.079  1.00 20.00     0.105 C 
HETATM    6 CL6  UNL     1     -32.161   5.195   1.679  1.00 20.00    -0.096 Cl
HETATM    7 CL7  UNL     1     -32.326   9.444   1.006  1.00 20.00    -0.087 Cl
ENDBRANCH   2   4
TORSDOF 1
ENDMDL
MODEL 9
REMARK VINA RESULT:      -1.2      2.959      3.507
REMARK  1 active torsions:
REMARK  status: ('A' for Active; 'I' for Inactive)
REMARK    1  A    between atoms: C3_3  and  C4_4 
ROOT
HETATM    1  C1  UNL     1     -33.924   7.628   4.460  1.00 20.00     0.064 C 
HETATM    2  C4  UNL     1     -34.688   6.624   3.708  1.00 20.00     0.175 C 
HETATM    3  N5  UNL     1     -33.322   8.424   5.054  1.00 20.00    -0.197 NA
ENDROOT
BRANCH   2   4
HETATM    4  C3  UNL     1     -33.784   5.524   3.228  1.00 20.00     0.035 C 
HETATM    5  C2  UNL     1     -32.853   5.609   2.269  1.00 20.00     0.105 C 
HETATM    6 CL6  UNL     1     -32.456   7.031   1.400  1.00 20.00    -0.096 Cl
HETATM    7 CL7  UNL     1     -34.045   3.980   3.989  1.00 20.00    -0.087 Cl
ENDBRANCH   2   4
TORSDOF 1
ENDMDL
