MODEL 1
REMARK VINA RESULT:      -2.0      0.000      0.000
REMARK  3 active torsions:
REMARK  status: ('A' for Active; 'I' for Inactive)
REMARK    1  A    between atoms: C1_1  and  C3_3 
REMARK    2  A    between atoms: C1_1  and  C8_8 
REMARK    3  A    between atoms: C8_8  and  C9_9 
ROOT
HETATM    1  C1  UNL     1     -33.025   6.996   2.128  1.00 20.00     0.131 C 
HETATM    2  O10 UNL     1     -32.896   5.865   1.661  1.00 20.00    -0.298 OA
ENDROOT
BRANCH   1   3
HETATM    3  C3  UNL     1     -34.228   7.356   2.960  1.00 20.00     0.059 A 
HETATM    4  C2  UNL     1     -34.046   7.496   4.432  1.00 20.00     0.017 A 
HETATM    5  C4  UNL     1     -34.826   6.341   3.872  1.00 20.00    -0.007 A 
HETATM    6  C5  UNL     1     -34.304   4.951   4.009  1.00 20.00     0.011 C 
ENDBRANCH   1   3
BRANCH   1   7
HETATM    7  C8  UNL     1     -32.026   8.114   1.876  1.00 20.00     0.082 C 
BRANCH   7   8
HETATM    8  C9  UNL     1     -32.278   8.889   0.573  1.00 20.00    -0.016 C 
HETATM    9  C6  UNL     1     -31.037   8.898  -0.321  1.00 20.00     0.010 C 
HETATM   10  C7  UNL     1     -32.695  10.327   0.891  1.00 20.00     0.010 C 
ENDBRANCH   7   8
ENDBRANCH   1   7
TORSDOF 3
ENDMDL
MODEL 2
REMARK VINA RESULT:      -1.7      1.252      4.585
REMARK  3 active torsions:
REMARK  status: ('A' for Active; 'I' for Inactive)
REMARK    1  A    between atoms: C1_1  and  C3_3 
REMARK    2  A    between atoms: C1_1  and  C8_8 
REMARK    3  A    between atoms: C8_8  and  C9_9 
ROOT
HETATM    1  C1  UNL     1     -32.125   7.915   2.062  1.00 20.00     0.131 C 
HETATM    2  O10 UNL     1     -31.366   8.549   2.795  1.00 20.00    -0.298 OA
ENDROOT
BRANCH   1   3
HETATM    3  C3  UNL     1     -32.169   8.180   0.580  1.00 20.00     0.059 A 
HETATM    4  C2  UNL     1     -31.103   9.036  -0.011  1.00 20.00     0.017 A 
HETATM    5  C4  UNL     1     -32.514   9.541   0.083  1.00 20.00    -0.007 A 
HETATM    6  C5  UNL     1     -32.839  10.686   0.982  1.00 20.00     0.011 C 
ENDBRANCH   1   3
BRANCH   1   7
HETATM    7  C8  UNL     1     -33.091   6.863   2.584  1.00 20.00     0.082 C 
BRANCH   7   8
HETATM    8  C9  UNL     1     -34.161   7.421   3.534  1.00 20.00    -0.016 C 
HETATM    9  C6  UNL     1     -33.536   7.981   4.813  1.00 20.00     0.010 C 
HETATM   10  C7  UNL     1     -35.169   6.325   3.890  1.00 20.00     0.010 C 
ENDBRANCH   7   8
ENDBRANCH   1   7
TORSDOF 3
ENDMDL
MODEL 3
REMARK VINA RESULT:      -1.5      1.023      4.220
REMARK  3 active torsions:
REMARK  status: ('A' for Active; 'I' for Inactive)
REMARK    1  A    between atoms: C1_1  and  C3_3 
REMARK    2  A    between atoms: C1_1  and  C8_8 
REMARK    3  A    between atoms: C8_8  and  C9_9 
ROOT
HETATM    1  C1  UNL     1     -32.903   6.431   1.564  1.00 20.00     0.131 C 
HETATM    2  O10 UNL     1     -33.545   6.167   0.548  1.00 20.00    -0.298 OA
ENDROOT
BRANCH   1   3
HETATM    3  C3  UNL     1     -31.608   7.198   1.483  1.00 20.00     0.059 A 
HETATM    4  C2  UNL     1     -31.402   8.327   2.433  1.00 20.00     0.017 A 
HETATM    5  C4  UNL     1     -31.609   8.597   0.970  1.00 20.00    -0.007 A 
HETATM    6  C5  UNL     1     -32.839   9.302   0.508  1.00 20.00     0.011 C 
ENDBRANCH   1   3
BRANCH   1   7
HETATM    7  C8  UNL     1     -33.328   5.980   2.952  1.00 20.00     0.082 C 
BRANCH   7   8
HETATM    8  C9  UNL     1     -34.497   6.788   3.536  1.00 20.00    -0.016 C 
HETATM    9  C6  UNL     1     -34.003   7.864   4.506  1.00 20.00     0.010 C 
HETATM   10  C7  UNL     1     -35.472   5.854   4.257  1.00 20.00     0.010 C 
ENDBRANCH   7   8
ENDBRANCH   1   7
TORSDOF 3
ENDMDL
MODEL 4
REMARK VINA RESULT:      -1.5      0.945      4.217
REMARK  3 active torsions:
REMARK  status: ('A' for Active; 'I' for Inactive)
REMARK    1  A    between atoms: C1_1  and  C3_3 
REMARK    2  A    between atoms: C1_1  and  C8_8 
REMARK    3  A    between atoms: C8_8  and  C9_9 
ROOT
HETATM    1  C1  UNL     1     -32.789   6.638   1.694  1.00 20.00     0.131 C 
HETATM    2  O10 UNL     1     -32.893   5.527   1.177  1.00 20.00    -0.298 OA
ENDROOT
BRANCH   1   3
HETATM    3  C3  UNL     1     -31.497   7.410   1.617  1.00 20.00     0.059 A 
HETATM    4  C2  UNL     1     -31.376   8.655   2.426  1.00 20.00     0.017 A 
HETATM    5  C4  UNL     1     -31.466   8.731   0.928  1.00 20.00    -0.007 A 
HETATM    6  C5  UNL     1     -32.660   9.350   0.284  1.00 20.00     0.011 C 
ENDBRANCH   1   3
BRANCH   1   7
HETATM    7  C8  UNL     1     -33.917   7.296   2.474  1.00 20.00     0.082 C 
BRANCH   7   8
HETATM    8  C9  UNL     1     -34.071   6.764   3.907  1.00 20.00    -0.016 C 
HETATM    9  C6  UNL     1     -35.431   6.091   4.110  1.00 20.00     0.010 C 
HETATM   10  C7  UNL     1     -33.908   7.908   4.910  1.00 20.00     0.010 C 
ENDBRANCH   7   8
ENDBRANCH   1   7
TORSDOF 3
ENDMDL
MODEL 5
REMARK VINA RESULT:      -1.4      1.614      2.114
REMARK  3 active torsions:
REMARK  status: ('A' for Active; 'I' for Inactive)
REMARK    1  A    between atoms: C1_1  and  C3_3 
REMARK    2  A    between atoms: C1_1  and  C8_8 
REMARK    3  A    between atoms: C8_8  and  C9_9 
ROOT
HETATM    1  C1  UNL     1     -33.486   7.651   4.035  1.00 20.00     0.131 C 
HETATM    2  O10 UNL     1     -33.536   7.964   5.224  1.00 20.00    -0.298 OA
ENDROOT
BRANCH   1   3
HETATM    3  C3  UNL     1     -34.595   6.854   3.399  1.00 20.00     0.059 A 
HETATM    4  C2  UNL     1     -35.540   6.129   4.293  1.00 20.00     0.017 A 
HETATM    5  C4  UNL     1     -34.559   5.365   3.451  1.00 20.00    -0.007 A 
HETATM    6  C5  UNL     1     -33.461   4.593   4.101  1.00 20.00     0.011 C 
ENDBRANCH   1   3
BRANCH   1   7
HETATM    7  C8  UNL     1     -32.309   7.996   3.137  1.00 20.00     0.082 C 
BRANCH   7   8
HETATM    8  C9  UNL     1     -32.559   7.708   1.649  1.00 20.00    -0.016 C 
HETATM    9  C6  UNL     1     -31.886   6.406   1.211  1.00 20.00     0.010 C 
HETATM   10  C7  UNL     1     -32.039   8.868   0.797  1.00 20.00     0.010 C 
ENDBRANCH   7   8
ENDBRANCH   1   7
TORSDOF 3
ENDMDL
MODEL 6
REMARK VINA RESULT:      -1.3      1.421      4.537
REMARK  3 active torsions:
REMARK  status: ('A' for Active; 'I' for Inactive)
REMARK    1  A    between atoms: C1_1  and  C3_3 
REMARK    2  A    between atoms: C1_1  and  C8_8 
REMARK    3  A    between atoms: C8_8  and  C9_9 
ROOT
HETATM    1  C1  UNL     1     -32.307   8.246   2.365  1.00 20.00     0.131 C 
HETATM    2  O10 UNL     1     -31.302   8.505   3.025  1.00 20.00    -0.298 OA
ENDROOT
BRANCH   1   3
HETATM    3  C3  UNL     1     -32.265   8.248   0.858  1.00 20.00     0.059 A 
HETATM    4  C2  UNL     1     -31.112   8.915   0.191  1.00 20.00     0.017 A 
HETATM    5  C4  UNL     1     -32.484   9.521   0.115  1.00 20.00    -0.007 A 
HETATM    6  C5  UNL     1     -32.762  10.825   0.783  1.00 20.00     0.011 C 
ENDBRANCH   1   3
BRANCH   1   7
HETATM    7  C8  UNL     1     -33.659   7.951   2.996  1.00 20.00     0.082 C 
BRANCH   7   8
HETATM    8  C9  UNL     1     -33.811   6.503   3.487  1.00 20.00    -0.016 C 
HETATM    9  C6  UNL     1     -33.448   5.500   2.390  1.00 20.00     0.010 C 
HETATM   10  C7  UNL     1     -35.247   6.257   3.955  1.00 20.00     0.010 C 
ENDBRANCH   7   8
ENDBRANCH   1   7
TORSDOF 3
ENDMDL
MODEL 7
REMARK VINA RESULT:      -1.1      0.542      1.158
REMARK  3 active torsions:
REMARK  status: ('A' for Active; 'I' for Inactive)
REMARK    1  A    between atoms: C1_1  and  C3_3 
REMARK    2  A    between atoms: C1_1  and  C8_8 
REMARK    3  A    between atoms: C8_8  and  C9_9 
ROOT
HETATM    1  C1  UNL     1     -32.885   7.172   2.058  1.00 20.00     0.131 C 
HETATM    2  O10 UNL     1     -32.860   6.079   1.495  1.00 20.00    -0.298 OA
ENDROOT
BRANCH   1   3
HETATM    3  C3  UNL     1     -34.070   7.586   2.892  1.00 20.00     0.059 A 
HETATM    4  C2  UNL     1     -33.891   7.678   4.367  1.00 20.00     0.017 A 
HETATM    5  C4  UNL     1     -34.736   6.587   3.774  1.00 20.00    -0.007 A 
HETATM    6  C5  UNL     1     -34.302   5.165   3.881  1.00 20.00     0.011 C 
ENDBRANCH   1   3
BRANCH   1   7
HETATM    7  C8  UNL     1     -31.767   8.195   1.930  1.00 20.00     0.082 C 
BRANCH   7   8
HETATM    8  C9  UNL     1     -31.959   9.181   0.767  1.00 20.00    -0.016 C 
HETATM    9  C6  UNL     1     -32.782  10.398   1.196  1.00 20.00     0.010 C 
HETATM   10  C7  UNL     1     -32.649   8.480  -0.405  1.00 20.00     0.010 C 
ENDBRANCH   7   8
ENDBRANCH   1   7
TORSDOF 3
ENDMDL
MODEL 8
REMARK VINA RESULT:      -0.9      1.457      2.168
REMARK  3 active torsions:
REMARK  status: ('A' for Active; 'I' for Inactive)
REMARK    1  A    between atoms: C1_1  and  C3_3 
REMARK    2  A    between atoms: C1_1  and  C8_8 
REMARK    3  A    between atoms: C8_8  and  C9_9 
ROOT
HETATM    1  C1  UNL     1     -31.910   7.897   2.101  1.00 20.00     0.131 C 
HETATM    2  O10 UNL     1     -31.937   8.393   3.226  1.00 20.00    -0.298 OA
ENDROOT
BRANCH   1   3
HETATM    3  C3  UNL     1     -32.141   6.421   1.901  1.00 20.00     0.059 A 
HETATM    4  C2  UNL     1     -33.297   6.000   1.060  1.00 20.00     0.017 A 
HETATM    5  C4  UNL     1     -33.314   5.764   2.543  1.00 20.00    -0.007 A 
HETATM    6  C5  UNL     1     -34.294   6.488   3.403  1.00 20.00     0.011 C 
ENDBRANCH   1   3
BRANCH   1   7
HETATM    7  C8  UNL     1     -31.606   8.702   0.848  1.00 20.00     0.082 C 
BRANCH   7   8
HETATM    8  C9  UNL     1     -32.724   9.678   0.451  1.00 20.00    -0.016 C 
HETATM    9  C6  UNL     1     -32.781   9.876  -1.065  1.00 20.00     0.010 C 
HETATM   10  C7  UNL     1     -32.510  11.028   1.139  1.00 20.00     0.010 C 
ENDBRANCH   7   8
ENDBRANCH   1   7
TORSDOF 3
ENDMDL
MODEL 9
REMARK VINA RESULT:      -0.8      1.720      4.545
REMARK  3 active torsions:
REMARK  status: ('A' for Active; 'I' for Inactive)
REMARK    1  A    between atoms: C1_1  and  C3_3 
REMARK    2  A    between atoms: C1_1  and  C8_8 
REMARK    3  A    between atoms: C8_8  and  C9_9 
ROOT
HETATM    1  C1  UNL     1     -33.436   7.408   3.487  1.00 20.00     0.131 C 
HETATM    2  O10 UNL     1     -34.004   8.066   4.358  1.00 20.00    -0.298 OA
ENDROOT
BRANCH   1   3
HETATM    3  C3  UNL     1     -32.279   7.985   2.713  1.00 20.00     0.059 A 
HETATM    4  C2  UNL     1     -32.521   8.418   1.309  1.00 20.00     0.017 A 
HETATM    5  C4  UNL     1     -31.678   7.208   1.593  1.00 20.00    -0.007 A 
HETATM    6  C5  UNL     1     -32.153   5.855   1.185  1.00 20.00     0.011 C 
ENDBRANCH   1   3
BRANCH   1   7
HETATM    7  C8  UNL     1     -33.870   6.005   3.095  1.00 20.00     0.082 C 
BRANCH   7   8
HETATM    8  C9  UNL     1     -34.158   5.087   4.292  1.00 20.00    -0.016 C 
HETATM    9  C6  UNL     1     -33.698   3.653   4.021  1.00 20.00     0.010 C 
HETATM   10  C7  UNL     1     -35.656   5.096   4.611  1.00 20.00     0.010 C 
ENDBRANCH   7   8
ENDBRANCH   1   7
TORSDOF 3
ENDMDL
