MODEL 1
REMARK VINA RESULT:      -0.3      0.000      0.000
REMARK  2 active torsions:
REMARK  status: ('A' for Active; 'I' for Inactive)
REMARK    1  A    between atoms: C1_1  and  C3_3 
REMARK    2  A    between atoms: C1_1  and  C9_9 
ROOT
HETATM    1  C1  UNL     1     -33.493   5.615   2.751  1.00 20.00     0.139 C 
HETATM    2  O10 UNL     1     -33.174   4.692   3.503  1.00 20.00    -0.297 OA
ENDROOT
BRANCH   1   3
HETATM    3  C3  UNL     1     -34.706   6.455   3.072  1.00 20.00     0.060 A 
HETATM    4  C2  UNL     1     -35.365   6.254   4.390  1.00 20.00     0.017 A 
HETATM    5  C4  UNL     1     -34.608   7.520   4.106  1.00 20.00    -0.007 A 
HETATM    6  C5  UNL     1     -33.358   7.826   4.859  1.00 20.00     0.011 C 
ENDBRANCH   1   3
BRANCH   1   7
HETATM    7  C9  UNL     1     -32.671   5.962   1.494  1.00 20.00     0.010 C 
HETATM    8  C6  UNL     1     -31.562   4.917   1.323  1.00 20.00     0.022 C 
HETATM    9  C7  UNL     1     -32.063   7.365   1.612  1.00 20.00     0.022 C 
HETATM   10  C8  UNL     1     -33.587   5.929   0.258  1.00 20.00     0.022 C 
ENDBRANCH   1   7
TORSDOF 2
ENDMDL
MODEL 2
REMARK VINA RESULT:      -0.3      0.020      1.372
REMARK  2 active torsions:
REMARK  status: ('A' for Active; 'I' for Inactive)
REMARK    1  A    between atoms: C1_1  and  C3_3 
REMARK    2  A    between atoms: C1_1  and  C9_9 
ROOT
HETATM    1  C1  UNL     1     -33.494   5.611   2.750  1.00 20.00     0.139 C 
HETATM    2  O10 UNL     1     -33.175   4.697   3.512  1.00 20.00    -0.297 OA
ENDROOT
BRANCH   1   3
HETATM    3  C3  UNL     1     -34.704   6.459   3.065  1.00 20.00     0.060 A 
HETATM    4  C2  UNL     1     -35.370   6.262   4.380  1.00 20.00     0.017 A 
HETATM    5  C4  UNL     1     -34.604   7.524   4.100  1.00 20.00    -0.007 A 
HETATM    6  C5  UNL     1     -33.355   7.821   4.859  1.00 20.00     0.011 C 
ENDBRANCH   1   3
BRANCH   1   7
HETATM    7  C9  UNL     1     -32.677   5.939   1.485  1.00 20.00     0.010 C 
HETATM    8  C6  UNL     1     -33.613   5.920   0.271  1.00 20.00     0.022 C 
HETATM    9  C7  UNL     1     -31.541   4.925   1.294  1.00 20.00     0.022 C 
HETATM   10  C8  UNL     1     -32.061   7.343   1.623  1.00 20.00     0.022 C 
ENDBRANCH   1   7
TORSDOF 2
ENDMDL
MODEL 3
REMARK VINA RESULT:      -0.2      0.020      1.371
REMARK  2 active torsions:
REMARK  status: ('A' for Active; 'I' for Inactive)
REMARK    1  A    between atoms: C1_1  and  C3_3 
REMARK    2  A    between atoms: C1_1  and  C9_9 
ROOT
HETATM    1  C1  UNL     1     -33.495   5.618   2.753  1.00 20.00     0.139 C 
HETATM    2  O10 UNL     1     -33.160   4.707   3.513  1.00 20.00    -0.297 OA
ENDROOT
BRANCH   1   3
HETATM    3  C3  UNL     1     -34.709   6.454   3.079  1.00 20.00     0.060 A 
HETATM    4  C2  UNL     1     -35.361   6.252   4.400  1.00 20.00     0.017 A 
HETATM    5  C4  UNL     1     -34.610   7.520   4.112  1.00 20.00    -0.007 A 
HETATM    6  C5  UNL     1     -33.357   7.830   4.859  1.00 20.00     0.011 C 
ENDBRANCH   1   3
BRANCH   1   7
HETATM    7  C9  UNL     1     -32.693   5.952   1.481  1.00 20.00     0.010 C 
HETATM    8  C6  UNL     1     -32.072   7.345   1.638  1.00 20.00     0.022 C 
HETATM    9  C7  UNL     1     -33.597   5.912   0.242  1.00 20.00     0.022 C 
HETATM   10  C8  UNL     1     -31.567   4.919   1.298  1.00 20.00     0.022 C 
ENDBRANCH   1   7
TORSDOF 2
ENDMDL
MODEL 4
REMARK VINA RESULT:       0.1      1.628      2.483
REMARK  2 active torsions:
REMARK  status: ('A' for Active; 'I' for Inactive)
REMARK    1  A    between atoms: C1_1  and  C3_3 
REMARK    2  A    between atoms: C1_1  and  C9_9 
ROOT
HETATM    1  C1  UNL     1     -33.250   6.872   2.358  1.00 20.00     0.139 C 
HETATM    2  O10 UNL     1     -33.360   5.886   1.627  1.00 20.00    -0.297 OA
ENDROOT
BRANCH   1   3
HETATM    3  C3  UNL     1     -34.135   7.002   3.576  1.00 20.00     0.060 A 
HETATM    4  C2  UNL     1     -35.541   6.528   3.470  1.00 20.00     0.017 A 
HETATM    5  C4  UNL     1     -34.550   5.779   4.314  1.00 20.00    -0.007 A 
HETATM    6  C5  UNL     1     -34.133   4.401   3.928  1.00 20.00     0.011 C 
ENDBRANCH   1   3
BRANCH   1   7
HETATM    7  C9  UNL     1     -32.211   7.977   2.084  1.00 20.00     0.010 C 
HETATM    8  C6  UNL     1     -31.825   8.635   3.414  1.00 20.00     0.022 C 
HETATM    9  C7  UNL     1     -32.776   9.027   1.119  1.00 20.00     0.022 C 
HETATM   10  C8  UNL     1     -30.956   7.353   1.449  1.00 20.00     0.022 C 
ENDBRANCH   1   7
TORSDOF 2
ENDMDL
MODEL 5
REMARK VINA RESULT:       0.1      1.609      2.254
REMARK  2 active torsions:
REMARK  status: ('A' for Active; 'I' for Inactive)
REMARK    1  A    between atoms: C1_1  and  C3_3 
REMARK    2  A    between atoms: C1_1  and  C9_9 
ROOT
HETATM    1  C1  UNL     1     -33.252   6.848   2.366  1.00 20.00     0.139 C 
HETATM    2  O10 UNL     1     -33.373   5.863   1.635  1.00 20.00    -0.297 OA
ENDROOT
BRANCH   1   3
HETATM    3  C3  UNL     1     -34.145   6.996   3.576  1.00 20.00     0.060 A 
HETATM    4  C2  UNL     1     -35.551   6.527   3.466  1.00 20.00     0.017 A 
HETATM    5  C4  UNL     1     -34.570   5.783   4.326  1.00 20.00    -0.007 A 
HETATM    6  C5  UNL     1     -34.155   4.399   3.957  1.00 20.00     0.011 C 
ENDBRANCH   1   3
BRANCH   1   7
HETATM    7  C9  UNL     1     -32.192   7.934   2.099  1.00 20.00     0.010 C 
HETATM    8  C6  UNL     1     -30.962   7.280   1.460  1.00 20.00     0.022 C 
HETATM    9  C7  UNL     1     -31.798   8.642   3.402  1.00 20.00     0.022 C 
HETATM   10  C8  UNL     1     -32.765   8.982   1.128  1.00 20.00     0.022 C 
ENDBRANCH   1   7
TORSDOF 2
ENDMDL
MODEL 6
REMARK VINA RESULT:       0.2      1.641      3.771
REMARK  2 active torsions:
REMARK  status: ('A' for Active; 'I' for Inactive)
REMARK    1  A    between atoms: C1_1  and  C3_3 
REMARK    2  A    between atoms: C1_1  and  C9_9 
ROOT
HETATM    1  C1  UNL     1     -33.271   6.744   2.414  1.00 20.00     0.139 C 
HETATM    2  O10 UNL     1     -33.300   6.035   1.406  1.00 20.00    -0.297 OA
ENDROOT
BRANCH   1   3
HETATM    3  C3  UNL     1     -32.199   7.799   2.554  1.00 20.00     0.060 A 
HETATM    4  C2  UNL     1     -31.044   7.748   1.620  1.00 20.00     0.017 A 
HETATM    5  C4  UNL     1     -32.060   8.848   1.509  1.00 20.00    -0.007 A 
HETATM    6  C5  UNL     1     -32.937   8.934   0.306  1.00 20.00     0.011 C 
ENDBRANCH   1   3
BRANCH   1   7
HETATM    7  C9  UNL     1     -34.319   6.608   3.535  1.00 20.00     0.010 C 
HETATM    8  C6  UNL     1     -33.984   7.606   4.650  1.00 20.00     0.022 C 
HETATM    9  C7  UNL     1     -34.338   5.179   4.091  1.00 20.00     0.022 C 
HETATM   10  C8  UNL     1     -35.715   6.933   2.974  1.00 20.00     0.022 C 
ENDBRANCH   1   7
TORSDOF 2
ENDMDL
MODEL 7
REMARK VINA RESULT:       0.2      1.620      2.628
REMARK  2 active torsions:
REMARK  status: ('A' for Active; 'I' for Inactive)
REMARK    1  A    between atoms: C1_1  and  C3_3 
REMARK    2  A    between atoms: C1_1  and  C9_9 
ROOT
HETATM    1  C1  UNL     1     -33.249   6.861   2.386  1.00 20.00     0.139 C 
HETATM    2  O10 UNL     1     -33.342   5.857   1.678  1.00 20.00    -0.297 OA
ENDROOT
BRANCH   1   3
HETATM    3  C3  UNL     1     -34.159   7.021   3.580  1.00 20.00     0.060 A 
HETATM    4  C2  UNL     1     -35.566   6.556   3.451  1.00 20.00     0.017 A 
HETATM    5  C4  UNL     1     -34.600   5.816   4.332  1.00 20.00    -0.007 A 
HETATM    6  C5  UNL     1     -34.185   4.427   3.982  1.00 20.00     0.011 C 
ENDBRANCH   1   3
BRANCH   1   7
HETATM    7  C9  UNL     1     -32.205   7.960   2.105  1.00 20.00     0.010 C 
HETATM    8  C6  UNL     1     -32.823   9.002   1.165  1.00 20.00     0.022 C 
HETATM    9  C7  UNL     1     -30.941   7.362   1.475  1.00 20.00     0.022 C 
HETATM   10  C8  UNL     1     -31.816   8.646   3.427  1.00 20.00     0.022 C 
ENDBRANCH   1   7
TORSDOF 2
ENDMDL
MODEL 8
REMARK VINA RESULT:       0.2      1.643      3.771
REMARK  2 active torsions:
REMARK  status: ('A' for Active; 'I' for Inactive)
REMARK    1  A    between atoms: C1_1  and  C3_3 
REMARK    2  A    between atoms: C1_1  and  C9_9 
ROOT
HETATM    1  C1  UNL     1     -33.270   6.752   2.393  1.00 20.00     0.139 C 
HETATM    2  O10 UNL     1     -33.321   6.048   1.383  1.00 20.00    -0.297 OA
ENDROOT
BRANCH   1   3
HETATM    3  C3  UNL     1     -32.175   7.784   2.530  1.00 20.00     0.060 A 
HETATM    4  C2  UNL     1     -31.052   7.742   1.557  1.00 20.00     0.017 A 
HETATM    5  C4  UNL     1     -32.052   8.861   1.511  1.00 20.00    -0.007 A 
HETATM    6  C5  UNL     1     -32.965   8.998   0.340  1.00 20.00     0.011 C 
ENDBRANCH   1   3
BRANCH   1   7
HETATM    7  C9  UNL     1     -34.311   6.632   3.523  1.00 20.00     0.010 C 
HETATM    8  C6  UNL     1     -34.275   5.204   4.080  1.00 20.00     0.022 C 
HETATM    9  C7  UNL     1     -35.716   6.963   3.004  1.00 20.00     0.022 C 
HETATM   10  C8  UNL     1     -33.960   7.619   4.650  1.00 20.00     0.022 C 
ENDBRANCH   1   7
TORSDOF 2
ENDMDL
MODEL 9
REMARK VINA RESULT:       0.9      0.797      3.781
REMARK  2 active torsions:
REMARK  status: ('A' for Active; 'I' for Inactive)
REMARK    1  A    between atoms: C1_1  and  C3_3 
REMARK    2  A    between atoms: C1_1  and  C9_9 
ROOT
HETATM    1  C1  UNL     1     -33.736   5.856   2.915  1.00 20.00     0.139 C 
HETATM    2  O10 UNL     1     -33.278   4.722   3.071  1.00 20.00    -0.297 OA
ENDROOT
BRANCH   1   3
HETATM    3  C3  UNL     1     -33.249   6.707   1.766  1.00 20.00     0.060 A 
HETATM    4  C2  UNL     1     -31.907   7.336   1.884  1.00 20.00     0.017 A 
HETATM    5  C4  UNL     1     -32.137   6.216   0.909  1.00 20.00    -0.007 A 
HETATM    6  C5  UNL     1     -31.460   4.903   1.110  1.00 20.00     0.011 C 
ENDBRANCH   1   3
BRANCH   1   7
HETATM    7  C9  UNL     1     -34.818   6.431   3.849  1.00 20.00     0.010 C 
HETATM    8  C6  UNL     1     -34.206   7.567   4.677  1.00 20.00     0.022 C 
HETATM    9  C7  UNL     1     -35.374   5.341   4.774  1.00 20.00     0.022 C 
HETATM   10  C8  UNL     1     -35.976   6.993   3.005  1.00 20.00     0.022 C 
ENDBRANCH   1   7
TORSDOF 2
ENDMDL
