MODEL 1
REMARK VINA RESULT:      -2.3      0.000      0.000
REMARK  4 active torsions:
REMARK  status: ('A' for Active; 'I' for Inactive)
REMARK    1  A    between atoms: C5_5  and  C7_7 
REMARK    2  A    between atoms: C6_6  and  C7_7 
REMARK    3  A    between atoms: C6_6  and  C8_8 
REMARK    4  A    between atoms: C8_8  and  N9_9 
ROOT
HETATM    1  C1  UNL     1     -32.085   8.623   1.059  1.00 20.00     0.158 C 
HETATM    2  N9  UNL     1     -31.765   7.666   1.658  1.00 20.00    -0.271 NA
HETATM    3  S10 UNL     1     -32.491   9.936   0.254  1.00 20.00    -0.055 SA
ENDROOT
BRANCH   2   4
HETATM    4  C8  UNL     1     -32.720   6.555   1.597  1.00 20.00     0.106 C 
HETATM    5  C4  UNL     1     -32.026   5.378   0.919  1.00 20.00     0.034 C 
BRANCH   4   6
HETATM    6  C6  UNL     1     -33.164   6.186   3.020  1.00 20.00     0.031 C 
BRANCH   6   7
HETATM    7  C7  UNL     1     -34.313   7.048   3.594  1.00 20.00    -0.017 C 
HETATM    8  C3  UNL     1     -33.818   8.007   4.683  1.00 20.00     0.010 C 
BRANCH   7   9
HETATM    9  C5  UNL     1     -35.444   6.173   4.176  1.00 20.00    -0.000 C 
HETATM   10  C2  UNL     1     -35.012   4.754   4.518  1.00 20.00     0.005 C 
ENDBRANCH   7   9
ENDBRANCH   6   7
ENDBRANCH   4   6
ENDBRANCH   2   4
TORSDOF 4
ENDMDL
MODEL 2
REMARK VINA RESULT:      -2.0      0.873      1.341
REMARK  4 active torsions:
REMARK  status: ('A' for Active; 'I' for Inactive)
REMARK    1  A    between atoms: C5_5  and  C7_7 
REMARK    2  A    between atoms: C6_6  and  C7_7 
REMARK    3  A    between atoms: C6_6  and  C8_8 
REMARK    4  A    between atoms: C8_8  and  N9_9 
ROOT
HETATM    1  C1  UNL     1     -32.134   8.719   1.093  1.00 20.00     0.158 C 
HETATM    2  N9  UNL     1     -31.858   7.832   1.811  1.00 20.00    -0.271 NA
HETATM    3  S10 UNL     1     -32.479   9.936   0.126  1.00 20.00    -0.055 SA
ENDROOT
BRANCH   2   4
HETATM    4  C8  UNL     1     -32.839   6.743   1.846  1.00 20.00     0.106 C 
HETATM    5  C4  UNL     1     -32.206   5.522   1.188  1.00 20.00     0.034 C 
BRANCH   4   6
HETATM    6  C6  UNL     1     -33.219   6.446   3.304  1.00 20.00     0.031 C 
BRANCH   6   7
HETATM    7  C7  UNL     1     -34.500   5.600   3.491  1.00 20.00    -0.017 C 
HETATM    8  C3  UNL     1     -35.708   6.467   3.864  1.00 20.00     0.010 C 
BRANCH   7   9
HETATM    9  C5  UNL     1     -34.312   4.514   4.571  1.00 20.00    -0.000 C 
HETATM   10  C2  UNL     1     -33.466   3.332   4.117  1.00 20.00     0.005 C 
ENDBRANCH   7   9
ENDBRANCH   6   7
ENDBRANCH   4   6
ENDBRANCH   2   4
TORSDOF 4
ENDMDL
MODEL 3
REMARK VINA RESULT:      -1.6      3.142      5.001
REMARK  4 active torsions:
REMARK  status: ('A' for Active; 'I' for Inactive)
REMARK    1  A    between atoms: C5_5  and  C7_7 
REMARK    2  A    between atoms: C6_6  and  C7_7 
REMARK    3  A    between atoms: C6_6  and  C8_8 
REMARK    4  A    between atoms: C8_8  and  N9_9 
ROOT
HETATM    1  C1  UNL     1     -34.241   4.121   4.477  1.00 20.00     0.158 C 
HETATM    2  N9  UNL     1     -35.005   5.004   4.359  1.00 20.00    -0.271 NA
HETATM    3  S10 UNL     1     -33.225   2.907   4.657  1.00 20.00    -0.055 SA
ENDROOT
BRANCH   2   4
HETATM    4  C8  UNL     1     -34.557   6.090   3.481  1.00 20.00     0.106 C 
HETATM    5  C4  UNL     1     -34.601   7.387   4.283  1.00 20.00     0.034 C 
BRANCH   4   6
HETATM    6  C6  UNL     1     -33.132   5.795   2.991  1.00 20.00     0.031 C 
BRANCH   6   7
HETATM    7  C7  UNL     1     -32.768   6.412   1.622  1.00 20.00    -0.017 C 
HETATM    8  C3  UNL     1     -32.070   5.399   0.706  1.00 20.00     0.010 C 
BRANCH   7   9
HETATM    9  C5  UNL     1     -31.859   7.650   1.779  1.00 20.00    -0.000 C 
HETATM   10  C2  UNL     1     -32.293   8.845   0.941  1.00 20.00     0.005 C 
ENDBRANCH   7   9
ENDBRANCH   6   7
ENDBRANCH   4   6
ENDBRANCH   2   4
TORSDOF 4
ENDMDL
MODEL 4
REMARK VINA RESULT:      -1.3      0.690      1.770
REMARK  4 active torsions:
REMARK  status: ('A' for Active; 'I' for Inactive)
REMARK    1  A    between atoms: C5_5  and  C7_7 
REMARK    2  A    between atoms: C6_6  and  C7_7 
REMARK    3  A    between atoms: C6_6  and  C8_8 
REMARK    4  A    between atoms: C8_8  and  N9_9 
ROOT
HETATM    1  C1  UNL     1     -32.176   8.486   1.169  1.00 20.00     0.158 C 
HETATM    2  N9  UNL     1     -31.977   7.513   1.795  1.00 20.00    -0.271 NA
HETATM    3  S10 UNL     1     -32.429   9.822   0.341  1.00 20.00    -0.055 SA
ENDROOT
BRANCH   2   4
HETATM    4  C8  UNL     1     -32.513   6.282   1.206  1.00 20.00     0.106 C 
HETATM    5  C4  UNL     1     -31.476   5.180   1.402  1.00 20.00     0.034 C 
BRANCH   4   6
HETATM    6  C6  UNL     1     -33.836   5.921   1.895  1.00 20.00     0.031 C 
BRANCH   6   7
HETATM    7  C7  UNL     1     -33.774   5.844   3.438  1.00 20.00    -0.017 C 
HETATM    8  C3  UNL     1     -34.233   4.477   3.961  1.00 20.00     0.010 C 
BRANCH   7   9
HETATM    9  C5  UNL     1     -34.632   6.944   4.098  1.00 20.00    -0.000 C 
HETATM   10  C2  UNL     1     -33.818   8.054   4.749  1.00 20.00     0.005 C 
ENDBRANCH   7   9
ENDBRANCH   6   7
ENDBRANCH   4   6
ENDBRANCH   2   4
TORSDOF 4
ENDMDL
MODEL 5
REMARK VINA RESULT:      -0.8      2.865      4.453
REMARK  4 active torsions:
REMARK  status: ('A' for Active; 'I' for Inactive)
REMARK    1  A    between atoms: C5_5  and  C7_7 
REMARK    2  A    between atoms: C6_6  and  C7_7 
REMARK    3  A    between atoms: C6_6  and  C8_8 
REMARK    4  A    between atoms: C8_8  and  N9_9 
ROOT
HETATM    1  C1  UNL     1     -34.635   5.174   4.232  1.00 20.00     0.158 C 
HETATM    2  N9  UNL     1     -35.255   6.170   4.191  1.00 20.00    -0.271 NA
HETATM    3  S10 UNL     1     -33.820   3.808   4.299  1.00 20.00    -0.055 SA
ENDROOT
BRANCH   2   4
HETATM    4  C8  UNL     1     -34.518   7.332   3.684  1.00 20.00     0.106 C 
HETATM    5  C4  UNL     1     -33.459   7.702   4.718  1.00 20.00     0.034 C 
BRANCH   4   6
HETATM    6  C6  UNL     1     -33.871   6.978   2.338  1.00 20.00     0.031 C 
BRANCH   6   7
HETATM    7  C7  UNL     1     -32.414   7.463   2.160  1.00 20.00    -0.017 C 
HETATM    8  C3  UNL     1     -32.338   8.756   1.339  1.00 20.00     0.010 C 
BRANCH   7   9
HETATM    9  C5  UNL     1     -31.535   6.390   1.484  1.00 20.00    -0.000 C 
HETATM   10  C2  UNL     1     -32.297   5.135   1.079  1.00 20.00     0.005 C 
ENDBRANCH   7   9
ENDBRANCH   6   7
ENDBRANCH   4   6
ENDBRANCH   2   4
TORSDOF 4
ENDMDL
MODEL 6
REMARK VINA RESULT:      -0.7      1.328      2.013
REMARK  4 active torsions:
REMARK  status: ('A' for Active; 'I' for Inactive)
REMARK    1  A    between atoms: C5_5  and  C7_7 
REMARK    2  A    between atoms: C6_6  and  C7_7 
REMARK    3  A    between atoms: C6_6  and  C8_8 
REMARK    4  A    between atoms: C8_8  and  N9_9 
ROOT
HETATM    1  C1  UNL     1     -32.253   8.709   0.994  1.00 20.00     0.158 C 
HETATM    2  N9  UNL     1     -32.037   7.659   1.471  1.00 20.00    -0.271 NA
HETATM    3  S10 UNL     1     -32.537  10.122   0.317  1.00 20.00    -0.055 SA
ENDROOT
BRANCH   2   4
HETATM    4  C8  UNL     1     -32.309   7.571   2.910  1.00 20.00     0.106 C 
HETATM    5  C4  UNL     1     -31.672   8.784   3.581  1.00 20.00     0.034 C 
BRANCH   4   6
HETATM    6  C6  UNL     1     -33.826   7.547   3.141  1.00 20.00     0.031 C 
BRANCH   6   7
HETATM    7  C7  UNL     1     -34.462   6.139   3.190  1.00 20.00    -0.017 C 
HETATM    8  C3  UNL     1     -35.476   6.010   4.333  1.00 20.00     0.010 C 
BRANCH   7   9
HETATM    9  C5  UNL     1     -33.393   5.037   3.346  1.00 20.00    -0.000 C 
HETATM   10  C2  UNL     1     -33.824   3.881   4.239  1.00 20.00     0.005 C 
ENDBRANCH   7   9
ENDBRANCH   6   7
ENDBRANCH   4   6
ENDBRANCH   2   4
TORSDOF 4
ENDMDL
MODEL 7
REMARK VINA RESULT:      -0.4      3.165      4.603
REMARK  4 active torsions:
REMARK  status: ('A' for Active; 'I' for Inactive)
REMARK    1  A    between atoms: C5_5  and  C7_7 
REMARK    2  A    between atoms: C6_6  and  C7_7 
REMARK    3  A    between atoms: C6_6  and  C8_8 
REMARK    4  A    between atoms: C8_8  and  N9_9 
ROOT
HETATM    1  C1  UNL     1     -34.201   4.159   4.465  1.00 20.00     0.158 C 
HETATM    2  N9  UNL     1     -34.971   5.045   4.460  1.00 20.00    -0.271 NA
HETATM    3  S10 UNL     1     -33.171   2.946   4.498  1.00 20.00    -0.055 SA
ENDROOT
BRANCH   2   4
HETATM    4  C8  UNL     1     -34.816   5.988   3.348  1.00 20.00     0.106 C 
HETATM    5  C4  UNL     1     -36.100   6.805   3.245  1.00 20.00     0.034 C 
BRANCH   4   6
HETATM    6  C6  UNL     1     -33.607   6.896   3.615  1.00 20.00     0.031 C 
BRANCH   6   7
HETATM    7  C7  UNL     1     -32.526   6.894   2.509  1.00 20.00    -0.017 C 
HETATM    8  C3  UNL     1     -32.281   8.299   1.948  1.00 20.00     0.010 C 
BRANCH   7   9
HETATM    9  C5  UNL     1     -32.904   5.952   1.347  1.00 20.00    -0.000 C 
HETATM   10  C2  UNL     1     -31.866   4.874   1.064  1.00 20.00     0.005 C 
ENDBRANCH   7   9
ENDBRANCH   6   7
ENDBRANCH   4   6
ENDBRANCH   2   4
TORSDOF 4
ENDMDL
MODEL 8
REMARK VINA RESULT:      -0.3      1.125      1.971
REMARK  4 active torsions:
REMARK  status: ('A' for Active; 'I' for Inactive)
REMARK    1  A    between atoms: C5_5  and  C7_7 
REMARK    2  A    between atoms: C6_6  and  C7_7 
REMARK    3  A    between atoms: C6_6  and  C8_8 
REMARK    4  A    between atoms: C8_8  and  N9_9 
ROOT
HETATM    1  C1  UNL     1     -32.122   9.251   0.392  1.00 20.00     0.158 C 
HETATM    2  N9  UNL     1     -31.604   8.201   0.469  1.00 20.00    -0.271 NA
HETATM    3  S10 UNL     1     -32.816  10.678   0.255  1.00 20.00    -0.055 SA
ENDROOT
BRANCH   2   4
HETATM    4  C8  UNL     1     -31.728   7.550   1.777  1.00 20.00     0.106 C 
HETATM    5  C4  UNL     1     -31.717   8.640   2.845  1.00 20.00     0.034 C 
BRANCH   4   6
HETATM    6  C6  UNL     1     -33.036   6.747   1.825  1.00 20.00     0.031 C 
BRANCH   6   7
HETATM    7  C7  UNL     1     -33.424   6.204   3.219  1.00 20.00    -0.017 C 
HETATM    8  C3  UNL     1     -33.497   4.673   3.237  1.00 20.00     0.010 C 
BRANCH   7   9
HETATM    9  C5  UNL     1     -34.778   6.773   3.695  1.00 20.00    -0.000 C 
HETATM   10  C2  UNL     1     -35.642   5.766   4.442  1.00 20.00     0.005 C 
ENDBRANCH   7   9
ENDBRANCH   6   7
ENDBRANCH   4   6
ENDBRANCH   2   4
TORSDOF 4
ENDMDL
MODEL 9
REMARK VINA RESULT:      -0.2      2.623      4.774
REMARK  4 active torsions:
REMARK  status: ('A' for Active; 'I' for Inactive)
REMARK    1  A    between atoms: C5_5  and  C7_7 
REMARK    2  A    between atoms: C6_6  and  C7_7 
REMARK    3  A    between atoms: C6_6  and  C8_8 
REMARK    4  A    between atoms: C8_8  and  N9_9 
ROOT
HETATM    1  C1  UNL     1     -34.428   6.615   3.784  1.00 20.00     0.158 C 
HETATM    2  N9  UNL     1     -33.732   7.481   3.406  1.00 20.00    -0.271 NA
HETATM    3  S10 UNL     1     -35.394   5.462   4.307  1.00 20.00    -0.055 SA
ENDROOT
BRANCH   2   4
HETATM    4  C8  UNL     1     -32.516   7.036   2.717  1.00 20.00     0.106 C 
HETATM    5  C4  UNL     1     -32.937   6.122   1.571  1.00 20.00     0.034 C 
BRANCH   4   6
HETATM    6  C6  UNL     1     -31.751   8.259   2.193  1.00 20.00     0.031 C 
BRANCH   6   7
HETATM    7  C7  UNL     1     -32.128   8.706   0.762  1.00 20.00    -0.017 C 
HETATM    8  C3  UNL     1     -30.937   8.612  -0.199  1.00 20.00     0.010 C 
BRANCH   7   9
HETATM    9  C5  UNL     1     -32.671  10.151   0.742  1.00 20.00    -0.000 C 
HETATM   10  C2  UNL     1     -33.033  10.655  -0.649  1.00 20.00     0.005 C 
ENDBRANCH   7   9
ENDBRANCH   6   7
ENDBRANCH   4   6
ENDBRANCH   2   4
TORSDOF 4
ENDMDL
