MODEL 1
REMARK VINA RESULT:       0.1      0.000      0.000
REMARK  2 active torsions:
REMARK  status: ('A' for Active; 'I' for Inactive)
REMARK    1  A    between atoms: C2_2  and  C9_9 
REMARK    2  A    between atoms: C9_9  and  N11_11 
ROOT
HETATM    1  C3  UNL     1     -35.480   6.358   3.985  1.00 20.00     0.300 C 
HETATM    2  C4  UNL     1     -34.310   7.226   3.518  1.00 20.00     0.303 C 
HETATM    3  C5  UNL     1     -32.960   5.242   3.250  1.00 20.00     0.308 C 
HETATM    4  C6  UNL     1     -34.142   4.374   3.719  1.00 20.00     0.244 C 
HETATM    5  C7  UNL     1     -33.640   3.121   4.433  1.00 20.00     0.044 C 
HETATM    6  N10 UNL     1     -35.020   5.125   4.626  1.00 20.00     0.091 N 
HETATM    7  N11 UNL     1     -33.439   6.473   2.607  1.00 20.00     0.100 N 
HETATM    8  H29 UNL     1     -34.499   5.368   5.469  1.00 20.00     0.316 HD
ENDROOT
BRANCH   7   9
HETATM    9  C9  UNL     1     -32.317   7.298   2.162  1.00 20.00     0.241 C 
HETATM   10  C8  UNL     1     -31.505   6.574   1.094  1.00 20.00     0.047 C 
BRANCH   9  11
HETATM   11  C2  UNL     1     -32.869   8.594   1.647  1.00 20.00    -0.002 C 
HETATM   12  C1  UNL     1     -32.292   9.319   0.681  1.00 20.00     0.009 C 
ENDBRANCH   9  11
ENDBRANCH   7   9
TORSDOF 2
ENDMDL
MODEL 2
REMARK VINA RESULT:       0.7      1.686      2.190
REMARK  2 active torsions:
REMARK  status: ('A' for Active; 'I' for Inactive)
REMARK    1  A    between atoms: C2_2  and  C9_9 
REMARK    2  A    between atoms: C9_9  and  N11_11 
ROOT
HETATM    1  C3  UNL     1     -33.098   8.638   4.867  1.00 20.00     0.300 C 
HETATM    2  C4  UNL     1     -32.081   8.394   3.751  1.00 20.00     0.303 C 
HETATM    3  C5  UNL     1     -33.589   6.803   2.738  1.00 20.00     0.308 C 
HETATM    4  C6  UNL     1     -34.610   7.055   3.863  1.00 20.00     0.244 C 
HETATM    5  C7  UNL     1     -35.436   5.799   4.132  1.00 20.00     0.044 C 
HETATM    6  N10 UNL     1     -33.937   7.462   5.104  1.00 20.00     0.091 N 
HETATM    7  N11 UNL     1     -32.759   7.994   2.512  1.00 20.00     0.100 N 
HETATM    8  H29 UNL     1     -33.345   6.696   5.428  1.00 20.00     0.316 HD
ENDROOT
BRANCH   7   9
HETATM    9  C9  UNL     1     -31.790   7.756   1.444  1.00 20.00     0.241 C 
HETATM   10  C8  UNL     1     -31.825   6.299   0.997  1.00 20.00     0.047 C 
BRANCH   9  11
HETATM   11  C2  UNL     1     -32.109   8.685   0.310  1.00 20.00    -0.002 C 
HETATM   12  C1  UNL     1     -32.428   9.975   0.470  1.00 20.00     0.009 C 
ENDBRANCH   9  11
ENDBRANCH   7   9
TORSDOF 2
ENDMDL
MODEL 3
REMARK VINA RESULT:       0.8      1.760      2.750
REMARK  2 active torsions:
REMARK  status: ('A' for Active; 'I' for Inactive)
REMARK    1  A    between atoms: C2_2  and  C9_9 
REMARK    2  A    between atoms: C9_9  and  N11_11 
ROOT
HETATM    1  C3  UNL     1     -32.440   5.307   1.748  1.00 20.00     0.300 C 
HETATM    2  C4  UNL     1     -32.036   6.550   0.953  1.00 20.00     0.303 C 
HETATM    3  C5  UNL     1     -33.174   7.940   2.565  1.00 20.00     0.308 C 
HETATM    4  C6  UNL     1     -33.576   6.686   3.362  1.00 20.00     0.244 C 
HETATM    5  C7  UNL     1     -34.909   6.905   4.075  1.00 20.00     0.044 C 
HETATM    6  N10 UNL     1     -33.690   5.515   2.482  1.00 20.00     0.091 N 
HETATM    7  N11 UNL     1     -31.918   7.715   1.838  1.00 20.00     0.100 N 
HETATM    8  H29 UNL     1     -34.442   5.675   1.811  1.00 20.00     0.316 HD
ENDROOT
BRANCH   7   9
HETATM    9  C9  UNL     1     -31.535   8.905   1.080  1.00 20.00     0.241 C 
HETATM   10  C8  UNL     1     -30.955   8.520  -0.275  1.00 20.00     0.047 C 
BRANCH   9  11
HETATM   11  C2  UNL     1     -32.751   9.771   0.930  1.00 20.00    -0.002 C 
HETATM   12  C1  UNL     1     -32.895  10.695  -0.028  1.00 20.00     0.009 C 
ENDBRANCH   9  11
ENDBRANCH   7   9
TORSDOF 2
ENDMDL
MODEL 4
REMARK VINA RESULT:       0.9      0.902      1.874
REMARK  2 active torsions:
REMARK  status: ('A' for Active; 'I' for Inactive)
REMARK    1  A    between atoms: C2_2  and  C9_9 
REMARK    2  A    between atoms: C9_9  and  N11_11 
ROOT
HETATM    1  C3  UNL     1     -35.366   6.034   4.142  1.00 20.00     0.300 C 
HETATM    2  C4  UNL     1     -34.343   6.799   3.300  1.00 20.00     0.303 C 
HETATM    3  C5  UNL     1     -33.023   4.788   3.095  1.00 20.00     0.308 C 
HETATM    4  C6  UNL     1     -34.057   4.024   3.942  1.00 20.00     0.244 C 
HETATM    5  C7  UNL     1     -33.382   2.907   4.737  1.00 20.00     0.044 C 
HETATM    6  N10 UNL     1     -34.747   4.926   4.873  1.00 20.00     0.091 N 
HETATM    7  N11 UNL     1     -33.661   5.893   2.367  1.00 20.00     0.100 N 
HETATM    8  H29 UNL     1     -34.069   5.306   5.534  1.00 20.00     0.316 HD
ENDROOT
BRANCH   7   9
HETATM    9  C9  UNL     1     -32.680   6.620   1.563  1.00 20.00     0.241 C 
HETATM   10  C8  UNL     1     -32.190   7.861   2.299  1.00 20.00     0.047 C 
BRANCH   9  11
HETATM   11  C2  UNL     1     -31.549   5.685   1.252  1.00 20.00    -0.002 C 
HETATM   12  C1  UNL     1     -31.638   4.670   0.383  1.00 20.00     0.009 C 
ENDBRANCH   9  11
ENDBRANCH   7   9
TORSDOF 2
ENDMDL
MODEL 5
REMARK VINA RESULT:       0.9      1.119      4.802
REMARK  2 active torsions:
REMARK  status: ('A' for Active; 'I' for Inactive)
REMARK    1  A    between atoms: C2_2  and  C9_9 
REMARK    2  A    between atoms: C9_9  and  N11_11 
ROOT
HETATM    1  C3  UNL     1     -31.981   5.751   0.920  1.00 20.00     0.300 C 
HETATM    2  C4  UNL     1     -32.513   5.188   2.238  1.00 20.00     0.303 C 
HETATM    3  C5  UNL     1     -33.180   7.409   2.907  1.00 20.00     0.308 C 
HETATM    4  C6  UNL     1     -32.645   7.970   1.577  1.00 20.00     0.244 C 
HETATM    5  C7  UNL     1     -32.147   9.403   1.758  1.00 20.00     0.044 C 
HETATM    6  N10 UNL     1     -31.547   7.143   1.060  1.00 20.00     0.091 N 
HETATM    7  N11 UNL     1     -33.614   6.015   2.748  1.00 20.00     0.100 N 
HETATM    8  H29 UNL     1     -30.765   7.179   1.714  1.00 20.00     0.316 HD
ENDROOT
BRANCH   7   9
HETATM    9  C9  UNL     1     -34.122   5.482   4.011  1.00 20.00     0.241 C 
HETATM   10  C8  UNL     1     -35.545   5.963   4.268  1.00 20.00     0.047 C 
BRANCH   9  11
HETATM   11  C2  UNL     1     -34.053   3.984   3.944  1.00 20.00    -0.002 C 
HETATM   12  C1  UNL     1     -33.378   3.229   4.819  1.00 20.00     0.009 C 
ENDBRANCH   9  11
ENDBRANCH   7   9
TORSDOF 2
ENDMDL
MODEL 6
REMARK VINA RESULT:       1.1      1.287      4.145
REMARK  2 active torsions:
REMARK  status: ('A' for Active; 'I' for Inactive)
REMARK    1  A    between atoms: C2_2  and  C9_9 
REMARK    2  A    between atoms: C9_9  and  N11_11 
ROOT
HETATM    1  C3  UNL     1     -32.125   8.087   2.414  1.00 20.00     0.300 C 
HETATM    2  C4  UNL     1     -33.472   7.850   3.096  1.00 20.00     0.303 C 
HETATM    3  C5  UNL     1     -33.439   5.557   2.341  1.00 20.00     0.308 C 
HETATM    4  C6  UNL     1     -32.082   5.802   1.658  1.00 20.00     0.244 C 
HETATM    5  C7  UNL     1     -31.932   4.914   0.424  1.00 20.00     0.044 C 
HETATM    6  N10 UNL     1     -31.939   7.208   1.258  1.00 20.00     0.091 N 
HETATM    7  N11 UNL     1     -33.607   6.445   3.500  1.00 20.00     0.100 N 
HETATM    8  H29 UNL     1     -32.649   7.429   0.559  1.00 20.00     0.316 HD
ENDROOT
BRANCH   7   9
HETATM    9  C9  UNL     1     -34.896   6.213   4.149  1.00 20.00     0.241 C 
HETATM   10  C8  UNL     1     -36.042   6.683   3.261  1.00 20.00     0.047 C 
BRANCH   9  11
HETATM   11  C2  UNL     1     -35.006   4.748   4.455  1.00 20.00    -0.002 C 
HETATM   12  C1  UNL     1     -33.956   3.923   4.537  1.00 20.00     0.009 C 
ENDBRANCH   9  11
ENDBRANCH   7   9
TORSDOF 2
ENDMDL
MODEL 7
REMARK VINA RESULT:       1.8      1.598      4.899
REMARK  2 active torsions:
REMARK  status: ('A' for Active; 'I' for Inactive)
REMARK    1  A    between atoms: C2_2  and  C9_9 
REMARK    2  A    between atoms: C9_9  and  N11_11 
ROOT
HETATM    1  C3  UNL     1     -31.857   6.648   0.687  1.00 20.00     0.300 C 
HETATM    2  C4  UNL     1     -32.233   6.406   2.150  1.00 20.00     0.303 C 
HETATM    3  C5  UNL     1     -33.024   8.681   2.312  1.00 20.00     0.308 C 
HETATM    4  C6  UNL     1     -32.646   8.918   0.838  1.00 20.00     0.244 C 
HETATM    5  C7  UNL     1     -32.255  10.376   0.609  1.00 20.00     0.044 C 
HETATM    6  N10 UNL     1     -31.529   8.053   0.435  1.00 20.00     0.091 N 
HETATM    7  N11 UNL     1     -33.353   7.269   2.545  1.00 20.00     0.100 N 
HETATM    8  H29 UNL     1     -30.703   8.300   0.980  1.00 20.00     0.316 HD
ENDROOT
BRANCH   7   9
HETATM    9  C9  UNL     1     -33.712   7.044   3.945  1.00 20.00     0.241 C 
HETATM   10  C8  UNL     1     -33.628   8.341   4.740  1.00 20.00     0.047 C 
BRANCH   9  11
HETATM   11  C2  UNL     1     -35.096   6.466   3.982  1.00 20.00    -0.002 C 
HETATM   12  C1  UNL     1     -35.372   5.216   4.373  1.00 20.00     0.009 C 
ENDBRANCH   9  11
ENDBRANCH   7   9
TORSDOF 2
ENDMDL
MODEL 8
REMARK VINA RESULT:       1.8      1.589      2.313
REMARK  2 active torsions:
REMARK  status: ('A' for Active; 'I' for Inactive)
REMARK    1  A    between atoms: C2_2  and  C9_9 
REMARK    2  A    between atoms: C9_9  and  N11_11 
ROOT
HETATM    1  C3  UNL     1     -34.235   5.988   3.383  1.00 20.00     0.300 C 
HETATM    2  C4  UNL     1     -33.540   7.348   3.449  1.00 20.00     0.303 C 
HETATM    3  C5  UNL     1     -32.246   6.771   1.494  1.00 20.00     0.308 C 
HETATM    4  C6  UNL     1     -32.951   5.404   1.432  1.00 20.00     0.244 C 
HETATM    5  C7  UNL     1     -32.023   4.346   0.838  1.00 20.00     0.044 C 
HETATM    6  N10 UNL     1     -33.380   4.970   2.768  1.00 20.00     0.091 N 
HETATM    7  N11 UNL     1     -33.118   7.780   2.111  1.00 20.00     0.100 N 
HETATM    8  H29 UNL     1     -32.556   4.835   3.355  1.00 20.00     0.316 HD
ENDROOT
BRANCH   7   9
HETATM    9  C9  UNL     1     -32.450   9.078   2.171  1.00 20.00     0.241 C 
HETATM   10  C8  UNL     1     -31.286   9.042   3.155  1.00 20.00     0.047 C 
BRANCH   9  11
HETATM   11  C2  UNL     1     -31.987   9.428   0.787  1.00 20.00    -0.002 C 
HETATM   12  C1  UNL     1     -32.649  10.250  -0.036  1.00 20.00     0.009 C 
ENDBRANCH   9  11
ENDBRANCH   7   9
TORSDOF 2
ENDMDL
MODEL 9
REMARK VINA RESULT:       1.9      1.744      3.833
REMARK  2 active torsions:
REMARK  status: ('A' for Active; 'I' for Inactive)
REMARK    1  A    between atoms: C2_2  and  C9_9 
REMARK    2  A    between atoms: C9_9  and  N11_11 
ROOT
HETATM    1  C3  UNL     1     -31.546   8.072   1.626  1.00 20.00     0.300 C 
HETATM    2  C4  UNL     1     -32.851   8.316   2.385  1.00 20.00     0.303 C 
HETATM    3  C5  UNL     1     -33.368   5.963   2.233  1.00 20.00     0.308 C 
HETATM    4  C6  UNL     1     -32.052   5.723   1.471  1.00 20.00     0.244 C 
HETATM    5  C7  UNL     1     -32.199   4.555   0.497  1.00 20.00     0.044 C 
HETATM    6  N10 UNL     1     -31.649   6.922   0.725  1.00 20.00     0.091 N 
HETATM    7  N11 UNL     1     -33.246   7.116   3.134  1.00 20.00     0.100 N 
HETATM    8  H29 UNL     1     -32.353   7.124   0.013  1.00 20.00     0.316 HD
ENDROOT
BRANCH   7   9
HETATM    9  C9  UNL     1     -34.495   7.345   3.858  1.00 20.00     0.241 C 
HETATM   10  C8  UNL     1     -35.224   6.029   4.108  1.00 20.00     0.047 C 
BRANCH   9  11
HETATM   11  C2  UNL     1     -34.166   8.043   5.145  1.00 20.00    -0.002 C 
HETATM   12  C1  UNL     1     -32.922   8.348   5.531  1.00 20.00     0.009 C 
ENDBRANCH   9  11
ENDBRANCH   7   9
TORSDOF 2
ENDMDL
