MODEL 1
REMARK VINA RESULT:      -1.1      0.000      0.000
REMARK  2 active torsions:
REMARK  status: ('A' for Active; 'I' for Inactive)
REMARK    1  A    between atoms: C2_2  and  C9_9 
REMARK    2  A    between atoms: C9_9  and  N11_11 
ROOT
HETATM    1  C1  UNL     1     -32.429   9.345   0.707  1.00 20.00    -0.109 C 
HETATM    2  C2  UNL     1     -32.187   8.280   1.207  1.00 20.00    -0.077 C 
HETATM    3  C7  UNL     1     -32.724  10.641   0.099  1.00 20.00     0.112 C 
ENDROOT
BRANCH   2   4
HETATM    4  C9  UNL     1     -31.885   6.981   1.815  1.00 20.00     0.365 C 
BRANCH   4   5
HETATM    5  N11 UNL     1     -33.097   6.357   2.341  1.00 20.00     0.103 N 
HETATM    6  C4  UNL     1     -33.821   7.284   3.219  1.00 20.00     0.303 C 
HETATM    7  C3  UNL     1     -35.087   6.626   3.773  1.00 20.00     0.300 C 
HETATM    8  N10 UNL     1     -34.784   5.384   4.487  1.00 20.00     0.091 N 
HETATM    9  C6  UNL     1     -34.052   4.457   3.611  1.00 20.00     0.244 C 
HETATM   10  H27 UNL     1     -34.205   5.603   5.298  1.00 20.00     0.316 HD
HETATM   11  C5  UNL     1     -32.776   5.114   3.057  1.00 20.00     0.308 C 
HETATM   12  C8  UNL     1     -33.710   3.194   4.400  1.00 20.00     0.044 C 
ENDBRANCH   4   5
ENDBRANCH   2   4
TORSDOF 2
ENDMDL
MODEL 2
REMARK VINA RESULT:       0.6      1.640      5.175
REMARK  2 active torsions:
REMARK  status: ('A' for Active; 'I' for Inactive)
REMARK    1  A    between atoms: C2_2  and  C9_9 
REMARK    2  A    between atoms: C9_9  and  N11_11 
ROOT
HETATM    1  C1  UNL     1     -33.770   3.490   4.539  1.00 20.00    -0.109 C 
HETATM    2  C2  UNL     1     -34.307   4.528   4.262  1.00 20.00    -0.077 C 
HETATM    3  C7  UNL     1     -33.116   2.227   4.877  1.00 20.00     0.112 C 
ENDROOT
BRANCH   2   4
HETATM    4  C9  UNL     1     -34.957   5.798   3.922  1.00 20.00     0.365 C 
BRANCH   4   5
HETATM    5  N11 UNL     1     -34.162   6.548   2.953  1.00 20.00     0.103 N 
HETATM    6  C4  UNL     1     -33.430   5.637   2.064  1.00 20.00     0.303 C 
HETATM    7  C3  UNL     1     -32.594   6.426   1.053  1.00 20.00     0.300 C 
HETATM    8  N10 UNL     1     -31.665   7.342   1.716  1.00 20.00     0.091 N 
HETATM    9  C6  UNL     1     -32.396   8.250   2.612  1.00 20.00     0.244 C 
HETATM   10  H27 UNL     1     -31.000   6.797   2.265  1.00 20.00     0.316 HD
HETATM   11  C5  UNL     1     -33.233   7.460   3.634  1.00 20.00     0.308 C 
HETATM   12  C8  UNL     1     -31.395   9.159   3.324  1.00 20.00     0.044 C 
ENDBRANCH   4   5
ENDBRANCH   2   4
TORSDOF 2
ENDMDL
MODEL 3
REMARK VINA RESULT:       0.9      1.520      2.260
REMARK  2 active torsions:
REMARK  status: ('A' for Active; 'I' for Inactive)
REMARK    1  A    between atoms: C2_2  and  C9_9 
REMARK    2  A    between atoms: C9_9  and  N11_11 
ROOT
HETATM    1  C1  UNL     1     -32.493   9.917   0.239  1.00 20.00    -0.109 C 
HETATM    2  C2  UNL     1     -32.025   9.417   1.227  1.00 20.00    -0.077 C 
HETATM    3  C7  UNL     1     -33.061  10.526  -0.962  1.00 20.00     0.112 C 
ENDROOT
BRANCH   2   4
HETATM    4  C9  UNL     1     -31.458   8.812   2.435  1.00 20.00     0.365 C 
BRANCH   4   5
HETATM    5  N11 UNL     1     -32.014   7.479   2.661  1.00 20.00     0.103 N 
HETATM    6  C4  UNL     1     -32.029   6.703   1.415  1.00 20.00     0.303 C 
HETATM    7  C3  UNL     1     -32.618   5.311   1.654  1.00 20.00     0.300 C 
HETATM    8  N10 UNL     1     -33.965   5.382   2.223  1.00 20.00     0.091 N 
HETATM    9  C6  UNL     1     -33.952   6.165   3.467  1.00 20.00     0.244 C 
HETATM   10  H27 UNL     1     -34.583   5.835   1.550  1.00 20.00     0.316 HD
HETATM   11  C5  UNL     1     -33.367   7.568   3.229  1.00 20.00     0.308 C 
HETATM   12  C8  UNL     1     -35.378   6.261   4.008  1.00 20.00     0.044 C 
ENDBRANCH   4   5
ENDBRANCH   2   4
TORSDOF 2
ENDMDL
MODEL 4
REMARK VINA RESULT:       1.2      1.341      2.312
REMARK  2 active torsions:
REMARK  status: ('A' for Active; 'I' for Inactive)
REMARK    1  A    between atoms: C2_2  and  C9_9 
REMARK    2  A    between atoms: C9_9  and  N11_11 
ROOT
HETATM    1  C1  UNL     1     -32.382   9.780   0.258  1.00 20.00    -0.109 C 
HETATM    2  C2  UNL     1     -31.896   8.730   0.579  1.00 20.00    -0.077 C 
HETATM    3  C7  UNL     1     -32.976  11.058  -0.131  1.00 20.00     0.112 C 
ENDROOT
BRANCH   2   4
HETATM    4  C9  UNL     1     -31.304   7.445   0.964  1.00 20.00     0.365 C 
BRANCH   4   5
HETATM    5  N11 UNL     1     -32.027   6.854   2.088  1.00 20.00     0.103 N 
HETATM    6  C4  UNL     1     -33.047   5.910   1.612  1.00 20.00     0.303 C 
HETATM    7  C3  UNL     1     -33.806   5.297   2.791  1.00 20.00     0.300 C 
HETATM    8  N10 UNL     1     -34.421   6.325   3.633  1.00 20.00     0.091 N 
HETATM    9  C6  UNL     1     -33.403   7.275   4.104  1.00 20.00     0.244 C 
HETATM   10  H27 UNL     1     -35.117   6.828   3.083  1.00 20.00     0.316 HD
HETATM   11  C5  UNL     1     -32.641   7.897   2.921  1.00 20.00     0.308 C 
HETATM   12  C8  UNL     1     -34.083   8.360   4.938  1.00 20.00     0.044 C 
ENDBRANCH   4   5
ENDBRANCH   2   4
TORSDOF 2
ENDMDL
MODEL 5
REMARK VINA RESULT:       1.5      1.424      5.199
REMARK  2 active torsions:
REMARK  status: ('A' for Active; 'I' for Inactive)
REMARK    1  A    between atoms: C2_2  and  C9_9 
REMARK    2  A    between atoms: C9_9  and  N11_11 
ROOT
HETATM    1  C1  UNL     1     -33.670   3.257   4.341  1.00 20.00    -0.109 C 
HETATM    2  C2  UNL     1     -34.033   4.334   3.951  1.00 20.00    -0.077 C 
HETATM    3  C7  UNL     1     -33.228   1.947   4.816  1.00 20.00     0.112 C 
ENDROOT
BRANCH   2   4
HETATM    4  C9  UNL     1     -34.470   5.649   3.472  1.00 20.00     0.365 C 
BRANCH   4   5
HETATM    5  N11 UNL     1     -33.335   6.559   3.337  1.00 20.00     0.103 N 
HETATM    6  C4  UNL     1     -33.520   7.750   4.175  1.00 20.00     0.303 C 
HETATM    7  C3  UNL     1     -32.332   8.704   4.028  1.00 20.00     0.300 C 
HETATM    8  N10 UNL     1     -32.121   9.094   2.633  1.00 20.00     0.091 N 
HETATM    9  C6  UNL     1     -31.943   7.902   1.791  1.00 20.00     0.244 C 
HETATM   10  H27 UNL     1     -32.937   9.612   2.309  1.00 20.00     0.316 HD
HETATM   11  C5  UNL     1     -33.138   6.944   1.933  1.00 20.00     0.308 C 
HETATM   12  C8  UNL     1     -31.773   8.341   0.337  1.00 20.00     0.044 C 
ENDBRANCH   4   5
ENDBRANCH   2   4
TORSDOF 2
ENDMDL
MODEL 6
REMARK VINA RESULT:       1.9      1.222      5.346
REMARK  2 active torsions:
REMARK  status: ('A' for Active; 'I' for Inactive)
REMARK    1  A    between atoms: C2_2  and  C9_9 
REMARK    2  A    between atoms: C9_9  and  N11_11 
ROOT
HETATM    1  C1  UNL     1     -33.779   4.036   4.319  1.00 20.00    -0.109 C 
HETATM    2  C2  UNL     1     -34.108   5.144   3.991  1.00 20.00    -0.077 C 
HETATM    3  C7  UNL     1     -33.381   2.687   4.718  1.00 20.00     0.112 C 
ENDROOT
BRANCH   2   4
HETATM    4  C9  UNL     1     -34.505   6.499   3.597  1.00 20.00     0.365 C 
BRANCH   4   5
HETATM    5  N11 UNL     1     -33.787   6.925   2.397  1.00 20.00     0.103 N 
HETATM    6  C4  UNL     1     -32.491   6.242   2.296  1.00 20.00     0.303 C 
HETATM    7  C3  UNL     1     -31.740   6.694   1.042  1.00 20.00     0.300 C 
HETATM    8  N10 UNL     1     -31.551   8.146   1.017  1.00 20.00     0.091 N 
HETATM    9  C6  UNL     1     -32.846   8.831   1.126  1.00 20.00     0.244 C 
HETATM   10  H27 UNL     1     -30.964   8.415   1.807  1.00 20.00     0.316 HD
HETATM   11  C5  UNL     1     -33.603   8.383   2.390  1.00 20.00     0.308 C 
HETATM   12  C8  UNL     1     -32.611  10.340   1.147  1.00 20.00     0.044 C 
ENDBRANCH   4   5
ENDBRANCH   2   4
TORSDOF 2
ENDMDL
