MODEL 1
REMARK VINA RESULT:      -1.6      0.000      0.000
REMARK  3 active torsions:
REMARK  status: ('A' for Active; 'I' for Inactive)
REMARK    1  A    between atoms: C1_1  and  C3_3 
REMARK    2  A    between atoms: C1_1  and  C8_8 
REMARK    3  A    between atoms: C8_8  and  C9_9 
ROOT
HETATM    1  C1  UNL     1     -32.759   6.884   2.043  1.00 20.00     0.131 C 
HETATM    2  O10 UNL     1     -32.292   5.808   1.671  1.00 20.00    -0.298 OA
ENDROOT
BRANCH   1   3
HETATM    3  C3  UNL     1     -34.134   6.961   2.656  1.00 20.00     0.059 A 
HETATM    4  C2  UNL     1     -34.450   6.042   3.782  1.00 20.00     0.017 A 
HETATM    5  C4  UNL     1     -34.297   7.515   4.029  1.00 20.00    -0.007 A 
HETATM    6  C5  UNL     1     -33.161   8.019   4.853  1.00 20.00     0.011 C 
ENDBRANCH   1   3
BRANCH   1   7
HETATM    7  C8  UNL     1     -32.024   8.205   1.878  1.00 20.00     0.082 C 
BRANCH   7   8
HETATM    8  C9  UNL     1     -32.330   8.925   0.556  1.00 20.00    -0.016 C 
HETATM    9  C6  UNL     1     -31.126   8.890  -0.391  1.00 20.00     0.010 C 
HETATM   10  C7  UNL     1     -32.730  10.375   0.829  1.00 20.00     0.010 C 
ENDBRANCH   7   8
ENDBRANCH   1   7
TORSDOF 3
ENDMDL
MODEL 2
REMARK VINA RESULT:      -1.4      0.762      1.430
REMARK  3 active torsions:
REMARK  status: ('A' for Active; 'I' for Inactive)
REMARK    1  A    between atoms: C1_1  and  C3_3 
REMARK    2  A    between atoms: C1_1  and  C8_8 
REMARK    3  A    between atoms: C8_8  and  C9_9 
ROOT
HETATM    1  C1  UNL     1     -33.059   7.010   2.390  1.00 20.00     0.131 C 
HETATM    2  O10 UNL     1     -33.080   6.012   1.671  1.00 20.00    -0.298 OA
ENDROOT
BRANCH   1   3
HETATM    3  C3  UNL     1     -33.979   7.129   3.577  1.00 20.00     0.059 A 
HETATM    4  C2  UNL     1     -35.401   6.725   3.404  1.00 20.00     0.017 A 
HETATM    5  C4  UNL     1     -34.477   5.896   4.250  1.00 20.00    -0.007 A 
HETATM    6  C5  UNL     1     -34.105   4.518   3.819  1.00 20.00     0.011 C 
ENDBRANCH   1   3
BRANCH   1   7
HETATM    7  C8  UNL     1     -32.155   8.203   2.123  1.00 20.00     0.082 C 
BRANCH   7   8
HETATM    8  C9  UNL     1     -32.367   8.847   0.744  1.00 20.00    -0.016 C 
HETATM    9  C6  UNL     1     -31.109   8.742  -0.122  1.00 20.00     0.010 C 
HETATM   10  C7  UNL     1     -32.760  10.316   0.908  1.00 20.00     0.010 C 
ENDBRANCH   7   8
ENDBRANCH   1   7
TORSDOF 3
ENDMDL
MODEL 3
REMARK VINA RESULT:      -1.4      1.635      2.704
REMARK  3 active torsions:
REMARK  status: ('A' for Active; 'I' for Inactive)
REMARK    1  A    between atoms: C1_1  and  C3_3 
REMARK    2  A    between atoms: C1_1  and  C8_8 
REMARK    3  A    between atoms: C8_8  and  C9_9 
ROOT
HETATM    1  C1  UNL     1     -33.683   7.511   3.927  1.00 20.00     0.131 C 
HETATM    2  O10 UNL     1     -32.815   7.876   4.718  1.00 20.00    -0.298 OA
ENDROOT
BRANCH   1   3
HETATM    3  C3  UNL     1     -34.952   6.860   4.414  1.00 20.00     0.059 A 
HETATM    4  C2  UNL     1     -35.841   6.219   3.407  1.00 20.00     0.017 A 
HETATM    5  C4  UNL     1     -35.076   5.376   4.386  1.00 20.00    -0.007 A 
HETATM    6  C5  UNL     1     -33.994   4.469   3.905  1.00 20.00     0.011 C 
ENDBRANCH   1   3
BRANCH   1   7
HETATM    7  C8  UNL     1     -33.536   7.643   2.418  1.00 20.00     0.082 C 
BRANCH   7   8
HETATM    8  C9  UNL     1     -32.107   7.393   1.911  1.00 20.00    -0.016 C 
HETATM    9  C6  UNL     1     -31.682   8.454   0.892  1.00 20.00     0.010 C 
HETATM   10  C7  UNL     1     -32.012   6.004   1.279  1.00 20.00     0.010 C 
ENDBRANCH   7   8
ENDBRANCH   1   7
TORSDOF 3
ENDMDL
MODEL 4
REMARK VINA RESULT:      -1.0      1.344      4.272
REMARK  3 active torsions:
REMARK  status: ('A' for Active; 'I' for Inactive)
REMARK    1  A    between atoms: C1_1  and  C3_3 
REMARK    2  A    between atoms: C1_1  and  C8_8 
REMARK    3  A    between atoms: C8_8  and  C9_9 
ROOT
HETATM    1  C1  UNL     1     -32.528   6.438   1.772  1.00 20.00     0.131 C 
HETATM    2  O10 UNL     1     -31.633   5.961   1.076  1.00 20.00    -0.298 OA
ENDROOT
BRANCH   1   3
HETATM    3  C3  UNL     1     -32.407   7.827   2.344  1.00 20.00     0.059 A 
HETATM    4  C2  UNL     1     -31.101   8.528   2.210  1.00 20.00     0.017 A 
HETATM    5  C4  UNL     1     -32.294   8.995   1.426  1.00 20.00    -0.007 A 
HETATM    6  C5  UNL     1     -32.304   8.876  -0.060  1.00 20.00     0.011 C 
ENDBRANCH   1   3
BRANCH   1   7
HETATM    7  C8  UNL     1     -33.788   5.670   2.142  1.00 20.00     0.082 C 
BRANCH   7   8
HETATM    8  C9  UNL     1     -34.038   5.581   3.655  1.00 20.00    -0.016 C 
HETATM    9  C6  UNL     1     -34.052   4.128   4.135  1.00 20.00     0.010 C 
HETATM   10  C7  UNL     1     -35.367   6.253   4.005  1.00 20.00     0.010 C 
ENDBRANCH   7   8
ENDBRANCH   1   7
TORSDOF 3
ENDMDL
MODEL 5
REMARK VINA RESULT:      -0.9      1.330      4.206
REMARK  3 active torsions:
REMARK  status: ('A' for Active; 'I' for Inactive)
REMARK    1  A    between atoms: C1_1  and  C3_3 
REMARK    2  A    between atoms: C1_1  and  C8_8 
REMARK    3  A    between atoms: C8_8  and  C9_9 
ROOT
HETATM    1  C1  UNL     1     -32.025   8.028   1.876  1.00 20.00     0.131 C 
HETATM    2  O10 UNL     1     -31.506   8.465   2.902  1.00 20.00    -0.298 OA
ENDROOT
BRANCH   1   3
HETATM    3  C3  UNL     1     -31.658   8.584   0.525  1.00 20.00     0.059 A 
HETATM    4  C2  UNL     1     -32.735   8.722  -0.492  1.00 20.00     0.017 A 
HETATM    5  C4  UNL     1     -32.126   9.944   0.135  1.00 20.00    -0.007 A 
HETATM    6  C5  UNL     1     -32.948  10.815   1.023  1.00 20.00     0.011 C 
ENDBRANCH   1   3
BRANCH   1   7
HETATM    7  C8  UNL     1     -33.092   6.944   1.886  1.00 20.00     0.082 C 
BRANCH   7   8
HETATM    8  C9  UNL     1     -33.489   6.477   3.294  1.00 20.00    -0.016 C 
HETATM    9  C6  UNL     1     -33.910   5.005   3.298  1.00 20.00     0.010 C 
HETATM   10  C7  UNL     1     -34.632   7.342   3.829  1.00 20.00     0.010 C 
ENDBRANCH   7   8
ENDBRANCH   1   7
TORSDOF 3
ENDMDL
MODEL 6
REMARK VINA RESULT:      -0.9      1.020      4.400
REMARK  3 active torsions:
REMARK  status: ('A' for Active; 'I' for Inactive)
REMARK    1  A    between atoms: C1_1  and  C3_3 
REMARK    2  A    between atoms: C1_1  and  C8_8 
REMARK    3  A    between atoms: C8_8  and  C9_9 
ROOT
HETATM    1  C1  UNL     1     -32.295   8.025   1.918  1.00 20.00     0.131 C 
HETATM    2  O10 UNL     1     -31.108   8.177   2.201  1.00 20.00    -0.298 OA
ENDROOT
BRANCH   1   3
HETATM    3  C3  UNL     1     -33.000   8.983   0.992  1.00 20.00     0.059 A 
HETATM    4  C2  UNL     1     -32.482  10.375   0.899  1.00 20.00     0.017 A 
HETATM    5  C4  UNL     1     -32.324   9.431  -0.258  1.00 20.00    -0.007 A 
HETATM    6  C5  UNL     1     -30.965   8.973  -0.667  1.00 20.00     0.011 C 
ENDBRANCH   1   3
BRANCH   1   7
HETATM    7  C8  UNL     1     -33.148   6.907   2.498  1.00 20.00     0.082 C 
BRANCH   7   8
HETATM    8  C9  UNL     1     -34.183   7.388   3.527  1.00 20.00    -0.016 C 
HETATM    9  C6  UNL     1     -33.507   7.987   4.763  1.00 20.00     0.010 C 
HETATM   10  C7  UNL     1     -35.084   6.224   3.945  1.00 20.00     0.010 C 
ENDBRANCH   7   8
ENDBRANCH   1   7
TORSDOF 3
ENDMDL
MODEL 7
REMARK VINA RESULT:      -0.9      0.819      1.407
REMARK  3 active torsions:
REMARK  status: ('A' for Active; 'I' for Inactive)
REMARK    1  A    between atoms: C1_1  and  C3_3 
REMARK    2  A    between atoms: C1_1  and  C8_8 
REMARK    3  A    between atoms: C8_8  and  C9_9 
ROOT
HETATM    1  C1  UNL     1     -32.853   6.978   2.272  1.00 20.00     0.131 C 
HETATM    2  O10 UNL     1     -33.097   6.169   1.377  1.00 20.00    -0.298 OA
ENDROOT
BRANCH   1   3
HETATM    3  C3  UNL     1     -33.291   6.719   3.691  1.00 20.00     0.059 A 
HETATM    4  C2  UNL     1     -33.934   7.832   4.439  1.00 20.00     0.017 A 
HETATM    5  C4  UNL     1     -34.744   6.642   4.011  1.00 20.00    -0.007 A 
HETATM    6  C5  UNL     1     -35.820   6.799   2.991  1.00 20.00     0.011 C 
ENDBRANCH   1   3
BRANCH   1   7
HETATM    7  C8  UNL     1     -32.143   8.299   2.022  1.00 20.00     0.082 C 
BRANCH   7   8
HETATM    8  C9  UNL     1     -32.366   8.866   0.612  1.00 20.00    -0.016 C 
HETATM    9  C6  UNL     1     -31.118   8.702  -0.261  1.00 20.00     0.010 C 
HETATM   10  C7  UNL     1     -32.745  10.346   0.697  1.00 20.00     0.010 C 
ENDBRANCH   7   8
ENDBRANCH   1   7
TORSDOF 3
ENDMDL
MODEL 8
REMARK VINA RESULT:      -0.7      0.979      1.495
REMARK  3 active torsions:
REMARK  status: ('A' for Active; 'I' for Inactive)
REMARK    1  A    between atoms: C1_1  and  C3_3 
REMARK    2  A    between atoms: C1_1  and  C8_8 
REMARK    3  A    between atoms: C8_8  and  C9_9 
ROOT
HETATM    1  C1  UNL     1     -32.859   6.045   1.767  1.00 20.00     0.131 C 
HETATM    2  O10 UNL     1     -31.786   5.455   1.642  1.00 20.00    -0.298 OA
ENDROOT
BRANCH   1   3
HETATM    3  C3  UNL     1     -34.012   5.409   2.499  1.00 20.00     0.059 A 
HETATM    4  C2  UNL     1     -33.766   4.880   3.868  1.00 20.00     0.017 A 
HETATM    5  C4  UNL     1     -34.614   6.104   3.671  1.00 20.00    -0.007 A 
HETATM    6  C5  UNL     1     -34.143   7.426   4.173  1.00 20.00     0.011 C 
ENDBRANCH   1   3
BRANCH   1   7
HETATM    7  C8  UNL     1     -33.122   7.418   1.168  1.00 20.00     0.082 C 
BRANCH   7   8
HETATM    8  C9  UNL     1     -31.885   8.328   1.135  1.00 20.00    -0.016 C 
HETATM    9  C6  UNL     1     -31.357   8.607   2.544  1.00 20.00     0.010 C 
HETATM   10  C7  UNL     1     -32.225   9.648   0.441  1.00 20.00     0.010 C 
ENDBRANCH   7   8
ENDBRANCH   1   7
TORSDOF 3
ENDMDL
MODEL 9
REMARK VINA RESULT:      -0.6      1.288      1.628
REMARK  3 active torsions:
REMARK  status: ('A' for Active; 'I' for Inactive)
REMARK    1  A    between atoms: C1_1  and  C3_3 
REMARK    2  A    between atoms: C1_1  and  C8_8 
REMARK    3  A    between atoms: C8_8  and  C9_9 
ROOT
HETATM    1  C1  UNL     1     -32.111   7.909   2.062  1.00 20.00     0.131 C 
HETATM    2  O10 UNL     1     -31.637   8.156   3.170  1.00 20.00    -0.298 OA
ENDROOT
BRANCH   1   3
HETATM    3  C3  UNL     1     -33.089   6.778   1.872  1.00 20.00     0.059 A 
HETATM    4  C2  UNL     1     -32.974   5.596   2.768  1.00 20.00     0.017 A 
HETATM    5  C4  UNL     1     -34.140   6.534   2.898  1.00 20.00    -0.007 A 
HETATM    6  C5  UNL     1     -34.298   7.363   4.127  1.00 20.00     0.011 C 
ENDBRANCH   1   3
BRANCH   1   7
HETATM    7  C8  UNL     1     -31.727   8.679   0.807  1.00 20.00     0.082 C 
BRANCH   7   8
HETATM    8  C9  UNL     1     -32.760   9.735   0.387  1.00 20.00    -0.016 C 
HETATM    9  C6  UNL     1     -32.699  10.008  -1.119  1.00 20.00     0.010 C 
HETATM   10  C7  UNL     1     -32.522  11.035   1.157  1.00 20.00     0.010 C 
ENDBRANCH   7   8
ENDBRANCH   1   7
TORSDOF 3
ENDMDL
