MODEL 1
REMARK VINA RESULT:       0.6      0.000      0.000
REMARK  2 active torsions:
REMARK  status: ('A' for Active; 'I' for Inactive)
REMARK    1  A    between atoms: C2_2  and  C9_9 
REMARK    2  A    between atoms: C9_9  and  N11_11 
ROOT
HETATM    1  C3  UNL     1     -32.608   5.467   1.603  1.00 20.00     0.300 C 
HETATM    2  C4  UNL     1     -31.673   6.667   1.776  1.00 20.00     0.302 C 
HETATM    3  C5  UNL     1     -33.294   7.711   3.230  1.00 20.00     0.307 C 
HETATM    4  C6  UNL     1     -34.233   6.504   3.050  1.00 20.00     0.244 C 
HETATM    5  C8  UNL     1     -35.077   6.290   4.306  1.00 20.00     0.044 C 
HETATM    6  N10 UNL     1     -33.471   5.281   2.771  1.00 20.00     0.091 N 
HETATM    7  N11 UNL     1     -32.370   7.917   2.104  1.00 20.00     0.096 N 
HETATM    8  H29 UNL     1     -34.109   4.506   2.604  1.00 20.00     0.316 HD
ENDROOT
BRANCH   7   9
HETATM    9  C9  UNL     1     -33.039   8.497   0.942  1.00 20.00     0.305 C 
BRANCH   9  10
HETATM   10  C2  UNL     1     -32.200   9.606   0.374  1.00 20.00    -0.065 C 
HETATM   11  C1  UNL     1     -32.545  10.894   0.526  1.00 20.00     0.015 C 
HETATM   12  C7  UNL     1     -30.977   9.210  -0.402  1.00 20.00     0.044 C 
ENDBRANCH   9  10
ENDBRANCH   7   9
TORSDOF 2
ENDMDL
MODEL 2
REMARK VINA RESULT:       0.7      0.085      1.061
REMARK  2 active torsions:
REMARK  status: ('A' for Active; 'I' for Inactive)
REMARK    1  A    between atoms: C2_2  and  C9_9 
REMARK    2  A    between atoms: C9_9  and  N11_11 
ROOT
HETATM    1  C3  UNL     1     -32.655   5.453   1.552  1.00 20.00     0.300 C 
HETATM    2  C4  UNL     1     -31.695   6.636   1.703  1.00 20.00     0.302 C 
HETATM    3  C5  UNL     1     -33.260   7.706   3.199  1.00 20.00     0.307 C 
HETATM    4  C6  UNL     1     -34.225   6.516   3.041  1.00 20.00     0.244 C 
HETATM    5  C8  UNL     1     -35.041   6.314   4.318  1.00 20.00     0.044 C 
HETATM    6  N10 UNL     1     -33.492   5.280   2.741  1.00 20.00     0.091 N 
HETATM    7  N11 UNL     1     -32.362   7.898   2.051  1.00 20.00     0.096 N 
HETATM    8  H29 UNL     1     -34.148   4.517   2.589  1.00 20.00     0.316 HD
ENDROOT
BRANCH   7   9
HETATM    9  C9  UNL     1     -33.049   8.492   0.907  1.00 20.00     0.305 C 
BRANCH   9  10
HETATM   10  C2  UNL     1     -32.206   9.591   0.323  1.00 20.00    -0.065 C 
HETATM   11  C1  UNL     1     -31.102   9.323  -0.390  1.00 20.00     0.015 C 
HETATM   12  C7  UNL     1     -32.633  11.003   0.605  1.00 20.00     0.044 C 
ENDBRANCH   9  10
ENDBRANCH   7   9
TORSDOF 2
ENDMDL
MODEL 3
REMARK VINA RESULT:       1.3      1.749      3.016
REMARK  2 active torsions:
REMARK  status: ('A' for Active; 'I' for Inactive)
REMARK    1  A    between atoms: C2_2  and  C9_9 
REMARK    2  A    between atoms: C9_9  and  N11_11 
ROOT
HETATM    1  C3  UNL     1     -35.507   6.208   4.413  1.00 20.00     0.300 C 
HETATM    2  C4  UNL     1     -35.277   6.662   2.969  1.00 20.00     0.302 C 
HETATM    3  C5  UNL     1     -33.521   5.020   2.740  1.00 20.00     0.307 C 
HETATM    4  C6  UNL     1     -33.753   4.569   4.194  1.00 20.00     0.244 C 
HETATM    5  C8  UNL     1     -33.430   3.083   4.353  1.00 20.00     0.044 C 
HETATM    6  N10 UNL     1     -35.143   4.802   4.603  1.00 20.00     0.091 N 
HETATM    7  N11 UNL     1     -33.914   6.412   2.481  1.00 20.00     0.096 N 
HETATM    8  H29 UNL     1     -35.264   4.547   5.581  1.00 20.00     0.316 HD
ENDROOT
BRANCH   7   9
HETATM    9  C9  UNL     1     -32.950   7.367   3.025  1.00 20.00     0.305 C 
BRANCH   9  10
HETATM   10  C2  UNL     1     -32.165   7.988   1.905  1.00 20.00    -0.065 C 
HETATM   11  C1  UNL     1     -31.072   7.394   1.402  1.00 20.00     0.015 C 
HETATM   12  C7  UNL     1     -32.634   9.322   1.399  1.00 20.00     0.044 C 
ENDBRANCH   9  10
ENDBRANCH   7   9
TORSDOF 2
ENDMDL
MODEL 4
REMARK VINA RESULT:       1.6      1.925      4.668
REMARK  2 active torsions:
REMARK  status: ('A' for Active; 'I' for Inactive)
REMARK    1  A    between atoms: C2_2  and  C9_9 
REMARK    2  A    between atoms: C9_9  and  N11_11 
ROOT
HETATM    1  C3  UNL     1     -31.901   7.264   1.797  1.00 20.00     0.300 C 
HETATM    2  C4  UNL     1     -33.045   6.365   1.321  1.00 20.00     0.302 C 
HETATM    3  C5  UNL     1     -34.164   6.679   3.437  1.00 20.00     0.307 C 
HETATM    4  C6  UNL     1     -33.009   7.580   3.914  1.00 20.00     0.244 C 
HETATM    5  C8  UNL     1     -33.524   8.640   4.888  1.00 20.00     0.044 C 
HETATM    6  N10 UNL     1     -32.360   8.248   2.780  1.00 20.00     0.091 N 
HETATM    7  N11 UNL     1     -33.770   5.701   2.413  1.00 20.00     0.096 N 
HETATM    8  H29 UNL     1     -31.568   8.796   3.109  1.00 20.00     0.316 HD
ENDROOT
BRANCH   7   9
HETATM    9  C9  UNL     1     -33.013   4.586   2.978  1.00 20.00     0.305 C 
BRANCH   9  10
HETATM   10  C2  UNL     1     -33.774   3.988   4.127  1.00 20.00    -0.065 C 
HETATM   11  C1  UNL     1     -34.936   4.512   4.546  1.00 20.00     0.015 C 
HETATM   12  C7  UNL     1     -33.158   2.801   4.811  1.00 20.00     0.044 C 
ENDBRANCH   9  10
ENDBRANCH   7   9
TORSDOF 2
ENDMDL
MODEL 5
REMARK VINA RESULT:       2.5      1.548      4.688
REMARK  2 active torsions:
REMARK  status: ('A' for Active; 'I' for Inactive)
REMARK    1  A    between atoms: C2_2  and  C9_9 
REMARK    2  A    between atoms: C9_9  and  N11_11 
ROOT
HETATM    1  C3  UNL     1     -31.618   5.716   1.293  1.00 20.00     0.300 C 
HETATM    2  C4  UNL     1     -33.090   5.337   1.482  1.00 20.00     0.302 C 
HETATM    3  C5  UNL     1     -33.596   7.625   2.065  1.00 20.00     0.307 C 
HETATM    4  C6  UNL     1     -32.115   8.001   1.877  1.00 20.00     0.244 C 
HETATM    5  C8  UNL     1     -31.985   9.449   1.403  1.00 20.00     0.044 C 
HETATM    6  N10 UNL     1     -31.467   7.118   0.899  1.00 20.00     0.091 N 
HETATM    7  N11 UNL     1     -33.810   6.213   2.415  1.00 20.00     0.096 N 
HETATM    8  H29 UNL     1     -30.478   7.348   0.828  1.00 20.00     0.316 HD
ENDROOT
BRANCH   7   9
HETATM    9  C9  UNL     1     -33.470   5.934   3.809  1.00 20.00     0.305 C 
BRANCH   9  10
HETATM   10  C2  UNL     1     -34.318   4.805   4.321  1.00 20.00    -0.065 C 
HETATM   11  C1  UNL     1     -35.596   4.997   4.682  1.00 20.00     0.015 C 
HETATM   12  C7  UNL     1     -33.663   3.459   4.447  1.00 20.00     0.044 C 
ENDBRANCH   9  10
ENDBRANCH   7   9
TORSDOF 2
ENDMDL
MODEL 6
REMARK VINA RESULT:       2.6      1.212      4.442
REMARK  2 active torsions:
REMARK  status: ('A' for Active; 'I' for Inactive)
REMARK    1  A    between atoms: C2_2  and  C9_9 
REMARK    2  A    between atoms: C9_9  and  N11_11 
ROOT
HETATM    1  C3  UNL     1     -30.811   7.095   1.604  1.00 20.00     0.300 C 
HETATM    2  C4  UNL     1     -31.946   6.073   1.499  1.00 20.00     0.302 C 
HETATM    3  C5  UNL     1     -33.519   7.868   1.130  1.00 20.00     0.307 C 
HETATM    4  C6  UNL     1     -32.376   8.893   1.240  1.00 20.00     0.244 C 
HETATM    5  C8  UNL     1     -32.665  10.115   0.369  1.00 20.00     0.044 C 
HETATM    6  N10 UNL     1     -31.097   8.302   0.826  1.00 20.00     0.091 N 
HETATM    7  N11 UNL     1     -33.265   6.615   1.855  1.00 20.00     0.096 N 
HETATM    8  H29 UNL     1     -30.346   8.977   0.955  1.00 20.00     0.316 HD
ENDROOT
BRANCH   7   9
HETATM    9  C9  UNL     1     -33.424   6.771   3.299  1.00 20.00     0.305 C 
BRANCH   9  10
HETATM   10  C2  UNL     1     -34.463   5.809   3.802  1.00 20.00    -0.065 C 
HETATM   11  C1  UNL     1     -35.707   6.215   4.100  1.00 20.00     0.015 C 
HETATM   12  C7  UNL     1     -34.038   4.382   3.993  1.00 20.00     0.044 C 
ENDBRANCH   9  10
ENDBRANCH   7   9
TORSDOF 2
ENDMDL
MODEL 7
REMARK VINA RESULT:       2.9      1.332      4.126
REMARK  2 active torsions:
REMARK  status: ('A' for Active; 'I' for Inactive)
REMARK    1  A    between atoms: C2_2  and  C9_9 
REMARK    2  A    between atoms: C9_9  and  N11_11 
ROOT
HETATM    1  C3  UNL     1     -31.089   5.665   1.352  1.00 20.00     0.300 C 
HETATM    2  C4  UNL     1     -32.482   5.036   1.255  1.00 20.00     0.302 C 
HETATM    3  C5  UNL     1     -33.478   7.221   1.518  1.00 20.00     0.307 C 
HETATM    4  C6  UNL     1     -32.075   7.848   1.620  1.00 20.00     0.244 C 
HETATM    5  C8  UNL     1     -32.082   9.272   1.063  1.00 20.00     0.044 C 
HETATM    6  N10 UNL     1     -31.087   7.051   0.882  1.00 20.00     0.091 N 
HETATM    7  N11 UNL     1     -33.529   5.812   1.934  1.00 20.00     0.096 N 
HETATM    8  H29 UNL     1     -30.159   7.451   1.004  1.00 20.00     0.316 HD
ENDROOT
BRANCH   7   9
HETATM    9  C9  UNL     1     -33.470   5.663   3.386  1.00 20.00     0.305 C 
BRANCH   9  10
HETATM   10  C2  UNL     1     -34.490   6.558   4.030  1.00 20.00    -0.065 C 
HETATM   11  C1  UNL     1     -35.801   6.271   3.985  1.00 20.00     0.015 C 
HETATM   12  C7  UNL     1     -33.984   7.806   4.694  1.00 20.00     0.044 C 
ENDBRANCH   9  10
ENDBRANCH   7   9
TORSDOF 2
ENDMDL
MODEL 8
REMARK VINA RESULT:       2.9      1.803      3.615
REMARK  2 active torsions:
REMARK  status: ('A' for Active; 'I' for Inactive)
REMARK    1  A    between atoms: C2_2  and  C9_9 
REMARK    2  A    between atoms: C9_9  and  N11_11 
ROOT
HETATM    1  C3  UNL     1     -32.236   8.105   3.396  1.00 20.00     0.300 C 
HETATM    2  C4  UNL     1     -32.261   7.960   1.872  1.00 20.00     0.302 C 
HETATM    3  C5  UNL     1     -34.036   6.334   2.062  1.00 20.00     0.307 C 
HETATM    4  C6  UNL     1     -34.006   6.479   3.595  1.00 20.00     0.244 C 
HETATM    5  C8  UNL     1     -35.395   6.239   4.185  1.00 20.00     0.044 C 
HETATM    6  N10 UNL     1     -33.544   7.817   3.988  1.00 20.00     0.091 N 
HETATM    7  N11 UNL     1     -32.760   6.658   1.410  1.00 20.00     0.096 N 
HETATM    8  H29 UNL     1     -33.480   7.876   5.003  1.00 20.00     0.316 HD
ENDROOT
BRANCH   7   9
HETATM    9  C9  UNL     1     -31.769   5.597   1.580  1.00 20.00     0.305 C 
BRANCH   9  10
HETATM   10  C2  UNL     1     -31.934   4.571   0.495  1.00 20.00    -0.065 C 
HETATM   11  C1  UNL     1     -30.886   3.877   0.023  1.00 20.00     0.015 C 
HETATM   12  C7  UNL     1     -33.314   4.383  -0.066  1.00 20.00     0.044 C 
ENDBRANCH   9  10
ENDBRANCH   7   9
TORSDOF 2
ENDMDL
MODEL 9
REMARK VINA RESULT:       2.9      1.754      4.279
REMARK  2 active torsions:
REMARK  status: ('A' for Active; 'I' for Inactive)
REMARK    1  A    between atoms: C2_2  and  C9_9 
REMARK    2  A    between atoms: C9_9  and  N11_11 
ROOT
HETATM    1  C3  UNL     1     -32.086   8.451   1.921  1.00 20.00     0.300 C 
HETATM    2  C4  UNL     1     -32.118   8.151   3.422  1.00 20.00     0.302 C 
HETATM    3  C5  UNL     1     -32.970   5.940   2.956  1.00 20.00     0.307 C 
HETATM    4  C6  UNL     1     -32.941   6.247   1.447  1.00 20.00     0.244 C 
HETATM    5  C8  UNL     1     -32.680   4.972   0.645  1.00 20.00     0.044 C 
HETATM    6  N10 UNL     1     -31.900   7.233   1.130  1.00 20.00     0.091 N 
HETATM    7  N11 UNL     1     -33.108   7.135   3.802  1.00 20.00     0.096 N 
HETATM    8  H29 UNL     1     -31.931   7.462   0.139  1.00 20.00     0.316 HD
ENDROOT
BRANCH   7   9
HETATM    9  C9  UNL     1     -34.470   7.662   3.792  1.00 20.00     0.305 C 
BRANCH   9  10
HETATM   10  C2  UNL     1     -35.454   6.527   3.789  1.00 20.00    -0.065 C 
HETATM   11  C1  UNL     1     -35.250   5.422   4.522  1.00 20.00     0.015 C 
HETATM   12  C7  UNL     1     -36.657   6.667   2.901  1.00 20.00     0.044 C 
ENDBRANCH   9  10
ENDBRANCH   7   9
TORSDOF 2
ENDMDL
