MODEL 1
REMARK VINA RESULT:      -2.9      0.000      0.000
REMARK  2 active torsions:
REMARK  status: ('A' for Active; 'I' for Inactive)
REMARK    1  A    between atoms: C3_3  and  C5_5 
REMARK    2  A    between atoms: C3_3  and  C8_8 
ROOT
HETATM    1  C1  UNL     1     -32.598   9.816  -0.013  1.00 20.00     0.012 C 
HETATM    2  C2  UNL     1     -32.240   9.050   0.838  1.00 20.00    -0.110 C 
HETATM    3  C8  UNL     1     -31.795   8.118   1.881  1.00 20.00     0.171 C 
ENDROOT
BRANCH   3   4
HETATM    4  C3  UNL     1     -32.690   6.900   1.994  1.00 20.00     0.142 C 
HETATM    5  O9  UNL     1     -32.352   5.779   1.617  1.00 20.00    -0.297 OA
BRANCH   4   6
HETATM    6  C5  UNL     1     -34.012   7.126   2.588  1.00 20.00     0.060 A 
HETATM    7  C4  UNL     1     -34.495   6.216   3.689  1.00 20.00     0.017 A 
HETATM    8  C6  UNL     1     -34.152   7.645   3.999  1.00 20.00    -0.007 A 
HETATM    9  C7  UNL     1     -32.968   7.961   4.848  1.00 20.00     0.011 C 
ENDBRANCH   4   6
ENDBRANCH   3   4
TORSDOF 2
ENDMDL
MODEL 2
REMARK VINA RESULT:      -2.6      0.878      1.536
REMARK  2 active torsions:
REMARK  status: ('A' for Active; 'I' for Inactive)
REMARK    1  A    between atoms: C3_3  and  C5_5 
REMARK    2  A    between atoms: C3_3  and  C8_8 
ROOT
HETATM    1  C1  UNL     1     -32.393   9.640   0.176  1.00 20.00     0.012 C 
HETATM    2  C2  UNL     1     -32.205   8.879   1.085  1.00 20.00    -0.110 C 
HETATM    3  C8  UNL     1     -31.967   7.953   2.198  1.00 20.00     0.171 C 
ENDROOT
BRANCH   3   4
HETATM    4  C3  UNL     1     -33.068   6.920   2.340  1.00 20.00     0.142 C 
HETATM    5  O9  UNL     1     -33.239   6.006   1.535  1.00 20.00    -0.297 OA
BRANCH   4   6
HETATM    6  C5  UNL     1     -33.940   7.066   3.510  1.00 20.00     0.060 A 
HETATM    7  C4  UNL     1     -35.390   6.663   3.408  1.00 20.00     0.017 A 
HETATM    8  C6  UNL     1     -34.449   5.855   4.256  1.00 20.00    -0.007 A 
HETATM    9  C7  UNL     1     -34.086   4.466   3.852  1.00 20.00     0.011 C 
ENDBRANCH   4   6
ENDBRANCH   3   4
TORSDOF 2
ENDMDL
MODEL 3
REMARK VINA RESULT:      -2.4      1.278      1.712
REMARK  2 active torsions:
REMARK  status: ('A' for Active; 'I' for Inactive)
REMARK    1  A    between atoms: C3_3  and  C5_5 
REMARK    2  A    between atoms: C3_3  and  C8_8 
ROOT
HETATM    1  C1  UNL     1     -31.826   8.377   1.482  1.00 20.00     0.012 C 
HETATM    2  C2  UNL     1     -32.159   7.226   1.539  1.00 20.00    -0.110 C 
HETATM    3  C8  UNL     1     -32.563   5.816   1.601  1.00 20.00     0.171 C 
ENDROOT
BRANCH   3   4
HETATM    4  C3  UNL     1     -33.448   5.517   2.796  1.00 20.00     0.142 C 
HETATM    5  O9  UNL     1     -33.239   4.584   3.570  1.00 20.00    -0.297 OA
BRANCH   4   6
HETATM    6  C5  UNL     1     -34.593   6.413   2.989  1.00 20.00     0.060 A 
HETATM    7  C4  UNL     1     -35.407   6.312   4.254  1.00 20.00     0.017 A 
HETATM    8  C6  UNL     1     -34.549   7.521   4.014  1.00 20.00    -0.007 A 
HETATM    9  C7  UNL     1     -33.349   7.765   4.865  1.00 20.00     0.011 C 
ENDBRANCH   4   6
ENDBRANCH   3   4
TORSDOF 2
ENDMDL
MODEL 4
REMARK VINA RESULT:      -2.4      1.731      4.249
REMARK  2 active torsions:
REMARK  status: ('A' for Active; 'I' for Inactive)
REMARK    1  A    between atoms: C3_3  and  C5_5 
REMARK    2  A    between atoms: C3_3  and  C8_8 
ROOT
HETATM    1  C1  UNL     1     -33.983   3.811   4.337  1.00 20.00     0.012 C 
HETATM    2  C2  UNL     1     -34.357   4.917   4.059  1.00 20.00    -0.110 C 
HETATM    3  C8  UNL     1     -34.823   6.266   3.718  1.00 20.00     0.171 C 
ENDROOT
BRANCH   3   4
HETATM    4  C3  UNL     1     -33.687   7.266   3.623  1.00 20.00     0.142 C 
HETATM    5  O9  UNL     1     -33.071   7.680   4.604  1.00 20.00    -0.297 OA
BRANCH   4   6
HETATM    6  C5  UNL     1     -33.349   7.730   2.273  1.00 20.00     0.060 A 
HETATM    7  C4  UNL     1     -31.928   8.125   1.959  1.00 20.00     0.017 A 
HETATM    8  C6  UNL     1     -32.510   6.882   1.347  1.00 20.00    -0.007 A 
HETATM    9  C7  UNL     1     -31.996   5.541   1.749  1.00 20.00     0.011 C 
ENDBRANCH   4   6
ENDBRANCH   3   4
TORSDOF 2
ENDMDL
MODEL 5
REMARK VINA RESULT:      -2.3      2.012      4.509
REMARK  2 active torsions:
REMARK  status: ('A' for Active; 'I' for Inactive)
REMARK    1  A    between atoms: C3_3  and  C5_5 
REMARK    2  A    between atoms: C3_3  and  C8_8 
ROOT
HETATM    1  C1  UNL     1     -33.231   2.873   4.685  1.00 20.00     0.012 C 
HETATM    2  C2  UNL     1     -33.884   3.842   4.412  1.00 20.00    -0.110 C 
HETATM    3  C8  UNL     1     -34.691   5.022   4.082  1.00 20.00     0.171 C 
ENDROOT
BRANCH   3   4
HETATM    4  C3  UNL     1     -33.887   6.095   3.373  1.00 20.00     0.142 C 
HETATM    5  O9  UNL     1     -34.011   7.296   3.612  1.00 20.00    -0.297 OA
BRANCH   4   6
HETATM    6  C5  UNL     1     -32.933   5.624   2.364  1.00 20.00     0.060 A 
HETATM    7  C4  UNL     1     -33.193   5.912   0.907  1.00 20.00     0.017 A 
HETATM    8  C6  UNL     1     -32.055   6.595   1.611  1.00 20.00    -0.007 A 
HETATM    9  C7  UNL     1     -32.105   8.064   1.859  1.00 20.00     0.011 C 
ENDBRANCH   4   6
ENDBRANCH   3   4
TORSDOF 2
ENDMDL
MODEL 6
REMARK VINA RESULT:      -2.0      1.819      4.268
REMARK  2 active torsions:
REMARK  status: ('A' for Active; 'I' for Inactive)
REMARK    1  A    between atoms: C3_3  and  C5_5 
REMARK    2  A    between atoms: C3_3  and  C8_8 
ROOT
HETATM    1  C1  UNL     1     -33.092   2.753   4.738  1.00 20.00     0.012 C 
HETATM    2  C2  UNL     1     -33.798   3.696   4.501  1.00 20.00    -0.110 C 
HETATM    3  C8  UNL     1     -34.666   4.843   4.216  1.00 20.00     0.171 C 
ENDROOT
BRANCH   3   4
HETATM    4  C3  UNL     1     -34.033   5.826   3.250  1.00 20.00     0.142 C 
HETATM    5  O9  UNL     1     -33.418   5.478   2.244  1.00 20.00    -0.297 OA
BRANCH   4   6
HETATM    6  C5  UNL     1     -34.192   7.246   3.581  1.00 20.00     0.060 A 
HETATM    7  C4  UNL     1     -33.216   7.900   4.526  1.00 20.00     0.017 A 
HETATM    8  C6  UNL     1     -33.214   8.277   3.072  1.00 20.00    -0.007 A 
HETATM    9  C7  UNL     1     -32.055   7.911   2.207  1.00 20.00     0.011 C 
ENDBRANCH   4   6
ENDBRANCH   3   4
TORSDOF 2
ENDMDL
MODEL 7
REMARK VINA RESULT:      -1.9      1.248      1.541
REMARK  2 active torsions:
REMARK  status: ('A' for Active; 'I' for Inactive)
REMARK    1  A    between atoms: C3_3  and  C5_5 
REMARK    2  A    between atoms: C3_3  and  C8_8 
ROOT
HETATM    1  C1  UNL     1     -32.792  10.697   0.092  1.00 20.00     0.012 C 
HETATM    2  C2  UNL     1     -32.321   9.618   0.325  1.00 20.00    -0.110 C 
HETATM    3  C8  UNL     1     -31.743   8.298   0.601  1.00 20.00     0.171 C 
ENDROOT
BRANCH   3   4
HETATM    4  C3  UNL     1     -32.172   7.745   1.946  1.00 20.00     0.142 C 
HETATM    5  O9  UNL     1     -31.734   8.164   3.016  1.00 20.00    -0.297 OA
BRANCH   4   6
HETATM    6  C5  UNL     1     -33.158   6.659   1.911  1.00 20.00     0.060 A 
HETATM    7  C4  UNL     1     -33.051   5.530   2.904  1.00 20.00     0.017 A 
HETATM    8  C6  UNL     1     -34.187   6.508   3.004  1.00 20.00    -0.007 A 
HETATM    9  C7  UNL     1     -34.262   7.450   4.158  1.00 20.00     0.011 C 
ENDBRANCH   4   6
ENDBRANCH   3   4
TORSDOF 2
ENDMDL
MODEL 8
REMARK VINA RESULT:      -1.9      0.877      3.942
REMARK  2 active torsions:
REMARK  status: ('A' for Active; 'I' for Inactive)
REMARK    1  A    between atoms: C3_3  and  C5_5 
REMARK    2  A    between atoms: C3_3  and  C8_8 
ROOT
HETATM    1  C1  UNL     1     -35.361   6.104   4.100  1.00 20.00     0.012 C 
HETATM    2  C2  UNL     1     -34.476   6.851   3.786  1.00 20.00    -0.110 C 
HETATM    3  C8  UNL     1     -33.396   7.770   3.409  1.00 20.00     0.171 C 
ENDROOT
BRANCH   3   4
HETATM    4  C3  UNL     1     -32.702   7.357   2.126  1.00 20.00     0.142 C 
HETATM    5  O9  UNL     1     -33.043   6.379   1.462  1.00 20.00    -0.297 OA
BRANCH   4   6
HETATM    6  C5  UNL     1     -31.577   8.197   1.703  1.00 20.00     0.060 A 
HETATM    7  C4  UNL     1     -31.147   8.187   0.258  1.00 20.00     0.017 A 
HETATM    8  C6  UNL     1     -31.798   9.412   0.834  1.00 20.00    -0.007 A 
HETATM    9  C7  UNL     1     -33.156   9.822   0.375  1.00 20.00     0.011 C 
ENDBRANCH   4   6
ENDBRANCH   3   4
TORSDOF 2
ENDMDL
MODEL 9
REMARK VINA RESULT:      -1.8      1.550      2.287
REMARK  2 active torsions:
REMARK  status: ('A' for Active; 'I' for Inactive)
REMARK    1  A    between atoms: C3_3  and  C5_5 
REMARK    2  A    between atoms: C3_3  and  C8_8 
ROOT
HETATM    1  C1  UNL     1     -31.954   9.040   0.922  1.00 20.00     0.012 C 
HETATM    2  C2  UNL     1     -32.432   8.142   1.560  1.00 20.00    -0.110 C 
HETATM    3  C8  UNL     1     -33.016   7.040   2.332  1.00 20.00     0.171 C 
ENDROOT
BRANCH   3   4
HETATM    4  C3  UNL     1     -33.383   7.450   3.745  1.00 20.00     0.142 C 
HETATM    5  O9  UNL     1     -32.602   8.023   4.503  1.00 20.00    -0.297 OA
BRANCH   4   6
HETATM    6  C5  UNL     1     -34.746   7.122   4.177  1.00 20.00     0.060 A 
HETATM    7  C4  UNL     1     -35.697   6.477   3.201  1.00 20.00     0.017 A 
HETATM    8  C6  UNL     1     -35.177   5.688   4.369  1.00 20.00    -0.007 A 
HETATM    9  C7  UNL     1     -34.248   4.544   4.141  1.00 20.00     0.011 C 
ENDBRANCH   4   6
ENDBRANCH   3   4
TORSDOF 2
ENDMDL
