MODEL 1
REMARK VINA RESULT:       1.6      0.000      0.000
REMARK  1 active torsions:
REMARK  status: ('A' for Active; 'I' for Inactive)
REMARK    1  A    between atoms: C3_3  and  C8_8 
ROOT
HETATM    1  C1  UNL     1     -34.549   6.476   4.000  1.00 20.00     0.285 C 
HETATM    2  C2  UNL     1     -33.590   5.299   3.829  1.00 20.00     0.073 C 
HETATM    3  C3  UNL     1     -33.363   7.321   2.149  1.00 20.00     0.289 C 
HETATM    4  C4  UNL     1     -34.285   3.953   3.935  1.00 20.00     0.023 C 
HETATM    5  N9  UNL     1     -33.861   7.662   3.485  1.00 20.00     0.099 N 
HETATM    6  S10 UNL     1     -32.885   5.564   2.177  1.00 20.00    -0.127 SA
HETATM    7  H27 UNL     1     -34.500   8.454   3.434  1.00 20.00     0.317 HD
ENDROOT
BRANCH   3   8
HETATM    8  C8  UNL     1     -32.179   8.202   1.786  1.00 20.00    -0.011 C 
HETATM    9  C5  UNL     1     -31.096   7.363   1.080  1.00 20.00     0.017 C 
HETATM   10  C6  UNL     1     -31.576   8.827   3.058  1.00 20.00     0.017 C 
HETATM   11  C7  UNL     1     -32.631   9.331   0.840  1.00 20.00     0.017 C 
ENDBRANCH   3   8
TORSDOF 1
ENDMDL
MODEL 2
REMARK VINA RESULT:       2.0      1.569      4.219
REMARK  1 active torsions:
REMARK  status: ('A' for Active; 'I' for Inactive)
REMARK    1  A    between atoms: C3_3  and  C8_8 
ROOT
HETATM    1  C1  UNL     1     -31.971   6.386   0.981  1.00 20.00     0.285 C 
HETATM    2  C2  UNL     1     -31.651   7.775   1.532  1.00 20.00     0.073 C 
HETATM    3  C3  UNL     1     -33.884   6.620   2.335  1.00 20.00     0.289 C 
HETATM    4  C4  UNL     1     -31.163   8.734   0.461  1.00 20.00     0.023 C 
HETATM    5  N9  UNL     1     -32.790   5.709   1.989  1.00 20.00     0.099 N 
HETATM    6  S10 UNL     1     -33.227   8.317   2.254  1.00 20.00    -0.127 SA
HETATM    7  H27 UNL     1     -33.160   4.833   1.622  1.00 20.00     0.317 HD
ENDROOT
BRANCH   3   8
HETATM    8  C8  UNL     1     -34.414   6.308   3.725  1.00 20.00    -0.011 C 
HETATM    9  C5  UNL     1     -35.954   6.322   3.717  1.00 20.00     0.017 C 
HETATM   10  C6  UNL     1     -33.909   7.360   4.731  1.00 20.00     0.017 C 
HETATM   11  C7  UNL     1     -33.929   4.916   4.174  1.00 20.00     0.017 C 
ENDBRANCH   3   8
TORSDOF 1
ENDMDL
MODEL 3
REMARK VINA RESULT:       2.0      1.571      4.170
REMARK  1 active torsions:
REMARK  status: ('A' for Active; 'I' for Inactive)
REMARK    1  A    between atoms: C3_3  and  C8_8 
ROOT
HETATM    1  C1  UNL     1     -31.975   6.395   0.956  1.00 20.00     0.285 C 
HETATM    2  C2  UNL     1     -31.643   7.776   1.518  1.00 20.00     0.073 C 
HETATM    3  C3  UNL     1     -33.875   6.625   2.327  1.00 20.00     0.289 C 
HETATM    4  C4  UNL     1     -31.158   8.744   0.454  1.00 20.00     0.023 C 
HETATM    5  N9  UNL     1     -32.789   5.711   1.963  1.00 20.00     0.099 N 
HETATM    6  S10 UNL     1     -33.210   8.319   2.259  1.00 20.00    -0.127 SA
HETATM    7  H27 UNL     1     -33.166   4.841   1.590  1.00 20.00     0.317 HD
ENDROOT
BRANCH   3   8
HETATM    8  C8  UNL     1     -34.396   6.300   3.718  1.00 20.00    -0.011 C 
HETATM    9  C5  UNL     1     -33.921   4.898   4.144  1.00 20.00     0.017 C 
HETATM   10  C6  UNL     1     -35.936   6.330   3.724  1.00 20.00     0.017 C 
HETATM   11  C7  UNL     1     -33.872   7.335   4.732  1.00 20.00     0.017 C 
ENDBRANCH   3   8
TORSDOF 1
ENDMDL
MODEL 4
REMARK VINA RESULT:       2.0      1.570      4.187
REMARK  1 active torsions:
REMARK  status: ('A' for Active; 'I' for Inactive)
REMARK    1  A    between atoms: C3_3  and  C8_8 
ROOT
HETATM    1  C1  UNL     1     -31.964   6.379   0.985  1.00 20.00     0.285 C 
HETATM    2  C2  UNL     1     -31.648   7.771   1.532  1.00 20.00     0.073 C 
HETATM    3  C3  UNL     1     -33.881   6.614   2.333  1.00 20.00     0.289 C 
HETATM    4  C4  UNL     1     -31.159   8.727   0.459  1.00 20.00     0.023 C 
HETATM    5  N9  UNL     1     -32.785   5.703   1.993  1.00 20.00     0.099 N 
HETATM    6  S10 UNL     1     -33.227   8.312   2.248  1.00 20.00    -0.127 SA
HETATM    7  H27 UNL     1     -33.152   4.826   1.628  1.00 20.00     0.317 HD
ENDROOT
BRANCH   3   8
HETATM    8  C8  UNL     1     -34.414   6.305   3.723  1.00 20.00    -0.011 C 
HETATM    9  C5  UNL     1     -33.907   7.358   4.727  1.00 20.00     0.017 C 
HETATM   10  C6  UNL     1     -33.934   4.913   4.174  1.00 20.00     0.017 C 
HETATM   11  C7  UNL     1     -35.955   6.324   3.713  1.00 20.00     0.017 C 
ENDBRANCH   3   8
TORSDOF 1
ENDMDL
MODEL 5
REMARK VINA RESULT:       2.7      1.758      3.382
REMARK  1 active torsions:
REMARK  status: ('A' for Active; 'I' for Inactive)
REMARK    1  A    between atoms: C3_3  and  C8_8 
ROOT
HETATM    1  C1  UNL     1     -31.784   7.040   1.259  1.00 20.00     0.285 C 
HETATM    2  C2  UNL     1     -32.595   5.763   1.045  1.00 20.00     0.073 C 
HETATM    3  C3  UNL     1     -32.912   7.052   3.326  1.00 20.00     0.289 C 
HETATM    4  C4  UNL     1     -31.769   4.633   0.458  1.00 20.00     0.023 C 
HETATM    5  N9  UNL     1     -32.555   7.885   2.174  1.00 20.00     0.099 N 
HETATM    6  S10 UNL     1     -33.199   5.362   2.711  1.00 20.00    -0.127 SA
HETATM    7  H27 UNL     1     -32.004   8.687   2.473  1.00 20.00     0.317 HD
ENDROOT
BRANCH   3   8
HETATM    8  C8  UNL     1     -34.154   7.600   4.011  1.00 20.00    -0.011 C 
HETATM    9  C5  UNL     1     -34.726   8.778   3.199  1.00 20.00     0.017 C 
HETATM   10  C6  UNL     1     -33.801   8.093   5.427  1.00 20.00     0.017 C 
HETATM   11  C7  UNL     1     -35.226   6.499   4.118  1.00 20.00     0.017 C 
ENDBRANCH   3   8
TORSDOF 1
ENDMDL
MODEL 6
REMARK VINA RESULT:       2.7      0.642      1.259
REMARK  1 active torsions:
REMARK  status: ('A' for Active; 'I' for Inactive)
REMARK    1  A    between atoms: C3_3  and  C8_8 
ROOT
HETATM    1  C1  UNL     1     -34.562   7.150   4.216  1.00 20.00     0.285 C 
HETATM    2  C2  UNL     1     -33.780   5.854   4.008  1.00 20.00     0.073 C 
HETATM    3  C3  UNL     1     -33.487   7.768   2.215  1.00 20.00     0.289 C 
HETATM    4  C4  UNL     1     -34.621   4.614   4.251  1.00 20.00     0.023 C 
HETATM    5  N9  UNL     1     -33.793   8.219   3.575  1.00 20.00     0.099 N 
HETATM    6  S10 UNL     1     -33.229   5.967   2.281  1.00 20.00    -0.127 SA
HETATM    7  H27 UNL     1     -34.331   9.084   3.551  1.00 20.00     0.317 HD
ENDROOT
BRANCH   3   8
HETATM    8  C8  UNL     1     -32.248   8.476   1.690  1.00 20.00    -0.011 C 
HETATM    9  C5  UNL     1     -31.169   8.536   2.788  1.00 20.00     0.017 C 
HETATM   10  C6  UNL     1     -32.604   9.913   1.261  1.00 20.00     0.017 C 
HETATM   11  C7  UNL     1     -31.682   7.718   0.474  1.00 20.00     0.017 C 
ENDBRANCH   3   8
TORSDOF 1
ENDMDL
MODEL 7
REMARK VINA RESULT:       3.2      1.513      1.956
REMARK  1 active torsions:
REMARK  status: ('A' for Active; 'I' for Inactive)
REMARK    1  A    between atoms: C3_3  and  C8_8 
ROOT
HETATM    1  C1  UNL     1     -35.060   4.645   4.500  1.00 20.00     0.285 C 
HETATM    2  C2  UNL     1     -33.619   4.137   4.522  1.00 20.00     0.073 C 
HETATM    3  C3  UNL     1     -34.117   6.363   3.195  1.00 20.00     0.289 C 
HETATM    4  C4  UNL     1     -33.519   2.642   4.279  1.00 20.00     0.023 C 
HETATM    5  N9  UNL     1     -34.995   6.099   4.337  1.00 20.00     0.099 N 
HETATM    6  S10 UNL     1     -32.816   5.089   3.200  1.00 20.00    -0.127 SA
HETATM    7  H27 UNL     1     -35.923   6.483   4.169  1.00 20.00     0.317 HD
ENDROOT
BRANCH   3   8
HETATM    8  C8  UNL     1     -33.516   7.756   3.300  1.00 20.00    -0.011 C 
HETATM    9  C5  UNL     1     -32.363   7.909   2.289  1.00 20.00     0.017 C 
HETATM   10  C6  UNL     1     -32.968   7.988   4.721  1.00 20.00     0.017 C 
HETATM   11  C7  UNL     1     -34.590   8.818   2.998  1.00 20.00     0.017 C 
ENDBRANCH   3   8
TORSDOF 1
ENDMDL
MODEL 8
REMARK VINA RESULT:       3.3      1.740      2.153
REMARK  1 active torsions:
REMARK  status: ('A' for Active; 'I' for Inactive)
REMARK    1  A    between atoms: C3_3  and  C8_8 
ROOT
HETATM    1  C1  UNL     1     -33.049   5.745   2.279  1.00 20.00     0.285 C 
HETATM    2  C2  UNL     1     -34.185   6.571   2.879  1.00 20.00     0.073 C 
HETATM    3  C3  UNL     1     -32.155   7.871   1.805  1.00 20.00     0.289 C 
HETATM    4  C4  UNL     1     -34.642   6.049   4.229  1.00 20.00     0.023 C 
HETATM    5  N9  UNL     1     -32.445   6.558   1.222  1.00 20.00     0.099 N 
HETATM    6  S10 UNL     1     -33.474   8.237   3.007  1.00 20.00    -0.127 SA
HETATM    7  H27 UNL     1     -31.589   6.125   0.879  1.00 20.00     0.317 HD
ENDROOT
BRANCH   3   8
HETATM    8  C8  UNL     1     -32.100   8.933   0.719  1.00 20.00    -0.011 C 
HETATM    9  C5  UNL     1     -30.644   9.138   0.257  1.00 20.00     0.017 C 
HETATM   10  C6  UNL     1     -32.645  10.269   1.258  1.00 20.00     0.017 C 
HETATM   11  C7  UNL     1     -32.951   8.497  -0.489  1.00 20.00     0.017 C 
ENDBRANCH   3   8
TORSDOF 1
ENDMDL
MODEL 9
REMARK VINA RESULT:       3.3      1.738      2.507
REMARK  1 active torsions:
REMARK  status: ('A' for Active; 'I' for Inactive)
REMARK    1  A    between atoms: C3_3  and  C8_8 
ROOT
HETATM    1  C1  UNL     1     -33.053   5.742   2.279  1.00 20.00     0.285 C 
HETATM    2  C2  UNL     1     -34.190   6.566   2.881  1.00 20.00     0.073 C 
HETATM    3  C3  UNL     1     -32.157   7.870   1.818  1.00 20.00     0.289 C 
HETATM    4  C4  UNL     1     -34.651   6.038   4.228  1.00 20.00     0.023 C 
HETATM    5  N9  UNL     1     -32.446   6.561   1.227  1.00 20.00     0.099 N 
HETATM    6  S10 UNL     1     -33.478   8.231   3.018  1.00 20.00    -0.127 SA
HETATM    7  H27 UNL     1     -31.589   6.128   0.885  1.00 20.00     0.317 HD
ENDROOT
BRANCH   3   8
HETATM    8  C8  UNL     1     -32.098   8.937   0.736  1.00 20.00    -0.011 C 
HETATM    9  C5  UNL     1     -32.639  10.272   1.283  1.00 20.00     0.017 C 
HETATM   10  C6  UNL     1     -32.952   8.510  -0.473  1.00 20.00     0.017 C 
HETATM   11  C7  UNL     1     -30.643   9.139   0.273  1.00 20.00     0.017 C 
ENDBRANCH   3   8
TORSDOF 1
ENDMDL
