MODEL 1
REMARK VINA RESULT:      -2.6      0.000      0.000
REMARK  3 active torsions:
REMARK  status: ('A' for Active; 'I' for Inactive)
REMARK    1  A    between atoms: C1_1  and  C3_3 
REMARK    2  A    between atoms: C1_1  and  C7_7 
REMARK    3  A    between atoms: C7_7  and  C8_8 
ROOT
HETATM    1  C1  UNL     1     -32.749   6.870   2.019  1.00 20.00     0.131 C 
HETATM    2  O9  UNL     1     -32.301   5.783   1.662  1.00 20.00    -0.298 OA
ENDROOT
BRANCH   1   3
HETATM    3  C3  UNL     1     -34.118   6.979   2.642  1.00 20.00     0.059 A 
HETATM    4  C2  UNL     1     -34.450   6.061   3.767  1.00 20.00     0.017 A 
HETATM    5  C4  UNL     1     -34.258   7.531   4.018  1.00 20.00    -0.007 A 
HETATM    6  C5  UNL     1     -33.105   8.003   4.836  1.00 20.00     0.011 C 
ENDBRANCH   1   3
BRANCH   1   7
HETATM    7  C7  UNL     1     -31.979   8.171   1.867  1.00 20.00     0.078 C 
BRANCH   7   8
HETATM    8  C8  UNL     1     -32.019   8.711   0.441  1.00 20.00     0.003 C 
HETATM    9  C6  UNL     1     -32.554  10.134   0.399  1.00 20.00     0.005 C 
ENDBRANCH   7   8
ENDBRANCH   1   7
TORSDOF 3
ENDMDL
MODEL 2
REMARK VINA RESULT:      -2.5      0.866      1.568
REMARK  3 active torsions:
REMARK  status: ('A' for Active; 'I' for Inactive)
REMARK    1  A    between atoms: C1_1  and  C3_3 
REMARK    2  A    between atoms: C1_1  and  C7_7 
REMARK    3  A    between atoms: C7_7  and  C8_8 
ROOT
HETATM    1  C1  UNL     1     -33.121   6.960   2.485  1.00 20.00     0.131 C 
HETATM    2  O9  UNL     1     -33.117   5.984   1.736  1.00 20.00    -0.298 OA
ENDROOT
BRANCH   1   3
HETATM    3  C3  UNL     1     -34.069   7.038   3.653  1.00 20.00     0.059 A 
HETATM    4  C2  UNL     1     -35.474   6.589   3.446  1.00 20.00     0.017 A 
HETATM    5  C4  UNL     1     -34.539   5.784   4.305  1.00 20.00    -0.007 A 
HETATM    6  C5  UNL     1     -34.114   4.423   3.871  1.00 20.00     0.011 C 
ENDBRANCH   1   3
BRANCH   1   7
HETATM    7  C7  UNL     1     -32.189   8.145   2.300  1.00 20.00     0.078 C 
BRANCH   7   8
HETATM    8  C8  UNL     1     -31.895   8.435   0.831  1.00 20.00     0.003 C 
HETATM    9  C6  UNL     1     -32.430   9.795   0.413  1.00 20.00     0.005 C 
ENDBRANCH   7   8
ENDBRANCH   1   7
TORSDOF 3
ENDMDL
MODEL 3
REMARK VINA RESULT:      -2.1      0.870      1.184
REMARK  3 active torsions:
REMARK  status: ('A' for Active; 'I' for Inactive)
REMARK    1  A    between atoms: C1_1  and  C3_3 
REMARK    2  A    between atoms: C1_1  and  C7_7 
REMARK    3  A    between atoms: C7_7  and  C8_8 
ROOT
HETATM    1  C1  UNL     1     -33.271   5.965   2.501  1.00 20.00     0.131 C 
HETATM    2  O9  UNL     1     -32.990   4.900   3.048  1.00 20.00    -0.298 OA
ENDROOT
BRANCH   1   3
HETATM    3  C3  UNL     1     -34.506   6.737   2.891  1.00 20.00     0.059 A 
HETATM    4  C2  UNL     1     -35.225   6.327   4.130  1.00 20.00     0.017 A 
HETATM    5  C4  UNL     1     -34.471   7.627   4.085  1.00 20.00    -0.007 A 
HETATM    6  C5  UNL     1     -33.260   7.815   4.934  1.00 20.00     0.011 C 
ENDBRANCH   1   3
BRANCH   1   7
HETATM    7  C7  UNL     1     -32.416   6.581   1.406  1.00 20.00     0.078 C 
BRANCH   7   8
HETATM    8  C8  UNL     1     -31.848   7.939   1.804  1.00 20.00     0.003 C 
HETATM    9  C6  UNL     1     -32.252   9.023   0.817  1.00 20.00     0.005 C 
ENDBRANCH   7   8
ENDBRANCH   1   7
TORSDOF 3
ENDMDL
MODEL 4
REMARK VINA RESULT:      -2.0      1.865      4.255
REMARK  3 active torsions:
REMARK  status: ('A' for Active; 'I' for Inactive)
REMARK    1  A    between atoms: C1_1  and  C3_3 
REMARK    2  A    between atoms: C1_1  and  C7_7 
REMARK    3  A    between atoms: C7_7  and  C8_8 
ROOT
HETATM    1  C1  UNL     1     -33.790   7.399   3.587  1.00 20.00     0.131 C 
HETATM    2  O9  UNL     1     -33.292   7.653   4.682  1.00 20.00    -0.298 OA
ENDROOT
BRANCH   1   3
HETATM    3  C3  UNL     1     -33.187   7.939   2.315  1.00 20.00     0.059 A 
HETATM    4  C2  UNL     1     -31.702   8.005   2.218  1.00 20.00     0.017 A 
HETATM    5  C4  UNL     1     -32.474   7.015   1.389  1.00 20.00    -0.007 A 
HETATM    6  C5  UNL     1     -32.322   5.554   1.641  1.00 20.00     0.011 C 
ENDBRANCH   1   3
BRANCH   1   7
HETATM    7  C7  UNL     1     -35.031   6.538   3.425  1.00 20.00     0.078 C 
BRANCH   7   8
HETATM    8  C8  UNL     1     -35.140   5.461   4.500  1.00 20.00     0.003 C 
HETATM    9  C6  UNL     1     -34.231   4.280   4.200  1.00 20.00     0.005 C 
ENDBRANCH   7   8
ENDBRANCH   1   7
TORSDOF 3
ENDMDL
MODEL 5
REMARK VINA RESULT:      -2.0      1.510      2.261
REMARK  3 active torsions:
REMARK  status: ('A' for Active; 'I' for Inactive)
REMARK    1  A    between atoms: C1_1  and  C3_3 
REMARK    2  A    between atoms: C1_1  and  C7_7 
REMARK    3  A    between atoms: C7_7  and  C8_8 
ROOT
HETATM    1  C1  UNL     1     -33.403   7.482   3.732  1.00 20.00     0.131 C 
HETATM    2  O9  UNL     1     -32.591   7.996   4.499  1.00 20.00    -0.298 OA
ENDROOT
BRANCH   1   3
HETATM    3  C3  UNL     1     -34.784   7.104   4.204  1.00 20.00     0.059 A 
HETATM    4  C2  UNL     1     -35.716   6.487   3.220  1.00 20.00     0.017 A 
HETATM    5  C4  UNL     1     -35.147   5.665   4.342  1.00 20.00    -0.007 A 
HETATM    6  C5  UNL     1     -34.206   4.549   4.045  1.00 20.00     0.011 C 
ENDBRANCH   1   3
BRANCH   1   7
HETATM    7  C7  UNL     1     -33.092   7.190   2.274  1.00 20.00     0.078 C 
BRANCH   7   8
HETATM    8  C8  UNL     1     -31.872   7.956   1.772  1.00 20.00     0.003 C 
HETATM    9  C6  UNL     1     -32.269   9.077   0.826  1.00 20.00     0.005 C 
ENDBRANCH   7   8
ENDBRANCH   1   7
TORSDOF 3
ENDMDL
MODEL 6
REMARK VINA RESULT:      -1.9      0.847      1.494
REMARK  3 active torsions:
REMARK  status: ('A' for Active; 'I' for Inactive)
REMARK    1  A    between atoms: C1_1  and  C3_3 
REMARK    2  A    between atoms: C1_1  and  C7_7 
REMARK    3  A    between atoms: C7_7  and  C8_8 
ROOT
HETATM    1  C1  UNL     1     -32.914   6.880   2.284  1.00 20.00     0.131 C 
HETATM    2  O9  UNL     1     -33.026   6.060   1.375  1.00 20.00    -0.298 OA
ENDROOT
BRANCH   1   3
HETATM    3  C3  UNL     1     -33.393   6.564   3.678  1.00 20.00     0.059 A 
HETATM    4  C2  UNL     1     -33.974   7.671   4.487  1.00 20.00     0.017 A 
HETATM    5  C4  UNL     1     -34.853   6.565   3.973  1.00 20.00    -0.007 A 
HETATM    6  C5  UNL     1     -35.897   6.857   2.952  1.00 20.00     0.011 C 
ENDBRANCH   1   3
BRANCH   1   7
HETATM    7  C7  UNL     1     -32.297   8.254   2.085  1.00 20.00     0.078 C 
BRANCH   7   8
HETATM    8  C8  UNL     1     -32.065   8.583   0.614  1.00 20.00     0.003 C 
HETATM    9  C6  UNL     1     -32.507  10.000   0.284  1.00 20.00     0.005 C 
ENDBRANCH   7   8
ENDBRANCH   1   7
TORSDOF 3
ENDMDL
MODEL 7
REMARK VINA RESULT:      -1.9      1.627      4.169
REMARK  3 active torsions:
REMARK  status: ('A' for Active; 'I' for Inactive)
REMARK    1  A    between atoms: C1_1  and  C3_3 
REMARK    2  A    between atoms: C1_1  and  C7_7 
REMARK    3  A    between atoms: C7_7  and  C8_8 
ROOT
HETATM    1  C1  UNL     1     -33.649   7.223   3.604  1.00 20.00     0.131 C 
HETATM    2  O9  UNL     1     -33.460   8.132   4.410  1.00 20.00    -0.298 OA
ENDROOT
BRANCH   1   3
HETATM    3  C3  UNL     1     -32.526   6.701   2.745  1.00 20.00     0.059 A 
HETATM    4  C2  UNL     1     -32.842   6.304   1.345  1.00 20.00     0.017 A 
HETATM    5  C4  UNL     1     -32.015   7.530   1.618  1.00 20.00    -0.007 A 
HETATM    6  C5  UNL     1     -32.550   8.880   1.282  1.00 20.00     0.011 C 
ENDBRANCH   1   3
BRANCH   1   7
HETATM    7  C7  UNL     1     -35.002   6.560   3.410  1.00 20.00     0.078 C 
BRANCH   7   8
HETATM    8  C8  UNL     1     -35.257   5.444   4.418  1.00 20.00     0.003 C 
HETATM    9  C6  UNL     1     -34.284   4.292   4.230  1.00 20.00     0.005 C 
ENDBRANCH   7   8
ENDBRANCH   1   7
TORSDOF 3
ENDMDL
MODEL 8
REMARK VINA RESULT:      -1.7      1.222      1.682
REMARK  3 active torsions:
REMARK  status: ('A' for Active; 'I' for Inactive)
REMARK    1  A    between atoms: C1_1  and  C3_3 
REMARK    2  A    between atoms: C1_1  and  C7_7 
REMARK    3  A    between atoms: C7_7  and  C8_8 
ROOT
HETATM    1  C1  UNL     1     -32.024   7.969   1.810  1.00 20.00     0.131 C 
HETATM    2  O9  UNL     1     -31.656   8.325   2.928  1.00 20.00    -0.298 OA
ENDROOT
BRANCH   1   3
HETATM    3  C3  UNL     1     -33.025   6.855   1.641  1.00 20.00     0.059 A 
HETATM    4  C2  UNL     1     -32.874   5.643   2.493  1.00 20.00     0.017 A 
HETATM    5  C4  UNL     1     -34.021   6.590   2.717  1.00 20.00    -0.007 A 
HETATM    6  C5  UNL     1     -34.098   7.381   3.978  1.00 20.00     0.011 C 
ENDBRANCH   1   3
BRANCH   1   7
HETATM    7  C7  UNL     1     -31.513   8.609   0.530  1.00 20.00     0.078 C 
BRANCH   7   8
HETATM    8  C8  UNL     1     -32.557   9.500  -0.136  1.00 20.00     0.003 C 
HETATM    9  C6  UNL     1     -32.756  10.796   0.634  1.00 20.00     0.005 C 
ENDBRANCH   7   8
ENDBRANCH   1   7
TORSDOF 3
ENDMDL
MODEL 9
REMARK VINA RESULT:      -1.7      1.844      4.289
REMARK  3 active torsions:
REMARK  status: ('A' for Active; 'I' for Inactive)
REMARK    1  A    between atoms: C1_1  and  C3_3 
REMARK    2  A    between atoms: C1_1  and  C7_7 
REMARK    3  A    between atoms: C7_7  and  C8_8 
ROOT
HETATM    1  C1  UNL     1     -33.941   5.656   3.264  1.00 20.00     0.131 C 
HETATM    2  O9  UNL     1     -33.298   5.397   2.248  1.00 20.00    -0.298 OA
ENDROOT
BRANCH   1   3
HETATM    3  C3  UNL     1     -34.327   7.073   3.599  1.00 20.00     0.059 A 
HETATM    4  C2  UNL     1     -33.511   7.801   4.611  1.00 20.00     0.017 A 
HETATM    5  C4  UNL     1     -33.452   8.198   3.162  1.00 20.00    -0.007 A 
HETATM    6  C5  UNL     1     -32.193   8.006   2.388  1.00 20.00     0.011 C 
ENDBRANCH   1   3
BRANCH   1   7
HETATM    7  C7  UNL     1     -34.392   4.590   4.248  1.00 20.00     0.078 C 
BRANCH   7   8
HETATM    8  C8  UNL     1     -33.598   3.294   4.111  1.00 20.00     0.003 C 
HETATM    9  C6  UNL     1     -32.803   2.992   5.371  1.00 20.00     0.005 C 
ENDBRANCH   7   8
ENDBRANCH   1   7
TORSDOF 3
ENDMDL
