MODEL 1
REMARK VINA RESULT:       0.9      0.000      0.000
REMARK  3 active torsions:
REMARK  status: ('A' for Active; 'I' for Inactive)
REMARK    1  A    between atoms: C1_1  and  C9_9 
REMARK    2  A    between atoms: C10_10  and  C11_11 
REMARK    3  A    between atoms: C11_11  and  N12_12 
ROOT
HETATM    1  C5  UNL     1     -34.546   6.727   3.598  1.00 20.00     0.039 C 
HETATM    2  C6  UNL     1     -33.600   5.321   1.719  1.00 20.00     0.039 C 
HETATM    3  C7  UNL     1     -33.302   7.607   3.546  1.00 20.00     0.235 C 
HETATM    4  C8  UNL     1     -32.367   6.215   1.687  1.00 20.00     0.235 C 
HETATM    5  C9  UNL     1     -34.291   5.310   3.083  1.00 20.00     0.050 C 
HETATM    6  N12 UNL     1     -32.741   7.603   2.146  1.00 20.00    -0.071 N 
HETATM    7  H33 UNL     1     -33.480   7.946   1.517  1.00 20.00     0.279 HD
ENDROOT
BRANCH   6   8
HETATM    8  C11 UNL     1     -31.589   8.561   2.009  1.00 20.00     0.239 C 
BRANCH   8   9
HETATM    9  C10 UNL     1     -31.567   9.118   0.593  1.00 20.00     0.011 C 
HETATM   10  C3  UNL     1     -31.748  10.651   0.463  1.00 20.00     0.006 C 
HETATM   11  C2  UNL     1     -33.248  10.400   0.222  1.00 20.00     0.001 C 
HETATM   12  C4  UNL     1     -32.879   8.970  -0.217  1.00 20.00     0.006 C 
ENDBRANCH   8   9
ENDBRANCH   6   8
BRANCH   5  13
HETATM   13  C1  UNL     1     -33.494   4.515   4.079  1.00 20.00     0.235 C 
HETATM   14  O13 UNL     1     -33.810   3.390   4.454  1.00 20.00    -0.306 OA
ENDBRANCH   5  13
TORSDOF 3
ENDMDL
MODEL 2
REMARK VINA RESULT:       1.5      1.579      2.376
REMARK  3 active torsions:
REMARK  status: ('A' for Active; 'I' for Inactive)
REMARK    1  A    between atoms: C1_1  and  C9_9 
REMARK    2  A    between atoms: C10_10  and  C11_11 
REMARK    3  A    between atoms: C11_11  and  N12_12 
ROOT
HETATM    1  C5  UNL     1     -33.485   5.268   3.208  1.00 20.00     0.039 C 
HETATM    2  C6  UNL     1     -33.995   7.366   4.526  1.00 20.00     0.039 C 
HETATM    3  C7  UNL     1     -32.972   6.129   2.061  1.00 20.00     0.235 C 
HETATM    4  C8  UNL     1     -33.476   8.206   3.365  1.00 20.00     0.235 C 
HETATM    5  C9  UNL     1     -34.505   5.994   4.084  1.00 20.00     0.050 C 
HETATM    6  N12 UNL     1     -32.429   7.426   2.608  1.00 20.00    -0.071 N 
HETATM    7  H33 UNL     1     -31.681   7.189   3.275  1.00 20.00     0.279 HD
ENDROOT
BRANCH   6   8
HETATM    8  C11 UNL     1     -31.789   8.258   1.531  1.00 20.00     0.239 C 
BRANCH   8   9
HETATM    9  C10 UNL     1     -32.862   9.071   0.822  1.00 20.00     0.011 C 
HETATM   10  C3  UNL     1     -32.655   9.290  -0.698  1.00 20.00     0.006 C 
HETATM   11  C2  UNL     1     -32.007  10.646  -0.359  1.00 20.00     0.001 C 
HETATM   12  C4  UNL     1     -32.766  10.608   0.981  1.00 20.00     0.006 C 
ENDBRANCH   8   9
ENDBRANCH   6   8
BRANCH   5  13
HETATM   13  C1  UNL     1     -35.826   6.118   3.378  1.00 20.00     0.235 C 
HETATM   14  O13 UNL     1     -36.304   7.189   3.018  1.00 20.00    -0.306 OA
ENDBRANCH   5  13
TORSDOF 3
ENDMDL
MODEL 3
REMARK VINA RESULT:       1.9      2.511      5.309
REMARK  3 active torsions:
REMARK  status: ('A' for Active; 'I' for Inactive)
REMARK    1  A    between atoms: C1_1  and  C9_9 
REMARK    2  A    between atoms: C10_10  and  C11_11 
REMARK    3  A    between atoms: C11_11  and  N12_12 
ROOT
HETATM    1  C5  UNL     1     -31.275   8.791   2.549  1.00 20.00     0.039 C 
HETATM    2  C6  UNL     1     -32.239   7.173   0.859  1.00 20.00     0.039 C 
HETATM    3  C7  UNL     1     -32.520   8.612   3.409  1.00 20.00     0.235 C 
HETATM    4  C8  UNL     1     -33.474   7.012   1.737  1.00 20.00     0.235 C 
HETATM    5  C9  UNL     1     -31.534   8.513   1.067  1.00 20.00     0.050 C 
HETATM    6  N12 UNL     1     -33.097   7.238   3.181  1.00 20.00    -0.071 N 
HETATM    7  H33 UNL     1     -32.366   6.554   3.418  1.00 20.00     0.279 HD
ENDROOT
BRANCH   6   8
HETATM    8  C11 UNL     1     -34.252   6.961   4.105  1.00 20.00     0.239 C 
BRANCH   8   9
HETATM    9  C10 UNL     1     -34.896   5.638   3.719  1.00 20.00     0.011 C 
HETATM   10  C3  UNL     1     -35.340   4.731   4.894  1.00 20.00     0.006 C 
HETATM   11  C2  UNL     1     -33.997   3.989   4.759  1.00 20.00     0.001 C 
HETATM   12  C4  UNL     1     -33.925   4.503   3.308  1.00 20.00     0.006 C 
ENDBRANCH   8   9
ENDBRANCH   6   8
BRANCH   5  13
HETATM   13  C1  UNL     1     -32.318   9.633   0.442  1.00 20.00     0.235 C 
HETATM   14  O13 UNL     1     -32.737   9.604  -0.711  1.00 20.00    -0.306 OA
ENDBRANCH   5  13
TORSDOF 3
ENDMDL
MODEL 4
REMARK VINA RESULT:       2.7      2.580      5.240
REMARK  3 active torsions:
REMARK  status: ('A' for Active; 'I' for Inactive)
REMARK    1  A    between atoms: C1_1  and  C9_9 
REMARK    2  A    between atoms: C10_10  and  C11_11 
REMARK    3  A    between atoms: C11_11  and  N12_12 
ROOT
HETATM    1  C5  UNL     1     -31.596   8.989   2.323  1.00 20.00     0.039 C 
HETATM    2  C6  UNL     1     -31.384   7.969   0.018  1.00 20.00     0.039 C 
HETATM    3  C7  UNL     1     -32.664   7.958   2.666  1.00 20.00     0.235 C 
HETATM    4  C8  UNL     1     -32.454   6.948   0.385  1.00 20.00     0.235 C 
HETATM    5  C9  UNL     1     -31.498   9.264   0.822  1.00 20.00     0.050 C 
HETATM    6  N12 UNL     1     -32.421   6.698   1.873  1.00 20.00    -0.071 N 
HETATM    7  H33 UNL     1     -31.476   6.365   2.108  1.00 20.00     0.279 HD
ENDROOT
BRANCH   6   8
HETATM    8  C11 UNL     1     -33.368   5.601   2.272  1.00 20.00     0.239 C 
BRANCH   8   9
HETATM    9  C10 UNL     1     -33.662   5.710   3.761  1.00 20.00     0.011 C 
HETATM   10  C3  UNL     1     -34.425   4.518   4.392  1.00 20.00     0.006 C 
HETATM   11  C2  UNL     1     -35.728   5.314   4.189  1.00 20.00     0.001 C 
HETATM   12  C4  UNL     1     -34.871   6.594   4.153  1.00 20.00     0.006 C 
ENDBRANCH   8   9
ENDBRANCH   6   8
BRANCH   5  13
HETATM   13  C1  UNL     1     -32.665  10.084   0.351  1.00 20.00     0.235 C 
HETATM   14  O13 UNL     1     -33.056  10.100  -0.812  1.00 20.00    -0.306 OA
ENDBRANCH   5  13
TORSDOF 3
ENDMDL
MODEL 5
REMARK VINA RESULT:       3.1      2.459      5.655
REMARK  3 active torsions:
REMARK  status: ('A' for Active; 'I' for Inactive)
REMARK    1  A    between atoms: C1_1  and  C9_9 
REMARK    2  A    between atoms: C10_10  and  C11_11 
REMARK    3  A    between atoms: C11_11  and  N12_12 
ROOT
HETATM    1  C5  UNL     1     -33.080   6.588   1.186  1.00 20.00     0.039 C 
HETATM    2  C6  UNL     1     -33.895   8.196   2.961  1.00 20.00     0.039 C 
HETATM    3  C7  UNL     1     -33.174   5.449   2.194  1.00 20.00     0.235 C 
HETATM    4  C8  UNL     1     -33.980   7.040   3.951  1.00 20.00     0.235 C 
HETATM    5  C9  UNL     1     -32.875   7.951   1.849  1.00 20.00     0.050 C 
HETATM    6  N12 UNL     1     -34.252   5.758   3.203  1.00 20.00    -0.071 N 
HETATM    7  H33 UNL     1     -35.131   5.885   2.684  1.00 20.00     0.279 HD
ENDROOT
BRANCH   6   8
HETATM    8  C11 UNL     1     -34.477   4.606   4.143  1.00 20.00     0.239 C 
BRANCH   8   9
HETATM    9  C10 UNL     1     -33.378   3.573   3.942  1.00 20.00     0.011 C 
HETATM   10  C3  UNL     1     -33.573   2.222   4.674  1.00 20.00     0.006 C 
HETATM   11  C2  UNL     1     -32.693   2.773   5.813  1.00 20.00     0.001 C 
HETATM   12  C4  UNL     1     -32.099   3.766   4.795  1.00 20.00     0.006 C 
ENDBRANCH   8   9
ENDBRANCH   6   8
BRANCH   5  13
HETATM   13  C1  UNL     1     -31.472   8.086   2.370  1.00 20.00     0.235 C 
HETATM   14  O13 UNL     1     -31.171   8.794   3.326  1.00 20.00    -0.306 OA
ENDBRANCH   5  13
TORSDOF 3
ENDMDL
