MODEL 1
REMARK VINA RESULT:       0.4      0.000      0.000
REMARK  2 active torsions:
REMARK  status: ('A' for Active; 'I' for Inactive)
REMARK    1  A    between atoms: C3_3  and  C5_5 
REMARK    2  A    between atoms: C5_5  and  C7_7 
ROOT
HETATM    1  C1  UNL     1     -32.829   5.759   2.872  1.00 20.00     0.029 A 
HETATM    2  C2  UNL     1     -34.116   7.630   3.365  1.00 20.00     0.065 A 
HETATM    3  C3  UNL     1     -32.973   7.170   2.748  1.00 20.00     0.018 A 
HETATM    4  C4  UNL     1     -33.866   5.192   3.579  1.00 20.00    -0.021 A 
HETATM    5  C9  UNL     1     -34.080   3.768   3.919  1.00 20.00     0.056 C 
HETATM    6  S12 UNL     1     -35.008   6.361   4.091  1.00 20.00    -0.106 SA
ENDROOT
BRANCH   3   7
HETATM    7  C5  UNL     1     -32.039   8.062   2.054  1.00 20.00     0.164 C 
HETATM    8  O11 UNL     1     -31.127   8.673   2.599  1.00 20.00    -0.292 OA
BRANCH   7   9
HETATM    9  C7  UNL     1     -32.218   8.222   0.607  1.00 20.00     0.065 A 
HETATM   10  C6  UNL     1     -31.202   9.013  -0.180  1.00 20.00     0.018 A 
HETATM   11  C8  UNL     1     -32.588   9.560   0.012  1.00 20.00    -0.006 A 
HETATM   12  C10 UNL     1     -32.801  10.771   0.854  1.00 20.00     0.011 C 
ENDBRANCH   7   9
ENDBRANCH   3   7
TORSDOF 2
ENDMDL
MODEL 2
REMARK VINA RESULT:       0.7      1.107      1.467
REMARK  2 active torsions:
REMARK  status: ('A' for Active; 'I' for Inactive)
REMARK    1  A    between atoms: C3_3  and  C5_5 
REMARK    2  A    between atoms: C5_5  and  C7_7 
ROOT
HETATM    1  C1  UNL     1     -33.784   7.226   3.261  1.00 20.00     0.029 A 
HETATM    2  C2  UNL     1     -32.638   5.730   1.901  1.00 20.00     0.065 A 
HETATM    3  C3  UNL     1     -32.755   7.046   2.292  1.00 20.00     0.018 A 
HETATM    4  C4  UNL     1     -34.414   6.042   3.574  1.00 20.00    -0.021 A 
HETATM    5  C9  UNL     1     -35.521   5.812   4.527  1.00 20.00     0.056 C 
HETATM    6  S12 UNL     1     -33.766   4.720   2.701  1.00 20.00    -0.106 SA
ENDROOT
BRANCH   3   7
HETATM    7  C5  UNL     1     -31.902   8.108   1.751  1.00 20.00     0.164 C 
HETATM    8  O11 UNL     1     -31.067   8.728   2.401  1.00 20.00    -0.292 OA
BRANCH   7   9
HETATM    9  C7  UNL     1     -32.065   8.438   0.331  1.00 20.00     0.065 A 
HETATM   10  C6  UNL     1     -31.118   9.421  -0.313  1.00 20.00     0.018 A 
HETATM   11  C8  UNL     1     -32.556   9.801  -0.099  1.00 20.00    -0.006 A 
HETATM   12  C10 UNL     1     -32.908  10.864   0.885  1.00 20.00     0.011 C 
ENDBRANCH   7   9
ENDBRANCH   3   7
TORSDOF 2
ENDMDL
MODEL 3
REMARK VINA RESULT:       1.0      2.369      5.562
REMARK  2 active torsions:
REMARK  status: ('A' for Active; 'I' for Inactive)
REMARK    1  A    between atoms: C3_3  and  C5_5 
REMARK    2  A    between atoms: C5_5  and  C7_7 
ROOT
HETATM    1  C1  UNL     1     -32.939   6.143   2.525  1.00 20.00     0.029 A 
HETATM    2  C2  UNL     1     -34.339   7.082   4.125  1.00 20.00     0.065 A 
HETATM    3  C3  UNL     1     -33.854   5.907   3.592  1.00 20.00     0.018 A 
HETATM    4  C4  UNL     1     -32.761   7.487   2.282  1.00 20.00    -0.021 A 
HETATM    5  C9  UNL     1     -31.900   8.133   1.267  1.00 20.00     0.056 C 
HETATM    6  S12 UNL     1     -33.694   8.459   3.338  1.00 20.00    -0.106 SA
ENDROOT
BRANCH   3   7
HETATM    7  C5  UNL     1     -34.255   4.590   4.093  1.00 20.00     0.164 C 
HETATM    8  O11 UNL     1     -35.306   4.360   4.680  1.00 20.00    -0.292 OA
BRANCH   7   9
HETATM    9  C7  UNL     1     -33.327   3.476   3.863  1.00 20.00     0.065 A 
HETATM   10  C6  UNL     1     -33.607   2.138   4.501  1.00 20.00     0.018 A 
HETATM   11  C8  UNL     1     -32.442   2.961   4.974  1.00 20.00    -0.006 A 
HETATM   12  C10 UNL     1     -32.456   3.556   6.340  1.00 20.00     0.011 C 
ENDBRANCH   7   9
ENDBRANCH   3   7
TORSDOF 2
ENDMDL
MODEL 4
REMARK VINA RESULT:       1.1      2.104      5.131
REMARK  2 active torsions:
REMARK  status: ('A' for Active; 'I' for Inactive)
REMARK    1  A    between atoms: C3_3  and  C5_5 
REMARK    2  A    between atoms: C5_5  and  C7_7 
ROOT
HETATM    1  C1  UNL     1     -33.198   9.176   1.861  1.00 20.00     0.029 A 
HETATM    2  C2  UNL     1     -32.010   7.179   1.870  1.00 20.00     0.065 A 
HETATM    3  C3  UNL     1     -32.980   7.924   2.504  1.00 20.00     0.018 A 
HETATM    4  C4  UNL     1     -32.387   9.342   0.761  1.00 20.00    -0.021 A 
HETATM    5  C9  UNL     1     -32.313  10.494  -0.164  1.00 20.00     0.056 C 
HETATM    6  S12 UNL     1     -31.366   7.991   0.506  1.00 20.00    -0.106 SA
ENDROOT
BRANCH   3   7
HETATM    7  C5  UNL     1     -33.684   7.447   3.698  1.00 20.00     0.164 C 
HETATM    8  O11 UNL     1     -33.387   7.752   4.848  1.00 20.00    -0.292 OA
BRANCH   7   9
HETATM    9  C7  UNL     1     -34.824   6.548   3.488  1.00 20.00     0.065 A 
HETATM   10  C6  UNL     1     -35.427   5.831   4.670  1.00 20.00     0.018 A 
HETATM   11  C8  UNL     1     -34.671   5.052   3.632  1.00 20.00    -0.006 A 
HETATM   12  C10 UNL     1     -33.367   4.418   3.979  1.00 20.00     0.011 C 
ENDBRANCH   7   9
ENDBRANCH   3   7
TORSDOF 2
ENDMDL
MODEL 5
REMARK VINA RESULT:       1.3      1.565      1.964
REMARK  2 active torsions:
REMARK  status: ('A' for Active; 'I' for Inactive)
REMARK    1  A    between atoms: C3_3  and  C5_5 
REMARK    2  A    between atoms: C5_5  and  C7_7 
ROOT
HETATM    1  C1  UNL     1     -32.971   4.520   3.030  1.00 20.00     0.029 A 
HETATM    2  C2  UNL     1     -34.557   6.191   3.338  1.00 20.00     0.065 A 
HETATM    3  C3  UNL     1     -33.484   5.771   2.582  1.00 20.00     0.018 A 
HETATM    4  C4  UNL     1     -33.669   4.032   4.112  1.00 20.00    -0.021 A 
HETATM    5  C9  UNL     1     -33.449   2.774   4.860  1.00 20.00     0.056 C 
HETATM    6  S12 UNL     1     -34.939   5.080   4.583  1.00 20.00    -0.106 SA
ENDROOT
BRANCH   3   7
HETATM    7  C5  UNL     1     -32.963   6.549   1.454  1.00 20.00     0.164 C 
HETATM    8  O11 UNL     1     -33.478   6.593   0.342  1.00 20.00    -0.292 OA
BRANCH   7   9
HETATM    9  C7  UNL     1     -31.741   7.327   1.687  1.00 20.00     0.065 A 
HETATM   10  C6  UNL     1     -31.768   8.466   2.676  1.00 20.00     0.018 A 
HETATM   11  C8  UNL     1     -31.628   8.756   1.209  1.00 20.00    -0.006 A 
HETATM   12  C10 UNL     1     -32.731   9.437   0.475  1.00 20.00     0.011 C 
ENDBRANCH   7   9
ENDBRANCH   3   7
TORSDOF 2
ENDMDL
MODEL 6
REMARK VINA RESULT:       1.8      1.386      1.709
REMARK  2 active torsions:
REMARK  status: ('A' for Active; 'I' for Inactive)
REMARK    1  A    between atoms: C3_3  and  C5_5 
REMARK    2  A    between atoms: C5_5  and  C7_7 
ROOT
HETATM    1  C1  UNL     1     -33.738   6.486   2.716  1.00 20.00     0.029 A 
HETATM    2  C2  UNL     1     -32.944   8.361   3.835  1.00 20.00     0.065 A 
HETATM    3  C3  UNL     1     -32.858   7.605   2.686  1.00 20.00     0.018 A 
HETATM    4  C4  UNL     1     -34.464   6.427   3.885  1.00 20.00    -0.021 A 
HETATM    5  C9  UNL     1     -35.474   5.427   4.294  1.00 20.00     0.056 C 
HETATM    6  S12 UNL     1     -34.082   7.719   4.942  1.00 20.00    -0.106 SA
ENDROOT
BRANCH   3   7
HETATM    7  C5  UNL     1     -31.954   7.947   1.584  1.00 20.00     0.164 C 
HETATM    8  O11 UNL     1     -31.387   7.127   0.870  1.00 20.00    -0.292 OA
BRANCH   7   9
HETATM    9  C7  UNL     1     -31.724   9.373   1.325  1.00 20.00     0.065 A 
HETATM   10  C6  UNL     1     -32.905  10.307   1.231  1.00 20.00     0.018 A 
HETATM   11  C8  UNL     1     -32.103   9.993   0.001  1.00 20.00    -0.006 A 
HETATM   12  C10 UNL     1     -32.711   9.197  -1.103  1.00 20.00     0.011 C 
ENDBRANCH   7   9
ENDBRANCH   3   7
TORSDOF 2
ENDMDL
MODEL 7
REMARK VINA RESULT:       2.3      2.323      5.190
REMARK  2 active torsions:
REMARK  status: ('A' for Active; 'I' for Inactive)
REMARK    1  A    between atoms: C3_3  and  C5_5 
REMARK    2  A    between atoms: C5_5  and  C7_7 
ROOT
HETATM    1  C1  UNL     1     -33.223   8.767   1.357  1.00 20.00     0.029 A 
HETATM    2  C2  UNL     1     -31.379   7.363   1.177  1.00 20.00     0.065 A 
HETATM    3  C3  UNL     1     -32.665   7.491   1.657  1.00 20.00     0.018 A 
HETATM    4  C4  UNL     1     -32.344   9.566   0.660  1.00 20.00    -0.021 A 
HETATM    5  C9  UNL     1     -32.547  10.946   0.168  1.00 20.00     0.056 C 
HETATM    6  S12 UNL     1     -30.852   8.779   0.370  1.00 20.00    -0.106 SA
ENDROOT
BRANCH   3   7
HETATM    7  C5  UNL     1     -33.344   6.416   2.386  1.00 20.00     0.164 C 
HETATM    8  O11 UNL     1     -32.964   5.251   2.420  1.00 20.00    -0.292 OA
BRANCH   7   9
HETATM    9  C7  UNL     1     -34.559   6.774   3.126  1.00 20.00     0.065 A 
HETATM   10  C6  UNL     1     -34.457   7.123   4.590  1.00 20.00     0.018 A 
HETATM   11  C8  UNL     1     -35.133   5.847   4.172  1.00 20.00    -0.006 A 
HETATM   12  C10 UNL     1     -34.509   4.533   4.496  1.00 20.00     0.011 C 
ENDBRANCH   7   9
ENDBRANCH   3   7
TORSDOF 2
ENDMDL
MODEL 8
REMARK VINA RESULT:       2.4      1.561      2.343
REMARK  2 active torsions:
REMARK  status: ('A' for Active; 'I' for Inactive)
REMARK    1  A    between atoms: C3_3  and  C5_5 
REMARK    2  A    between atoms: C5_5  and  C7_7 
ROOT
HETATM    1  C1  UNL     1     -33.236   5.255   3.664  1.00 20.00     0.029 A 
HETATM    2  C2  UNL     1     -35.254   6.280   4.194  1.00 20.00     0.065 A 
HETATM    3  C3  UNL     1     -34.016   6.447   3.613  1.00 20.00     0.018 A 
HETATM    4  C4  UNL     1     -33.907   4.224   4.283  1.00 20.00    -0.021 A 
HETATM    5  C9  UNL     1     -33.444   2.840   4.529  1.00 20.00     0.056 C 
HETATM    6  S12 UNL     1     -35.471   4.693   4.798  1.00 20.00    -0.106 SA
ENDROOT
BRANCH   3   7
HETATM    7  C5  UNL     1     -33.588   7.718   3.021  1.00 20.00     0.164 C 
HETATM    8  O11 UNL     1     -34.288   8.721   2.947  1.00 20.00    -0.292 OA
BRANCH   7   9
HETATM    9  C7  UNL     1     -32.222   7.781   2.489  1.00 20.00     0.065 A 
HETATM   10  C6  UNL     1     -31.982   8.417   1.143  1.00 20.00     0.018 A 
HETATM   11  C8  UNL     1     -31.807   6.934   1.309  1.00 20.00    -0.006 A 
HETATM   12  C10 UNL     1     -32.748   5.993   0.638  1.00 20.00     0.011 C 
ENDBRANCH   7   9
ENDBRANCH   3   7
TORSDOF 2
ENDMDL
MODEL 9
REMARK VINA RESULT:       2.4      2.149      4.908
REMARK  2 active torsions:
REMARK  status: ('A' for Active; 'I' for Inactive)
REMARK    1  A    between atoms: C3_3  and  C5_5 
REMARK    2  A    between atoms: C5_5  and  C7_7 
ROOT
HETATM    1  C1  UNL     1     -32.774   7.904   0.559  1.00 20.00     0.029 A 
HETATM    2  C2  UNL     1     -32.159   7.983   2.799  1.00 20.00     0.065 A 
HETATM    3  C3  UNL     1     -32.650   7.190   1.785  1.00 20.00     0.018 A 
HETATM    4  C4  UNL     1     -32.374   9.217   0.682  1.00 20.00    -0.021 A 
HETATM    5  C9  UNL     1     -32.350  10.273  -0.353  1.00 20.00     0.056 C 
HETATM    6  S12 UNL     1     -31.851   9.582   2.271  1.00 20.00    -0.106 SA
ENDROOT
BRANCH   3   7
HETATM    7  C5  UNL     1     -32.992   5.778   1.985  1.00 20.00     0.164 C 
HETATM    8  O11 UNL     1     -33.167   4.971   1.079  1.00 20.00    -0.292 OA
BRANCH   7   9
HETATM    9  C7  UNL     1     -33.127   5.312   3.369  1.00 20.00     0.065 A 
HETATM   10  C6  UNL     1     -34.113   4.216   3.688  1.00 20.00     0.018 A 
HETATM   11  C8  UNL     1     -34.369   5.614   4.174  1.00 20.00    -0.006 A 
HETATM   12  C10 UNL     1     -35.504   6.402   3.615  1.00 20.00     0.011 C 
ENDBRANCH   7   9
ENDBRANCH   3   7
TORSDOF 2
ENDMDL
