MODEL 1
REMARK VINA RESULT:      -3.0      0.000      0.000
REMARK  3 active torsions:
REMARK  status: ('A' for Active; 'I' for Inactive)
REMARK    1  A    between atoms: C3_3  and  C5_5 
REMARK    2  A    between atoms: C3_3  and  C9_9 
REMARK    3  A    between atoms: C8_8  and  C9_9 
ROOT
HETATM    1  C1  UNL     1     -32.906  10.621  -0.056  1.00 20.00     0.012 C 
HETATM    2  C2  UNL     1     -32.284   9.637   0.237  1.00 20.00    -0.117 C 
HETATM    3  C8  UNL     1     -31.522   8.431   0.593  1.00 20.00     0.100 C 
ENDROOT
BRANCH   3   4
HETATM    4  C9  UNL     1     -31.890   7.911   1.981  1.00 20.00     0.090 C 
BRANCH   4   5
HETATM    5  C3  UNL     1     -32.807   6.698   1.959  1.00 20.00     0.132 C 
HETATM    6  O10 UNL     1     -32.525   5.655   1.373  1.00 20.00    -0.298 OA
BRANCH   5   7
HETATM    7  C5  UNL     1     -34.099   6.832   2.725  1.00 20.00     0.059 A 
HETATM    8  C4  UNL     1     -34.079   7.595   4.001  1.00 20.00     0.017 A 
HETATM    9  C6  UNL     1     -34.217   6.095   4.024  1.00 20.00    -0.007 A 
HETATM   10  C7  UNL     1     -35.519   5.468   4.384  1.00 20.00     0.011 C 
ENDBRANCH   5   7
ENDBRANCH   4   5
ENDBRANCH   3   4
TORSDOF 3
ENDMDL
MODEL 2
REMARK VINA RESULT:      -2.9      2.067      4.896
REMARK  3 active torsions:
REMARK  status: ('A' for Active; 'I' for Inactive)
REMARK    1  A    between atoms: C3_3  and  C5_5 
REMARK    2  A    between atoms: C3_3  and  C9_9 
REMARK    3  A    between atoms: C8_8  and  C9_9 
ROOT
HETATM    1  C1  UNL     1     -33.508   3.453   4.238  1.00 20.00     0.012 C 
HETATM    2  C2  UNL     1     -34.344   4.304   4.378  1.00 20.00    -0.117 C 
HETATM    3  C8  UNL     1     -35.370   5.343   4.551  1.00 20.00     0.100 C 
ENDROOT
BRANCH   3   4
HETATM    4  C9  UNL     1     -35.174   6.506   3.582  1.00 20.00     0.090 C 
BRANCH   4   5
HETATM    5  C3  UNL     1     -33.929   7.335   3.860  1.00 20.00     0.132 C 
HETATM    6  O10 UNL     1     -33.881   8.199   4.734  1.00 20.00    -0.298 OA
BRANCH   5   7
HETATM    7  C5  UNL     1     -32.725   7.028   3.008  1.00 20.00     0.059 A 
HETATM    8  C4  UNL     1     -32.482   7.873   1.809  1.00 20.00     0.017 A 
HETATM    9  C6  UNL     1     -32.964   6.455   1.645  1.00 20.00    -0.007 A 
HETATM   10  C7  UNL     1     -32.043   5.405   1.129  1.00 20.00     0.011 C 
ENDBRANCH   5   7
ENDBRANCH   4   5
ENDBRANCH   3   4
TORSDOF 3
ENDMDL
MODEL 3
REMARK VINA RESULT:      -2.8      1.663      2.074
REMARK  3 active torsions:
REMARK  status: ('A' for Active; 'I' for Inactive)
REMARK    1  A    between atoms: C3_3  and  C5_5 
REMARK    2  A    between atoms: C3_3  and  C9_9 
REMARK    3  A    between atoms: C8_8  and  C9_9 
ROOT
HETATM    1  C1  UNL     1     -32.492   9.877   0.011  1.00 20.00     0.012 C 
HETATM    2  C2  UNL     1     -32.233   9.058   0.850  1.00 20.00    -0.117 C 
HETATM    3  C8  UNL     1     -31.912   8.057   1.879  1.00 20.00     0.100 C 
ENDROOT
BRANCH   3   4
HETATM    4  C9  UNL     1     -32.853   6.856   1.819  1.00 20.00     0.090 C 
BRANCH   4   5
HETATM    5  C3  UNL     1     -33.644   6.631   3.098  1.00 20.00     0.132 C 
HETATM    6  O10 UNL     1     -33.850   7.518   3.924  1.00 20.00    -0.298 OA
BRANCH   5   7
HETATM    7  C5  UNL     1     -34.194   5.242   3.300  1.00 20.00     0.059 A 
HETATM    8  C4  UNL     1     -35.164   5.029   4.406  1.00 20.00     0.017 A 
HETATM    9  C6  UNL     1     -33.762   4.493   4.523  1.00 20.00    -0.007 A 
HETATM   10  C7  UNL     1     -33.507   3.029   4.423  1.00 20.00     0.011 C 
ENDBRANCH   5   7
ENDBRANCH   4   5
ENDBRANCH   3   4
TORSDOF 3
ENDMDL
MODEL 4
REMARK VINA RESULT:      -2.6      1.177      4.813
REMARK  3 active torsions:
REMARK  status: ('A' for Active; 'I' for Inactive)
REMARK    1  A    between atoms: C3_3  and  C5_5 
REMARK    2  A    between atoms: C3_3  and  C9_9 
REMARK    3  A    between atoms: C8_8  and  C9_9 
ROOT
HETATM    1  C1  UNL     1     -33.746   3.496   4.464  1.00 20.00     0.012 C 
HETATM    2  C2  UNL     1     -34.180   4.559   4.111  1.00 20.00    -0.117 C 
HETATM    3  C8  UNL     1     -34.716   5.858   3.678  1.00 20.00     0.100 C 
ENDROOT
BRANCH   3   4
HETATM    4  C9  UNL     1     -33.606   6.830   3.282  1.00 20.00     0.090 C 
BRANCH   4   5
HETATM    5  C3  UNL     1     -32.925   6.482   1.967  1.00 20.00     0.132 C 
HETATM    6  O10 UNL     1     -33.094   5.411   1.388  1.00 20.00    -0.298 OA
BRANCH   5   7
HETATM    7  C5  UNL     1     -32.029   7.544   1.385  1.00 20.00     0.059 A 
HETATM    8  C4  UNL     1     -31.462   8.563   2.307  1.00 20.00     0.017 A 
HETATM    9  C6  UNL     1     -32.550   8.948   1.340  1.00 20.00    -0.007 A 
HETATM   10  C7  UNL     1     -32.238   9.799   0.159  1.00 20.00     0.011 C 
ENDBRANCH   5   7
ENDBRANCH   4   5
ENDBRANCH   3   4
TORSDOF 3
ENDMDL
MODEL 5
REMARK VINA RESULT:      -2.6      1.962      5.116
REMARK  3 active torsions:
REMARK  status: ('A' for Active; 'I' for Inactive)
REMARK    1  A    between atoms: C3_3  and  C5_5 
REMARK    2  A    between atoms: C3_3  and  C9_9 
REMARK    3  A    between atoms: C8_8  and  C9_9 
ROOT
HETATM    1  C1  UNL     1     -33.121   3.016   5.026  1.00 20.00     0.012 C 
HETATM    2  C2  UNL     1     -33.628   3.795   4.266  1.00 20.00    -0.117 C 
HETATM    3  C8  UNL     1     -34.248   4.748   3.333  1.00 20.00     0.100 C 
ENDROOT
BRANCH   3   4
HETATM    4  C9  UNL     1     -34.626   6.058   4.021  1.00 20.00     0.090 C 
BRANCH   4   5
HETATM    5  C3  UNL     1     -33.687   7.212   3.704  1.00 20.00     0.132 C 
HETATM    6  O10 UNL     1     -33.258   7.983   4.561  1.00 20.00    -0.298 OA
BRANCH   5   7
HETATM    7  C5  UNL     1     -33.283   7.358   2.259  1.00 20.00     0.059 A 
HETATM    8  C4  UNL     1     -31.984   6.771   1.835  1.00 20.00     0.017 A 
HETATM    9  C6  UNL     1     -32.134   8.266   1.946  1.00 20.00    -0.007 A 
HETATM   10  C7  UNL     1     -32.190   9.107   0.718  1.00 20.00     0.011 C 
ENDBRANCH   5   7
ENDBRANCH   4   5
ENDBRANCH   3   4
TORSDOF 3
ENDMDL
MODEL 6
REMARK VINA RESULT:      -1.9      0.782      4.599
REMARK  3 active torsions:
REMARK  status: ('A' for Active; 'I' for Inactive)
REMARK    1  A    between atoms: C3_3  and  C5_5 
REMARK    2  A    between atoms: C3_3  and  C9_9 
REMARK    3  A    between atoms: C8_8  and  C9_9 
ROOT
HETATM    1  C1  UNL     1     -35.329   5.073   4.516  1.00 20.00     0.012 C 
HETATM    2  C2  UNL     1     -34.941   6.149   4.149  1.00 20.00    -0.117 C 
HETATM    3  C8  UNL     1     -34.470   7.467   3.699  1.00 20.00     0.100 C 
ENDROOT
BRANCH   3   4
HETATM    4  C9  UNL     1     -32.989   7.449   3.330  1.00 20.00     0.090 C 
BRANCH   4   5
HETATM    5  C3  UNL     1     -32.701   6.822   1.974  1.00 20.00     0.132 C 
HETATM    6  O10 UNL     1     -32.937   5.643   1.718  1.00 20.00    -0.298 OA
BRANCH   5   7
HETATM    7  C5  UNL     1     -32.118   7.740   0.931  1.00 20.00     0.059 A 
HETATM    8  C4  UNL     1     -31.057   8.692   1.351  1.00 20.00     0.017 A 
HETATM    9  C6  UNL     1     -32.438   9.199   1.030  1.00 20.00    -0.007 A 
HETATM   10  C7  UNL     1     -32.681   9.974  -0.218  1.00 20.00     0.011 C 
ENDBRANCH   5   7
ENDBRANCH   4   5
ENDBRANCH   3   4
TORSDOF 3
ENDMDL
MODEL 7
REMARK VINA RESULT:      -1.9      1.394      1.451
REMARK  3 active torsions:
REMARK  status: ('A' for Active; 'I' for Inactive)
REMARK    1  A    between atoms: C3_3  and  C5_5 
REMARK    2  A    between atoms: C3_3  and  C9_9 
REMARK    3  A    between atoms: C8_8  and  C9_9 
ROOT
HETATM    1  C1  UNL     1     -32.921  10.648   0.130  1.00 20.00     0.012 C 
HETATM    2  C2  UNL     1     -32.274   9.646   0.272  1.00 20.00    -0.117 C 
HETATM    3  C8  UNL     1     -31.480   8.421   0.442  1.00 20.00     0.100 C 
ENDROOT
BRANCH   3   4
HETATM    4  C9  UNL     1     -32.129   7.452   1.429  1.00 20.00     0.090 C 
BRANCH   4   5
HETATM    5  C3  UNL     1     -32.353   8.042   2.813  1.00 20.00     0.132 C 
HETATM    6  O10 UNL     1     -31.465   8.602   3.454  1.00 20.00    -0.298 OA
BRANCH   5   7
HETATM    7  C5  UNL     1     -33.750   7.925   3.364  1.00 20.00     0.059 A 
HETATM    8  C4  UNL     1     -33.919   7.893   4.841  1.00 20.00     0.017 A 
HETATM    9  C6  UNL     1     -34.129   6.639   4.033  1.00 20.00    -0.007 A 
HETATM   10  C7  UNL     1     -35.502   6.097   3.834  1.00 20.00     0.011 C 
ENDBRANCH   5   7
ENDBRANCH   4   5
ENDBRANCH   3   4
TORSDOF 3
ENDMDL
MODEL 8
REMARK VINA RESULT:      -1.6      0.946      4.096
REMARK  3 active torsions:
REMARK  status: ('A' for Active; 'I' for Inactive)
REMARK    1  A    between atoms: C3_3  and  C5_5 
REMARK    2  A    between atoms: C3_3  and  C9_9 
REMARK    3  A    between atoms: C8_8  and  C9_9 
ROOT
HETATM    1  C1  UNL     1     -33.877   8.236   4.863  1.00 20.00     0.012 C 
HETATM    2  C2  UNL     1     -34.021   7.260   4.177  1.00 20.00    -0.117 C 
HETATM    3  C8  UNL     1     -34.197   6.064   3.341  1.00 20.00     0.100 C 
ENDROOT
BRANCH   3   4
HETATM    4  C9  UNL     1     -33.893   6.345   1.871  1.00 20.00     0.090 C 
BRANCH   4   5
HETATM    5  C3  UNL     1     -32.418   6.233   1.516  1.00 20.00     0.132 C 
HETATM    6  O10 UNL     1     -31.805   5.167   1.525  1.00 20.00    -0.298 OA
BRANCH   5   7
HETATM    7  C5  UNL     1     -31.733   7.517   1.123  1.00 20.00     0.059 A 
HETATM    8  C4  UNL     1     -31.415   8.496   2.196  1.00 20.00     0.017 A 
HETATM    9  C6  UNL     1     -32.524   8.785   1.218  1.00 20.00    -0.007 A 
HETATM   10  C7  UNL     1     -32.346   9.829   0.171  1.00 20.00     0.011 C 
ENDBRANCH   5   7
ENDBRANCH   4   5
ENDBRANCH   3   4
TORSDOF 3
ENDMDL
MODEL 9
REMARK VINA RESULT:      -1.6      2.030      2.519
REMARK  3 active torsions:
REMARK  status: ('A' for Active; 'I' for Inactive)
REMARK    1  A    between atoms: C3_3  and  C5_5 
REMARK    2  A    between atoms: C3_3  and  C9_9 
REMARK    3  A    between atoms: C8_8  and  C9_9 
ROOT
HETATM    1  C1  UNL     1     -32.313   9.692   0.415  1.00 20.00     0.012 C 
HETATM    2  C2  UNL     1     -32.344   8.738   1.144  1.00 20.00    -0.117 C 
HETATM    3  C8  UNL     1     -32.380   7.569   2.034  1.00 20.00     0.100 C 
ENDROOT
BRANCH   3   4
HETATM    4  C9  UNL     1     -33.350   7.766   3.197  1.00 20.00     0.090 C 
BRANCH   4   5
HETATM    5  C3  UNL     1     -34.107   6.505   3.587  1.00 20.00     0.132 C 
HETATM    6  O10 UNL     1     -35.302   6.504   3.877  1.00 20.00    -0.298 OA
BRANCH   5   7
HETATM    7  C5  UNL     1     -33.310   5.227   3.581  1.00 20.00     0.059 A 
HETATM    8  C4  UNL     1     -33.737   4.141   2.659  1.00 20.00     0.017 A 
HETATM    9  C6  UNL     1     -33.958   3.999   4.142  1.00 20.00    -0.007 A 
HETATM   10  C7  UNL     1     -33.136   3.043   4.934  1.00 20.00     0.011 C 
ENDBRANCH   5   7
ENDBRANCH   4   5
ENDBRANCH   3   4
TORSDOF 3
ENDMDL
