MODEL 1
REMARK VINA RESULT:      -2.6      0.000      0.000
REMARK  2 active torsions:
REMARK  status: ('A' for Active; 'I' for Inactive)
REMARK    1  A    between atoms: C1_1  and  C3_3 
REMARK    2  A    between atoms: C1_1  and  C7_7 
ROOT
HETATM    1  C2  UNL     1     -34.191   7.429   4.321  1.00 20.00     0.017 A 
HETATM    2  C3  UNL     1     -34.276   7.130   2.845  1.00 20.00     0.059 A 
HETATM    3  C4  UNL     1     -34.896   6.189   3.849  1.00 20.00    -0.007 A 
HETATM    4  C5  UNL     1     -34.318   4.846   4.141  1.00 20.00     0.011 C 
ENDROOT
BRANCH   2   5
HETATM    5  C1  UNL     1     -33.058   6.759   2.115  1.00 20.00     0.131 C 
HETATM    6  O8  UNL     1     -32.955   5.664   1.567  1.00 20.00    -0.298 OA
BRANCH   5   7
HETATM    7  C7  UNL     1     -31.954   7.801   2.087  1.00 20.00     0.074 C 
HETATM    8  C6  UNL     1     -32.150   8.829   0.986  1.00 20.00     0.013 C 
ENDBRANCH   5   7
ENDBRANCH   2   5
TORSDOF 2
ENDMDL
MODEL 2
REMARK VINA RESULT:      -2.1      1.599      2.462
REMARK  2 active torsions:
REMARK  status: ('A' for Active; 'I' for Inactive)
REMARK    1  A    between atoms: C1_1  and  C3_3 
REMARK    2  A    between atoms: C1_1  and  C7_7 
ROOT
HETATM    1  C2  UNL     1     -33.239   5.894   1.115  1.00 20.00     0.017 A 
HETATM    2  C3  UNL     1     -32.083   6.526   1.849  1.00 20.00     0.059 A 
HETATM    3  C4  UNL     1     -33.221   5.897   2.617  1.00 20.00    -0.007 A 
HETATM    4  C5  UNL     1     -34.214   6.712   3.373  1.00 20.00     0.011 C 
ENDROOT
BRANCH   2   5
HETATM    5  C1  UNL     1     -31.915   7.983   1.806  1.00 20.00     0.131 C 
HETATM    6  O8  UNL     1     -31.622   8.618   2.818  1.00 20.00    -0.298 OA
BRANCH   5   7
HETATM    7  C7  UNL     1     -32.125   8.639   0.454  1.00 20.00     0.074 C 
HETATM    8  C6  UNL     1     -32.613  10.072   0.570  1.00 20.00     0.013 C 
ENDBRANCH   5   7
ENDBRANCH   2   5
TORSDOF 2
ENDMDL
MODEL 3
REMARK VINA RESULT:      -2.0      1.992      3.739
REMARK  2 active torsions:
REMARK  status: ('A' for Active; 'I' for Inactive)
REMARK    1  A    between atoms: C1_1  and  C3_3 
REMARK    2  A    between atoms: C1_1  and  C7_7 
ROOT
HETATM    1  C2  UNL     1     -33.406   6.843   2.626  1.00 20.00     0.017 A 
HETATM    2  C3  UNL     1     -34.677   6.278   3.209  1.00 20.00     0.059 A 
HETATM    3  C4  UNL     1     -34.121   7.586   3.717  1.00 20.00    -0.007 A 
HETATM    4  C5  UNL     1     -33.498   7.713   5.065  1.00 20.00     0.011 C 
ENDROOT
BRANCH   2   5
HETATM    5  C1  UNL     1     -34.613   5.062   4.027  1.00 20.00     0.131 C 
HETATM    6  O8  UNL     1     -35.499   4.794   4.837  1.00 20.00    -0.298 OA
BRANCH   5   7
HETATM    7  C7  UNL     1     -33.402   4.174   3.809  1.00 20.00     0.074 C 
HETATM    8  C6  UNL     1     -33.321   3.039   4.815  1.00 20.00     0.013 C 
ENDBRANCH   5   7
ENDBRANCH   2   5
TORSDOF 2
ENDMDL
MODEL 4
REMARK VINA RESULT:      -1.8      1.321      3.385
REMARK  2 active torsions:
REMARK  status: ('A' for Active; 'I' for Inactive)
REMARK    1  A    between atoms: C1_1  and  C3_3 
REMARK    2  A    between atoms: C1_1  and  C7_7 
ROOT
HETATM    1  C2  UNL     1     -32.032   5.490   1.247  1.00 20.00     0.017 A 
HETATM    2  C3  UNL     1     -33.421   5.897   1.672  1.00 20.00     0.059 A 
HETATM    3  C4  UNL     1     -32.405   6.945   1.284  1.00 20.00    -0.007 A 
HETATM    4  C5  UNL     1     -31.777   7.850   2.288  1.00 20.00     0.011 C 
ENDROOT
BRANCH   2   5
HETATM    5  C1  UNL     1     -33.826   5.718   3.070  1.00 20.00     0.131 C 
HETATM    6  O8  UNL     1     -33.413   4.770   3.735  1.00 20.00    -0.298 OA
BRANCH   5   7
HETATM    7  C7  UNL     1     -34.772   6.765   3.629  1.00 20.00     0.074 C 
HETATM    8  C6  UNL     1     -34.092   7.702   4.612  1.00 20.00     0.013 C 
ENDBRANCH   5   7
ENDBRANCH   2   5
TORSDOF 2
ENDMDL
MODEL 5
REMARK VINA RESULT:      -1.7      0.859      3.681
REMARK  2 active torsions:
REMARK  status: ('A' for Active; 'I' for Inactive)
REMARK    1  A    between atoms: C1_1  and  C3_3 
REMARK    2  A    between atoms: C1_1  and  C7_7 
ROOT
HETATM    1  C2  UNL     1     -31.300   8.695   2.529  1.00 20.00     0.017 A 
HETATM    2  C3  UNL     1     -31.685   7.403   1.852  1.00 20.00     0.059 A 
HETATM    3  C4  UNL     1     -31.572   8.679   1.052  1.00 20.00    -0.007 A 
HETATM    4  C5  UNL     1     -32.769   9.382   0.507  1.00 20.00     0.011 C 
ENDROOT
BRANCH   2   5
HETATM    5  C1  UNL     1     -32.993   6.804   2.138  1.00 20.00     0.131 C 
HETATM    6  O8  UNL     1     -33.465   5.932   1.411  1.00 20.00    -0.298 OA
BRANCH   5   7
HETATM    7  C7  UNL     1     -33.711   7.326   3.370  1.00 20.00     0.074 C 
HETATM    8  C6  UNL     1     -34.887   6.455   3.773  1.00 20.00     0.013 C 
ENDBRANCH   5   7
ENDBRANCH   2   5
TORSDOF 2
ENDMDL
MODEL 6
REMARK VINA RESULT:      -1.7      1.305      1.782
REMARK  2 active torsions:
REMARK  status: ('A' for Active; 'I' for Inactive)
REMARK    1  A    between atoms: C1_1  and  C3_3 
REMARK    2  A    between atoms: C1_1  and  C7_7 
ROOT
HETATM    1  C2  UNL     1     -34.196   7.555   4.523  1.00 20.00     0.017 A 
HETATM    2  C3  UNL     1     -34.246   7.408   3.023  1.00 20.00     0.059 A 
HETATM    3  C4  UNL     1     -34.891   6.372   3.912  1.00 20.00    -0.007 A 
HETATM    4  C5  UNL     1     -34.322   5.005   4.080  1.00 20.00     0.011 C 
ENDROOT
BRANCH   2   5
HETATM    5  C1  UNL     1     -33.011   7.109   2.289  1.00 20.00     0.131 C 
HETATM    6  O8  UNL     1     -32.002   7.797   2.437  1.00 20.00    -0.298 OA
BRANCH   5   7
HETATM    7  C7  UNL     1     -33.064   5.917   1.351  1.00 20.00     0.074 C 
HETATM    8  C6  UNL     1     -31.735   5.189   1.256  1.00 20.00     0.013 C 
ENDBRANCH   5   7
ENDBRANCH   2   5
TORSDOF 2
ENDMDL
MODEL 7
REMARK VINA RESULT:      -1.7      1.412      3.828
REMARK  2 active torsions:
REMARK  status: ('A' for Active; 'I' for Inactive)
REMARK    1  A    between atoms: C1_1  and  C3_3 
REMARK    2  A    between atoms: C1_1  and  C7_7 
ROOT
HETATM    1  C2  UNL     1     -32.129   5.579   1.817  1.00 20.00     0.017 A 
HETATM    2  C3  UNL     1     -33.531   6.099   2.013  1.00 20.00     0.059 A 
HETATM    3  C4  UNL     1     -32.486   6.959   1.344  1.00 20.00    -0.007 A 
HETATM    4  C5  UNL     1     -31.893   8.152   2.012  1.00 20.00     0.011 C 
ENDROOT
BRANCH   2   5
HETATM    5  C1  UNL     1     -34.002   6.401   3.369  1.00 20.00     0.131 C 
HETATM    6  O8  UNL     1     -33.781   7.493   3.889  1.00 20.00    -0.298 OA
BRANCH   5   7
HETATM    7  C7  UNL     1     -34.765   5.293   4.073  1.00 20.00     0.074 C 
HETATM    8  C6  UNL     1     -33.947   4.022   4.217  1.00 20.00     0.013 C 
ENDBRANCH   5   7
ENDBRANCH   2   5
TORSDOF 2
ENDMDL
MODEL 8
REMARK VINA RESULT:      -1.6      1.445      1.632
REMARK  2 active torsions:
REMARK  status: ('A' for Active; 'I' for Inactive)
REMARK    1  A    between atoms: C1_1  and  C3_3 
REMARK    2  A    between atoms: C1_1  and  C7_7 
ROOT
HETATM    1  C2  UNL     1     -35.406   6.118   4.533  1.00 20.00     0.017 A 
HETATM    2  C3  UNL     1     -34.689   6.407   3.238  1.00 20.00     0.059 A 
HETATM    3  C4  UNL     1     -34.833   4.986   3.729  1.00 20.00    -0.007 A 
HETATM    4  C5  UNL     1     -33.677   4.208   4.257  1.00 20.00     0.011 C 
ENDROOT
BRANCH   2   5
HETATM    5  C1  UNL     1     -33.391   7.089   3.273  1.00 20.00     0.131 C 
HETATM    6  O8  UNL     1     -33.051   7.758   4.248  1.00 20.00    -0.298 OA
BRANCH   5   7
HETATM    7  C7  UNL     1     -32.514   6.918   2.046  1.00 20.00     0.074 C 
HETATM    8  C6  UNL     1     -31.969   8.237   1.529  1.00 20.00     0.013 C 
ENDBRANCH   5   7
ENDBRANCH   2   5
TORSDOF 2
ENDMDL
MODEL 9
REMARK VINA RESULT:      -1.5      1.716      3.497
REMARK  2 active torsions:
REMARK  status: ('A' for Active; 'I' for Inactive)
REMARK    1  A    between atoms: C1_1  and  C3_3 
REMARK    2  A    between atoms: C1_1  and  C7_7 
ROOT
HETATM    1  C2  UNL     1     -32.642   8.375   1.334  1.00 20.00     0.017 A 
HETATM    2  C3  UNL     1     -32.237   8.110   2.762  1.00 20.00     0.059 A 
HETATM    3  C4  UNL     1     -31.858   7.139   1.670  1.00 20.00    -0.007 A 
HETATM    4  C5  UNL     1     -32.494   5.796   1.547  1.00 20.00     0.011 C 
ENDROOT
BRANCH   2   5
HETATM    5  C1  UNL     1     -33.268   7.772   3.750  1.00 20.00     0.131 C 
HETATM    6  O8  UNL     1     -33.065   7.916   4.954  1.00 20.00    -0.298 OA
BRANCH   5   7
HETATM    7  C7  UNL     1     -34.576   7.240   3.194  1.00 20.00     0.074 C 
HETATM    8  C6  UNL     1     -35.204   6.184   4.086  1.00 20.00     0.013 C 
ENDBRANCH   5   7
ENDBRANCH   2   5
TORSDOF 2
ENDMDL
