MODEL 1
REMARK VINA RESULT:      -2.2      0.000      0.000
REMARK  3 active torsions:
REMARK  status: ('A' for Active; 'I' for Inactive)
REMARK    1  A    between atoms: C4_4  and  C6_6 
REMARK    2  A    between atoms: C4_4  and  O7_7 
REMARK    3  A    between atoms: C5_5  and  C6_6 
ROOT
HETATM    1  C6  UNL     1     -33.736   6.618   3.621  1.00 20.00     0.109 C 
HETATM    2 CL8  UNL     1     -33.560   8.059   4.683  1.00 20.00    -0.122 Cl
ENDROOT
BRANCH   1   3
HETATM    3  C4  UNL     1     -35.181   6.119   3.688  1.00 20.00     0.187 C 
BRANCH   3   4
HETATM    4  O7  UNL     1     -35.242   4.941   4.485  1.00 20.00    -0.394 OA
HETATM    5  C3  UNL     1     -34.101   4.120   4.286  1.00 20.00     0.201 C 
ENDBRANCH   3   4
ENDBRANCH   1   3
BRANCH   1   6
HETATM    6  C5  UNL     1     -33.269   6.911   2.175  1.00 20.00    -0.002 C 
HETATM    7  C1  UNL     1     -32.780   5.675   1.413  1.00 20.00     0.011 C 
HETATM    8  C2  UNL     1     -32.198   8.006   2.133  1.00 20.00     0.011 C 
ENDBRANCH   1   6
TORSDOF 3
ENDMDL
MODEL 2
REMARK VINA RESULT:      -2.2      2.770      4.390
REMARK  3 active torsions:
REMARK  status: ('A' for Active; 'I' for Inactive)
REMARK    1  A    between atoms: C4_4  and  C6_6 
REMARK    2  A    between atoms: C4_4  and  O7_7 
REMARK    3  A    between atoms: C5_5  and  C6_6 
ROOT
HETATM    1  C6  UNL     1     -32.641   7.081   2.705  1.00 20.00     0.109 C 
HETATM    2 CL8  UNL     1     -33.046   5.827   1.483  1.00 20.00    -0.122 Cl
ENDROOT
BRANCH   1   3
HETATM    3  C4  UNL     1     -31.961   8.261   2.008  1.00 20.00     0.187 C 
BRANCH   3   4
HETATM    4  O7  UNL     1     -32.648   8.558   0.796  1.00 20.00    -0.394 OA
HETATM    5  C3  UNL     1     -32.391   9.887   0.366  1.00 20.00     0.201 C 
ENDBRANCH   3   4
ENDBRANCH   1   3
BRANCH   1   6
HETATM    6  C5  UNL     1     -33.882   7.505   3.527  1.00 20.00    -0.002 C 
HETATM    7  C1  UNL     1     -33.550   8.149   4.876  1.00 20.00     0.011 C 
HETATM    8  C2  UNL     1     -34.854   6.337   3.732  1.00 20.00     0.011 C 
ENDBRANCH   1   6
TORSDOF 3
ENDMDL
MODEL 3
REMARK VINA RESULT:      -1.9      2.450      3.801
REMARK  3 active torsions:
REMARK  status: ('A' for Active; 'I' for Inactive)
REMARK    1  A    between atoms: C4_4  and  C6_6 
REMARK    2  A    between atoms: C4_4  and  O7_7 
REMARK    3  A    between atoms: C5_5  and  C6_6 
ROOT
HETATM    1  C6  UNL     1     -33.309   5.745   3.197  1.00 20.00     0.109 C 
HETATM    2 CL8  UNL     1     -33.700   4.065   3.701  1.00 20.00    -0.122 Cl
ENDROOT
BRANCH   1   3
HETATM    3  C4  UNL     1     -33.015   5.763   1.695  1.00 20.00     0.187 C 
BRANCH   3   4
HETATM    4  O7  UNL     1     -31.763   6.401   1.461  1.00 20.00    -0.394 OA
HETATM    5  C3  UNL     1     -31.878   7.814   1.538  1.00 20.00     0.201 C 
ENDBRANCH   3   4
ENDBRANCH   1   3
BRANCH   1   6
HETATM    6  C5  UNL     1     -34.424   6.740   3.600  1.00 20.00    -0.002 C 
HETATM    7  C1  UNL     1     -33.947   7.888   4.494  1.00 20.00     0.011 C 
HETATM    8  C2  UNL     1     -35.612   6.027   4.258  1.00 20.00     0.011 C 
ENDBRANCH   1   6
TORSDOF 3
ENDMDL
MODEL 4
REMARK VINA RESULT:      -1.8      2.705      4.209
REMARK  3 active torsions:
REMARK  status: ('A' for Active; 'I' for Inactive)
REMARK    1  A    between atoms: C4_4  and  C6_6 
REMARK    2  A    between atoms: C4_4  and  O7_7 
REMARK    3  A    between atoms: C5_5  and  C6_6 
ROOT
HETATM    1  C6  UNL     1     -32.907   6.197   2.596  1.00 20.00     0.109 C 
HETATM    2 CL8  UNL     1     -32.673   5.462   0.973  1.00 20.00    -0.122 Cl
ENDROOT
BRANCH   1   3
HETATM    3  C4  UNL     1     -32.745   7.715   2.488  1.00 20.00     0.187 C 
BRANCH   3   4
HETATM    4  O7  UNL     1     -31.819   8.023   1.451  1.00 20.00    -0.394 OA
HETATM    5  C3  UNL     1     -32.208   9.186   0.736  1.00 20.00     0.201 C 
ENDBRANCH   3   4
ENDBRANCH   1   3
BRANCH   1   6
HETATM    6  C5  UNL     1     -34.260   5.783   3.225  1.00 20.00    -0.002 C 
HETATM    7  C1  UNL     1     -34.901   6.864   4.100  1.00 20.00     0.011 C 
HETATM    8  C2  UNL     1     -34.143   4.475   4.016  1.00 20.00     0.011 C 
ENDBRANCH   1   6
TORSDOF 3
ENDMDL
MODEL 5
REMARK VINA RESULT:      -1.4      2.498      3.911
REMARK  3 active torsions:
REMARK  status: ('A' for Active; 'I' for Inactive)
REMARK    1  A    between atoms: C4_4  and  C6_6 
REMARK    2  A    between atoms: C4_4  and  O7_7 
REMARK    3  A    between atoms: C5_5  and  C6_6 
ROOT
HETATM    1  C6  UNL     1     -33.293   7.463   2.298  1.00 20.00     0.109 C 
HETATM    2 CL8  UNL     1     -33.709   7.825   4.009  1.00 20.00    -0.122 Cl
ENDROOT
BRANCH   1   3
HETATM    3  C4  UNL     1     -31.959   8.128   1.954  1.00 20.00     0.187 C 
BRANCH   3   4
HETATM    4  O7  UNL     1     -32.010   8.640   0.626  1.00 20.00    -0.394 OA
HETATM    5  C3  UNL     1     -32.509   9.969   0.600  1.00 20.00     0.201 C 
ENDBRANCH   3   4
ENDBRANCH   1   3
BRANCH   1   6
HETATM    6  C5  UNL     1     -33.294   5.941   2.017  1.00 20.00    -0.002 C 
HETATM    7  C1  UNL     1     -33.640   5.079   3.234  1.00 20.00     0.011 C 
HETATM    8  C2  UNL     1     -31.965   5.474   1.409  1.00 20.00     0.011 C 
ENDBRANCH   1   6
TORSDOF 3
ENDMDL
MODEL 6
REMARK VINA RESULT:      -1.4      1.972      2.662
REMARK  3 active torsions:
REMARK  status: ('A' for Active; 'I' for Inactive)
REMARK    1  A    between atoms: C4_4  and  C6_6 
REMARK    2  A    between atoms: C4_4  and  O7_7 
REMARK    3  A    between atoms: C5_5  and  C6_6 
ROOT
HETATM    1  C6  UNL     1     -33.016   7.124   1.808  1.00 20.00     0.109 C 
HETATM    2 CL8  UNL     1     -32.513   5.445   1.406  1.00 20.00    -0.122 Cl
ENDROOT
BRANCH   1   3
HETATM    3  C4  UNL     1     -33.537   7.161   3.246  1.00 20.00     0.187 C 
BRANCH   3   4
HETATM    4  O7  UNL     1     -34.145   5.914   3.566  1.00 20.00    -0.394 OA
HETATM    5  C3  UNL     1     -35.435   6.095   4.132  1.00 20.00     0.201 C 
ENDBRANCH   3   4
ENDBRANCH   1   3
BRANCH   1   6
HETATM    6  C5  UNL     1     -31.875   8.140   1.558  1.00 20.00    -0.002 C 
HETATM    7  C1  UNL     1     -31.252   8.709   2.836  1.00 20.00     0.011 C 
HETATM    8  C2  UNL     1     -32.324   9.286   0.644  1.00 20.00     0.011 C 
ENDBRANCH   1   6
TORSDOF 3
ENDMDL
MODEL 7
REMARK VINA RESULT:      -1.3      2.447      3.902
REMARK  3 active torsions:
REMARK  status: ('A' for Active; 'I' for Inactive)
REMARK    1  A    between atoms: C4_4  and  C6_6 
REMARK    2  A    between atoms: C4_4  and  O7_7 
REMARK    3  A    between atoms: C5_5  and  C6_6 
ROOT
HETATM    1  C6  UNL     1     -33.244   7.350   2.455  1.00 20.00     0.109 C 
HETATM    2 CL8  UNL     1     -33.958   7.810   4.039  1.00 20.00    -0.122 Cl
ENDROOT
BRANCH   1   3
HETATM    3  C4  UNL     1     -32.059   8.270   2.153  1.00 20.00     0.187 C 
BRANCH   3   4
HETATM    4  O7  UNL     1     -32.035   8.577   0.762  1.00 20.00    -0.394 OA
HETATM    5  C3  UNL     1     -32.477   9.904   0.516  1.00 20.00     0.201 C 
ENDBRANCH   3   4
ENDBRANCH   1   3
BRANCH   1   6
HETATM    6  C5  UNL     1     -32.864   5.851   2.409  1.00 20.00    -0.002 C 
HETATM    7  C1  UNL     1     -32.781   5.268   0.995  1.00 20.00     0.011 C 
HETATM    8  C2  UNL     1     -33.805   4.999   3.269  1.00 20.00     0.011 C 
ENDBRANCH   1   6
TORSDOF 3
ENDMDL
MODEL 8
REMARK VINA RESULT:      -1.3      1.951      2.315
REMARK  3 active torsions:
REMARK  status: ('A' for Active; 'I' for Inactive)
REMARK    1  A    between atoms: C4_4  and  C6_6 
REMARK    2  A    between atoms: C4_4  and  O7_7 
REMARK    3  A    between atoms: C5_5  and  C6_6 
ROOT
HETATM    1  C6  UNL     1     -33.910   5.961   2.706  1.00 20.00     0.109 C 
HETATM    2 CL8  UNL     1     -32.611   5.228   1.702  1.00 20.00    -0.122 Cl
ENDROOT
BRANCH   1   3
HETATM    3  C4  UNL     1     -34.064   5.152   3.995  1.00 20.00     0.187 C 
BRANCH   3   4
HETATM    4  O7  UNL     1     -33.866   3.769   3.717  1.00 20.00    -0.394 OA
HETATM    5  C3  UNL     1     -33.206   3.113   4.789  1.00 20.00     0.201 C 
ENDBRANCH   3   4
ENDBRANCH   1   3
BRANCH   1   6
HETATM    6  C5  UNL     1     -33.651   7.464   2.971  1.00 20.00    -0.002 C 
HETATM    7  C1  UNL     1     -32.313   7.975   2.429  1.00 20.00     0.011 C 
HETATM    8  C2  UNL     1     -33.776   7.810   4.459  1.00 20.00     0.011 C 
ENDBRANCH   1   6
TORSDOF 3
ENDMDL
MODEL 9
REMARK VINA RESULT:      -1.2      2.327      3.883
REMARK  3 active torsions:
REMARK  status: ('A' for Active; 'I' for Inactive)
REMARK    1  A    between atoms: C4_4  and  C6_6 
REMARK    2  A    between atoms: C4_4  and  O7_7 
REMARK    3  A    between atoms: C5_5  and  C6_6 
ROOT
HETATM    1  C6  UNL     1     -33.262   7.972   3.030  1.00 20.00     0.109 C 
HETATM    2 CL8  UNL     1     -32.867   8.231   4.764  1.00 20.00    -0.122 Cl
ENDROOT
BRANCH   1   3
HETATM    3  C4  UNL     1     -31.970   8.005   2.210  1.00 20.00     0.187 C 
BRANCH   3   4
HETATM    4  O7  UNL     1     -32.272   8.331   0.857  1.00 20.00    -0.394 OA
HETATM    5  C3  UNL     1     -32.352   9.736   0.668  1.00 20.00     0.201 C 
ENDBRANCH   3   4
ENDBRANCH   1   3
BRANCH   1   6
HETATM    6  C5  UNL     1     -34.075   6.674   2.814  1.00 20.00    -0.002 C 
HETATM    7  C1  UNL     1     -35.001   6.312   3.980  1.00 20.00     0.011 C 
HETATM    8  C2  UNL     1     -33.168   5.483   2.482  1.00 20.00     0.011 C 
ENDBRANCH   1   6
TORSDOF 3
ENDMDL
