MODEL 1
REMARK VINA RESULT:       0.2      0.000      0.000
REMARK  2 active torsions:
REMARK  status: ('A' for Active; 'I' for Inactive)
REMARK    1  A    between atoms: C2_2  and  C8_8 
REMARK    2  A    between atoms: C3_3  and  C5_5 
ROOT
HETATM    1  C1  UNL     1     -35.017   5.019   4.526  1.00 20.00     0.080 A 
HETATM    2  C2  UNL     1     -33.945   4.295   4.047  1.00 20.00     0.055 A 
HETATM    3  C3  UNL     1     -33.737   6.072   2.778  1.00 20.00     0.080 A 
HETATM    4  N9  UNL     1     -33.210   4.897   3.044  1.00 20.00    -0.248 NA
HETATM    5  S10 UNL     1     -35.117   6.516   3.696  1.00 20.00    -0.084 SA
ENDROOT
BRANCH   3   6
HETATM    6  C5  UNL     1     -33.147   6.999   1.700  1.00 20.00     0.049 A 
HETATM    7  C4  UNL     1     -31.655   6.959   1.456  1.00 20.00     0.016 A 
HETATM    8  C6  UNL     1     -32.268   8.173   2.089  1.00 20.00    -0.007 A 
HETATM    9  C7  UNL     1     -31.963   8.508   3.510  1.00 20.00     0.011 C 
ENDBRANCH   3   6
BRANCH   2  10
HETATM   10  C8  UNL     1     -33.531   2.956   4.513  1.00 20.00     0.174 C 
HETATM   11 CL11 UNL     1     -32.524   3.068   5.981  1.00 20.00    -0.124 Cl
ENDBRANCH   2  10
TORSDOF 2
ENDMDL
MODEL 2
REMARK VINA RESULT:       0.6      2.374      3.244
REMARK  2 active torsions:
REMARK  status: ('A' for Active; 'I' for Inactive)
REMARK    1  A    between atoms: C2_2  and  C8_8 
REMARK    2  A    between atoms: C3_3  and  C5_5 
ROOT
HETATM    1  C1  UNL     1     -33.240   5.645   2.335  1.00 20.00     0.080 A 
HETATM    2  C2  UNL     1     -33.878   6.617   3.077  1.00 20.00     0.055 A 
HETATM    3  C3  UNL     1     -32.480   7.903   1.981  1.00 20.00     0.080 A 
HETATM    4  N9  UNL     1     -33.443   7.912   2.876  1.00 20.00    -0.248 NA
HETATM    5  S10 UNL     1     -32.047   6.371   1.340  1.00 20.00    -0.084 SA
ENDROOT
BRANCH   3   6
HETATM    6  C5  UNL     1     -31.778   9.198   1.533  1.00 20.00     0.049 A 
HETATM    7  C4  UNL     1     -32.626  10.422   1.272  1.00 20.00     0.016 A 
HETATM    8  C6  UNL     1     -31.961   9.726   0.122  1.00 20.00    -0.007 A 
HETATM    9  C7  UNL     1     -32.785   9.015  -0.898  1.00 20.00     0.011 C 
ENDBRANCH   3   6
BRANCH   2  10
HETATM   10  C8  UNL     1     -34.965   6.385   4.049  1.00 20.00     0.174 C 
HETATM   11 CL11 UNL     1     -35.020   4.676   4.557  1.00 20.00    -0.124 Cl
ENDBRANCH   2  10
TORSDOF 2
ENDMDL
MODEL 3
REMARK VINA RESULT:       0.8      3.388      5.121
REMARK  2 active torsions:
REMARK  status: ('A' for Active; 'I' for Inactive)
REMARK    1  A    between atoms: C2_2  and  C8_8 
REMARK    2  A    between atoms: C3_3  and  C5_5 
ROOT
HETATM    1  C1  UNL     1     -31.995   6.984   0.832  1.00 20.00     0.080 A 
HETATM    2  C2  UNL     1     -32.287   8.175   1.465  1.00 20.00     0.055 A 
HETATM    3  C3  UNL     1     -33.202   6.799   2.908  1.00 20.00     0.080 A 
HETATM    4  N9  UNL     1     -32.980   8.071   2.655  1.00 20.00    -0.248 NA
HETATM    5  S10 UNL     1     -32.606   5.676   1.756  1.00 20.00    -0.084 SA
ENDROOT
BRANCH   3   6
HETATM    6  C5  UNL     1     -33.958   6.344   4.169  1.00 20.00     0.049 A 
HETATM    7  C4  UNL     1     -34.673   5.012   4.137  1.00 20.00     0.016 A 
HETATM    8  C6  UNL     1     -35.474   6.279   4.179  1.00 20.00    -0.007 A 
HETATM    9  C7  UNL     1     -36.300   6.680   3.004  1.00 20.00     0.011 C 
ENDBRANCH   3   6
BRANCH   2  10
HETATM   10  C8  UNL     1     -31.924   9.521   0.980  1.00 20.00     0.174 C 
HETATM   11 CL11 UNL     1     -32.788   9.915  -0.530  1.00 20.00    -0.124 Cl
ENDBRANCH   2  10
TORSDOF 2
ENDMDL
MODEL 4
REMARK VINA RESULT:       0.8      2.831      4.748
REMARK  2 active torsions:
REMARK  status: ('A' for Active; 'I' for Inactive)
REMARK    1  A    between atoms: C2_2  and  C8_8 
REMARK    2  A    between atoms: C3_3  and  C5_5 
ROOT
HETATM    1  C1  UNL     1     -32.669   8.427   3.325  1.00 20.00     0.080 A 
HETATM    2  C2  UNL     1     -32.452   7.701   2.172  1.00 20.00     0.055 A 
HETATM    3  C3  UNL     1     -33.794   6.301   3.196  1.00 20.00     0.080 A 
HETATM    4  N9  UNL     1     -33.096   6.482   2.096  1.00 20.00    -0.248 NA
HETATM    5  S10 UNL     1     -33.721   7.557   4.362  1.00 20.00    -0.084 SA
ENDROOT
BRANCH   3   6
HETATM    6  C5  UNL     1     -34.631   5.029   3.424  1.00 20.00     0.049 A 
HETATM    7  C4  UNL     1     -35.048   4.686   4.837  1.00 20.00     0.016 A 
HETATM    8  C6  UNL     1     -34.034   3.830   4.137  1.00 20.00    -0.007 A 
HETATM    9  C7  UNL     1     -32.621   3.804   4.614  1.00 20.00     0.011 C 
ENDBRANCH   3   6
BRANCH   2  10
HETATM   10  C8  UNL     1     -31.604   8.119   1.038  1.00 20.00     0.174 C 
HETATM   11 CL11 UNL     1     -32.252   9.584   0.255  1.00 20.00    -0.124 Cl
ENDBRANCH   2  10
TORSDOF 2
ENDMDL
MODEL 5
REMARK VINA RESULT:       0.9      2.188      2.808
REMARK  2 active torsions:
REMARK  status: ('A' for Active; 'I' for Inactive)
REMARK    1  A    between atoms: C2_2  and  C8_8 
REMARK    2  A    between atoms: C3_3  and  C5_5 
ROOT
HETATM    1  C1  UNL     1     -33.479   7.868   4.500  1.00 20.00     0.080 A 
HETATM    2  C2  UNL     1     -34.130   6.957   3.693  1.00 20.00     0.055 A 
HETATM    3  C3  UNL     1     -32.692   7.730   2.228  1.00 20.00     0.080 A 
HETATM    4  N9  UNL     1     -33.680   6.877   2.390  1.00 20.00    -0.248 NA
HETATM    5  S10 UNL     1     -32.252   8.659   3.602  1.00 20.00    -0.084 SA
ENDROOT
BRANCH   3   6
HETATM    6  C5  UNL     1     -31.968   7.885   0.879  1.00 20.00     0.049 A 
HETATM    7  C4  UNL     1     -30.811   8.854   0.790  1.00 20.00     0.016 A 
HETATM    8  C6  UNL     1     -32.093   9.169   0.080  1.00 20.00    -0.007 A 
HETATM    9  C7  UNL     1     -32.936  10.314   0.531  1.00 20.00     0.011 C 
ENDBRANCH   3   6
BRANCH   2  10
HETATM   10  C8  UNL     1     -35.245   6.082   4.106  1.00 20.00     0.174 C 
HETATM   11 CL11 UNL     1     -34.676   4.423   4.427  1.00 20.00    -0.124 Cl
ENDBRANCH   2  10
TORSDOF 2
ENDMDL
MODEL 6
REMARK VINA RESULT:       1.1      3.134      4.977
REMARK  2 active torsions:
REMARK  status: ('A' for Active; 'I' for Inactive)
REMARK    1  A    between atoms: C2_2  and  C8_8 
REMARK    2  A    between atoms: C3_3  and  C5_5 
ROOT
HETATM    1  C1  UNL     1     -31.842   6.515   1.119  1.00 20.00     0.080 A 
HETATM    2  C2  UNL     1     -32.182   7.737   1.663  1.00 20.00     0.055 A 
HETATM    3  C3  UNL     1     -33.776   6.523   2.555  1.00 20.00     0.080 A 
HETATM    4  N9  UNL     1     -33.291   7.743   2.486  1.00 20.00    -0.248 NA
HETATM    5  S10 UNL     1     -32.948   5.319   1.655  1.00 20.00    -0.084 SA
ENDROOT
BRANCH   3   6
HETATM    6  C5  UNL     1     -35.021   6.192   3.399  1.00 20.00     0.049 A 
HETATM    7  C4  UNL     1     -34.938   6.362   4.899  1.00 20.00     0.016 A 
HETATM    8  C6  UNL     1     -35.032   4.983   4.316  1.00 20.00    -0.007 A 
HETATM    9  C7  UNL     1     -33.876   4.047   4.421  1.00 20.00     0.011 C 
ENDBRANCH   3   6
BRANCH   2  10
HETATM   10  C8  UNL     1     -31.468   9.009   1.438  1.00 20.00     0.174 C 
HETATM   11 CL11 UNL     1     -32.316  10.019   0.237  1.00 20.00    -0.124 Cl
ENDBRANCH   2  10
TORSDOF 2
ENDMDL
MODEL 7
REMARK VINA RESULT:       1.4      3.518      4.952
REMARK  2 active torsions:
REMARK  status: ('A' for Active; 'I' for Inactive)
REMARK    1  A    between atoms: C2_2  and  C8_8 
REMARK    2  A    between atoms: C3_3  and  C5_5 
ROOT
HETATM    1  C1  UNL     1     -31.569   6.818   0.702  1.00 20.00     0.080 A 
HETATM    2  C2  UNL     1     -32.096   7.967   1.257  1.00 20.00     0.055 A 
HETATM    3  C3  UNL     1     -33.207   6.490   2.438  1.00 20.00     0.080 A 
HETATM    4  N9  UNL     1     -33.035   7.780   2.252  1.00 20.00    -0.248 NA
HETATM    5  S10 UNL     1     -32.270   5.444   1.451  1.00 20.00    -0.084 SA
ENDROOT
BRANCH   3   6
HETATM    6  C5  UNL     1     -34.195   5.947   3.486  1.00 20.00     0.049 A 
HETATM    7  C4  UNL     1     -35.549   6.610   3.610  1.00 20.00     0.016 A 
HETATM    8  C6  UNL     1     -34.546   6.767   4.714  1.00 20.00    -0.007 A 
HETATM    9  C7  UNL     1     -33.938   8.102   4.986  1.00 20.00     0.011 C 
ENDBRANCH   3   6
BRANCH   2  10
HETATM   10  C8  UNL     1     -31.741   9.348   0.877  1.00 20.00     0.174 C 
HETATM   11 CL11 UNL     1     -32.784   9.941  -0.442  1.00 20.00    -0.124 Cl
ENDBRANCH   2  10
TORSDOF 2
ENDMDL
MODEL 8
REMARK VINA RESULT:       1.5      0.983      1.563
REMARK  2 active torsions:
REMARK  status: ('A' for Active; 'I' for Inactive)
REMARK    1  A    between atoms: C2_2  and  C8_8 
REMARK    2  A    between atoms: C3_3  and  C5_5 
ROOT
HETATM    1  C1  UNL     1     -35.286   5.911   4.285  1.00 20.00     0.080 A 
HETATM    2  C2  UNL     1     -34.253   5.056   3.960  1.00 20.00     0.055 A 
HETATM    3  C3  UNL     1     -33.357   6.934   3.267  1.00 20.00     0.080 A 
HETATM    4  N9  UNL     1     -33.147   5.640   3.376  1.00 20.00    -0.248 NA
HETATM    5  S10 UNL     1     -34.864   7.514   3.847  1.00 20.00    -0.084 SA
ENDROOT
BRANCH   3   6
HETATM    6  C5  UNL     1     -32.307   7.877   2.652  1.00 20.00     0.049 A 
HETATM    7  C4  UNL     1     -32.606   8.509   1.311  1.00 20.00     0.016 A 
HETATM    8  C6  UNL     1     -31.533   7.466   1.413  1.00 20.00    -0.007 A 
HETATM    9  C7  UNL     1     -31.717   6.139   0.757  1.00 20.00     0.011 C 
ENDBRANCH   3   6
BRANCH   2  10
HETATM   10  C8  UNL     1     -34.240   3.596   4.184  1.00 20.00     0.174 C 
HETATM   11 CL11 UNL     1     -32.771   3.093   5.062  1.00 20.00    -0.124 Cl
ENDBRANCH   2  10
TORSDOF 2
ENDMDL
MODEL 9
REMARK VINA RESULT:       1.6      2.986      4.909
REMARK  2 active torsions:
REMARK  status: ('A' for Active; 'I' for Inactive)
REMARK    1  A    between atoms: C2_2  and  C8_8 
REMARK    2  A    between atoms: C3_3  and  C5_5 
ROOT
HETATM    1  C1  UNL     1     -31.774   6.606   1.170  1.00 20.00     0.080 A 
HETATM    2  C2  UNL     1     -32.474   7.433   2.025  1.00 20.00     0.055 A 
HETATM    3  C3  UNL     1     -33.425   5.529   2.555  1.00 20.00     0.080 A 
HETATM    4  N9  UNL     1     -33.421   6.818   2.819  1.00 20.00    -0.248 NA
HETATM    5  S10 UNL     1     -32.314   4.991   1.363  1.00 20.00    -0.084 SA
ENDROOT
BRANCH   3   6
HETATM    6  C5  UNL     1     -34.375   4.557   3.277  1.00 20.00     0.049 A 
HETATM    7  C4  UNL     1     -34.676   4.799   4.740  1.00 20.00     0.016 A 
HETATM    8  C6  UNL     1     -33.849   3.612   4.342  1.00 20.00    -0.007 A 
HETATM    9  C7  UNL     1     -32.406   3.549   4.714  1.00 20.00     0.011 C 
ENDBRANCH   3   6
BRANCH   2  10
HETATM   10  C8  UNL     1     -32.292   8.893   2.152  1.00 20.00     0.174 C 
HETATM   11 CL11 UNL     1     -32.366   9.692   0.559  1.00 20.00    -0.124 Cl
ENDBRANCH   2  10
TORSDOF 2
ENDMDL
