MODEL 1
REMARK VINA RESULT:      -3.1      0.000      0.000
REMARK  3 active torsions:
REMARK  status: ('A' for Active; 'I' for Inactive)
REMARK    1  A    between atoms: C3_3  and  C5_5 
REMARK    2  A    between atoms: C3_3  and  C9_9 
REMARK    3  A    between atoms: C8_8  and  C9_9 
ROOT
HETATM    1  C1  UNL     1     -32.743  10.403  -0.046  1.00 20.00     0.012 C 
HETATM    2  C2  UNL     1     -32.257   9.425   0.455  1.00 20.00    -0.117 C 
HETATM    3  C8  UNL     1     -31.661   8.227   1.064  1.00 20.00     0.100 C 
ENDROOT
BRANCH   3   4
HETATM    4  C9  UNL     1     -32.184   7.987   2.478  1.00 20.00     0.090 C 
BRANCH   4   5
HETATM    5  C3  UNL     1     -33.202   6.861   2.574  1.00 20.00     0.132 C 
HETATM    6  O10 UNL     1     -33.234   5.917   1.786  1.00 20.00    -0.298 OA
BRANCH   5   7
HETATM    7  C5  UNL     1     -34.178   6.946   3.719  1.00 20.00     0.059 A 
HETATM    8  C4  UNL     1     -35.568   6.465   3.492  1.00 20.00     0.017 A 
HETATM    9  C6  UNL     1     -34.640   5.698   4.389  1.00 20.00    -0.007 A 
HETATM   10  C7  UNL     1     -34.179   4.336   3.997  1.00 20.00     0.011 C 
ENDBRANCH   5   7
ENDBRANCH   4   5
ENDBRANCH   3   4
TORSDOF 3
ENDMDL
MODEL 2
REMARK VINA RESULT:      -3.0      1.093      1.642
REMARK  3 active torsions:
REMARK  status: ('A' for Active; 'I' for Inactive)
REMARK    1  A    between atoms: C3_3  and  C5_5 
REMARK    2  A    between atoms: C3_3  and  C9_9 
REMARK    3  A    between atoms: C8_8  and  C9_9 
ROOT
HETATM    1  C1  UNL     1     -32.462   9.893  -0.024  1.00 20.00     0.012 C 
HETATM    2  C2  UNL     1     -32.205   9.053   0.795  1.00 20.00    -0.117 C 
HETATM    3  C8  UNL     1     -31.888   8.026   1.800  1.00 20.00     0.100 C 
ENDROOT
BRANCH   3   4
HETATM    4  C9  UNL     1     -32.420   6.652   1.398  1.00 20.00     0.090 C 
BRANCH   4   5
HETATM    5  C3  UNL     1     -33.259   5.980   2.473  1.00 20.00     0.132 C 
HETATM    6  O10 UNL     1     -32.939   4.920   3.009  1.00 20.00    -0.298 OA
BRANCH   5   7
HETATM    7  C5  UNL     1     -34.520   6.701   2.876  1.00 20.00     0.059 A 
HETATM    8  C4  UNL     1     -35.195   6.282   4.134  1.00 20.00     0.017 A 
HETATM    9  C6  UNL     1     -34.503   7.613   4.054  1.00 20.00    -0.007 A 
HETATM   10  C7  UNL     1     -33.287   7.873   4.875  1.00 20.00     0.011 C 
ENDBRANCH   5   7
ENDBRANCH   4   5
ENDBRANCH   3   4
TORSDOF 3
ENDMDL
MODEL 3
REMARK VINA RESULT:      -2.9      1.839      4.699
REMARK  3 active torsions:
REMARK  status: ('A' for Active; 'I' for Inactive)
REMARK    1  A    between atoms: C3_3  and  C5_5 
REMARK    2  A    between atoms: C3_3  and  C9_9 
REMARK    3  A    between atoms: C8_8  and  C9_9 
ROOT
HETATM    1  C1  UNL     1     -33.568   3.357   4.346  1.00 20.00     0.012 C 
HETATM    2  C2  UNL     1     -34.299   4.306   4.433  1.00 20.00    -0.117 C 
HETATM    3  C8  UNL     1     -35.196   5.467   4.541  1.00 20.00     0.100 C 
ENDROOT
BRANCH   3   4
HETATM    4  C9  UNL     1     -34.986   6.457   3.398  1.00 20.00     0.090 C 
BRANCH   4   5
HETATM    5  C3  UNL     1     -33.802   7.390   3.603  1.00 20.00     0.132 C 
HETATM    6  O10 UNL     1     -33.362   7.681   4.715  1.00 20.00    -0.298 OA
BRANCH   5   7
HETATM    7  C5  UNL     1     -33.165   7.937   2.351  1.00 20.00     0.059 A 
HETATM    8  C4  UNL     1     -31.679   7.965   2.276  1.00 20.00     0.017 A 
HETATM    9  C6  UNL     1     -32.462   7.013   1.418  1.00 20.00    -0.007 A 
HETATM   10  C7  UNL     1     -32.353   5.543   1.642  1.00 20.00     0.011 C 
ENDBRANCH   5   7
ENDBRANCH   4   5
ENDBRANCH   3   4
TORSDOF 3
ENDMDL
MODEL 4
REMARK VINA RESULT:      -2.8      1.446      4.843
REMARK  3 active torsions:
REMARK  status: ('A' for Active; 'I' for Inactive)
REMARK    1  A    between atoms: C3_3  and  C5_5 
REMARK    2  A    between atoms: C3_3  and  C9_9 
REMARK    3  A    between atoms: C8_8  and  C9_9 
ROOT
HETATM    1  C1  UNL     1     -33.614   3.454   4.357  1.00 20.00     0.012 C 
HETATM    2  C2  UNL     1     -34.396   4.365   4.382  1.00 20.00    -0.117 C 
HETATM    3  C8  UNL     1     -35.357   5.479   4.414  1.00 20.00     0.100 C 
ENDROOT
BRANCH   3   4
HETATM    4  C9  UNL     1     -35.020   6.551   3.381  1.00 20.00     0.090 C 
BRANCH   4   5
HETATM    5  C3  UNL     1     -33.656   7.194   3.585  1.00 20.00     0.132 C 
HETATM    6  O10 UNL     1     -33.453   8.089   4.405  1.00 20.00    -0.298 OA
BRANCH   5   7
HETATM    7  C5  UNL     1     -32.536   6.657   2.732  1.00 20.00     0.059 A 
HETATM    8  C4  UNL     1     -32.847   6.275   1.327  1.00 20.00     0.017 A 
HETATM    9  C6  UNL     1     -32.001   7.482   1.613  1.00 20.00    -0.007 A 
HETATM   10  C7  UNL     1     -32.507   8.844   1.281  1.00 20.00     0.011 C 
ENDBRANCH   5   7
ENDBRANCH   4   5
ENDBRANCH   3   4
TORSDOF 3
ENDMDL
MODEL 5
REMARK VINA RESULT:      -1.8      1.367      4.853
REMARK  3 active torsions:
REMARK  status: ('A' for Active; 'I' for Inactive)
REMARK    1  A    between atoms: C3_3  and  C5_5 
REMARK    2  A    between atoms: C3_3  and  C9_9 
REMARK    3  A    between atoms: C8_8  and  C9_9 
ROOT
HETATM    1  C1  UNL     1     -35.215   6.497   4.050  1.00 20.00     0.012 C 
HETATM    2  C2  UNL     1     -34.253   6.215   3.388  1.00 20.00    -0.117 C 
HETATM    3  C8  UNL     1     -33.073   5.868   2.580  1.00 20.00     0.100 C 
ENDROOT
BRANCH   3   4
HETATM    4  C9  UNL     1     -32.912   6.798   1.380  1.00 20.00     0.090 C 
BRANCH   4   5
HETATM    5  C3  UNL     1     -32.027   8.005   1.652  1.00 20.00     0.132 C 
HETATM    6  O10 UNL     1     -31.671   8.334   2.782  1.00 20.00    -0.298 OA
BRANCH   5   7
HETATM    7  C5  UNL     1     -31.579   8.784   0.442  1.00 20.00     0.059 A 
HETATM    8  C4  UNL     1     -32.558   8.989  -0.660  1.00 20.00     0.017 A 
HETATM    9  C6  UNL     1     -32.130  10.146   0.196  1.00 20.00    -0.007 A 
HETATM   10  C7  UNL     1     -33.112  10.810   1.099  1.00 20.00     0.011 C 
ENDBRANCH   5   7
ENDBRANCH   4   5
ENDBRANCH   3   4
TORSDOF 3
ENDMDL
MODEL 6
REMARK VINA RESULT:      -1.7      1.881      2.490
REMARK  3 active torsions:
REMARK  status: ('A' for Active; 'I' for Inactive)
REMARK    1  A    between atoms: C3_3  and  C5_5 
REMARK    2  A    between atoms: C3_3  and  C9_9 
REMARK    3  A    between atoms: C8_8  and  C9_9 
ROOT
HETATM    1  C1  UNL     1     -31.979   4.998   0.991  1.00 20.00     0.012 C 
HETATM    2  C2  UNL     1     -31.999   6.132   1.387  1.00 20.00    -0.117 C 
HETATM    3  C8  UNL     1     -32.020   7.520   1.872  1.00 20.00     0.100 C 
ENDROOT
BRANCH   3   4
HETATM    4  C9  UNL     1     -33.394   7.915   2.409  1.00 20.00     0.090 C 
BRANCH   4   5
HETATM    5  C3  UNL     1     -33.575   7.640   3.894  1.00 20.00     0.132 C 
HETATM    6  O10 UNL     1     -32.706   7.878   4.731  1.00 20.00    -0.298 OA
BRANCH   5   7
HETATM    7  C5  UNL     1     -34.909   7.069   4.303  1.00 20.00     0.059 A 
HETATM    8  C4  UNL     1     -35.748   6.430   3.253  1.00 20.00     0.017 A 
HETATM    9  C6  UNL     1     -35.104   5.592   4.320  1.00 20.00    -0.007 A 
HETATM   10  C7  UNL     1     -34.036   4.617   3.960  1.00 20.00     0.011 C 
ENDBRANCH   5   7
ENDBRANCH   4   5
ENDBRANCH   3   4
TORSDOF 3
ENDMDL
MODEL 7
REMARK VINA RESULT:      -1.5      2.097      4.896
REMARK  3 active torsions:
REMARK  status: ('A' for Active; 'I' for Inactive)
REMARK    1  A    between atoms: C3_3  and  C5_5 
REMARK    2  A    between atoms: C3_3  and  C9_9 
REMARK    3  A    between atoms: C8_8  and  C9_9 
ROOT
HETATM    1  C1  UNL     1     -32.767   2.604   5.211  1.00 20.00     0.012 C 
HETATM    2  C2  UNL     1     -33.434   3.347   4.542  1.00 20.00    -0.117 C 
HETATM    3  C8  UNL     1     -34.249   4.255   3.720  1.00 20.00     0.100 C 
ENDROOT
BRANCH   3   4
HETATM    4  C9  UNL     1     -34.920   5.337   4.562  1.00 20.00     0.090 C 
BRANCH   4   5
HETATM    5  C3  UNL     1     -35.304   6.580   3.774  1.00 20.00     0.132 C 
HETATM    6  O10 UNL     1     -36.301   6.637   3.055  1.00 20.00    -0.298 OA
BRANCH   5   7
HETATM    7  C5  UNL     1     -34.397   7.772   3.936  1.00 20.00     0.059 A 
HETATM    8  C4  UNL     1     -33.050   7.552   4.530  1.00 20.00     0.017 A 
HETATM    9  C6  UNL     1     -33.187   7.901   3.076  1.00 20.00    -0.007 A 
HETATM   10  C7  UNL     1     -32.812   6.906   2.031  1.00 20.00     0.011 C 
ENDBRANCH   5   7
ENDBRANCH   4   5
ENDBRANCH   3   4
TORSDOF 3
ENDMDL
MODEL 8
REMARK VINA RESULT:      -1.4      1.392      1.780
REMARK  3 active torsions:
REMARK  status: ('A' for Active; 'I' for Inactive)
REMARK    1  A    between atoms: C3_3  and  C5_5 
REMARK    2  A    between atoms: C3_3  and  C9_9 
REMARK    3  A    between atoms: C8_8  and  C9_9 
ROOT
HETATM    1  C1  UNL     1     -32.688  10.298  -0.024  1.00 20.00     0.012 C 
HETATM    2  C2  UNL     1     -32.224   9.389   0.609  1.00 20.00    -0.117 C 
HETATM    3  C8  UNL     1     -31.655   8.274   1.382  1.00 20.00     0.100 C 
ENDROOT
BRANCH   3   4
HETATM    4  C9  UNL     1     -32.142   8.277   2.829  1.00 20.00     0.090 C 
BRANCH   4   5
HETATM    5  C3  UNL     1     -33.352   7.388   3.072  1.00 20.00     0.132 C 
HETATM    6  O10 UNL     1     -34.118   7.543   4.022  1.00 20.00    -0.298 OA
BRANCH   5   7
HETATM    7  C5  UNL     1     -33.587   6.298   2.058  1.00 20.00     0.059 A 
HETATM    8  C4  UNL     1     -32.491   5.321   1.815  1.00 20.00     0.017 A 
HETATM    9  C6  UNL     1     -33.747   4.889   2.514  1.00 20.00    -0.007 A 
HETATM   10  C7  UNL     1     -33.701   4.478   3.947  1.00 20.00     0.011 C 
ENDBRANCH   5   7
ENDBRANCH   4   5
ENDBRANCH   3   4
TORSDOF 3
ENDMDL
MODEL 9
REMARK VINA RESULT:      -1.4      1.556      4.697
REMARK  3 active torsions:
REMARK  status: ('A' for Active; 'I' for Inactive)
REMARK    1  A    between atoms: C3_3  and  C5_5 
REMARK    2  A    between atoms: C3_3  and  C9_9 
REMARK    3  A    between atoms: C8_8  and  C9_9 
ROOT
HETATM    1  C1  UNL     1     -34.568   6.871   4.100  1.00 20.00     0.012 C 
HETATM    2  C2  UNL     1     -34.015   6.440   3.125  1.00 20.00    -0.117 C 
HETATM    3  C8  UNL     1     -33.339   5.909   1.931  1.00 20.00     0.100 C 
ENDROOT
BRANCH   3   4
HETATM    4  C9  UNL     1     -31.992   6.586   1.691  1.00 20.00     0.090 C 
BRANCH   4   5
HETATM    5  C3  UNL     1     -32.010   8.090   1.920  1.00 20.00     0.132 C 
HETATM    6  O10 UNL     1     -31.360   8.640   2.808  1.00 20.00    -0.298 OA
BRANCH   5   7
HETATM    7  C5  UNL     1     -32.865   8.893   0.974  1.00 20.00     0.059 A 
HETATM    8  C4  UNL     1     -32.566  10.343   0.821  1.00 20.00     0.017 A 
HETATM    9  C6  UNL     1     -32.283   9.390  -0.304  1.00 20.00    -0.007 A 
HETATM   10  C7  UNL     1     -30.877   9.128  -0.724  1.00 20.00     0.011 C 
ENDBRANCH   5   7
ENDBRANCH   4   5
ENDBRANCH   3   4
TORSDOF 3
ENDMDL
