MODEL 1
REMARK VINA RESULT:      -2.0      0.000      0.000
REMARK  3 active torsions:
REMARK  status: ('A' for Active; 'I' for Inactive)
REMARK    1  A    between atoms: C7_7  and  C9_9 
REMARK    2  A    between atoms: C9_9  and  C10_10 
REMARK    3  A    between atoms: C10_10  and  N11_11 
ROOT
HETATM    1  C1  UNL     1     -35.311   6.345   3.864  1.00 20.00     0.029 C 
HETATM    2  C4  UNL     1     -34.860   5.093   4.609  1.00 20.00     0.023 C 
HETATM    3  C5  UNL     1     -34.136   7.091   3.249  1.00 20.00     0.235 C 
HETATM    4  C6  UNL     1     -32.843   4.943   3.095  1.00 20.00     0.254 C 
HETATM    5  C8  UNL     1     -34.022   4.193   3.705  1.00 20.00     0.108 C 
HETATM    6  N11 UNL     1     -33.359   6.156   2.353  1.00 20.00    -0.070 N 
HETATM    7 CL12 UNL     1     -33.420   2.792   4.636  1.00 20.00    -0.123 Cl
HETATM    8  H31 UNL     1     -34.007   5.816   1.629  1.00 20.00     0.279 HD
ENDROOT
BRANCH   6   9
HETATM    9  C10 UNL     1     -32.253   6.873   1.628  1.00 20.00     0.235 C 
BRANCH   9  10
HETATM   10  C9  UNL     1     -32.341   8.360   1.933  1.00 20.00     0.032 C 
BRANCH  10  11
HETATM   11  C7  UNL     1     -31.856   9.192   0.756  1.00 20.00    -0.013 A 
HETATM   12  C2  UNL     1     -32.707   9.331  -0.475  1.00 20.00     0.005 A 
HETATM   13  C3  UNL     1     -32.510  10.508   0.440  1.00 20.00     0.005 A 
ENDBRANCH  10  11
ENDBRANCH   9  10
ENDBRANCH   6   9
TORSDOF 3
ENDMDL
MODEL 2
REMARK VINA RESULT:       0.1      1.044      1.303
REMARK  3 active torsions:
REMARK  status: ('A' for Active; 'I' for Inactive)
REMARK    1  A    between atoms: C7_7  and  C9_9 
REMARK    2  A    between atoms: C9_9  and  C10_10 
REMARK    3  A    between atoms: C10_10  and  N11_11 
ROOT
HETATM    1  C1  UNL     1     -34.385   7.852   3.945  1.00 20.00     0.029 C 
HETATM    2  C4  UNL     1     -34.506   6.436   4.499  1.00 20.00     0.023 C 
HETATM    3  C5  UNL     1     -33.042   8.080   3.266  1.00 20.00     0.235 C 
HETATM    4  C6  UNL     1     -32.885   5.629   2.738  1.00 20.00     0.254 C 
HETATM    5  C8  UNL     1     -34.233   5.400   3.412  1.00 20.00     0.108 C 
HETATM    6  N11 UNL     1     -32.838   7.038   2.192  1.00 20.00    -0.070 N 
HETATM    7 CL12 UNL     1     -34.277   3.758   4.116  1.00 20.00    -0.123 Cl
HETATM    8  H31 UNL     1     -33.617   7.132   1.524  1.00 20.00     0.279 HD
ENDROOT
BRANCH   6   9
HETATM    9  C10 UNL     1     -31.578   7.287   1.410  1.00 20.00     0.235 C 
BRANCH   9  10
HETATM   10  C9  UNL     1     -31.427   8.782   1.172  1.00 20.00     0.032 C 
BRANCH  10  11
HETATM   11  C7  UNL     1     -32.669   9.361   0.512  1.00 20.00    -0.013 A 
HETATM   12  C2  UNL     1     -32.884  10.848   0.477  1.00 20.00     0.005 A 
HETATM   13  C3  UNL     1     -32.555  10.107  -0.789  1.00 20.00     0.005 A 
ENDBRANCH  10  11
ENDBRANCH   9  10
ENDBRANCH   6   9
TORSDOF 3
ENDMDL
MODEL 3
REMARK VINA RESULT:       0.4      2.150      5.160
REMARK  3 active torsions:
REMARK  status: ('A' for Active; 'I' for Inactive)
REMARK    1  A    between atoms: C7_7  and  C9_9 
REMARK    2  A    between atoms: C9_9  and  C10_10 
REMARK    3  A    between atoms: C10_10  and  N11_11 
ROOT
HETATM    1  C1  UNL     1     -32.313   8.198   2.701  1.00 20.00     0.029 C 
HETATM    2  C4  UNL     1     -31.897   7.389   1.476  1.00 20.00     0.023 C 
HETATM    3  C5  UNL     1     -33.715   7.834   3.168  1.00 20.00     0.235 C 
HETATM    4  C6  UNL     1     -33.448   5.532   2.200  1.00 20.00     0.254 C 
HETATM    5  C8  UNL     1     -32.041   5.892   1.736  1.00 20.00     0.108 C 
HETATM    6  N11 UNL     1     -33.789   6.348   3.426  1.00 20.00    -0.070 N 
HETATM    7 CL12 UNL     1     -31.650   4.979   0.251  1.00 20.00    -0.123 Cl
HETATM    8  H31 UNL     1     -33.085   6.126   4.145  1.00 20.00     0.279 HD
ENDROOT
BRANCH   6   9
HETATM    9  C10 UNL     1     -35.121   5.951   4.002  1.00 20.00     0.235 C 
BRANCH   9  10
HETATM   10  C9  UNL     1     -34.983   4.603   4.693  1.00 20.00     0.032 C 
BRANCH  10  11
HETATM   11  C7  UNL     1     -33.633   3.969   4.395  1.00 20.00    -0.013 A 
HETATM   12  C2  UNL     1     -32.870   3.267   5.483  1.00 20.00     0.005 A 
HETATM   13  C3  UNL     1     -33.491   2.472   4.368  1.00 20.00     0.005 A 
ENDBRANCH  10  11
ENDBRANCH   9  10
ENDBRANCH   6   9
TORSDOF 3
ENDMDL
MODEL 4
REMARK VINA RESULT:       0.6      2.639      5.389
REMARK  3 active torsions:
REMARK  status: ('A' for Active; 'I' for Inactive)
REMARK    1  A    between atoms: C7_7  and  C9_9 
REMARK    2  A    between atoms: C9_9  and  C10_10 
REMARK    3  A    between atoms: C10_10  and  N11_11 
ROOT
HETATM    1  C1  UNL     1     -32.531   8.455   4.618  1.00 20.00     0.029 C 
HETATM    2  C4  UNL     1     -32.081   8.847   3.214  1.00 20.00     0.023 C 
HETATM    3  C5  UNL     1     -33.892   7.774   4.606  1.00 20.00     0.235 C 
HETATM    4  C6  UNL     1     -33.476   6.967   2.265  1.00 20.00     0.254 C 
HETATM    5  C8  UNL     1     -32.109   7.642   2.277  1.00 20.00     0.108 C 
HETATM    6  N11 UNL     1     -33.852   6.583   3.679  1.00 20.00    -0.070 N 
HETATM    7 CL12 UNL     1     -31.682   8.155   0.620  1.00 20.00    -0.123 Cl
HETATM    8  H31 UNL     1     -33.119   5.950   4.027  1.00 20.00     0.279 HD
ENDROOT
BRANCH   6   9
HETATM    9  C10 UNL     1     -35.138   5.805   3.718  1.00 20.00     0.235 C 
BRANCH   9  10
HETATM   10  C9  UNL     1     -34.934   4.548   4.548  1.00 20.00     0.032 C 
BRANCH  10  11
HETATM   11  C7  UNL     1     -33.615   3.871   4.205  1.00 20.00    -0.013 A 
HETATM   12  C2  UNL     1     -32.722   3.355   5.299  1.00 20.00     0.005 A 
HETATM   13  C3  UNL     1     -33.451   2.390   4.406  1.00 20.00     0.005 A 
ENDBRANCH  10  11
ENDBRANCH   9  10
ENDBRANCH   6   9
TORSDOF 3
ENDMDL
