MODEL 1
REMARK VINA RESULT:      -2.9      0.000      0.000
REMARK  1 active torsions:
REMARK  status: ('A' for Active; 'I' for Inactive)
REMARK    1  A    between atoms: C3_3  and  C5_5 
ROOT
HETATM    1  C1  UNL     1     -35.079   6.434   4.039  1.00 20.00     0.021 C 
HETATM    2  C2  UNL     1     -34.194   6.536   3.235  1.00 20.00    -0.039 C 
HETATM    3  C3  UNL     1     -33.130   6.657   2.267  1.00 20.00     0.206 C 
HETATM    4  O8  UNL     1     -32.790   5.682   1.611  1.00 20.00    -0.283 OA
ENDROOT
BRANCH   3   5
HETATM    5  C5  UNL     1     -32.516   7.984   2.140  1.00 20.00     0.073 A 
HETATM    6  C4  UNL     1     -31.120   8.100   1.581  1.00 20.00     0.018 A 
HETATM    7  C6  UNL     1     -32.294   8.562   0.764  1.00 20.00    -0.006 A 
HETATM    8  C7  UNL     1     -32.510  10.015   0.518  1.00 20.00     0.011 C 
ENDBRANCH   3   5
TORSDOF 1
ENDMDL
MODEL 2
REMARK VINA RESULT:      -2.8      0.841      3.790
REMARK  1 active torsions:
REMARK  status: ('A' for Active; 'I' for Inactive)
REMARK    1  A    between atoms: C3_3  and  C5_5 
ROOT
HETATM    1  C1  UNL     1     -32.006   8.865   1.213  1.00 20.00     0.021 C 
HETATM    2  C2  UNL     1     -32.364   7.774   1.558  1.00 20.00    -0.039 C 
HETATM    3  C3  UNL     1     -32.796   6.459   1.974  1.00 20.00     0.206 C 
HETATM    4  O8  UNL     1     -32.683   5.512   1.207  1.00 20.00    -0.283 OA
ENDROOT
BRANCH   3   5
HETATM    5  C5  UNL     1     -33.355   6.356   3.326  1.00 20.00     0.073 A 
HETATM    6  C4  UNL     1     -34.040   7.554   3.934  1.00 20.00     0.018 A 
HETATM    7  C6  UNL     1     -34.853   6.365   3.506  1.00 20.00    -0.006 A 
HETATM    8  C7  UNL     1     -35.490   5.486   4.525  1.00 20.00     0.011 C 
ENDBRANCH   3   5
TORSDOF 1
ENDMDL
MODEL 3
REMARK VINA RESULT:      -2.6      1.223      3.811
REMARK  1 active torsions:
REMARK  status: ('A' for Active; 'I' for Inactive)
REMARK    1  A    between atoms: C3_3  and  C5_5 
ROOT
HETATM    1  C1  UNL     1     -32.534  10.121  -0.034  1.00 20.00     0.021 C 
HETATM    2  C2  UNL     1     -32.364   9.218   0.738  1.00 20.00    -0.039 C 
HETATM    3  C3  UNL     1     -32.158   8.132   1.667  1.00 20.00     0.206 C 
HETATM    4  O8  UNL     1     -31.076   8.004   2.223  1.00 20.00    -0.283 OA
ENDROOT
BRANCH   3   5
HETATM    5  C5  UNL     1     -33.300   7.235   1.881  1.00 20.00     0.073 A 
HETATM    6  C4  UNL     1     -33.047   5.780   2.188  1.00 20.00     0.018 A 
HETATM    7  C6  UNL     1     -33.561   6.694   3.265  1.00 20.00    -0.006 A 
HETATM    8  C7  UNL     1     -34.957   6.554   3.763  1.00 20.00     0.011 C 
ENDBRANCH   3   5
TORSDOF 1
ENDMDL
MODEL 4
REMARK VINA RESULT:      -2.3      1.885      3.823
REMARK  1 active torsions:
REMARK  status: ('A' for Active; 'I' for Inactive)
REMARK    1  A    between atoms: C3_3  and  C5_5 
ROOT
HETATM    1  C1  UNL     1     -32.111   5.003   0.715  1.00 20.00     0.021 C 
HETATM    2  C2  UNL     1     -32.349   5.955   1.407  1.00 20.00    -0.039 C 
HETATM    3  C3  UNL     1     -32.634   7.100   2.239  1.00 20.00     0.206 C 
HETATM    4  O8  UNL     1     -32.317   8.220   1.862  1.00 20.00    -0.283 OA
ENDROOT
BRANCH   3   5
HETATM    5  C5  UNL     1     -33.303   6.825   3.516  1.00 20.00     0.073 A 
HETATM    6  C4  UNL     1     -34.207   7.873   4.115  1.00 20.00     0.018 A 
HETATM    7  C6  UNL     1     -34.798   6.620   3.533  1.00 20.00    -0.006 A 
HETATM    8  C7  UNL     1     -35.402   5.592   4.425  1.00 20.00     0.011 C 
ENDBRANCH   3   5
TORSDOF 1
ENDMDL
MODEL 5
REMARK VINA RESULT:      -2.1      2.486      3.556
REMARK  1 active torsions:
REMARK  status: ('A' for Active; 'I' for Inactive)
REMARK    1  A    between atoms: C3_3  and  C5_5 
ROOT
HETATM    1  C1  UNL     1     -33.039   3.004   4.392  1.00 20.00     0.021 C 
HETATM    2  C2  UNL     1     -33.845   3.890   4.322  1.00 20.00    -0.039 C 
HETATM    3  C3  UNL     1     -34.815   4.956   4.240  1.00 20.00     0.206 C 
HETATM    4  O8  UNL     1     -35.819   4.920   4.939  1.00 20.00    -0.283 OA
ENDROOT
BRANCH   3   5
HETATM    5  C5  UNL     1     -34.515   6.037   3.293  1.00 20.00     0.073 A 
HETATM    6  C4  UNL     1     -34.261   7.427   3.818  1.00 20.00     0.018 A 
HETATM    7  C6  UNL     1     -33.124   6.619   3.261  1.00 20.00    -0.006 A 
HETATM    8  C7  UNL     1     -32.501   6.999   1.962  1.00 20.00     0.011 C 
ENDBRANCH   3   5
TORSDOF 1
ENDMDL
MODEL 6
REMARK VINA RESULT:      -2.0      1.796      2.518
REMARK  1 active torsions:
REMARK  status: ('A' for Active; 'I' for Inactive)
REMARK    1  A    between atoms: C3_3  and  C5_5 
ROOT
HETATM    1  C1  UNL     1     -35.509   5.391   4.432  1.00 20.00     0.021 C 
HETATM    2  C2  UNL     1     -34.731   6.215   4.037  1.00 20.00    -0.039 C 
HETATM    3  C3  UNL     1     -33.794   7.207   3.562  1.00 20.00     0.206 C 
HETATM    4  O8  UNL     1     -33.438   8.111   4.305  1.00 20.00    -0.283 OA
ENDROOT
BRANCH   3   5
HETATM    5  C5  UNL     1     -33.326   7.049   2.181  1.00 20.00     0.073 A 
HETATM    6  C4  UNL     1     -31.990   7.626   1.785  1.00 20.00     0.018 A 
HETATM    7  C6  UNL     1     -32.158   6.137   1.900  1.00 20.00    -0.006 A 
HETATM    8  C7  UNL     1     -32.149   5.285   0.678  1.00 20.00     0.011 C 
ENDBRANCH   3   5
TORSDOF 1
ENDMDL
MODEL 7
REMARK VINA RESULT:      -1.9      1.711      2.052
REMARK  1 active torsions:
REMARK  status: ('A' for Active; 'I' for Inactive)
REMARK    1  A    between atoms: C3_3  and  C5_5 
ROOT
HETATM    1  C1  UNL     1     -32.391   5.151   1.117  1.00 20.00     0.021 C 
HETATM    2  C2  UNL     1     -32.560   6.201   1.672  1.00 20.00    -0.039 C 
HETATM    3  C3  UNL     1     -32.765   7.465   2.340  1.00 20.00     0.206 C 
HETATM    4  O8  UNL     1     -33.485   7.521   3.328  1.00 20.00    -0.283 OA
ENDROOT
BRANCH   3   5
HETATM    5  C5  UNL     1     -32.070   8.623   1.767  1.00 20.00     0.073 A 
HETATM    6  C4  UNL     1     -31.348   8.473   0.452  1.00 20.00     0.018 A 
HETATM    7  C6  UNL     1     -32.622   9.267   0.519  1.00 20.00    -0.006 A 
HETATM    8  C7  UNL     1     -32.590  10.748   0.364  1.00 20.00     0.011 C 
ENDBRANCH   3   5
TORSDOF 1
ENDMDL
MODEL 8
REMARK VINA RESULT:      -1.8      2.090      2.618
REMARK  1 active torsions:
REMARK  status: ('A' for Active; 'I' for Inactive)
REMARK    1  A    between atoms: C3_3  and  C5_5 
ROOT
HETATM    1  C1  UNL     1     -33.617   3.058   4.573  1.00 20.00     0.021 C 
HETATM    2  C2  UNL     1     -33.754   4.154   4.105  1.00 20.00    -0.039 C 
HETATM    3  C3  UNL     1     -33.919   5.474   3.543  1.00 20.00     0.206 C 
HETATM    4  O8  UNL     1     -34.952   6.097   3.747  1.00 20.00    -0.283 OA
ENDROOT
BRANCH   3   5
HETATM    5  C5  UNL     1     -32.799   5.985   2.744  1.00 20.00     0.073 A 
HETATM    6  C4  UNL     1     -32.782   5.740   1.257  1.00 20.00     0.018 A 
HETATM    7  C6  UNL     1     -33.040   7.123   1.784  1.00 20.00    -0.006 A 
HETATM    8  C7  UNL     1     -32.016   8.192   1.617  1.00 20.00     0.011 C 
ENDBRANCH   3   5
TORSDOF 1
ENDMDL
MODEL 9
REMARK VINA RESULT:      -1.8      1.102      3.705
REMARK  1 active torsions:
REMARK  status: ('A' for Active; 'I' for Inactive)
REMARK    1  A    between atoms: C3_3  and  C5_5 
ROOT
HETATM    1  C1  UNL     1     -31.974   8.633   1.401  1.00 20.00     0.021 C 
HETATM    2  C2  UNL     1     -32.173   7.456   1.519  1.00 20.00    -0.039 C 
HETATM    3  C3  UNL     1     -32.412   6.039   1.659  1.00 20.00     0.206 C 
HETATM    4  O8  UNL     1     -31.569   5.239   1.275  1.00 20.00    -0.283 OA
ENDROOT
BRANCH   3   5
HETATM    5  C5  UNL     1     -33.688   5.652   2.272  1.00 20.00     0.073 A 
HETATM    6  C4  UNL     1     -33.684   4.732   3.466  1.00 20.00     0.018 A 
HETATM    7  C6  UNL     1     -34.037   6.183   3.640  1.00 20.00    -0.006 A 
HETATM    8  C7  UNL     1     -35.438   6.580   3.954  1.00 20.00     0.011 C 
ENDBRANCH   3   5
TORSDOF 1
ENDMDL
