MODEL 1
REMARK VINA RESULT:      -1.9      0.000      0.000
REMARK  2 active torsions:
REMARK  status: ('A' for Active; 'I' for Inactive)
REMARK    1  A    between atoms: C5_5  and  C8_8 
REMARK    2  A    between atoms: C8_8  and  N9_9 
ROOT
HETATM    1  C1  UNL     1     -32.750   5.070   0.569  1.00 20.00     0.014 C 
HETATM    2  C2  UNL     1     -32.690   5.864   1.468  1.00 20.00    -0.081 C 
HETATM    3  C8  UNL     1     -32.596   6.860   2.561  1.00 20.00     0.301 C 
ENDROOT
BRANCH   3   4
HETATM    4  C5  UNL     1     -33.934   7.355   2.991  1.00 20.00     0.035 A 
HETATM    5  C3  UNL     1     -34.199   7.666   4.441  1.00 20.00     0.012 A 
HETATM    6  C4  UNL     1     -34.898   6.503   3.784  1.00 20.00    -0.011 A 
HETATM    7  C6  UNL     1     -34.580   5.107   4.194  1.00 20.00     0.010 C 
ENDBRANCH   3   4
BRANCH   3   8
HETATM    8  N9  UNL     1     -31.734   7.947   2.127  1.00 20.00     0.095 N 
HETATM    9  C7  UNL     1     -32.383   8.753   1.100  1.00 20.00     0.308 C 
HETATM   10  H22 UNL     1     -31.511   8.542   2.926  1.00 20.00     0.317 HD
ENDBRANCH   3   8
TORSDOF 2
ENDMDL
MODEL 2
REMARK VINA RESULT:      -1.3      0.997      2.434
REMARK  2 active torsions:
REMARK  status: ('A' for Active; 'I' for Inactive)
REMARK    1  A    between atoms: C5_5  and  C8_8 
REMARK    2  A    between atoms: C8_8  and  N9_9 
ROOT
HETATM    1  C1  UNL     1     -32.332   9.891   0.132  1.00 20.00     0.014 C 
HETATM    2  C2  UNL     1     -32.602   9.004   0.896  1.00 20.00    -0.081 C 
HETATM    3  C8  UNL     1     -32.911   7.898   1.832  1.00 20.00     0.301 C 
ENDROOT
BRANCH   3   4
HETATM    4  C5  UNL     1     -33.289   8.392   3.186  1.00 20.00     0.035 A 
HETATM    5  C3  UNL     1     -32.789   7.685   4.419  1.00 20.00     0.012 A 
HETATM    6  C4  UNL     1     -34.256   7.650   4.080  1.00 20.00    -0.011 A 
HETATM    7  C6  UNL     1     -34.903   6.372   3.671  1.00 20.00     0.010 C 
ENDBRANCH   3   4
BRANCH   3   8
HETATM    8  N9  UNL     1     -31.767   7.002   1.886  1.00 20.00     0.095 N 
HETATM    9  C7  UNL     1     -32.109   5.685   1.363  1.00 20.00     0.308 C 
HETATM   10  H22 UNL     1     -31.005   7.392   1.332  1.00 20.00     0.317 HD
ENDBRANCH   3   8
TORSDOF 2
ENDMDL
MODEL 3
REMARK VINA RESULT:      -1.2      1.927      4.190
REMARK  2 active torsions:
REMARK  status: ('A' for Active; 'I' for Inactive)
REMARK    1  A    between atoms: C5_5  and  C8_8 
REMARK    2  A    between atoms: C8_8  and  N9_9 
ROOT
HETATM    1  C1  UNL     1     -34.612   7.722   4.233  1.00 20.00     0.014 C 
HETATM    2  C2  UNL     1     -34.072   6.739   3.803  1.00 20.00    -0.081 C 
HETATM    3  C8  UNL     1     -33.426   5.510   3.286  1.00 20.00     0.301 C 
ENDROOT
BRANCH   3   4
HETATM    4  C5  UNL     1     -33.251   5.542   1.806  1.00 20.00     0.035 A 
HETATM    5  C3  UNL     1     -31.926   5.176   1.190  1.00 20.00     0.012 A 
HETATM    6  C4  UNL     1     -32.422   6.596   1.110  1.00 20.00    -0.011 A 
HETATM    7  C6  UNL     1     -31.719   7.680   1.853  1.00 20.00     0.010 C 
ENDBRANCH   3   4
BRANCH   3   8
HETATM    8  N9  UNL     1     -34.208   4.360   3.710  1.00 20.00     0.095 N 
HETATM    9  C7  UNL     1     -33.387   3.416   4.460  1.00 20.00     0.308 C 
HETATM   10  H22 UNL     1     -34.978   4.673   4.301  1.00 20.00     0.317 HD
ENDBRANCH   3   8
TORSDOF 2
ENDMDL
MODEL 4
REMARK VINA RESULT:      -1.1      1.617      3.456
REMARK  2 active torsions:
REMARK  status: ('A' for Active; 'I' for Inactive)
REMARK    1  A    between atoms: C5_5  and  C8_8 
REMARK    2  A    between atoms: C8_8  and  N9_9 
ROOT
HETATM    1  C1  UNL     1     -33.730   3.478   4.480  1.00 20.00     0.014 C 
HETATM    2  C2  UNL     1     -33.889   4.487   3.849  1.00 20.00    -0.081 C 
HETATM    3  C8  UNL     1     -34.104   5.742   3.091  1.00 20.00     0.301 C 
ENDROOT
BRANCH   3   4
HETATM    4  C5  UNL     1     -32.822   6.403   2.718  1.00 20.00     0.035 A 
HETATM    5  C3  UNL     1     -32.755   7.303   1.511  1.00 20.00     0.012 A 
HETATM    6  C4  UNL     1     -32.017   5.988   1.507  1.00 20.00    -0.011 A 
HETATM    7  C6  UNL     1     -32.448   4.888   0.600  1.00 20.00     0.010 C 
ENDBRANCH   3   4
BRANCH   3   8
HETATM    8  N9  UNL     1     -34.953   6.621   3.878  1.00 20.00     0.095 N 
HETATM    9  C7  UNL     1     -34.163   7.634   4.568  1.00 20.00     0.308 C 
HETATM   10  H22 UNL     1     -35.624   7.084   3.264  1.00 20.00     0.317 HD
ENDBRANCH   3   8
TORSDOF 2
ENDMDL
MODEL 5
REMARK VINA RESULT:      -0.8      1.799      3.000
REMARK  2 active torsions:
REMARK  status: ('A' for Active; 'I' for Inactive)
REMARK    1  A    between atoms: C5_5  and  C8_8 
REMARK    2  A    between atoms: C8_8  and  N9_9 
ROOT
HETATM    1  C1  UNL     1     -33.332   2.579   4.566  1.00 20.00     0.014 C 
HETATM    2  C2  UNL     1     -33.419   3.698   4.141  1.00 20.00    -0.081 C 
HETATM    3  C8  UNL     1     -33.525   5.069   3.588  1.00 20.00     0.301 C 
ENDROOT
BRANCH   3   4
HETATM    4  C5  UNL     1     -34.700   5.808   4.130  1.00 20.00     0.035 A 
HETATM    5  C3  UNL     1     -35.458   6.774   3.256  1.00 20.00     0.012 A 
HETATM    6  C4  UNL     1     -34.661   7.289   4.427  1.00 20.00    -0.011 A 
HETATM    7  C6  UNL     1     -33.444   8.118   4.201  1.00 20.00     0.010 C 
ENDBRANCH   3   4
BRANCH   3   8
HETATM    8  N9  UNL     1     -33.564   4.984   2.138  1.00 20.00     0.095 N 
HETATM    9  C7  UNL     1     -32.465   5.732   1.539  1.00 20.00     0.308 C 
HETATM   10  H22 UNL     1     -33.496   4.007   1.854  1.00 20.00     0.317 HD
ENDBRANCH   3   8
TORSDOF 2
ENDMDL
MODEL 6
REMARK VINA RESULT:      -0.7      1.487      3.802
REMARK  2 active torsions:
REMARK  status: ('A' for Active; 'I' for Inactive)
REMARK    1  A    between atoms: C5_5  and  C8_8 
REMARK    2  A    between atoms: C8_8  and  N9_9 
ROOT
HETATM    1  C1  UNL     1     -35.254   6.118   3.973  1.00 20.00     0.014 C 
HETATM    2  C2  UNL     1     -34.430   6.905   3.595  1.00 20.00    -0.081 C 
HETATM    3  C8  UNL     1     -33.401   7.877   3.156  1.00 20.00     0.301 C 
ENDROOT
BRANCH   3   4
HETATM    4  C5  UNL     1     -32.690   7.429   1.926  1.00 20.00     0.035 A 
HETATM    5  C3  UNL     1     -31.238   7.776   1.719  1.00 20.00     0.012 A 
HETATM    6  C4  UNL     1     -32.288   8.386   0.827  1.00 20.00    -0.011 A 
HETATM    7  C6  UNL     1     -32.576   9.847   0.894  1.00 20.00     0.010 C 
ENDBRANCH   3   4
BRANCH   3   8
HETATM    8  N9  UNL     1     -32.480   8.107   4.257  1.00 20.00     0.095 N 
HETATM    9  C7  UNL     1     -33.199   8.421   5.486  1.00 20.00     0.308 C 
HETATM   10  H22 UNL     1     -31.914   7.271   4.406  1.00 20.00     0.317 HD
ENDBRANCH   3   8
TORSDOF 2
ENDMDL
MODEL 7
REMARK VINA RESULT:      -0.5      1.237      3.162
REMARK  2 active torsions:
REMARK  status: ('A' for Active; 'I' for Inactive)
REMARK    1  A    between atoms: C5_5  and  C8_8 
REMARK    2  A    between atoms: C8_8  and  N9_9 
ROOT
HETATM    1  C1  UNL     1     -32.326   9.735   0.318  1.00 20.00     0.014 C 
HETATM    2  C2  UNL     1     -32.273   8.814   1.087  1.00 20.00    -0.081 C 
HETATM    3  C8  UNL     1     -32.210   7.697   2.058  1.00 20.00     0.301 C 
ENDROOT
BRANCH   3   4
HETATM    4  C5  UNL     1     -33.219   6.639   1.771  1.00 20.00     0.035 A 
HETATM    5  C3  UNL     1     -33.278   5.395   2.619  1.00 20.00     0.012 A 
HETATM    6  C4  UNL     1     -32.845   5.300   1.178  1.00 20.00    -0.011 A 
HETATM    7  C6  UNL     1     -31.440   4.940   0.838  1.00 20.00     0.010 C 
ENDBRANCH   3   4
BRANCH   3   8
HETATM    8  N9  UNL     1     -32.363   8.237   3.399  1.00 20.00     0.095 N 
HETATM    9  C7  UNL     1     -33.692   7.956   3.928  1.00 20.00     0.308 C 
HETATM   10  H22 UNL     1     -31.665   7.820   4.014  1.00 20.00     0.317 HD
ENDBRANCH   3   8
TORSDOF 2
ENDMDL
MODEL 8
REMARK VINA RESULT:      -0.5      1.703      2.530
REMARK  2 active torsions:
REMARK  status: ('A' for Active; 'I' for Inactive)
REMARK    1  A    between atoms: C5_5  and  C8_8 
REMARK    2  A    between atoms: C8_8  and  N9_9 
ROOT
HETATM    1  C1  UNL     1     -32.009   7.617   1.432  1.00 20.00     0.014 C 
HETATM    2  C2  UNL     1     -32.613   7.254   2.405  1.00 20.00    -0.081 C 
HETATM    3  C8  UNL     1     -33.361   6.833   3.612  1.00 20.00     0.301 C 
ENDROOT
BRANCH   3   4
HETATM    4  C5  UNL     1     -34.445   5.861   3.296  1.00 20.00     0.035 A 
HETATM    5  C3  UNL     1     -35.403   5.416   4.370  1.00 20.00     0.012 A 
HETATM    6  C4  UNL     1     -34.422   4.432   3.786  1.00 20.00    -0.011 A 
HETATM    7  C6  UNL     1     -33.314   3.891   4.622  1.00 20.00     0.010 C 
ENDBRANCH   3   4
BRANCH   3   8
HETATM    8  N9  UNL     1     -33.879   8.020   4.275  1.00 20.00     0.095 N 
HETATM    9  C7  UNL     1     -33.050   8.385   5.418  1.00 20.00     0.308 C 
HETATM   10  H22 UNL     1     -33.896   8.797   3.614  1.00 20.00     0.317 HD
ENDBRANCH   3   8
TORSDOF 2
ENDMDL
MODEL 9
REMARK VINA RESULT:      -0.4      1.348      3.320
REMARK  2 active torsions:
REMARK  status: ('A' for Active; 'I' for Inactive)
REMARK    1  A    between atoms: C5_5  and  C8_8 
REMARK    2  A    between atoms: C8_8  and  N9_9 
ROOT
HETATM    1  C1  UNL     1     -33.106   4.562   0.291  1.00 20.00     0.014 C 
HETATM    2  C2  UNL     1     -33.112   5.524   1.010  1.00 20.00    -0.081 C 
HETATM    3  C8  UNL     1     -33.129   6.693   1.920  1.00 20.00     0.301 C 
ENDROOT
BRANCH   3   4
HETATM    4  C5  UNL     1     -31.821   7.407   1.948  1.00 20.00     0.035 A 
HETATM    5  C3  UNL     1     -31.663   8.672   2.750  1.00 20.00     0.012 A 
HETATM    6  C4  UNL     1     -31.602   8.727   1.246  1.00 20.00    -0.011 A 
HETATM    7  C6  UNL     1     -32.677   9.410   0.474  1.00 20.00     0.010 C 
ENDBRANCH   3   4
BRANCH   3   8
HETATM    8  N9  UNL     1     -33.527   6.247   3.245  1.00 20.00     0.095 N 
HETATM    9  C7  UNL     1     -34.820   6.806   3.620  1.00 20.00     0.308 C 
HETATM   10  H22 UNL     1     -33.590   5.228   3.254  1.00 20.00     0.317 HD
ENDBRANCH   3   8
TORSDOF 2
ENDMDL
