MODEL 1
REMARK VINA RESULT:      -1.7      0.000      0.000
REMARK  2 active torsions:
REMARK  status: ('A' for Active; 'I' for Inactive)
REMARK    1  A    between atoms: C3_3  and  C8_8 
REMARK    2  A    between atoms: C9_9  and  C12_12 
ROOT
HETATM    1  C1  UNL     1     -33.026   2.924   4.499  1.00 20.00     0.021 C 
HETATM    2  C2  UNL     1     -33.794   3.834   4.351  1.00 20.00    -0.039 C 
HETATM    3  C3  UNL     1     -34.719   4.928   4.174  1.00 20.00     0.205 C 
HETATM    4  O13 UNL     1     -35.752   4.964   4.829  1.00 20.00    -0.283 OA
ENDROOT
BRANCH   3   5
HETATM    5  C8  UNL     1     -34.326   5.983   3.157  1.00 20.00     0.069 C 
HETATM    6  C4  UNL     1     -34.007   7.263   3.920  1.00 20.00     0.013 C 
HETATM    7  C6  UNL     1     -33.442   8.335   2.991  1.00 20.00     0.006 C 
HETATM    8  C9  UNL     1     -32.218   7.824   2.217  1.00 20.00    -0.011 C 
HETATM    9  C7  UNL     1     -32.549   6.530   1.460  1.00 20.00     0.006 C 
HETATM   10  C5  UNL     1     -33.116   5.462   2.393  1.00 20.00     0.013 C 
BRANCH   8  11
HETATM   11  C12 UNL     1     -31.703   8.894   1.255  1.00 20.00    -0.019 C 
HETATM   12  C10 UNL     1     -31.223   8.259  -0.047  1.00 20.00     0.010 C 
HETATM   13  C11 UNL     1     -32.787   9.933   0.979  1.00 20.00     0.010 C 
ENDBRANCH   8  11
ENDBRANCH   3   5
TORSDOF 2
ENDMDL
MODEL 2
REMARK VINA RESULT:      -1.5      0.593      1.518
REMARK  2 active torsions:
REMARK  status: ('A' for Active; 'I' for Inactive)
REMARK    1  A    between atoms: C3_3  and  C8_8 
REMARK    2  A    between atoms: C9_9  and  C12_12 
ROOT
HETATM    1  C1  UNL     1     -33.288   2.552   4.703  1.00 20.00     0.021 C 
HETATM    2  C2  UNL     1     -33.735   3.624   4.402  1.00 20.00    -0.039 C 
HETATM    3  C3  UNL     1     -34.275   4.913   4.040  1.00 20.00     0.205 C 
HETATM    4  O13 UNL     1     -35.469   5.137   4.189  1.00 20.00    -0.283 OA
ENDROOT
BRANCH   3   5
HETATM    5  C8  UNL     1     -33.288   5.924   3.486  1.00 20.00     0.069 C 
HETATM    6  C4  UNL     1     -33.122   5.640   1.998  1.00 20.00     0.013 C 
HETATM    7  C6  UNL     1     -32.272   6.714   1.322  1.00 20.00     0.006 C 
HETATM    8  C9  UNL     1     -32.838   8.120   1.564  1.00 20.00    -0.011 C 
HETATM    9  C7  UNL     1     -33.011   8.391   3.065  1.00 20.00     0.006 C 
HETATM   10  C5  UNL     1     -33.860   7.314   3.738  1.00 20.00     0.013 C 
BRANCH   8  11
HETATM   11  C12 UNL     1     -31.943   9.180   0.924  1.00 20.00    -0.019 C 
HETATM   12  C10 UNL     1     -31.113   8.570  -0.203  1.00 20.00     0.010 C 
HETATM   13  C11 UNL     1     -32.780  10.347   0.405  1.00 20.00     0.010 C 
ENDBRANCH   8  11
ENDBRANCH   3   5
TORSDOF 2
ENDMDL
MODEL 3
REMARK VINA RESULT:      -0.8      2.115      5.584
REMARK  2 active torsions:
REMARK  status: ('A' for Active; 'I' for Inactive)
REMARK    1  A    between atoms: C3_3  and  C8_8 
REMARK    2  A    between atoms: C9_9  and  C12_12 
ROOT
HETATM    1  C1  UNL     1     -32.791  10.469  -0.456  1.00 20.00     0.021 C 
HETATM    2  C2  UNL     1     -32.370   9.633   0.295  1.00 20.00    -0.039 C 
HETATM    3  C3  UNL     1     -31.861   8.628   1.198  1.00 20.00     0.205 C 
HETATM    4  O13 UNL     1     -30.696   8.676   1.569  1.00 20.00    -0.283 OA
ENDROOT
BRANCH   3   5
HETATM    5  C8  UNL     1     -32.842   7.556   1.633  1.00 20.00     0.069 C 
HETATM    6  C4  UNL     1     -32.197   6.202   1.361  1.00 20.00     0.013 C 
HETATM    7  C6  UNL     1     -33.046   5.062   1.921  1.00 20.00     0.006 C 
HETATM    8  C9  UNL     1     -33.336   5.255   3.416  1.00 20.00    -0.011 C 
HETATM    9  C7  UNL     1     -33.977   6.625   3.679  1.00 20.00     0.006 C 
HETATM   10  C5  UNL     1     -33.126   7.761   3.116  1.00 20.00     0.013 C 
BRANCH   8  11
HETATM   11  C12 UNL     1     -34.230   4.132   3.941  1.00 20.00    -0.019 C 
HETATM   12  C10 UNL     1     -33.401   3.092   4.690  1.00 20.00     0.010 C 
HETATM   13  C11 UNL     1     -35.326   4.696   4.842  1.00 20.00     0.010 C 
ENDBRANCH   8  11
ENDBRANCH   3   5
TORSDOF 2
ENDMDL
MODEL 4
REMARK VINA RESULT:      -0.4      2.353      5.488
REMARK  2 active torsions:
REMARK  status: ('A' for Active; 'I' for Inactive)
REMARK    1  A    between atoms: C3_3  and  C8_8 
REMARK    2  A    between atoms: C9_9  and  C12_12 
ROOT
HETATM    1  C1  UNL     1     -33.092  10.815   0.255  1.00 20.00     0.021 C 
HETATM    2  C2  UNL     1     -32.385   9.850   0.356  1.00 20.00    -0.039 C 
HETATM    3  C3  UNL     1     -31.534   8.690   0.476  1.00 20.00     0.205 C 
HETATM    4  O13 UNL     1     -30.647   8.498  -0.345  1.00 20.00    -0.283 OA
ENDROOT
BRANCH   3   5
HETATM    5  C8  UNL     1     -31.812   7.771   1.650  1.00 20.00     0.069 C 
HETATM    6  C4  UNL     1     -32.833   8.461   2.546  1.00 20.00     0.013 C 
HETATM    7  C6  UNL     1     -33.298   7.537   3.670  1.00 20.00     0.006 C 
HETATM    8  C9  UNL     1     -33.841   6.209   3.122  1.00 20.00    -0.011 C 
HETATM    9  C7  UNL     1     -32.808   5.528   2.214  1.00 20.00     0.006 C 
HETATM   10  C5  UNL     1     -32.344   6.456   1.093  1.00 20.00     0.013 C 
BRANCH   8  11
HETATM   11  C12 UNL     1     -34.250   5.281   4.265  1.00 20.00    -0.019 C 
HETATM   12  C10 UNL     1     -35.759   5.336   4.486  1.00 20.00     0.010 C 
HETATM   13  C11 UNL     1     -33.799   3.850   3.980  1.00 20.00     0.010 C 
ENDBRANCH   8  11
ENDBRANCH   3   5
TORSDOF 2
ENDMDL
