MODEL 1
REMARK VINA RESULT:      -2.5      0.000      0.000
REMARK  3 active torsions:
REMARK  status: ('A' for Active; 'I' for Inactive)
REMARK    1  A    between atoms: C3_3  and  C7_7 
REMARK    2  A    between atoms: C6_6  and  O9_9 
REMARK    3  A    between atoms: C7_7  and  O9_9 
ROOT
HETATM    1  C1  UNL     1     -31.858   8.021   1.550  1.00 20.00     0.021 C 
HETATM    2  C2  UNL     1     -32.592   7.691   2.441  1.00 20.00    -0.037 C 
HETATM    3  C3  UNL     1     -33.475   7.294   3.515  1.00 20.00     0.230 C 
HETATM    4  O8  UNL     1     -33.491   7.952   4.547  1.00 20.00    -0.281 OA
ENDROOT
BRANCH   3   5
HETATM    5  C7  UNL     1     -34.305   6.045   3.284  1.00 20.00     0.200 C 
HETATM    6  C5  UNL     1     -35.491   5.968   4.231  1.00 20.00     0.049 C 
BRANCH   5   7
HETATM    7  O9  UNL     1     -33.475   4.910   3.477  1.00 20.00    -0.378 OA
BRANCH   7   8
HETATM    8  C6  UNL     1     -34.093   3.948   4.323  1.00 20.00     0.164 C 
HETATM    9  C4  UNL     1     -33.050   2.950   4.778  1.00 20.00     0.033 C 
ENDBRANCH   7   8
ENDBRANCH   5   7
ENDBRANCH   3   5
TORSDOF 3
ENDMDL
MODEL 2
REMARK VINA RESULT:      -2.5      2.058      4.534
REMARK  3 active torsions:
REMARK  status: ('A' for Active; 'I' for Inactive)
REMARK    1  A    between atoms: C3_3  and  C7_7 
REMARK    2  A    between atoms: C6_6  and  O9_9 
REMARK    3  A    between atoms: C7_7  and  O9_9 
ROOT
HETATM    1  C1  UNL     1     -35.430   6.119   4.075  1.00 20.00     0.021 C 
HETATM    2  C2  UNL     1     -34.450   6.728   3.744  1.00 20.00    -0.037 C 
HETATM    3  C3  UNL     1     -33.270   7.463   3.346  1.00 20.00     0.230 C 
HETATM    4  O8  UNL     1     -32.690   8.153   4.174  1.00 20.00    -0.281 OA
ENDROOT
BRANCH   3   5
HETATM    5  C7  UNL     1     -32.856   7.344   1.891  1.00 20.00     0.200 C 
HETATM    6  C5  UNL     1     -32.414   5.934   1.538  1.00 20.00     0.049 C 
BRANCH   5   7
HETATM    7  O9  UNL     1     -31.785   8.246   1.652  1.00 20.00    -0.378 OA
BRANCH   7   8
HETATM    8  C6  UNL     1     -31.862   8.816   0.351  1.00 20.00     0.164 C 
HETATM    9  C4  UNL     1     -32.548  10.162   0.442  1.00 20.00     0.033 C 
ENDBRANCH   7   8
ENDBRANCH   5   7
ENDBRANCH   3   5
TORSDOF 3
ENDMDL
MODEL 3
REMARK VINA RESULT:      -2.4      1.375      3.847
REMARK  3 active torsions:
REMARK  status: ('A' for Active; 'I' for Inactive)
REMARK    1  A    between atoms: C3_3  and  C7_7 
REMARK    2  A    between atoms: C6_6  and  O9_9 
REMARK    3  A    between atoms: C7_7  and  O9_9 
ROOT
HETATM    1  C1  UNL     1     -33.161   2.761   4.537  1.00 20.00     0.021 C 
HETATM    2  C2  UNL     1     -33.772   3.783   4.389  1.00 20.00    -0.037 C 
HETATM    3  C3  UNL     1     -34.509   5.014   4.211  1.00 20.00     0.230 C 
HETATM    4  O8  UNL     1     -35.701   5.041   4.492  1.00 20.00    -0.281 OA
ENDROOT
BRANCH   3   5
HETATM    5  C7  UNL     1     -33.737   6.191   3.645  1.00 20.00     0.200 C 
HETATM    6  C5  UNL     1     -34.339   7.522   4.065  1.00 20.00     0.049 C 
BRANCH   5   7
HETATM    7  O9  UNL     1     -33.747   6.098   2.228  1.00 20.00    -0.378 OA
BRANCH   7   8
HETATM    8  C6  UNL     1     -32.429   6.119   1.694  1.00 20.00     0.164 C 
HETATM    9  C4  UNL     1     -31.971   7.557   1.570  1.00 20.00     0.033 C 
ENDBRANCH   7   8
ENDBRANCH   5   7
ENDBRANCH   3   5
TORSDOF 3
ENDMDL
MODEL 4
REMARK VINA RESULT:      -2.4      1.470      4.209
REMARK  3 active torsions:
REMARK  status: ('A' for Active; 'I' for Inactive)
REMARK    1  A    between atoms: C3_3  and  C7_7 
REMARK    2  A    between atoms: C6_6  and  O9_9 
REMARK    3  A    between atoms: C7_7  and  O9_9 
ROOT
HETATM    1  C1  UNL     1     -33.643   3.525   4.233  1.00 20.00     0.021 C 
HETATM    2  C2  UNL     1     -33.938   4.633   3.879  1.00 20.00    -0.037 C 
HETATM    3  C3  UNL     1     -34.295   5.968   3.453  1.00 20.00     0.230 C 
HETATM    4  O8  UNL     1     -35.187   6.564   4.043  1.00 20.00    -0.281 OA
ENDROOT
BRANCH   3   5
HETATM    5  C7  UNL     1     -33.540   6.524   2.260  1.00 20.00     0.200 C 
HETATM    6  C5  UNL     1     -32.600   5.496   1.652  1.00 20.00     0.049 C 
BRANCH   5   7
HETATM    7  O9  UNL     1     -32.791   7.652   2.685  1.00 20.00    -0.378 OA
BRANCH   7   8
HETATM    8  C6  UNL     1     -31.786   7.999   1.740  1.00 20.00     0.164 C 
HETATM    9  C4  UNL     1     -32.298   9.128   0.870  1.00 20.00     0.033 C 
ENDBRANCH   7   8
ENDBRANCH   5   7
ENDBRANCH   3   5
TORSDOF 3
ENDMDL
MODEL 5
REMARK VINA RESULT:      -2.0      2.367      4.904
REMARK  3 active torsions:
REMARK  status: ('A' for Active; 'I' for Inactive)
REMARK    1  A    between atoms: C3_3  and  C7_7 
REMARK    2  A    between atoms: C6_6  and  O9_9 
REMARK    3  A    between atoms: C7_7  and  O9_9 
ROOT
HETATM    1  C1  UNL     1     -34.768   6.612   3.872  1.00 20.00     0.021 C 
HETATM    2  C2  UNL     1     -33.910   6.530   3.035  1.00 20.00    -0.037 C 
HETATM    3  C3  UNL     1     -32.878   6.430   2.028  1.00 20.00     0.230 C 
HETATM    4  O8  UNL     1     -32.849   5.445   1.301  1.00 20.00    -0.281 OA
ENDROOT
BRANCH   3   5
HETATM    5  C7  UNL     1     -31.870   7.562   1.974  1.00 20.00     0.200 C 
HETATM    6  C5  UNL     1     -32.090   8.573   3.087  1.00 20.00     0.049 C 
BRANCH   5   7
HETATM    7  O9  UNL     1     -31.990   8.214   0.718  1.00 20.00    -0.378 OA
BRANCH   7   8
HETATM    8  C6  UNL     1     -32.344   9.582   0.870  1.00 20.00     0.164 C 
HETATM    9  C4  UNL     1     -32.724  10.146  -0.482  1.00 20.00     0.033 C 
ENDBRANCH   7   8
ENDBRANCH   5   7
ENDBRANCH   3   5
TORSDOF 3
ENDMDL
MODEL 6
REMARK VINA RESULT:      -2.0      1.253      1.792
REMARK  3 active torsions:
REMARK  status: ('A' for Active; 'I' for Inactive)
REMARK    1  A    between atoms: C3_3  and  C7_7 
REMARK    2  A    between atoms: C6_6  and  O9_9 
REMARK    3  A    between atoms: C7_7  and  O9_9 
ROOT
HETATM    1  C1  UNL     1     -31.865   8.560   1.576  1.00 20.00     0.021 C 
HETATM    2  C2  UNL     1     -32.373   7.482   1.729  1.00 20.00    -0.037 C 
HETATM    3  C3  UNL     1     -32.983   6.184   1.912  1.00 20.00     0.230 C 
HETATM    4  O8  UNL     1     -32.744   5.294   1.106  1.00 20.00    -0.281 OA
ENDROOT
BRANCH   3   5
HETATM    5  C7  UNL     1     -33.920   6.036   3.096  1.00 20.00     0.200 C 
HETATM    6  C5  UNL     1     -34.180   7.364   3.786  1.00 20.00     0.049 C 
BRANCH   5   7
HETATM    7  O9  UNL     1     -33.336   5.132   4.023  1.00 20.00    -0.378 OA
BRANCH   7   8
HETATM    8  C6  UNL     1     -34.059   3.909   4.087  1.00 20.00     0.164 C 
HETATM    9  C4  UNL     1     -33.199   2.863   4.763  1.00 20.00     0.033 C 
ENDBRANCH   7   8
ENDBRANCH   5   7
ENDBRANCH   3   5
TORSDOF 3
ENDMDL
MODEL 7
REMARK VINA RESULT:      -1.9      1.687      2.349
REMARK  3 active torsions:
REMARK  status: ('A' for Active; 'I' for Inactive)
REMARK    1  A    between atoms: C3_3  and  C7_7 
REMARK    2  A    between atoms: C6_6  and  O9_9 
REMARK    3  A    between atoms: C7_7  and  O9_9 
ROOT
HETATM    1  C1  UNL     1     -32.480  10.036   0.284  1.00 20.00     0.021 C 
HETATM    2  C2  UNL     1     -32.381   9.053   0.966  1.00 20.00    -0.037 C 
HETATM    3  C3  UNL     1     -32.260   7.869   1.787  1.00 20.00     0.230 C 
HETATM    4  O8  UNL     1     -31.233   7.205   1.726  1.00 20.00    -0.281 OA
ENDROOT
BRANCH   3   5
HETATM    5  C7  UNL     1     -33.456   7.517   2.651  1.00 20.00     0.200 C 
HETATM    6  C5  UNL     1     -33.290   8.008   4.079  1.00 20.00     0.049 C 
BRANCH   5   7
HETATM    7  O9  UNL     1     -33.612   6.106   2.654  1.00 20.00    -0.378 OA
BRANCH   7   8
HETATM    8  C6  UNL     1     -34.446   5.674   3.721  1.00 20.00     0.164 C 
HETATM    9  C4  UNL     1     -34.076   4.254   4.092  1.00 20.00     0.033 C 
ENDBRANCH   7   8
ENDBRANCH   5   7
ENDBRANCH   3   5
TORSDOF 3
ENDMDL
MODEL 8
REMARK VINA RESULT:      -1.7      2.067      4.322
REMARK  3 active torsions:
REMARK  status: ('A' for Active; 'I' for Inactive)
REMARK    1  A    between atoms: C3_3  and  C7_7 
REMARK    2  A    between atoms: C6_6  and  O9_9 
REMARK    3  A    between atoms: C7_7  and  O9_9 
ROOT
HETATM    1  C1  UNL     1     -33.855   8.334   4.979  1.00 20.00     0.021 C 
HETATM    2  C2  UNL     1     -33.800   7.459   4.158  1.00 20.00    -0.037 C 
HETATM    3  C3  UNL     1     -33.734   6.404   3.171  1.00 20.00     0.230 C 
HETATM    4  O8  UNL     1     -34.186   5.300   3.448  1.00 20.00    -0.281 OA
ENDROOT
BRANCH   3   5
HETATM    5  C7  UNL     1     -33.063   6.748   1.855  1.00 20.00     0.200 C 
HETATM    6  C5  UNL     1     -32.181   5.618   1.353  1.00 20.00     0.049 C 
BRANCH   5   7
HETATM    7  O9  UNL     1     -32.273   7.914   2.042  1.00 20.00    -0.378 OA
BRANCH   7   8
HETATM    8  C6  UNL     1     -31.746   8.391   0.810  1.00 20.00     0.164 C 
HETATM    9  C4  UNL     1     -32.440   9.686   0.447  1.00 20.00     0.033 C 
ENDBRANCH   7   8
ENDBRANCH   5   7
ENDBRANCH   3   5
TORSDOF 3
ENDMDL
MODEL 9
REMARK VINA RESULT:      -1.6      1.973      2.912
REMARK  3 active torsions:
REMARK  status: ('A' for Active; 'I' for Inactive)
REMARK    1  A    between atoms: C3_3  and  C7_7 
REMARK    2  A    between atoms: C6_6  and  O9_9 
REMARK    3  A    between atoms: C7_7  and  O9_9 
ROOT
HETATM    1  C1  UNL     1     -32.460   9.467  -0.012  1.00 20.00     0.021 C 
HETATM    2  C2  UNL     1     -32.228   8.839   0.985  1.00 20.00    -0.037 C 
HETATM    3  C3  UNL     1     -31.947   8.084   2.186  1.00 20.00     0.230 C 
HETATM    4  O8  UNL     1     -31.254   8.590   3.059  1.00 20.00    -0.281 OA
ENDROOT
BRANCH   3   5
HETATM    5  C7  UNL     1     -32.519   6.681   2.254  1.00 20.00     0.200 C 
HETATM    6  C5  UNL     1     -32.212   5.879   1.000  1.00 20.00     0.049 C 
BRANCH   5   7
HETATM    7  O9  UNL     1     -33.927   6.774   2.419  1.00 20.00    -0.378 OA
BRANCH   7   8
HETATM    8  C6  UNL     1     -34.280   7.015   3.775  1.00 20.00     0.164 C 
HETATM    9  C4  UNL     1     -35.352   6.029   4.187  1.00 20.00     0.033 C 
ENDBRANCH   7   8
ENDBRANCH   5   7
ENDBRANCH   3   5
TORSDOF 3
ENDMDL
