MODEL 1
REMARK VINA RESULT:      -0.1      0.000      0.000
REMARK  1 active torsions:
REMARK  status: ('A' for Active; 'I' for Inactive)
REMARK    1  A    between atoms: C3_3  and  C7_7 
ROOT
HETATM    1  C1  UNL     1     -35.450   5.322   4.298  1.00 20.00     0.021 C 
HETATM    2  C2  UNL     1     -34.758   6.284   4.108  1.00 20.00    -0.039 C 
HETATM    3  C3  UNL     1     -33.925   7.441   3.881  1.00 20.00     0.208 C 
HETATM    4  O10 UNL     1     -33.550   8.117   4.831  1.00 20.00    -0.283 OA
ENDROOT
BRANCH   3   5
HETATM    5  C7  UNL     1     -33.572   7.736   2.456  1.00 20.00     0.100 C 
HETATM    6  C6  UNL     1     -32.757   6.592   1.845  1.00 20.00     0.047 C 
HETATM    7  C8  UNL     1     -31.459   7.300   1.459  1.00 20.00     0.122 C 
HETATM    8  C4  UNL     1     -31.683   8.244   0.278  1.00 20.00     0.034 C 
HETATM    9  O11 UNL     1     -31.318   8.238   2.547  1.00 20.00    -0.380 OA
HETATM   10  C5  UNL     1     -32.463   9.391   0.926  1.00 20.00     0.035 C 
HETATM   11  C9  UNL     1     -32.590   8.910   2.371  1.00 20.00     0.134 C 
ENDBRANCH   3   5
TORSDOF 1
ENDMDL
MODEL 2
REMARK VINA RESULT:       0.3      0.964      4.196
REMARK  1 active torsions:
REMARK  status: ('A' for Active; 'I' for Inactive)
REMARK    1  A    between atoms: C3_3  and  C7_7 
ROOT
HETATM    1  C1  UNL     1     -32.514  10.119   0.077  1.00 20.00     0.021 C 
HETATM    2  C2  UNL     1     -32.350   9.157   0.776  1.00 20.00    -0.039 C 
HETATM    3  C3  UNL     1     -32.151   8.000   1.617  1.00 20.00     0.208 C 
HETATM    4  O10 UNL     1     -31.016   7.650   1.910  1.00 20.00    -0.283 OA
ENDROOT
BRANCH   3   5
HETATM    5  C7  UNL     1     -33.389   7.296   2.080  1.00 20.00     0.100 C 
HETATM    6  C6  UNL     1     -34.307   8.250   2.851  1.00 20.00     0.047 C 
HETATM    7  C8  UNL     1     -34.392   7.571   4.217  1.00 20.00     0.122 C 
HETATM    8  C4  UNL     1     -35.210   6.282   4.136  1.00 20.00     0.034 C 
HETATM    9  O11 UNL     1     -33.053   7.048   4.353  1.00 20.00    -0.380 OA
HETATM   10  C5  UNL     1     -34.254   5.341   3.398  1.00 20.00     0.035 C 
HETATM   11  C9  UNL     1     -33.050   6.247   3.145  1.00 20.00     0.134 C 
ENDBRANCH   3   5
TORSDOF 1
ENDMDL
MODEL 3
REMARK VINA RESULT:       0.4      1.955      2.624
REMARK  1 active torsions:
REMARK  status: ('A' for Active; 'I' for Inactive)
REMARK    1  A    between atoms: C3_3  and  C7_7 
ROOT
HETATM    1  C1  UNL     1     -33.469   2.744   4.564  1.00 20.00     0.021 C 
HETATM    2  C2  UNL     1     -33.792   3.869   4.296  1.00 20.00    -0.039 C 
HETATM    3  C3  UNL     1     -34.182   5.221   3.975  1.00 20.00     0.208 C 
HETATM    4  O10 UNL     1     -35.350   5.564   4.102  1.00 20.00    -0.283 OA
ENDROOT
BRANCH   3   5
HETATM    5  C7  UNL     1     -33.092   6.130   3.495  1.00 20.00     0.100 C 
HETATM    6  C6  UNL     1     -33.561   7.589   3.483  1.00 20.00     0.047 C 
HETATM    7  C8  UNL     1     -33.401   7.959   2.008  1.00 20.00     0.122 C 
HETATM    8  C4  UNL     1     -31.924   8.058   1.628  1.00 20.00     0.034 C 
HETATM    9  O11 UNL     1     -33.775   6.720   1.367  1.00 20.00    -0.380 OA
HETATM   10  C5  UNL     1     -31.497   6.588   1.611  1.00 20.00     0.035 C 
HETATM   11  C9  UNL     1     -32.788   5.878   2.014  1.00 20.00     0.134 C 
ENDBRANCH   3   5
TORSDOF 1
ENDMDL
MODEL 4
REMARK VINA RESULT:       1.0      1.762      4.117
REMARK  1 active torsions:
REMARK  status: ('A' for Active; 'I' for Inactive)
REMARK    1  A    between atoms: C3_3  and  C7_7 
ROOT
HETATM    1  C1  UNL     1     -33.025  10.837   0.365  1.00 20.00     0.021 C 
HETATM    2  C2  UNL     1     -32.393   9.827   0.517  1.00 20.00    -0.039 C 
HETATM    3  C3  UNL     1     -31.634   8.613   0.698  1.00 20.00     0.208 C 
HETATM    4  O10 UNL     1     -30.761   8.316  -0.107  1.00 20.00    -0.283 OA
ENDROOT
BRANCH   3   5
HETATM    5  C7  UNL     1     -31.982   7.784   1.895  1.00 20.00     0.100 C 
HETATM    6  C6  UNL     1     -31.660   6.306   1.653  1.00 20.00     0.047 C 
HETATM    7  C8  UNL     1     -33.032   5.653   1.817  1.00 20.00     0.122 C 
HETATM    8  C4  UNL     1     -33.478   5.681   3.278  1.00 20.00     0.034 C 
HETATM    9  O11 UNL     1     -33.892   6.659   1.239  1.00 20.00    -0.380 OA
HETATM   10  C5  UNL     1     -33.829   7.158   3.478  1.00 20.00     0.035 C 
HETATM   11  C9  UNL     1     -33.500   7.750   2.109  1.00 20.00     0.134 C 
ENDBRANCH   3   5
TORSDOF 1
ENDMDL
MODEL 5
REMARK VINA RESULT:       1.2      1.255      1.561
REMARK  1 active torsions:
REMARK  status: ('A' for Active; 'I' for Inactive)
REMARK    1  A    between atoms: C3_3  and  C7_7 
ROOT
HETATM    1  C1  UNL     1     -33.838   8.365   5.376  1.00 20.00     0.021 C 
HETATM    2  C2  UNL     1     -33.860   7.600   4.451  1.00 20.00    -0.039 C 
HETATM    3  C3  UNL     1     -33.886   6.680   3.339  1.00 20.00     0.208 C 
HETATM    4  O10 UNL     1     -34.264   5.528   3.512  1.00 20.00    -0.283 OA
ENDROOT
BRANCH   3   5
HETATM    5  C7  UNL     1     -33.436   7.221   2.018  1.00 20.00     0.100 C 
HETATM    6  C6  UNL     1     -32.285   6.387   1.447  1.00 20.00     0.047 C 
HETATM    7  C8  UNL     1     -31.169   7.424   1.332  1.00 20.00     0.122 C 
HETATM    8  C4  UNL     1     -31.467   8.425   0.216  1.00 20.00     0.034 C 
HETATM    9  O11 UNL     1     -31.413   8.229   2.506  1.00 20.00    -0.380 OA
HETATM   10  C5  UNL     1     -32.590   9.266   0.830  1.00 20.00     0.035 C 
HETATM   11  C9  UNL     1     -32.780   8.596   2.190  1.00 20.00     0.134 C 
ENDBRANCH   3   5
TORSDOF 1
ENDMDL
MODEL 6
REMARK VINA RESULT:       1.3      1.422      1.615
REMARK  1 active torsions:
REMARK  status: ('A' for Active; 'I' for Inactive)
REMARK    1  A    between atoms: C3_3  and  C7_7 
ROOT
HETATM    1  C1  UNL     1     -35.479   6.508   4.303  1.00 20.00     0.021 C 
HETATM    2  C2  UNL     1     -34.591   6.141   3.584  1.00 20.00    -0.039 C 
HETATM    3  C3  UNL     1     -33.523   5.699   2.719  1.00 20.00     0.208 C 
HETATM    4  O10 UNL     1     -33.014   4.599   2.895  1.00 20.00    -0.283 OA
ENDROOT
BRANCH   3   5
HETATM    5  C7  UNL     1     -33.106   6.649   1.640  1.00 20.00     0.100 C 
HETATM    6  C6  UNL     1     -31.654   6.400   1.220  1.00 20.00     0.047 C 
HETATM    7  C8  UNL     1     -30.999   7.746   1.531  1.00 20.00     0.122 C 
HETATM    8  C4  UNL     1     -31.471   8.821   0.552  1.00 20.00     0.034 C 
HETATM    9  O11 UNL     1     -31.705   8.129   2.732  1.00 20.00    -0.380 OA
HETATM   10  C5  UNL     1     -32.906   9.075   1.020  1.00 20.00     0.035 C 
HETATM   11  C9  UNL     1     -33.043   8.085   2.175  1.00 20.00     0.134 C 
ENDBRANCH   3   5
TORSDOF 1
ENDMDL
MODEL 7
REMARK VINA RESULT:       1.8      1.595      4.249
REMARK  1 active torsions:
REMARK  status: ('A' for Active; 'I' for Inactive)
REMARK    1  A    between atoms: C3_3  and  C7_7 
ROOT
HETATM    1  C1  UNL     1     -31.662   8.742   0.825  1.00 20.00     0.021 C 
HETATM    2  C2  UNL     1     -32.032   7.672   1.224  1.00 20.00    -0.039 C 
HETATM    3  C3  UNL     1     -32.478   6.385   1.703  1.00 20.00     0.208 C 
HETATM    4  O10 UNL     1     -32.419   5.409   0.968  1.00 20.00    -0.283 OA
ENDROOT
BRANCH   3   5
HETATM    5  C7  UNL     1     -32.995   6.343   3.108  1.00 20.00     0.100 C 
HETATM    6  C6  UNL     1     -33.938   5.152   3.310  1.00 20.00     0.047 C 
HETATM    7  C8  UNL     1     -35.238   5.843   3.718  1.00 20.00     0.122 C 
HETATM    8  C4  UNL     1     -35.120   6.442   5.120  1.00 20.00     0.034 C 
HETATM    9  O11 UNL     1     -35.192   7.032   2.899  1.00 20.00    -0.380 OA
HETATM   10  C5  UNL     1     -34.207   7.647   4.879  1.00 20.00     0.035 C 
HETATM   11  C9  UNL     1     -33.920   7.534   3.382  1.00 20.00     0.134 C 
ENDBRANCH   3   5
TORSDOF 1
ENDMDL
MODEL 8
REMARK VINA RESULT:       1.8      1.088      1.777
REMARK  1 active torsions:
REMARK  status: ('A' for Active; 'I' for Inactive)
REMARK    1  A    between atoms: C3_3  and  C7_7 
ROOT
HETATM    1  C1  UNL     1     -35.728   5.401   4.215  1.00 20.00     0.021 C 
HETATM    2  C2  UNL     1     -34.933   6.300   4.173  1.00 20.00    -0.039 C 
HETATM    3  C3  UNL     1     -33.979   7.382   4.123  1.00 20.00     0.208 C 
HETATM    4  O10 UNL     1     -34.201   8.418   4.736  1.00 20.00    -0.283 OA
ENDROOT
BRANCH   3   5
HETATM    5  C7  UNL     1     -32.750   7.146   3.300  1.00 20.00     0.100 C 
HETATM    6  C6  UNL     1     -32.088   8.471   2.911  1.00 20.00     0.047 C 
HETATM    7  C8  UNL     1     -32.132   8.409   1.384  1.00 20.00     0.122 C 
HETATM    8  C4  UNL     1     -31.158   7.358   0.853  1.00 20.00     0.034 C 
HETATM    9  O11 UNL     1     -33.401   7.754   1.167  1.00 20.00    -0.380 OA
HETATM   10  C5  UNL     1     -31.864   6.050   1.221  1.00 20.00     0.035 C 
HETATM   11  C9  UNL     1     -33.117   6.557   1.934  1.00 20.00     0.134 C 
ENDBRANCH   3   5
TORSDOF 1
ENDMDL
MODEL 9
REMARK VINA RESULT:       2.1      1.806      2.778
REMARK  1 active torsions:
REMARK  status: ('A' for Active; 'I' for Inactive)
REMARK    1  A    between atoms: C3_3  and  C7_7 
ROOT
HETATM    1  C1  UNL     1     -34.292   7.363   4.092  1.00 20.00     0.021 C 
HETATM    2  C2  UNL     1     -33.569   7.254   3.139  1.00 20.00    -0.039 C 
HETATM    3  C3  UNL     1     -32.700   7.121   1.994  1.00 20.00     0.208 C 
HETATM    4  O10 UNL     1     -32.564   6.029   1.458  1.00 20.00    -0.283 OA
ENDROOT
BRANCH   3   5
HETATM    5  C7  UNL     1     -32.012   8.369   1.535  1.00 20.00     0.100 C 
HETATM    6  C6  UNL     1     -32.922   9.591   1.702  1.00 20.00     0.047 C 
HETATM    7  C8  UNL     1     -33.034  10.099   0.265  1.00 20.00     0.122 C 
HETATM    8  C4  UNL     1     -31.711  10.705  -0.204  1.00 20.00     0.034 C 
HETATM    9  O11 UNL     1     -33.052   8.857  -0.471  1.00 20.00    -0.380 OA
HETATM   10  C5  UNL     1     -30.839   9.462  -0.398  1.00 20.00     0.035 C 
HETATM   11  C9  UNL     1     -31.789   8.340   0.019  1.00 20.00     0.134 C 
ENDBRANCH   3   5
TORSDOF 1
ENDMDL
