MODEL 1
REMARK VINA RESULT:      -2.7      0.000      0.000
REMARK  4 active torsions:
REMARK  status: ('A' for Active; 'I' for Inactive)
REMARK    1  A    between atoms: C1_1  and  C5_5 
REMARK    2  A    between atoms: C1_1  and  C9_9 
REMARK    3  A    between atoms: C6_6  and  C10_10 
REMARK    4  A    between atoms: C9_9  and  C10_10 
ROOT
HETATM    1  C1  UNL     1     -33.120   6.720   2.245  1.00 20.00     0.131 C 
HETATM    2  O11 UNL     1     -33.017   5.720   1.536  1.00 20.00    -0.298 OA
ENDROOT
BRANCH   1   3
HETATM    3  C5  UNL     1     -34.408   7.034   2.962  1.00 20.00     0.059 A 
HETATM    4  C4  UNL     1     -34.345   7.312   4.423  1.00 20.00     0.017 A 
HETATM    5  C7  UNL     1     -34.978   6.045   3.920  1.00 20.00    -0.007 A 
HETATM    6  C8  UNL     1     -34.348   4.728   4.216  1.00 20.00     0.011 C 
ENDBRANCH   1   3
BRANCH   1   7
HETATM    7  C9  UNL     1     -31.981   7.703   2.455  1.00 20.00     0.079 C 
BRANCH   7   8
HETATM    8  C10 UNL     1     -31.596   8.433   1.171  1.00 20.00     0.012 C 
BRANCH   8   9
HETATM    9  C6  UNL     1     -32.709   9.356   0.701  1.00 20.00    -0.014 A 
HETATM   10  C2  UNL     1     -32.432  10.815   0.464  1.00 20.00     0.005 A 
HETATM   11  C3  UNL     1     -32.696   9.902  -0.700  1.00 20.00     0.005 A 
ENDBRANCH   8   9
ENDBRANCH   7   8
ENDBRANCH   1   7
TORSDOF 4
ENDMDL
MODEL 2
REMARK VINA RESULT:      -1.9      1.274      1.327
REMARK  4 active torsions:
REMARK  status: ('A' for Active; 'I' for Inactive)
REMARK    1  A    between atoms: C1_1  and  C5_5 
REMARK    2  A    between atoms: C1_1  and  C9_9 
REMARK    3  A    between atoms: C6_6  and  C10_10 
REMARK    4  A    between atoms: C9_9  and  C10_10 
ROOT
HETATM    1  C1  UNL     1     -33.344   7.133   3.272  1.00 20.00     0.131 C 
HETATM    2  O11 UNL     1     -32.991   7.802   4.242  1.00 20.00    -0.298 OA
ENDROOT
BRANCH   1   3
HETATM    3  C5  UNL     1     -34.691   6.460   3.243  1.00 20.00     0.059 A 
HETATM    4  C4  UNL     1     -35.357   6.169   4.543  1.00 20.00     0.017 A 
HETATM    5  C7  UNL     1     -34.820   5.047   3.700  1.00 20.00    -0.007 A 
HETATM    6  C8  UNL     1     -33.671   4.232   4.187  1.00 20.00     0.011 C 
ENDBRANCH   1   3
BRANCH   1   7
HETATM    7  C9  UNL     1     -32.470   6.933   2.046  1.00 20.00     0.079 C 
BRANCH   7   8
HETATM    8  C10 UNL     1     -31.807   8.228   1.583  1.00 20.00     0.012 C 
BRANCH   8   9
HETATM    9  C6  UNL     1     -32.764   9.081   0.766  1.00 20.00    -0.014 A 
HETATM   10  C2  UNL     1     -32.663  10.581   0.807  1.00 20.00     0.005 A 
HETATM   11  C3  UNL     1     -32.267   9.835  -0.436  1.00 20.00     0.005 A 
ENDBRANCH   8   9
ENDBRANCH   7   8
ENDBRANCH   1   7
TORSDOF 4
ENDMDL
MODEL 3
REMARK VINA RESULT:      -1.5      0.672      1.321
REMARK  4 active torsions:
REMARK  status: ('A' for Active; 'I' for Inactive)
REMARK    1  A    between atoms: C1_1  and  C5_5 
REMARK    2  A    between atoms: C1_1  and  C9_9 
REMARK    3  A    between atoms: C6_6  and  C10_10 
REMARK    4  A    between atoms: C9_9  and  C10_10 
ROOT
HETATM    1  C1  UNL     1     -33.110   6.412   2.211  1.00 20.00     0.131 C 
HETATM    2  O11 UNL     1     -33.129   5.825   1.131  1.00 20.00    -0.298 OA
ENDROOT
BRANCH   1   3
HETATM    3  C5  UNL     1     -33.988   5.966   3.352  1.00 20.00     0.059 A 
HETATM    4  C4  UNL     1     -35.357   6.543   3.449  1.00 20.00     0.017 A 
HETATM    5  C7  UNL     1     -34.305   6.917   4.454  1.00 20.00    -0.007 A 
HETATM    6  C8  UNL     1     -33.789   8.314   4.510  1.00 20.00     0.011 C 
ENDBRANCH   1   3
BRANCH   1   7
HETATM    7  C9  UNL     1     -32.219   7.611   2.484  1.00 20.00     0.079 C 
BRANCH   7   8
HETATM    8  C10 UNL     1     -31.753   8.297   1.202  1.00 20.00     0.012 C 
BRANCH   8   9
HETATM    9  C6  UNL     1     -32.779   9.302   0.704  1.00 20.00    -0.014 A 
HETATM   10  C2  UNL     1     -32.397  10.745   0.523  1.00 20.00     0.005 A 
HETATM   11  C3  UNL     1     -32.661   9.881  -0.679  1.00 20.00     0.005 A 
ENDBRANCH   8   9
ENDBRANCH   7   8
ENDBRANCH   1   7
TORSDOF 4
ENDMDL
MODEL 4
REMARK VINA RESULT:      -1.3      1.920      5.405
REMARK  4 active torsions:
REMARK  status: ('A' for Active; 'I' for Inactive)
REMARK    1  A    between atoms: C1_1  and  C5_5 
REMARK    2  A    between atoms: C1_1  and  C9_9 
REMARK    3  A    between atoms: C6_6  and  C10_10 
REMARK    4  A    between atoms: C9_9  and  C10_10 
ROOT
HETATM    1  C1  UNL     1     -33.987   6.646   3.333  1.00 20.00     0.131 C 
HETATM    2  O11 UNL     1     -33.423   7.445   4.079  1.00 20.00    -0.298 OA
ENDROOT
BRANCH   1   3
HETATM    3  C5  UNL     1     -33.494   6.415   1.928  1.00 20.00     0.059 A 
HETATM    4  C4  UNL     1     -32.161   5.775   1.750  1.00 20.00     0.017 A 
HETATM    5  C7  UNL     1     -32.357   7.223   1.403  1.00 20.00    -0.007 A 
HETATM    6  C8  UNL     1     -31.664   8.280   2.194  1.00 20.00     0.011 C 
ENDBRANCH   1   3
BRANCH   1   7
HETATM    7  C9  UNL     1     -35.203   5.839   3.755  1.00 20.00     0.079 C 
BRANCH   7   8
HETATM    8  C10 UNL     1     -34.844   4.687   4.690  1.00 20.00     0.012 C 
BRANCH   8   9
HETATM    9  C6  UNL     1     -33.687   3.868   4.144  1.00 20.00    -0.014 A 
HETATM   10  C2  UNL     1     -32.563   3.448   5.051  1.00 20.00     0.005 A 
HETATM   11  C3  UNL     1     -33.533   2.423   4.533  1.00 20.00     0.005 A 
ENDBRANCH   8   9
ENDBRANCH   7   8
ENDBRANCH   1   7
TORSDOF 4
ENDMDL
MODEL 5
REMARK VINA RESULT:      -1.2      1.376      4.801
REMARK  4 active torsions:
REMARK  status: ('A' for Active; 'I' for Inactive)
REMARK    1  A    between atoms: C1_1  and  C5_5 
REMARK    2  A    between atoms: C1_1  and  C9_9 
REMARK    3  A    between atoms: C6_6  and  C10_10 
REMARK    4  A    between atoms: C9_9  and  C10_10 
ROOT
HETATM    1  C1  UNL     1     -31.852   7.793   1.542  1.00 20.00     0.131 C 
HETATM    2  O11 UNL     1     -31.517   8.495   2.495  1.00 20.00    -0.298 OA
ENDROOT
BRANCH   1   3
HETATM    3  C5  UNL     1     -31.974   8.374   0.157  1.00 20.00     0.059 A 
HETATM    4  C4  UNL     1     -31.024   9.449  -0.239  1.00 20.00     0.017 A 
HETATM    5  C7  UNL     1     -32.475   9.766  -0.018  1.00 20.00    -0.007 A 
HETATM    6  C8  UNL     1     -32.883  10.642   1.117  1.00 20.00     0.011 C 
ENDBRANCH   1   3
BRANCH   1   7
HETATM    7  C9  UNL     1     -32.162   6.313   1.677  1.00 20.00     0.079 C 
BRANCH   7   8
HETATM    8  C10 UNL     1     -33.630   6.051   2.005  1.00 20.00     0.012 C 
BRANCH   8   9
HETATM    9  C6  UNL     1     -33.895   6.169   3.498  1.00 20.00    -0.014 A 
HETATM   10  C2  UNL     1     -34.490   7.429   4.063  1.00 20.00     0.005 A 
HETATM   11  C3  UNL     1     -35.306   6.167   4.017  1.00 20.00     0.005 A 
ENDBRANCH   8   9
ENDBRANCH   7   8
ENDBRANCH   1   7
TORSDOF 4
ENDMDL
MODEL 6
REMARK VINA RESULT:      -1.0      1.891      5.310
REMARK  4 active torsions:
REMARK  status: ('A' for Active; 'I' for Inactive)
REMARK    1  A    between atoms: C1_1  and  C5_5 
REMARK    2  A    between atoms: C1_1  and  C9_9 
REMARK    3  A    between atoms: C6_6  and  C10_10 
REMARK    4  A    between atoms: C9_9  and  C10_10 
ROOT
HETATM    1  C1  UNL     1     -33.782   7.129   3.590  1.00 20.00     0.131 C 
HETATM    2  O11 UNL     1     -34.322   7.822   4.450  1.00 20.00    -0.298 OA
ENDROOT
BRANCH   1   3
HETATM    3  C5  UNL     1     -32.476   7.548   2.964  1.00 20.00     0.059 A 
HETATM    4  C4  UNL     1     -32.522   8.231   1.641  1.00 20.00     0.017 A 
HETATM    5  C7  UNL     1     -31.977   6.836   1.754  1.00 20.00    -0.007 A 
HETATM    6  C8  UNL     1     -32.696   5.700   1.112  1.00 20.00     0.011 C 
ENDBRANCH   1   3
BRANCH   1   7
HETATM    7  C9  UNL     1     -34.370   5.819   3.096  1.00 20.00     0.079 C 
BRANCH   7   8
HETATM    8  C10 UNL     1     -34.460   4.766   4.197  1.00 20.00     0.012 C 
BRANCH   8   9
HETATM    9  C6  UNL     1     -33.257   3.837   4.179  1.00 20.00    -0.014 A 
HETATM   10  C2  UNL     1     -32.753   3.228   5.458  1.00 20.00     0.005 A 
HETATM   11  C3  UNL     1     -33.434   2.366   4.432  1.00 20.00     0.005 A 
ENDBRANCH   8   9
ENDBRANCH   7   8
ENDBRANCH   1   7
TORSDOF 4
ENDMDL
MODEL 7
REMARK VINA RESULT:      -0.9      1.347      5.067
REMARK  4 active torsions:
REMARK  status: ('A' for Active; 'I' for Inactive)
REMARK    1  A    between atoms: C1_1  and  C5_5 
REMARK    2  A    between atoms: C1_1  and  C9_9 
REMARK    3  A    between atoms: C6_6  and  C10_10 
REMARK    4  A    between atoms: C9_9  and  C10_10 
ROOT
HETATM    1  C1  UNL     1     -31.974   8.011   1.797  1.00 20.00     0.131 C 
HETATM    2  O11 UNL     1     -31.090   8.475   2.515  1.00 20.00    -0.298 OA
ENDROOT
BRANCH   1   3
HETATM    3  C5  UNL     1     -32.028   8.333   0.326  1.00 20.00     0.059 A 
HETATM    4  C4  UNL     1     -31.014   9.276  -0.222  1.00 20.00     0.017 A 
HETATM    5  C7  UNL     1     -32.454   9.690  -0.117  1.00 20.00    -0.007 A 
HETATM    6  C8  UNL     1     -32.851  10.776   0.824  1.00 20.00     0.011 C 
ENDBRANCH   1   3
BRANCH   1   7
HETATM    7  C9  UNL     1     -33.064   7.092   2.320  1.00 20.00     0.079 C 
BRANCH   7   8
HETATM    8  C10 UNL     1     -33.854   7.715   3.467  1.00 20.00     0.012 C 
BRANCH   8   9
HETATM    9  C6  UNL     1     -34.456   6.651   4.371  1.00 20.00    -0.014 A 
HETATM   10  C2  UNL     1     -35.736   5.964   3.982  1.00 20.00     0.005 A 
HETATM   11  C3  UNL     1     -34.437   5.206   3.953  1.00 20.00     0.005 A 
ENDBRANCH   8   9
ENDBRANCH   7   8
ENDBRANCH   1   7
TORSDOF 4
ENDMDL
MODEL 8
REMARK VINA RESULT:      -0.7      1.627      1.823
REMARK  4 active torsions:
REMARK  status: ('A' for Active; 'I' for Inactive)
REMARK    1  A    between atoms: C1_1  and  C5_5 
REMARK    2  A    between atoms: C1_1  and  C9_9 
REMARK    3  A    between atoms: C6_6  and  C10_10 
REMARK    4  A    between atoms: C9_9  and  C10_10 
ROOT
HETATM    1  C1  UNL     1     -33.020   8.019   3.923  1.00 20.00     0.131 C 
HETATM    2  O11 UNL     1     -32.730   8.322   5.079  1.00 20.00    -0.298 OA
ENDROOT
BRANCH   1   3
HETATM    3  C5  UNL     1     -34.401   7.526   3.574  1.00 20.00     0.059 A 
HETATM    4  C4  UNL     1     -34.999   6.459   4.422  1.00 20.00     0.017 A 
HETATM    5  C7  UNL     1     -34.576   6.157   3.013  1.00 20.00    -0.007 A 
HETATM    6  C8  UNL     1     -33.444   5.221   2.758  1.00 20.00     0.011 C 
ENDBRANCH   1   3
BRANCH   1   7
HETATM    7  C9  UNL     1     -32.033   8.112   2.773  1.00 20.00     0.079 C 
BRANCH   7   8
HETATM    8  C10 UNL     1     -32.725   8.234   1.418  1.00 20.00     0.012 C 
BRANCH   8   9
HETATM    9  C6  UNL     1     -32.050   9.276   0.541  1.00 20.00    -0.014 A 
HETATM   10  C2  UNL     1     -32.725   9.763  -0.712  1.00 20.00     0.005 A 
HETATM   11  C3  UNL     1     -32.594  10.676   0.475  1.00 20.00     0.005 A 
ENDBRANCH   8   9
ENDBRANCH   7   8
ENDBRANCH   1   7
TORSDOF 4
ENDMDL
MODEL 9
REMARK VINA RESULT:      -0.5      1.110      5.212
REMARK  4 active torsions:
REMARK  status: ('A' for Active; 'I' for Inactive)
REMARK    1  A    between atoms: C1_1  and  C5_5 
REMARK    2  A    between atoms: C1_1  and  C9_9 
REMARK    3  A    between atoms: C6_6  and  C10_10 
REMARK    4  A    between atoms: C9_9  and  C10_10 
ROOT
HETATM    1  C1  UNL     1     -33.112   6.369   1.992  1.00 20.00     0.131 C 
HETATM    2  O11 UNL     1     -33.442   5.705   1.012  1.00 20.00    -0.298 OA
ENDROOT
BRANCH   1   3
HETATM    3  C5  UNL     1     -31.803   7.117   2.018  1.00 20.00     0.059 A 
HETATM    4  C4  UNL     1     -31.723   8.361   2.832  1.00 20.00     0.017 A 
HETATM    5  C7  UNL     1     -31.694   8.435   1.332  1.00 20.00    -0.007 A 
HETATM    6  C8  UNL     1     -32.819   9.075   0.594  1.00 20.00     0.011 C 
ENDBRANCH   1   3
BRANCH   1   7
HETATM    7  C9  UNL     1     -33.976   6.492   3.235  1.00 20.00     0.079 C 
BRANCH   7   8
HETATM    8  C10 UNL     1     -34.428   5.136   3.769  1.00 20.00     0.012 C 
BRANCH   8   9
HETATM    9  C6  UNL     1     -33.244   4.221   4.040  1.00 20.00    -0.014 A 
HETATM   10  C2  UNL     1     -33.146   3.476   5.342  1.00 20.00     0.005 A 
HETATM   11  C3  UNL     1     -33.432   2.730   4.069  1.00 20.00     0.005 A 
ENDBRANCH   8   9
ENDBRANCH   7   8
ENDBRANCH   1   7
TORSDOF 4
ENDMDL
