MODEL 1
REMARK VINA RESULT:      -2.3      0.000      0.000
REMARK  1 active torsions:
REMARK  status: ('A' for Active; 'I' for Inactive)
REMARK    1  A    between atoms: C3_3  and  C5_5 
ROOT
HETATM    1  C1  UNL     1     -32.578  10.179   0.082  1.00 20.00     0.021 C 
HETATM    2  C2  UNL     1     -32.332   9.241   0.790  1.00 20.00    -0.039 C 
HETATM    3  C3  UNL     1     -32.034   8.115   1.643  1.00 20.00     0.206 C 
HETATM    4  O8  UNL     1     -31.374   8.279   2.660  1.00 20.00    -0.283 OA
ENDROOT
BRANCH   3   5
HETATM    5  C5  UNL     1     -32.564   6.816   1.213  1.00 20.00     0.073 A 
HETATM    6  C4  UNL     1     -32.114   5.563   1.923  1.00 20.00     0.018 A 
HETATM    7  C6  UNL     1     -33.528   6.044   2.082  1.00 20.00    -0.006 A 
HETATM    8  C7  UNL     1     -33.995   6.561   3.401  1.00 20.00     0.011 C 
ENDBRANCH   3   5
TORSDOF 1
ENDMDL
MODEL 2
REMARK VINA RESULT:      -2.2      1.606      3.369
REMARK  1 active torsions:
REMARK  status: ('A' for Active; 'I' for Inactive)
REMARK    1  A    between atoms: C3_3  and  C5_5 
ROOT
HETATM    1  C1  UNL     1     -35.495   6.075   4.035  1.00 20.00     0.021 C 
HETATM    2  C2  UNL     1     -34.528   6.764   3.857  1.00 20.00    -0.039 C 
HETATM    3  C3  UNL     1     -33.365   7.593   3.644  1.00 20.00     0.206 C 
HETATM    4  O8  UNL     1     -32.710   7.979   4.603  1.00 20.00    -0.283 OA
ENDROOT
BRANCH   3   5
HETATM    5  C5  UNL     1     -33.044   7.918   2.250  1.00 20.00     0.073 A 
HETATM    6  C4  UNL     1     -31.600   7.961   1.814  1.00 20.00     0.018 A 
HETATM    7  C6  UNL     1     -32.499   6.867   1.313  1.00 20.00    -0.006 A 
HETATM    8  C7  UNL     1     -32.272   5.459   1.746  1.00 20.00     0.011 C 
ENDBRANCH   3   5
TORSDOF 1
ENDMDL
MODEL 3
REMARK VINA RESULT:      -2.0      1.607      2.570
REMARK  1 active torsions:
REMARK  status: ('A' for Active; 'I' for Inactive)
REMARK    1  A    between atoms: C3_3  and  C5_5 
ROOT
HETATM    1  C1  UNL     1     -31.702   8.565   1.295  1.00 20.00     0.021 C 
HETATM    2  C2  UNL     1     -32.341   7.633   1.699  1.00 20.00    -0.039 C 
HETATM    3  C3  UNL     1     -33.109   6.510   2.184  1.00 20.00     0.206 C 
HETATM    4  O8  UNL     1     -32.675   5.374   2.050  1.00 20.00    -0.283 OA
ENDROOT
BRANCH   3   5
HETATM    5  C5  UNL     1     -34.391   6.826   2.822  1.00 20.00     0.073 A 
HETATM    6  C4  UNL     1     -34.807   6.071   4.060  1.00 20.00     0.018 A 
HETATM    7  C6  UNL     1     -34.442   7.526   4.159  1.00 20.00    -0.006 A 
HETATM    8  C7  UNL     1     -33.207   7.936   4.887  1.00 20.00     0.011 C 
ENDBRANCH   3   5
TORSDOF 1
ENDMDL
MODEL 4
REMARK VINA RESULT:      -1.8      1.779      2.969
REMARK  1 active torsions:
REMARK  status: ('A' for Active; 'I' for Inactive)
REMARK    1  A    between atoms: C3_3  and  C5_5 
ROOT
HETATM    1  C1  UNL     1     -31.985   4.867   1.081  1.00 20.00     0.021 C 
HETATM    2  C2  UNL     1     -32.354   5.914   1.538  1.00 20.00    -0.039 C 
HETATM    3  C3  UNL     1     -32.796   7.174   2.088  1.00 20.00     0.206 C 
HETATM    4  O8  UNL     1     -32.071   8.157   2.014  1.00 20.00    -0.283 OA
ENDROOT
BRANCH   3   5
HETATM    5  C5  UNL     1     -34.124   7.180   2.711  1.00 20.00     0.073 A 
HETATM    6  C4  UNL     1     -34.450   6.153   3.767  1.00 20.00     0.018 A 
HETATM    7  C6  UNL     1     -34.303   7.598   4.152  1.00 20.00    -0.006 A 
HETATM    8  C7  UNL     1     -33.156   8.031   5.001  1.00 20.00     0.011 C 
ENDBRANCH   3   5
TORSDOF 1
ENDMDL
MODEL 5
REMARK VINA RESULT:      -1.7      1.556      2.429
REMARK  1 active torsions:
REMARK  status: ('A' for Active; 'I' for Inactive)
REMARK    1  A    between atoms: C3_3  and  C5_5 
ROOT
HETATM    1  C1  UNL     1     -32.041   8.995   1.009  1.00 20.00     0.021 C 
HETATM    2  C2  UNL     1     -32.416   7.987   1.544  1.00 20.00    -0.039 C 
HETATM    3  C3  UNL     1     -32.869   6.775   2.185  1.00 20.00     0.206 C 
HETATM    4  O8  UNL     1     -32.998   5.751   1.527  1.00 20.00    -0.283 OA
ENDROOT
BRANCH   3   5
HETATM    5  C5  UNL     1     -33.146   6.864   3.623  1.00 20.00     0.073 A 
HETATM    6  C4  UNL     1     -33.857   8.080   4.164  1.00 20.00     0.018 A 
HETATM    7  C6  UNL     1     -34.556   6.750   4.150  1.00 20.00    -0.006 A 
HETATM    8  C7  UNL     1     -35.725   6.532   3.250  1.00 20.00     0.011 C 
ENDBRANCH   3   5
TORSDOF 1
ENDMDL
MODEL 6
REMARK VINA RESULT:      -1.7      3.046      4.476
REMARK  1 active torsions:
REMARK  status: ('A' for Active; 'I' for Inactive)
REMARK    1  A    between atoms: C3_3  and  C5_5 
ROOT
HETATM    1  C1  UNL     1     -33.487   3.259   4.491  1.00 20.00     0.021 C 
HETATM    2  C2  UNL     1     -33.511   4.203   3.750  1.00 20.00    -0.039 C 
HETATM    3  C3  UNL     1     -33.537   5.338   2.858  1.00 20.00     0.206 C 
HETATM    4  O8  UNL     1     -32.665   5.465   2.009  1.00 20.00    -0.283 OA
ENDROOT
BRANCH   3   5
HETATM    5  C5  UNL     1     -34.644   6.284   3.042  1.00 20.00     0.073 A 
HETATM    6  C4  UNL     1     -35.348   6.348   4.375  1.00 20.00     0.018 A 
HETATM    7  C6  UNL     1     -34.490   7.497   3.928  1.00 20.00    -0.006 A 
HETATM    8  C7  UNL     1     -33.217   7.800   4.644  1.00 20.00     0.011 C 
ENDBRANCH   3   5
TORSDOF 1
ENDMDL
MODEL 7
REMARK VINA RESULT:      -1.6      3.373      5.036
REMARK  1 active torsions:
REMARK  status: ('A' for Active; 'I' for Inactive)
REMARK    1  A    between atoms: C3_3  and  C5_5 
ROOT
HETATM    1  C1  UNL     1     -33.048   2.849   4.700  1.00 20.00     0.021 C 
HETATM    2  C2  UNL     1     -33.747   3.794   4.460  1.00 20.00    -0.039 C 
HETATM    3  C3  UNL     1     -34.589   4.931   4.171  1.00 20.00     0.206 C 
HETATM    4  O8  UNL     1     -35.673   5.041   4.729  1.00 20.00    -0.283 OA
ENDROOT
BRANCH   3   5
HETATM    5  C5  UNL     1     -34.065   5.900   3.203  1.00 20.00     0.073 A 
HETATM    6  C4  UNL     1     -34.901   7.100   2.832  1.00 20.00     0.018 A 
HETATM    7  C6  UNL     1     -33.646   7.284   3.638  1.00 20.00    -0.006 A 
HETATM    8  C7  UNL     1     -33.731   7.728   5.059  1.00 20.00     0.011 C 
ENDBRANCH   3   5
TORSDOF 1
ENDMDL
MODEL 8
REMARK VINA RESULT:      -1.5      1.277      3.411
REMARK  1 active torsions:
REMARK  status: ('A' for Active; 'I' for Inactive)
REMARK    1  A    between atoms: C3_3  and  C5_5 
ROOT
HETATM    1  C1  UNL     1     -35.583   6.200   3.883  1.00 20.00     0.021 C 
HETATM    2  C2  UNL     1     -34.514   6.736   3.781  1.00 20.00    -0.039 C 
HETATM    3  C3  UNL     1     -33.229   7.382   3.660  1.00 20.00     0.206 C 
HETATM    4  O8  UNL     1     -32.955   8.334   4.380  1.00 20.00    -0.283 OA
ENDROOT
BRANCH   3   5
HETATM    5  C5  UNL     1     -32.317   6.832   2.651  1.00 20.00     0.073 A 
HETATM    6  C4  UNL     1     -32.864   6.421   1.306  1.00 20.00     0.018 A 
HETATM    7  C6  UNL     1     -31.963   7.619   1.411  1.00 20.00    -0.006 A 
HETATM    8  C7  UNL     1     -32.506   8.984   1.157  1.00 20.00     0.011 C 
ENDBRANCH   3   5
TORSDOF 1
ENDMDL
MODEL 9
REMARK VINA RESULT:      -1.3      1.470      3.595
REMARK  1 active torsions:
REMARK  status: ('A' for Active; 'I' for Inactive)
REMARK    1  A    between atoms: C3_3  and  C5_5 
ROOT
HETATM    1  C1  UNL     1     -35.079   6.501   3.986  1.00 20.00     0.021 C 
HETATM    2  C2  UNL     1     -34.179   6.616   3.200  1.00 20.00    -0.039 C 
HETATM    3  C3  UNL     1     -33.096   6.752   2.255  1.00 20.00     0.206 C 
HETATM    4  O8  UNL     1     -32.962   5.927   1.361  1.00 20.00    -0.283 OA
ENDROOT
BRANCH   3   5
HETATM    5  C5  UNL     1     -32.211   7.908   2.441  1.00 20.00     0.073 A 
HETATM    6  C4  UNL     1     -30.948   8.011   1.623  1.00 20.00     0.018 A 
HETATM    7  C6  UNL     1     -32.081   8.966   1.373  1.00 20.00    -0.006 A 
HETATM    8  C7  UNL     1     -32.843   8.900   0.093  1.00 20.00     0.011 C 
ENDBRANCH   3   5
TORSDOF 1
ENDMDL
