MODEL 1
REMARK VINA RESULT:      -1.6      0.000      0.000
REMARK  2 active torsions:
REMARK  status: ('A' for Active; 'I' for Inactive)
REMARK    1  A    between atoms: C3_3  and  C7_7 
REMARK    2  A    between atoms: C8_8  and  C10_10 
ROOT
HETATM    1  C1  UNL     1     -31.701   8.285   1.693  1.00 20.00     0.021 C 
HETATM    2  C2  UNL     1     -32.496   7.893   2.502  1.00 20.00    -0.039 C 
HETATM    3  C3  UNL     1     -33.453   7.421   3.476  1.00 20.00     0.205 C 
HETATM    4  O11 UNL     1     -33.537   7.976   4.564  1.00 20.00    -0.283 OA
ENDROOT
BRANCH   3   5
HETATM    5  C7  UNL     1     -34.296   6.252   3.067  1.00 20.00     0.069 C 
HETATM    6  C4  UNL     1     -35.373   5.970   4.116  1.00 20.00     0.013 C 
HETATM    7  C5  UNL     1     -34.845   4.780   4.906  1.00 20.00     0.005 C 
HETATM    8  C8  UNL     1     -34.157   3.942   3.836  1.00 20.00    -0.014 C 
HETATM    9  C6  UNL     1     -33.437   4.984   2.977  1.00 20.00     0.017 C 
BRANCH   8  10
HETATM   10  C10 UNL     1     -33.224   2.889   4.409  1.00 20.00     0.000 C 
HETATM   11  C9  UNL     1     -32.703   3.277   5.757  1.00 20.00     0.005 C 
ENDBRANCH   8  10
ENDBRANCH   3   5
TORSDOF 2
ENDMDL
MODEL 2
REMARK VINA RESULT:      -1.2      2.740      3.996
REMARK  2 active torsions:
REMARK  status: ('A' for Active; 'I' for Inactive)
REMARK    1  A    between atoms: C3_3  and  C7_7 
REMARK    2  A    between atoms: C8_8  and  C10_10 
ROOT
HETATM    1  C1  UNL     1     -33.145  10.747   0.695  1.00 20.00     0.021 C 
HETATM    2  C2  UNL     1     -32.397   9.813   0.595  1.00 20.00    -0.039 C 
HETATM    3  C3  UNL     1     -31.499   8.689   0.476  1.00 20.00     0.205 C 
HETATM    4  O11 UNL     1     -30.869   8.522  -0.561  1.00 20.00    -0.283 OA
ENDROOT
BRANCH   3   5
HETATM    5  C7  UNL     1     -31.403   7.785   1.666  1.00 20.00     0.069 C 
HETATM    6  C4  UNL     1     -31.845   6.365   1.303  1.00 20.00     0.013 C 
HETATM    7  C5  UNL     1     -33.261   6.247   1.850  1.00 20.00     0.005 C 
HETATM    8  C8  UNL     1     -33.189   7.039   3.150  1.00 20.00    -0.014 C 
HETATM    9  C6  UNL     1     -32.350   8.263   2.773  1.00 20.00     0.017 C 
BRANCH   8  10
HETATM   10  C10 UNL     1     -34.556   7.397   3.708  1.00 20.00     0.000 C 
HETATM   11  C9  UNL     1     -35.354   6.181   4.059  1.00 20.00     0.005 C 
ENDBRANCH   8  10
ENDBRANCH   3   5
TORSDOF 2
ENDMDL
MODEL 3
REMARK VINA RESULT:      -0.9      0.850      1.084
REMARK  2 active torsions:
REMARK  status: ('A' for Active; 'I' for Inactive)
REMARK    1  A    between atoms: C3_3  and  C7_7 
REMARK    2  A    between atoms: C8_8  and  C10_10 
ROOT
HETATM    1  C1  UNL     1     -31.927   8.992   0.687  1.00 20.00     0.021 C 
HETATM    2  C2  UNL     1     -32.360   8.404   1.641  1.00 20.00    -0.039 C 
HETATM    3  C3  UNL     1     -32.881   7.696   2.787  1.00 20.00     0.205 C 
HETATM    4  O11 UNL     1     -32.543   8.033   3.914  1.00 20.00    -0.283 OA
ENDROOT
BRANCH   3   5
HETATM    5  C7  UNL     1     -33.823   6.568   2.499  1.00 20.00     0.069 C 
HETATM    6  C4  UNL     1     -35.149   6.772   3.236  1.00 20.00     0.013 C 
HETATM    7  C5  UNL     1     -35.071   5.847   4.443  1.00 20.00     0.005 C 
HETATM    8  C8  UNL     1     -34.337   4.631   3.890  1.00 20.00    -0.014 C 
HETATM    9  C6  UNL     1     -33.242   5.246   3.015  1.00 20.00     0.017 C 
BRANCH   8  10
HETATM   10  C10 UNL     1     -33.795   3.716   4.974  1.00 20.00     0.000 C 
HETATM   11  C9  UNL     1     -33.114   2.513   4.402  1.00 20.00     0.005 C 
ENDBRANCH   8  10
ENDBRANCH   3   5
TORSDOF 2
ENDMDL
MODEL 4
REMARK VINA RESULT:      -0.6      1.654      2.609
REMARK  2 active torsions:
REMARK  status: ('A' for Active; 'I' for Inactive)
REMARK    1  A    between atoms: C3_3  and  C7_7 
REMARK    2  A    between atoms: C8_8  and  C10_10 
ROOT
HETATM    1  C1  UNL     1     -31.851   4.850   1.001  1.00 20.00     0.021 C 
HETATM    2  C2  UNL     1     -32.030   5.974   1.384  1.00 20.00    -0.039 C 
HETATM    3  C3  UNL     1     -32.246   7.326   1.844  1.00 20.00     0.205 C 
HETATM    4  O11 UNL     1     -31.335   8.141   1.785  1.00 20.00    -0.283 OA
ENDROOT
BRANCH   3   5
HETATM    5  C7  UNL     1     -33.612   7.636   2.376  1.00 20.00     0.069 C 
HETATM    6  C4  UNL     1     -33.519   8.275   3.763  1.00 20.00     0.013 C 
HETATM    7  C5  UNL     1     -33.853   7.150   4.733  1.00 20.00     0.005 C 
HETATM    8  C8  UNL     1     -34.932   6.372   3.991  1.00 20.00    -0.014 C 
HETATM    9  C6  UNL     1     -34.421   6.344   2.549  1.00 20.00     0.017 C 
BRANCH   8  10
HETATM   10  C10 UNL     1     -35.176   4.988   4.568  1.00 20.00     0.000 C 
HETATM   11  C9  UNL     1     -34.042   4.055   4.283  1.00 20.00     0.005 C 
ENDBRANCH   8  10
ENDBRANCH   3   5
TORSDOF 2
ENDMDL
MODEL 5
REMARK VINA RESULT:      -0.4      1.534      5.006
REMARK  2 active torsions:
REMARK  status: ('A' for Active; 'I' for Inactive)
REMARK    1  A    between atoms: C3_3  and  C7_7 
REMARK    2  A    between atoms: C8_8  and  C10_10 
ROOT
HETATM    1  C1  UNL     1     -33.517   3.310   4.349  1.00 20.00     0.021 C 
HETATM    2  C2  UNL     1     -33.706   4.382   3.842  1.00 20.00    -0.039 C 
HETATM    3  C3  UNL     1     -33.933   5.671   3.232  1.00 20.00     0.205 C 
HETATM    4  O11 UNL     1     -34.562   6.528   3.839  1.00 20.00    -0.283 OA
ENDROOT
BRANCH   3   5
HETATM    5  C7  UNL     1     -33.364   5.867   1.860  1.00 20.00     0.069 C 
HETATM    6  C4  UNL     1     -31.844   5.688   1.875  1.00 20.00     0.013 C 
HETATM    7  C5  UNL     1     -31.286   7.104   1.856  1.00 20.00     0.005 C 
HETATM    8  C8  UNL     1     -32.261   7.840   0.945  1.00 20.00    -0.014 C 
HETATM    9  C6  UNL     1     -33.626   7.299   1.376  1.00 20.00     0.017 C 
BRANCH   8  10
HETATM   10  C10 UNL     1     -32.154   9.352   1.052  1.00 20.00     0.000 C 
HETATM   11  C9  UNL     1     -32.582  10.034  -0.208  1.00 20.00     0.005 C 
ENDBRANCH   8  10
ENDBRANCH   3   5
TORSDOF 2
ENDMDL
MODEL 6
REMARK VINA RESULT:      -0.2      2.199      4.919
REMARK  2 active torsions:
REMARK  status: ('A' for Active; 'I' for Inactive)
REMARK    1  A    between atoms: C3_3  and  C7_7 
REMARK    2  A    between atoms: C8_8  and  C10_10 
ROOT
HETATM    1  C1  UNL     1     -34.525   7.626   4.406  1.00 20.00     0.021 C 
HETATM    2  C2  UNL     1     -34.159   6.664   3.788  1.00 20.00    -0.039 C 
HETATM    3  C3  UNL     1     -33.718   5.508   3.043  1.00 20.00     0.205 C 
HETATM    4  O11 UNL     1     -33.825   4.392   3.535  1.00 20.00    -0.283 OA
ENDROOT
BRANCH   3   5
HETATM    5  C7  UNL     1     -33.146   5.771   1.684  1.00 20.00     0.069 C 
HETATM    6  C4  UNL     1     -31.616   5.739   1.727  1.00 20.00     0.013 C 
HETATM    7  C5  UNL     1     -31.196   7.202   1.730  1.00 20.00     0.005 C 
HETATM    8  C8  UNL     1     -32.220   7.850   0.807  1.00 20.00    -0.014 C 
HETATM    9  C6  UNL     1     -33.535   7.176   1.207  1.00 20.00     0.017 C 
BRANCH   8  10
HETATM   10  C10 UNL     1     -32.261   9.364   0.928  1.00 20.00     0.000 C 
HETATM   11  C9  UNL     1     -32.664  10.018  -0.356  1.00 20.00     0.005 C 
ENDBRANCH   8  10
ENDBRANCH   3   5
TORSDOF 2
ENDMDL
MODEL 7
REMARK VINA RESULT:      -0.1      1.274      1.753
REMARK  2 active torsions:
REMARK  status: ('A' for Active; 'I' for Inactive)
REMARK    1  A    between atoms: C3_3  and  C7_7 
REMARK    2  A    between atoms: C8_8  and  C10_10 
ROOT
HETATM    1  C1  UNL     1     -33.087   8.492   5.330  1.00 20.00     0.021 C 
HETATM    2  C2  UNL     1     -33.037   8.076   4.205  1.00 20.00    -0.039 C 
HETATM    3  C3  UNL     1     -32.978   7.575   2.851  1.00 20.00     0.205 C 
HETATM    4  O11 UNL     1     -32.253   8.124   2.032  1.00 20.00    -0.283 OA
ENDROOT
BRANCH   3   5
HETATM    5  C7  UNL     1     -33.835   6.386   2.545  1.00 20.00     0.069 C 
HETATM    6  C4  UNL     1     -35.177   6.484   3.274  1.00 20.00     0.013 C 
HETATM    7  C5  UNL     1     -35.039   5.554   4.472  1.00 20.00     0.005 C 
HETATM    8  C8  UNL     1     -34.215   4.401   3.911  1.00 20.00    -0.014 C 
HETATM    9  C6  UNL     1     -33.162   5.103   3.050  1.00 20.00     0.017 C 
BRANCH   8  10
HETATM   10  C10 UNL     1     -33.615   3.515   4.989  1.00 20.00     0.000 C 
HETATM   11  C9  UNL     1     -33.185   2.187   4.448  1.00 20.00     0.005 C 
ENDBRANCH   8  10
ENDBRANCH   3   5
TORSDOF 2
ENDMDL
MODEL 8
REMARK VINA RESULT:      -0.0      2.426      5.448
REMARK  2 active torsions:
REMARK  status: ('A' for Active; 'I' for Inactive)
REMARK    1  A    between atoms: C3_3  and  C7_7 
REMARK    2  A    between atoms: C8_8  and  C10_10 
ROOT
HETATM    1  C1  UNL     1     -34.992   6.370   4.035  1.00 20.00     0.021 C 
HETATM    2  C2  UNL     1     -34.156   6.254   3.180  1.00 20.00    -0.039 C 
HETATM    3  C3  UNL     1     -33.151   6.115   2.153  1.00 20.00     0.205 C 
HETATM    4  O11 UNL     1     -33.259   5.230   1.313  1.00 20.00    -0.283 OA
ENDROOT
BRANCH   3   5
HETATM    5  C7  UNL     1     -32.019   7.094   2.194  1.00 20.00     0.069 C 
HETATM    6  C4  UNL     1     -32.418   8.349   2.974  1.00 20.00     0.013 C 
HETATM    7  C5  UNL     1     -32.729   9.389   1.906  1.00 20.00     0.005 C 
HETATM    8  C8  UNL     1     -31.691   9.090   0.831  1.00 20.00    -0.014 C 
HETATM    9  C6  UNL     1     -31.668   7.561   0.775  1.00 20.00     0.017 C 
BRANCH   8  10
HETATM   10  C10 UNL     1     -32.014   9.734  -0.507  1.00 20.00     0.000 C 
HETATM   11  C9  UNL     1     -33.161  10.690  -0.406  1.00 20.00     0.005 C 
ENDBRANCH   8  10
ENDBRANCH   3   5
TORSDOF 2
ENDMDL
MODEL 9
REMARK VINA RESULT:      -0.0      1.976      3.401
REMARK  2 active torsions:
REMARK  status: ('A' for Active; 'I' for Inactive)
REMARK    1  A    between atoms: C3_3  and  C7_7 
REMARK    2  A    between atoms: C8_8  and  C10_10 
ROOT
HETATM    1  C1  UNL     1     -31.243   9.053  -1.162  1.00 20.00     0.021 C 
HETATM    2  C2  UNL     1     -31.783   9.130  -0.093  1.00 20.00    -0.039 C 
HETATM    3  C3  UNL     1     -32.432   9.222   1.194  1.00 20.00     0.205 C 
HETATM    4  O11 UNL     1     -33.207  10.143   1.419  1.00 20.00    -0.283 OA
ENDROOT
BRANCH   3   5
HETATM    5  C7  UNL     1     -32.098   8.151   2.185  1.00 20.00     0.069 C 
HETATM    6  C4  UNL     1     -32.064   6.779   1.508  1.00 20.00     0.013 C 
HETATM    7  C5  UNL     1     -33.389   6.129   1.879  1.00 20.00     0.005 C 
HETATM    8  C8  UNL     1     -33.609   6.603   3.311  1.00 20.00    -0.014 C 
HETATM    9  C6  UNL     1     -33.182   8.072   3.268  1.00 20.00     0.017 C 
BRANCH   8  10
HETATM   10  C10 UNL     1     -35.037   6.407   3.793  1.00 20.00     0.000 C 
HETATM   11  C9  UNL     1     -35.216   5.098   4.494  1.00 20.00     0.005 C 
ENDBRANCH   8  10
ENDBRANCH   3   5
TORSDOF 2
ENDMDL
