MODEL 1
REMARK VINA RESULT:      -1.0      0.000      0.000
REMARK  2 active torsions:
REMARK  status: ('A' for Active; 'I' for Inactive)
REMARK    1  A    between atoms: C3_3  and  C7_7 
REMARK    2  A    between atoms: C7_7  and  C8_8 
ROOT
HETATM    1  C1  UNL     1     -33.744   3.514   4.329  1.00 20.00     0.021 C 
HETATM    2  C2  UNL     1     -34.051   4.638   4.040  1.00 20.00    -0.040 C 
HETATM    3  C3  UNL     1     -34.422   5.991   3.694  1.00 20.00     0.202 C 
HETATM    4  O9  UNL     1     -35.598   6.326   3.751  1.00 20.00    -0.283 OA
ENDROOT
BRANCH   3   5
HETATM    5  C7  UNL     1     -33.301   6.920   3.277  1.00 20.00     0.101 C 
BRANCH   5   6
HETATM    6  C8  UNL     1     -32.758   6.683   1.849  1.00 20.00    -0.044 C 
HETATM    7  C4  UNL     1     -31.765   5.507   1.818  1.00 20.00     0.015 C 
HETATM    8  C5  UNL     1     -32.016   7.958   1.402  1.00 20.00     0.015 C 
HETATM    9  C6  UNL     1     -33.900   6.410   0.857  1.00 20.00     0.015 C 
ENDBRANCH   5   6
ENDBRANCH   3   5
TORSDOF 2
ENDMDL
MODEL 2
REMARK VINA RESULT:      -1.0      2.010      4.345
REMARK  2 active torsions:
REMARK  status: ('A' for Active; 'I' for Inactive)
REMARK    1  A    between atoms: C3_3  and  C7_7 
REMARK    2  A    between atoms: C7_7  and  C8_8 
ROOT
HETATM    1  C1  UNL     1     -32.585  10.034   0.285  1.00 20.00     0.021 C 
HETATM    2  C2  UNL     1     -32.438   9.035   0.933  1.00 20.00    -0.040 C 
HETATM    3  C3  UNL     1     -32.261   7.831   1.713  1.00 20.00     0.202 C 
HETATM    4  O9  UNL     1     -31.177   7.606   2.234  1.00 20.00    -0.283 OA
ENDROOT
BRANCH   3   5
HETATM    5  C7  UNL     1     -33.461   6.915   1.835  1.00 20.00     0.101 C 
BRANCH   5   6
HETATM    6  C8  UNL     1     -33.958   6.685   3.281  1.00 20.00    -0.044 C 
HETATM    7  C4  UNL     1     -33.353   7.717   4.249  1.00 20.00     0.015 C 
HETATM    8  C5  UNL     1     -33.505   5.280   3.724  1.00 20.00     0.015 C 
HETATM    9  C6  UNL     1     -35.492   6.751   3.360  1.00 20.00     0.015 C 
ENDBRANCH   5   6
ENDBRANCH   3   5
TORSDOF 2
ENDMDL
MODEL 3
REMARK VINA RESULT:      -1.0      2.004      4.346
REMARK  2 active torsions:
REMARK  status: ('A' for Active; 'I' for Inactive)
REMARK    1  A    between atoms: C3_3  and  C7_7 
REMARK    2  A    between atoms: C7_7  and  C8_8 
ROOT
HETATM    1  C1  UNL     1     -32.535  10.018   0.296  1.00 20.00     0.021 C 
HETATM    2  C2  UNL     1     -32.424   8.998   0.919  1.00 20.00    -0.040 C 
HETATM    3  C3  UNL     1     -32.289   7.770   1.669  1.00 20.00     0.202 C 
HETATM    4  O9  UNL     1     -31.198   7.466   2.135  1.00 20.00    -0.283 OA
ENDROOT
BRANCH   3   5
HETATM    5  C7  UNL     1     -33.538   6.930   1.833  1.00 20.00     0.101 C 
BRANCH   5   6
HETATM    6  C8  UNL     1     -33.951   6.658   3.298  1.00 20.00    -0.044 C 
HETATM    7  C4  UNL     1     -33.510   5.255   3.751  1.00 20.00     0.015 C 
HETATM    8  C5  UNL     1     -35.488   6.736   3.384  1.00 20.00     0.015 C 
HETATM    9  C6  UNL     1     -33.355   7.709   4.248  1.00 20.00     0.015 C 
ENDBRANCH   5   6
ENDBRANCH   3   5
TORSDOF 2
ENDMDL
MODEL 4
REMARK VINA RESULT:      -0.8      1.990      4.307
REMARK  2 active torsions:
REMARK  status: ('A' for Active; 'I' for Inactive)
REMARK    1  A    between atoms: C3_3  and  C7_7 
REMARK    2  A    between atoms: C7_7  and  C8_8 
ROOT
HETATM    1  C1  UNL     1     -32.445  10.006   0.413  1.00 20.00     0.021 C 
HETATM    2  C2  UNL     1     -32.410   8.941   0.965  1.00 20.00    -0.040 C 
HETATM    3  C3  UNL     1     -32.367   7.658   1.629  1.00 20.00     0.202 C 
HETATM    4  O9  UNL     1     -31.288   7.196   1.975  1.00 20.00    -0.283 OA
ENDROOT
BRANCH   3   5
HETATM    5  C7  UNL     1     -33.693   6.963   1.857  1.00 20.00     0.101 C 
BRANCH   5   6
HETATM    6  C8  UNL     1     -33.971   6.560   3.323  1.00 20.00    -0.044 C 
HETATM    7  C4  UNL     1     -35.481   6.532   3.618  1.00 20.00     0.015 C 
HETATM    8  C5  UNL     1     -33.317   7.612   4.240  1.00 20.00     0.015 C 
HETATM    9  C6  UNL     1     -33.364   5.185   3.648  1.00 20.00     0.015 C 
ENDBRANCH   5   6
ENDBRANCH   3   5
TORSDOF 2
ENDMDL
MODEL 5
REMARK VINA RESULT:      -0.8      1.714      2.173
REMARK  2 active torsions:
REMARK  status: ('A' for Active; 'I' for Inactive)
REMARK    1  A    between atoms: C3_3  and  C7_7 
REMARK    2  A    between atoms: C7_7  and  C8_8 
ROOT
HETATM    1  C1  UNL     1     -35.357   5.536   4.123  1.00 20.00     0.021 C 
HETATM    2  C2  UNL     1     -34.668   6.517   4.057  1.00 20.00    -0.040 C 
HETATM    3  C3  UNL     1     -33.838   7.697   3.978  1.00 20.00     0.202 C 
HETATM    4  O9  UNL     1     -33.318   8.136   4.996  1.00 20.00    -0.283 OA
ENDROOT
BRANCH   3   5
HETATM    5  C7  UNL     1     -33.665   8.319   2.609  1.00 20.00     0.101 C 
BRANCH   5   6
HETATM    6  C8  UNL     1     -32.318   8.004   1.918  1.00 20.00    -0.044 C 
HETATM    7  C4  UNL     1     -31.129   8.329   2.840  1.00 20.00     0.015 C 
HETATM    8  C5  UNL     1     -32.210   8.885   0.658  1.00 20.00     0.015 C 
HETATM    9  C6  UNL     1     -32.242   6.530   1.491  1.00 20.00     0.015 C 
ENDBRANCH   5   6
ENDBRANCH   3   5
TORSDOF 2
ENDMDL
MODEL 6
REMARK VINA RESULT:      -0.7      1.714      3.989
REMARK  2 active torsions:
REMARK  status: ('A' for Active; 'I' for Inactive)
REMARK    1  A    between atoms: C3_3  and  C7_7 
REMARK    2  A    between atoms: C7_7  and  C8_8 
ROOT
HETATM    1  C1  UNL     1     -31.670   8.825   1.265  1.00 20.00     0.021 C 
HETATM    2  C2  UNL     1     -32.056   7.702   1.437  1.00 20.00    -0.040 C 
HETATM    3  C3  UNL     1     -32.521   6.349   1.643  1.00 20.00     0.202 C 
HETATM    4  O9  UNL     1     -31.732   5.419   1.532  1.00 20.00    -0.283 OA
ENDROOT
BRANCH   3   5
HETATM    5  C7  UNL     1     -33.984   6.176   1.994  1.00 20.00     0.101 C 
BRANCH   5   6
HETATM    6  C8  UNL     1     -34.286   6.123   3.508  1.00 20.00    -0.044 C 
HETATM    7  C4  UNL     1     -35.785   6.335   3.786  1.00 20.00     0.015 C 
HETATM    8  C5  UNL     1     -33.500   7.258   4.193  1.00 20.00     0.015 C 
HETATM    9  C6  UNL     1     -33.841   4.784   4.119  1.00 20.00     0.015 C 
ENDBRANCH   5   6
ENDBRANCH   3   5
TORSDOF 2
ENDMDL
MODEL 7
REMARK VINA RESULT:      -0.6      1.443      2.373
REMARK  2 active torsions:
REMARK  status: ('A' for Active; 'I' for Inactive)
REMARK    1  A    between atoms: C3_3  and  C7_7 
REMARK    2  A    between atoms: C7_7  and  C8_8 
ROOT
HETATM    1  C1  UNL     1     -33.076   2.574   4.868  1.00 20.00     0.021 C 
HETATM    2  C2  UNL     1     -33.658   3.563   4.518  1.00 20.00    -0.040 C 
HETATM    3  C3  UNL     1     -34.361   4.753   4.096  1.00 20.00     0.202 C 
HETATM    4  O9  UNL     1     -35.483   4.976   4.532  1.00 20.00    -0.283 OA
ENDROOT
BRANCH   3   5
HETATM    5  C7  UNL     1     -33.639   5.664   3.125  1.00 20.00     0.101 C 
BRANCH   5   6
HETATM    6  C8  UNL     1     -33.791   7.174   3.416  1.00 20.00    -0.044 C 
HETATM    7  C4  UNL     1     -35.248   7.635   3.234  1.00 20.00     0.015 C 
HETATM    8  C5  UNL     1     -32.909   7.945   2.415  1.00 20.00     0.015 C 
HETATM    9  C6  UNL     1     -33.325   7.517   4.841  1.00 20.00     0.015 C 
ENDBRANCH   5   6
ENDBRANCH   3   5
TORSDOF 2
ENDMDL
MODEL 8
REMARK VINA RESULT:      -0.5      1.407      2.247
REMARK  2 active torsions:
REMARK  status: ('A' for Active; 'I' for Inactive)
REMARK    1  A    between atoms: C3_3  and  C7_7 
REMARK    2  A    between atoms: C7_7  and  C8_8 
ROOT
HETATM    1  C1  UNL     1     -33.067   2.718   4.847  1.00 20.00     0.021 C 
HETATM    2  C2  UNL     1     -33.677   3.686   4.486  1.00 20.00    -0.040 C 
HETATM    3  C3  UNL     1     -34.412   4.852   4.051  1.00 20.00     0.202 C 
HETATM    4  O9  UNL     1     -35.516   5.080   4.529  1.00 20.00    -0.283 OA
ENDROOT
BRANCH   3   5
HETATM    5  C7  UNL     1     -33.746   5.731   3.013  1.00 20.00     0.101 C 
BRANCH   5   6
HETATM    6  C8  UNL     1     -33.680   7.231   3.379  1.00 20.00    -0.044 C 
HETATM    7  C4  UNL     1     -33.204   7.431   4.829  1.00 20.00     0.015 C 
HETATM    8  C5  UNL     1     -35.098   7.819   3.248  1.00 20.00     0.015 C 
HETATM    9  C6  UNL     1     -32.745   7.996   2.428  1.00 20.00     0.015 C 
ENDBRANCH   5   6
ENDBRANCH   3   5
TORSDOF 2
ENDMDL
MODEL 9
REMARK VINA RESULT:      -0.4      1.157      2.482
REMARK  2 active torsions:
REMARK  status: ('A' for Active; 'I' for Inactive)
REMARK    1  A    between atoms: C3_3  and  C7_7 
REMARK    2  A    between atoms: C7_7  and  C8_8 
ROOT
HETATM    1  C1  UNL     1     -33.339   8.373   5.112  1.00 20.00     0.021 C 
HETATM    2  C2  UNL     1     -33.829   7.517   4.428  1.00 20.00    -0.040 C 
HETATM    3  C3  UNL     1     -34.420   6.487   3.604  1.00 20.00     0.202 C 
HETATM    4  O9  UNL     1     -35.636   6.448   3.469  1.00 20.00    -0.283 OA
ENDROOT
BRANCH   3   5
HETATM    5  C7  UNL     1     -33.468   5.508   2.949  1.00 20.00     0.101 C 
BRANCH   5   6
HETATM    6  C8  UNL     1     -32.851   5.995   1.618  1.00 20.00    -0.044 C 
HETATM    7  C4  UNL     1     -33.885   5.967   0.480  1.00 20.00     0.015 C 
HETATM    8  C5  UNL     1     -31.697   5.041   1.250  1.00 20.00     0.015 C 
HETATM    9  C6  UNL     1     -32.283   7.417   1.754  1.00 20.00     0.015 C 
ENDBRANCH   5   6
ENDBRANCH   3   5
TORSDOF 2
ENDMDL
