MODEL 1
REMARK VINA RESULT:      -2.1      0.000      0.000
REMARK  2 active torsions:
REMARK  status: ('A' for Active; 'I' for Inactive)
REMARK    1  A    between atoms: C2_2  and  C3_3 
REMARK    2  A    between atoms: C3_3  and  C8_8 
ROOT
HETATM    1  C4  UNL     1     -32.369   6.700   1.350  1.00 20.00     0.027 C 
HETATM    2  C5  UNL     1     -32.881   5.508   2.153  1.00 20.00     0.017 C 
HETATM    3  C6  UNL     1     -32.117   7.895   2.260  1.00 20.00     0.167 C 
HETATM    4  C7  UNL     1     -33.714   7.163   3.849  1.00 20.00     0.180 C 
HETATM    5  C8  UNL     1     -34.059   5.920   3.032  1.00 20.00     0.083 C 
HETATM    6  O10 UNL     1     -33.293   8.228   2.996  1.00 20.00    -0.390 OA
ENDROOT
BRANCH   5   7
HETATM    7  C3  UNL     1     -34.434   4.791   3.939  1.00 20.00     0.154 C 
HETATM    8  O9  UNL     1     -35.438   4.849   4.645  1.00 20.00    -0.293 OA
BRANCH   7   9
HETATM    9  C2  UNL     1     -33.551   3.594   3.917  1.00 20.00     0.040 C 
HETATM   10  C1  UNL     1     -33.170   3.006   5.054  1.00 20.00     0.015 C 
ENDBRANCH   7   9
ENDBRANCH   5   7
TORSDOF 2
ENDMDL
MODEL 2
REMARK VINA RESULT:      -1.7      1.718      4.758
REMARK  2 active torsions:
REMARK  status: ('A' for Active; 'I' for Inactive)
REMARK    1  A    between atoms: C2_2  and  C3_3 
REMARK    2  A    between atoms: C3_3  and  C8_8 
ROOT
HETATM    1  C4  UNL     1     -34.780   6.498   3.916  1.00 20.00     0.027 C 
HETATM    2  C5  UNL     1     -33.780   7.582   3.521  1.00 20.00     0.017 C 
HETATM    3  C6  UNL     1     -34.164   5.114   3.759  1.00 20.00     0.167 C 
HETATM    4  C7  UNL     1     -32.657   5.852   2.087  1.00 20.00     0.180 C 
HETATM    5  C8  UNL     1     -33.182   7.284   2.148  1.00 20.00     0.083 C 
HETATM    6  O10 UNL     1     -33.686   4.922   2.428  1.00 20.00    -0.390 OA
ENDROOT
BRANCH   5   7
HETATM    7  C3  UNL     1     -32.082   8.254   1.854  1.00 20.00     0.154 C 
HETATM    8  O9  UNL     1     -31.208   8.495   2.684  1.00 20.00    -0.293 OA
BRANCH   7   9
HETATM    9  C2  UNL     1     -32.086   8.881   0.505  1.00 20.00     0.040 C 
HETATM   10  C1  UNL     1     -32.532  10.128   0.334  1.00 20.00     0.015 C 
ENDBRANCH   7   9
ENDBRANCH   5   7
TORSDOF 2
ENDMDL
MODEL 3
REMARK VINA RESULT:      -1.6      1.295      1.888
REMARK  2 active torsions:
REMARK  status: ('A' for Active; 'I' for Inactive)
REMARK    1  A    between atoms: C2_2  and  C3_3 
REMARK    2  A    between atoms: C3_3  and  C8_8 
ROOT
HETATM    1  C4  UNL     1     -32.091   8.411   2.879  1.00 20.00     0.027 C 
HETATM    2  C5  UNL     1     -33.352   7.842   3.523  1.00 20.00     0.017 C 
HETATM    3  C6  UNL     1     -31.954   7.924   1.442  1.00 20.00     0.167 C 
HETATM    4  C7  UNL     1     -33.199   5.955   1.872  1.00 20.00     0.180 C 
HETATM    5  C8  UNL     1     -33.413   6.328   3.337  1.00 20.00     0.083 C 
HETATM    6  O10 UNL     1     -31.970   6.498   1.387  1.00 20.00    -0.390 OA
ENDROOT
BRANCH   5   7
HETATM    7  C3  UNL     1     -34.733   5.811   3.816  1.00 20.00     0.154 C 
HETATM    8  O9  UNL     1     -35.763   6.465   3.668  1.00 20.00    -0.293 OA
BRANCH   7   9
HETATM    9  C2  UNL     1     -34.734   4.465   4.449  1.00 20.00     0.040 C 
HETATM   10  C1  UNL     1     -33.665   3.670   4.364  1.00 20.00     0.015 C 
ENDBRANCH   7   9
ENDBRANCH   5   7
TORSDOF 2
ENDMDL
MODEL 4
REMARK VINA RESULT:      -1.4      1.760      4.555
REMARK  2 active torsions:
REMARK  status: ('A' for Active; 'I' for Inactive)
REMARK    1  A    between atoms: C2_2  and  C3_3 
REMARK    2  A    between atoms: C3_3  and  C8_8 
ROOT
HETATM    1  C4  UNL     1     -34.095   5.303   3.379  1.00 20.00     0.027 C 
HETATM    2  C5  UNL     1     -33.293   6.001   2.285  1.00 20.00     0.017 C 
HETATM    3  C6  UNL     1     -35.100   6.261   4.005  1.00 20.00     0.167 C 
HETATM    4  C7  UNL     1     -33.794   8.162   3.465  1.00 20.00     0.180 C 
HETATM    5  C8  UNL     1     -32.710   7.314   2.803  1.00 20.00     0.083 C 
HETATM    6  O10 UNL     1     -34.446   7.427   4.502  1.00 20.00    -0.390 OA
ENDROOT
BRANCH   5   7
HETATM    7  C3  UNL     1     -32.079   8.068   1.675  1.00 20.00     0.154 C 
HETATM    8  O9  UNL     1     -31.075   7.642   1.109  1.00 20.00    -0.293 OA
BRANCH   7   9
HETATM    9  C2  UNL     1     -32.743   9.333   1.261  1.00 20.00     0.040 C 
HETATM   10  C1  UNL     1     -32.443   9.912   0.096  1.00 20.00     0.015 C 
ENDBRANCH   7   9
ENDBRANCH   5   7
TORSDOF 2
ENDMDL
MODEL 5
REMARK VINA RESULT:      -1.2      1.587      4.300
REMARK  2 active torsions:
REMARK  status: ('A' for Active; 'I' for Inactive)
REMARK    1  A    between atoms: C2_2  and  C3_3 
REMARK    2  A    between atoms: C3_3  and  C8_8 
ROOT
HETATM    1  C4  UNL     1     -35.474   6.275   4.091  1.00 20.00     0.027 C 
HETATM    2  C5  UNL     1     -34.306   6.889   3.325  1.00 20.00     0.017 C 
HETATM    3  C6  UNL     1     -35.035   5.015   4.825  1.00 20.00     0.167 C 
HETATM    4  C7  UNL     1     -33.284   4.595   3.285  1.00 20.00     0.180 C 
HETATM    5  C8  UNL     1     -33.619   5.835   2.460  1.00 20.00     0.083 C 
HETATM    6  O10 UNL     1     -34.455   4.078   3.918  1.00 20.00    -0.390 OA
ENDROOT
BRANCH   5   7
HETATM    7  C3  UNL     1     -32.376   6.408   1.856  1.00 20.00     0.154 C 
HETATM    8  O9  UNL     1     -31.611   5.709   1.194  1.00 20.00    -0.293 OA
BRANCH   7   9
HETATM    9  C2  UNL     1     -32.133   7.859   2.072  1.00 20.00     0.040 C 
HETATM   10  C1  UNL     1     -32.101   8.707   1.041  1.00 20.00     0.015 C 
ENDBRANCH   7   9
ENDBRANCH   5   7
TORSDOF 2
ENDMDL
MODEL 6
REMARK VINA RESULT:      -0.7      1.570      4.142
REMARK  2 active torsions:
REMARK  status: ('A' for Active; 'I' for Inactive)
REMARK    1  A    between atoms: C2_2  and  C3_3 
REMARK    2  A    between atoms: C3_3  and  C8_8 
ROOT
HETATM    1  C4  UNL     1     -34.392   4.594   4.145  1.00 20.00     0.027 C 
HETATM    2  C5  UNL     1     -33.503   4.975   2.966  1.00 20.00     0.017 C 
HETATM    3  C6  UNL     1     -35.498   5.623   4.341  1.00 20.00     0.167 C 
HETATM    4  C7  UNL     1     -34.216   7.353   3.352  1.00 20.00     0.180 C 
HETATM    5  C8  UNL     1     -33.034   6.423   3.094  1.00 20.00     0.083 C 
HETATM    6  O10 UNL     1     -34.949   6.931   4.503  1.00 20.00    -0.390 OA
ENDROOT
BRANCH   5   7
HETATM    7  C3  UNL     1     -32.312   6.833   1.849  1.00 20.00     0.154 C 
HETATM    8  O9  UNL     1     -32.084   6.026   0.951  1.00 20.00    -0.293 OA
BRANCH   7   9
HETATM    9  C2  UNL     1     -31.915   8.263   1.747  1.00 20.00     0.040 C 
HETATM   10  C1  UNL     1     -32.228   8.983   0.666  1.00 20.00     0.015 C 
ENDBRANCH   7   9
ENDBRANCH   5   7
TORSDOF 2
ENDMDL
MODEL 7
REMARK VINA RESULT:      -0.6      1.777      2.174
REMARK  2 active torsions:
REMARK  status: ('A' for Active; 'I' for Inactive)
REMARK    1  A    between atoms: C2_2  and  C3_3 
REMARK    2  A    between atoms: C3_3  and  C8_8 
ROOT
HETATM    1  C4  UNL     1     -32.247   6.010   1.051  1.00 20.00     0.027 C 
HETATM    2  C5  UNL     1     -33.078   5.883   2.324  1.00 20.00     0.017 C 
HETATM    3  C6  UNL     1     -31.263   7.166   1.162  1.00 20.00     0.167 C 
HETATM    4  C7  UNL     1     -32.625   8.323   2.717  1.00 20.00     0.180 C 
HETATM    5  C8  UNL     1     -33.691   7.231   2.700  1.00 20.00     0.083 C 
HETATM    6  O10 UNL     1     -31.944   8.384   1.463  1.00 20.00    -0.390 OA
ENDROOT
BRANCH   5   7
HETATM    7  C3  UNL     1     -34.353   7.130   4.039  1.00 20.00     0.154 C 
HETATM    8  O9  UNL     1     -34.042   7.883   4.959  1.00 20.00    -0.293 OA
BRANCH   7   9
HETATM    9  C2  UNL     1     -35.416   6.100   4.184  1.00 20.00     0.040 C 
HETATM   10  C1  UNL     1     -35.114   4.858   4.572  1.00 20.00     0.015 C 
ENDBRANCH   7   9
ENDBRANCH   5   7
TORSDOF 2
ENDMDL
MODEL 8
REMARK VINA RESULT:      -0.1      1.961      2.649
REMARK  2 active torsions:
REMARK  status: ('A' for Active; 'I' for Inactive)
REMARK    1  A    between atoms: C2_2  and  C3_3 
REMARK    2  A    between atoms: C3_3  and  C8_8 
ROOT
HETATM    1  C4  UNL     1     -31.544   8.161   1.528  1.00 20.00     0.027 C 
HETATM    2  C5  UNL     1     -32.652   8.363   2.556  1.00 20.00     0.017 C 
HETATM    3  C6  UNL     1     -31.876   7.001   0.598  1.00 20.00     0.167 C 
HETATM    4  C7  UNL     1     -33.237   5.942   2.222  1.00 20.00     0.180 C 
HETATM    5  C8  UNL     1     -32.987   7.044   3.250  1.00 20.00     0.083 C 
HETATM    6  O10 UNL     1     -32.119   5.809   1.343  1.00 20.00    -0.390 OA
ENDROOT
BRANCH   5   7
HETATM    7  C3  UNL     1     -34.189   7.221   4.123  1.00 20.00     0.154 C 
HETATM    8  O9  UNL     1     -34.234   8.111   4.969  1.00 20.00    -0.293 OA
BRANCH   7   9
HETATM    9  C2  UNL     1     -35.325   6.288   3.895  1.00 20.00     0.040 C 
HETATM   10  C1  UNL     1     -35.434   5.159   4.600  1.00 20.00     0.015 C 
ENDBRANCH   7   9
ENDBRANCH   5   7
TORSDOF 2
ENDMDL
MODEL 9
REMARK VINA RESULT:       0.0      2.408      3.611
REMARK  2 active torsions:
REMARK  status: ('A' for Active; 'I' for Inactive)
REMARK    1  A    between atoms: C2_2  and  C3_3 
REMARK    2  A    between atoms: C3_3  and  C8_8 
ROOT
HETATM    1  C4  UNL     1     -32.717  10.466   0.997  1.00 20.00     0.027 C 
HETATM    2  C5  UNL     1     -33.376   9.323   1.763  1.00 20.00     0.017 C 
HETATM    3  C6  UNL     1     -32.048   9.950  -0.270  1.00 20.00     0.167 C 
HETATM    4  C7  UNL     1     -31.735   7.786   0.643  1.00 20.00     0.180 C 
HETATM    5  C8  UNL     1     -32.390   8.175   1.966  1.00 20.00     0.083 C 
HETATM    6  O10 UNL     1     -31.111   8.919   0.036  1.00 20.00    -0.390 OA
ENDROOT
BRANCH   5   7
HETATM    7  C3  UNL     1     -33.097   6.998   2.560  1.00 20.00     0.154 C 
HETATM    8  O9  UNL     1     -32.942   5.867   2.105  1.00 20.00    -0.293 OA
BRANCH   7   9
HETATM    9  C2  UNL     1     -33.968   7.265   3.737  1.00 20.00     0.040 C 
HETATM   10  C1  UNL     1     -35.033   6.499   3.985  1.00 20.00     0.015 C 
ENDBRANCH   7   9
ENDBRANCH   5   7
TORSDOF 2
ENDMDL
