MODEL 1
REMARK VINA RESULT:      -1.7      0.000      0.000
REMARK  5 active torsions:
REMARK  status: ('A' for Active; 'I' for Inactive)
REMARK    1  A    between atoms: C3_3  and  C5_5 
REMARK    2  A    between atoms: C5_5  and  C6_6 
REMARK    3  A    between atoms: C6_6  and  N9_9 
REMARK    4  A    between atoms: C7_7  and  C8_8 
REMARK    5  A    between atoms: C7_7  and  N9_9 
ROOT
HETATM    1  C6  UNL     1     -32.144   7.881   2.774  1.00 20.00     0.272 C 
ENDROOT
BRANCH   1   2
HETATM    2  C5  UNL     1     -31.827   8.196   1.317  1.00 20.00     0.034 C 
BRANCH   2   3
HETATM    3  C3  UNL     1     -32.829   9.153   0.690  1.00 20.00    -0.013 A 
HETATM    4  C1  UNL     1     -32.561  10.632   0.682  1.00 20.00     0.005 A 
HETATM    5  C2  UNL     1     -32.504   9.850  -0.601  1.00 20.00     0.005 A 
ENDBRANCH   2   3
ENDBRANCH   1   2
BRANCH   1   6
HETATM    6  N9  UNL     1     -33.484   7.394   2.951  1.00 20.00     0.085 N 
HETATM    7  C4  UNL     1     -34.010   7.741   4.281  1.00 20.00     0.309 C 
BRANCH   6   8
HETATM    8  C7  UNL     1     -33.557   5.937   2.760  1.00 20.00     0.286 C 
BRANCH   8   9
HETATM    9  C8  UNL     1     -34.429   5.255   3.801  1.00 20.00     0.144 C 
HETATM   10 CL10 UNL     1     -33.765   3.667   4.262  1.00 20.00    -0.129 Cl
ENDBRANCH   8   9
ENDBRANCH   6   8
ENDBRANCH   1   6
TORSDOF 5
ENDMDL
MODEL 2
REMARK VINA RESULT:      -1.7      0.955      1.148
REMARK  5 active torsions:
REMARK  status: ('A' for Active; 'I' for Inactive)
REMARK    1  A    between atoms: C3_3  and  C5_5 
REMARK    2  A    between atoms: C5_5  and  C6_6 
REMARK    3  A    between atoms: C6_6  and  N9_9 
REMARK    4  A    between atoms: C7_7  and  C8_8 
REMARK    5  A    between atoms: C7_7  and  N9_9 
ROOT
HETATM    1  C6  UNL     1     -32.364   6.939   1.809  1.00 20.00     0.272 C 
ENDROOT
BRANCH   1   2
HETATM    2  C5  UNL     1     -32.300   8.444   2.037  1.00 20.00     0.034 C 
BRANCH   2   3
HETATM    3  C3  UNL     1     -31.829   9.206   0.807  1.00 20.00    -0.013 A 
HETATM    4  C1  UNL     1     -32.680   9.247  -0.431  1.00 20.00     0.005 A 
HETATM    5  C2  UNL     1     -32.507  10.485   0.403  1.00 20.00     0.005 A 
ENDBRANCH   2   3
ENDBRANCH   1   2
BRANCH   1   6
HETATM    6  N9  UNL     1     -33.525   6.342   2.409  1.00 20.00     0.085 N 
HETATM    7  C4  UNL     1     -33.938   7.071   3.619  1.00 20.00     0.309 C 
BRANCH   6   8
HETATM    8  C7  UNL     1     -33.291   4.929   2.745  1.00 20.00     0.286 C 
BRANCH   8   9
HETATM    9  C8  UNL     1     -34.087   4.477   3.958  1.00 20.00     0.144 C 
HETATM   10 CL10 UNL     1     -33.325   3.073   4.746  1.00 20.00    -0.129 Cl
ENDBRANCH   8   9
ENDBRANCH   6   8
ENDBRANCH   1   6
TORSDOF 5
ENDMDL
MODEL 3
REMARK VINA RESULT:      -1.5      2.738      5.147
REMARK  5 active torsions:
REMARK  status: ('A' for Active; 'I' for Inactive)
REMARK    1  A    between atoms: C3_3  and  C5_5 
REMARK    2  A    between atoms: C5_5  and  C6_6 
REMARK    3  A    between atoms: C6_6  and  N9_9 
REMARK    4  A    between atoms: C7_7  and  C8_8 
REMARK    5  A    between atoms: C7_7  and  N9_9 
ROOT
HETATM    1  C6  UNL     1     -32.804   7.381   3.312  1.00 20.00     0.272 C 
ENDROOT
BRANCH   1   2
HETATM    2  C5  UNL     1     -34.231   7.391   3.846  1.00 20.00     0.034 C 
BRANCH   2   3
HETATM    3  C3  UNL     1     -34.961   6.079   3.602  1.00 20.00    -0.013 A 
HETATM    4  C1  UNL     1     -34.323   4.774   3.988  1.00 20.00     0.005 A 
HETATM    5  C2  UNL     1     -35.506   5.289   4.759  1.00 20.00     0.005 A 
ENDBRANCH   2   3
ENDBRANCH   1   2
BRANCH   1   6
HETATM    6  N9  UNL     1     -32.756   7.330   1.877  1.00 20.00     0.085 N 
HETATM    7  C4  UNL     1     -32.369   5.992   1.401  1.00 20.00     0.309 C 
BRANCH   6   8
HETATM    8  C7  UNL     1     -31.824   8.331   1.334  1.00 20.00     0.286 C 
BRANCH   8   9
HETATM    9  C8  UNL     1     -32.496   9.667   1.063  1.00 20.00     0.144 C 
HETATM   10 CL10 UNL     1     -32.755   9.921  -0.681  1.00 20.00    -0.129 Cl
ENDBRANCH   8   9
ENDBRANCH   6   8
ENDBRANCH   1   6
TORSDOF 5
ENDMDL
MODEL 4
REMARK VINA RESULT:      -1.4      0.858      1.262
REMARK  5 active torsions:
REMARK  status: ('A' for Active; 'I' for Inactive)
REMARK    1  A    between atoms: C3_3  and  C5_5 
REMARK    2  A    between atoms: C5_5  and  C6_6 
REMARK    3  A    between atoms: C6_6  and  N9_9 
REMARK    4  A    between atoms: C7_7  and  C8_8 
REMARK    5  A    between atoms: C7_7  and  N9_9 
ROOT
HETATM    1  C6  UNL     1     -32.748   7.864   2.875  1.00 20.00     0.272 C 
ENDROOT
BRANCH   1   2
HETATM    2  C5  UNL     1     -31.982   8.194   1.600  1.00 20.00     0.034 C 
BRANCH   2   3
HETATM    3  C3  UNL     1     -32.766   9.097   0.660  1.00 20.00    -0.013 A 
HETATM    4  C1  UNL     1     -32.698  10.591   0.810  1.00 20.00     0.005 A 
HETATM    5  C2  UNL     1     -32.048   9.925  -0.370  1.00 20.00     0.005 A 
ENDBRANCH   2   3
ENDBRANCH   1   2
BRANCH   1   6
HETATM    6  N9  UNL     1     -33.194   6.499   2.909  1.00 20.00     0.085 N 
HETATM    7  C4  UNL     1     -32.890   5.804   1.648  1.00 20.00     0.309 C 
BRANCH   6   8
HETATM    8  C7  UNL     1     -34.638   6.412   3.181  1.00 20.00     0.286 C 
BRANCH   8   9
HETATM    9  C8  UNL     1     -34.961   5.460   4.320  1.00 20.00     0.144 C 
HETATM   10 CL10 UNL     1     -33.995   3.967   4.211  1.00 20.00    -0.129 Cl
ENDBRANCH   8   9
ENDBRANCH   6   8
ENDBRANCH   1   6
TORSDOF 5
ENDMDL
MODEL 5
REMARK VINA RESULT:      -1.4      2.697      5.517
REMARK  5 active torsions:
REMARK  status: ('A' for Active; 'I' for Inactive)
REMARK    1  A    between atoms: C3_3  and  C5_5 
REMARK    2  A    between atoms: C5_5  and  C6_6 
REMARK    3  A    between atoms: C6_6  and  N9_9 
REMARK    4  A    between atoms: C7_7  and  C8_8 
REMARK    5  A    between atoms: C7_7  and  N9_9 
ROOT
HETATM    1  C6  UNL     1     -34.853   5.818   3.522  1.00 20.00     0.272 C 
ENDROOT
BRANCH   1   2
HETATM    2  C5  UNL     1     -34.722   4.614   4.446  1.00 20.00     0.034 C 
BRANCH   2   3
HETATM    3  C3  UNL     1     -33.466   3.799   4.176  1.00 20.00    -0.013 A 
HETATM    4  C1  UNL     1     -32.677   3.223   5.318  1.00 20.00     0.005 A 
HETATM    5  C2  UNL     1     -33.460   2.315   4.412  1.00 20.00     0.005 A 
ENDBRANCH   2   3
ENDBRANCH   1   2
BRANCH   1   6
HETATM    6  N9  UNL     1     -33.656   6.612   3.483  1.00 20.00     0.085 N 
HETATM    7  C4  UNL     1     -33.861   7.924   4.118  1.00 20.00     0.309 C 
BRANCH   6   8
HETATM    8  C7  UNL     1     -33.184   6.806   2.102  1.00 20.00     0.286 C 
BRANCH   8   9
HETATM    9  C8  UNL     1     -32.038   7.799   2.011  1.00 20.00     0.144 C 
HETATM   10 CL10 UNL     1     -32.388   9.085   0.830  1.00 20.00    -0.129 Cl
ENDBRANCH   8   9
ENDBRANCH   6   8
ENDBRANCH   1   6
TORSDOF 5
ENDMDL
MODEL 6
REMARK VINA RESULT:      -1.4      0.817      1.484
REMARK  5 active torsions:
REMARK  status: ('A' for Active; 'I' for Inactive)
REMARK    1  A    between atoms: C3_3  and  C5_5 
REMARK    2  A    between atoms: C5_5  and  C6_6 
REMARK    3  A    between atoms: C6_6  and  N9_9 
REMARK    4  A    between atoms: C7_7  and  C8_8 
REMARK    5  A    between atoms: C7_7  and  N9_9 
ROOT
HETATM    1  C6  UNL     1     -32.294   8.138   2.608  1.00 20.00     0.272 C 
ENDROOT
BRANCH   1   2
HETATM    2  C5  UNL     1     -31.907   8.071   1.136  1.00 20.00     0.034 C 
BRANCH   2   3
HETATM    3  C3  UNL     1     -31.778   9.446   0.498  1.00 20.00    -0.013 A 
HETATM    4  C1  UNL     1     -32.705   9.857  -0.612  1.00 20.00     0.005 A 
HETATM    5  C2  UNL     1     -32.826  10.496   0.743  1.00 20.00     0.005 A 
ENDBRANCH   2   3
ENDBRANCH   1   2
BRANCH   1   6
HETATM    6  N9  UNL     1     -32.986   6.958   3.047  1.00 20.00     0.085 N 
HETATM    7  C4  UNL     1     -33.408   6.128   1.907  1.00 20.00     0.309 C 
BRANCH   6   8
HETATM    8  C7  UNL     1     -34.159   7.296   3.868  1.00 20.00     0.286 C 
BRANCH   8   9
HETATM    9  C8  UNL     1     -35.244   6.234   3.801  1.00 20.00     0.144 C 
HETATM   10 CL10 UNL     1     -34.675   4.682   4.465  1.00 20.00    -0.129 Cl
ENDBRANCH   8   9
ENDBRANCH   6   8
ENDBRANCH   1   6
TORSDOF 5
ENDMDL
MODEL 7
REMARK VINA RESULT:      -1.0      1.047      1.677
REMARK  5 active torsions:
REMARK  status: ('A' for Active; 'I' for Inactive)
REMARK    1  A    between atoms: C3_3  and  C5_5 
REMARK    2  A    between atoms: C5_5  and  C6_6 
REMARK    3  A    between atoms: C6_6  and  N9_9 
REMARK    4  A    between atoms: C7_7  and  C8_8 
REMARK    5  A    between atoms: C7_7  and  N9_9 
ROOT
HETATM    1  C6  UNL     1     -33.477   7.534   4.068  1.00 20.00     0.272 C 
ENDROOT
BRANCH   1   2
HETATM    2  C5  UNL     1     -32.371   8.179   3.243  1.00 20.00     0.034 C 
BRANCH   2   3
HETATM    3  C3  UNL     1     -32.617   8.075   1.745  1.00 20.00    -0.013 A 
HETATM    4  C1  UNL     1     -32.342   9.249   0.849  1.00 20.00     0.005 A 
HETATM    5  C2  UNL     1     -31.458   8.035   0.789  1.00 20.00     0.005 A 
ENDBRANCH   2   3
ENDBRANCH   1   2
BRANCH   1   6
HETATM    6  N9  UNL     1     -34.153   6.485   3.356  1.00 20.00     0.085 N 
HETATM    7  C4  UNL     1     -35.516   6.278   3.870  1.00 20.00     0.309 C 
BRANCH   6   8
HETATM    8  C7  UNL     1     -33.406   5.219   3.427  1.00 20.00     0.286 C 
BRANCH   8   9
HETATM    9  C8  UNL     1     -34.151   4.143   4.198  1.00 20.00     0.144 C 
HETATM   10 CL10 UNL     1     -33.032   2.925   4.858  1.00 20.00    -0.129 Cl
ENDBRANCH   8   9
ENDBRANCH   6   8
ENDBRANCH   1   6
TORSDOF 5
ENDMDL
MODEL 8
REMARK VINA RESULT:      -1.0      2.914      4.803
REMARK  5 active torsions:
REMARK  status: ('A' for Active; 'I' for Inactive)
REMARK    1  A    between atoms: C3_3  and  C5_5 
REMARK    2  A    between atoms: C5_5  and  C6_6 
REMARK    3  A    between atoms: C6_6  and  N9_9 
REMARK    4  A    between atoms: C7_7  and  C8_8 
REMARK    5  A    between atoms: C7_7  and  N9_9 
ROOT
HETATM    1  C6  UNL     1     -32.004   6.397   1.778  1.00 20.00     0.272 C 
ENDROOT
BRANCH   1   2
HETATM    2  C5  UNL     1     -33.504   6.225   1.983  1.00 20.00     0.034 C 
BRANCH   2   3
HETATM    3  C3  UNL     1     -33.892   6.147   3.452  1.00 20.00    -0.013 A 
HETATM    4  C1  UNL     1     -34.332   7.383   4.186  1.00 20.00     0.005 A 
HETATM    5  C2  UNL     1     -35.329   6.305   3.864  1.00 20.00     0.005 A 
ENDBRANCH   2   3
ENDBRANCH   1   2
BRANCH   1   6
HETATM    6  N9  UNL     1     -31.641   7.759   1.501  1.00 20.00     0.085 N 
HETATM    7  C4  UNL     1     -31.244   8.469   2.728  1.00 20.00     0.309 C 
BRANCH   6   8
HETATM    8  C7  UNL     1     -32.741   8.487   0.848  1.00 20.00     0.286 C 
BRANCH   8   9
HETATM    9  C8  UNL     1     -32.250   9.647  -0.002  1.00 20.00     0.144 C 
HETATM   10 CL10 UNL     1     -32.638  11.213   0.754  1.00 20.00    -0.129 Cl
ENDBRANCH   8   9
ENDBRANCH   6   8
ENDBRANCH   1   6
TORSDOF 5
ENDMDL
MODEL 9
REMARK VINA RESULT:      -0.9      1.446      1.617
REMARK  5 active torsions:
REMARK  status: ('A' for Active; 'I' for Inactive)
REMARK    1  A    between atoms: C3_3  and  C5_5 
REMARK    2  A    between atoms: C5_5  and  C6_6 
REMARK    3  A    between atoms: C6_6  and  N9_9 
REMARK    4  A    between atoms: C7_7  and  C8_8 
REMARK    5  A    between atoms: C7_7  and  N9_9 
ROOT
HETATM    1  C6  UNL     1     -32.193   8.057   2.904  1.00 20.00     0.272 C 
ENDROOT
BRANCH   1   2
HETATM    2  C5  UNL     1     -31.740   8.423   1.496  1.00 20.00     0.034 C 
BRANCH   2   3
HETATM    3  C3  UNL     1     -32.780   9.230   0.735  1.00 20.00    -0.013 A 
HETATM    4  C1  UNL     1     -32.654  10.725   0.633  1.00 20.00     0.005 A 
HETATM    5  C2  UNL     1     -32.430   9.868  -0.581  1.00 20.00     0.005 A 
ENDBRANCH   2   3
ENDBRANCH   1   2
BRANCH   1   6
HETATM    6  N9  UNL     1     -33.453   7.368   2.913  1.00 20.00     0.085 N 
HETATM    7  C4  UNL     1     -34.194   7.620   4.160  1.00 20.00     0.309 C 
BRANCH   6   8
HETATM    8  C7  UNL     1     -33.275   5.918   2.735  1.00 20.00     0.286 C 
BRANCH   8   9
HETATM    9  C8  UNL     1     -33.134   5.522   1.274  1.00 20.00     0.144 C 
HETATM   10 CL10 UNL     1     -31.508   4.883   0.930  1.00 20.00    -0.129 Cl
ENDBRANCH   8   9
ENDBRANCH   6   8
ENDBRANCH   1   6
TORSDOF 5
ENDMDL
