MODEL 1
REMARK VINA RESULT:      -0.5      0.000      0.000
REMARK  3 active torsions:
REMARK  status: ('A' for Active; 'I' for Inactive)
REMARK    1  A    between atoms: C2_2  and  C8_8 
REMARK    2  A    between atoms: C6_6  and  C8_8 
REMARK    3  A    between atoms: C8_8  and  N9_9 
ROOT
HETATM    1  C8  UNL     1     -33.182   6.794   1.997  1.00 20.00     0.248 C 
ENDROOT
BRANCH   1   2
HETATM    2  C2  UNL     1     -31.992   7.613   1.581  1.00 20.00    -0.002 C 
HETATM    3  C1  UNL     1     -32.072   8.867   1.118  1.00 20.00     0.009 C 
ENDBRANCH   1   2
BRANCH   1   4
HETATM    4  C6  UNL     1     -33.252   6.631   3.515  1.00 20.00     0.048 C 
HETATM    5  C3  UNL     1     -34.407   7.405   4.116  1.00 20.00     0.035 C 
HETATM    6  C4  UNL     1     -35.576   6.455   3.953  1.00 20.00     0.168 C 
HETATM    7  O10 UNL     1     -35.040   5.125   3.941  1.00 20.00    -0.391 OA
HETATM    8  C5  UNL     1     -33.608   5.207   3.912  1.00 20.00     0.174 C 
ENDBRANCH   1   4
BRANCH   1   9
HETATM    9  N9  UNL     1     -33.085   5.511   1.340  1.00 20.00     0.087 N 
HETATM   10  C7  UNL     1     -31.707   5.207   0.965  1.00 20.00     0.307 C 
HETATM   11  H25 UNL     1     -33.425   4.774   1.964  1.00 20.00     0.316 HD
ENDBRANCH   1   9
TORSDOF 3
ENDMDL
MODEL 2
REMARK VINA RESULT:      -0.1      1.959      3.474
REMARK  3 active torsions:
REMARK  status: ('A' for Active; 'I' for Inactive)
REMARK    1  A    between atoms: C2_2  and  C8_8 
REMARK    2  A    between atoms: C6_6  and  C8_8 
REMARK    3  A    between atoms: C8_8  and  N9_9 
ROOT
HETATM    1  C8  UNL     1     -33.736   6.314   3.519  1.00 20.00     0.248 C 
ENDROOT
BRANCH   1   2
HETATM    2  C2  UNL     1     -34.184   7.548   4.253  1.00 20.00    -0.002 C 
HETATM    3  C1  UNL     1     -33.414   8.229   5.109  1.00 20.00     0.009 C 
ENDBRANCH   1   2
BRANCH   1   4
HETATM    4  C6  UNL     1     -33.648   6.554   2.013  1.00 20.00     0.048 C 
HETATM    5  C3  UNL     1     -32.938   7.852   1.686  1.00 20.00     0.035 C 
HETATM    6  C4  UNL     1     -31.476   7.458   1.717  1.00 20.00     0.168 C 
HETATM    7  O10 UNL     1     -31.408   6.064   1.391  1.00 20.00    -0.391 OA
HETATM    8  C5  UNL     1     -32.742   5.540   1.333  1.00 20.00     0.174 C 
ENDBRANCH   1   4
BRANCH   1   9
HETATM    9  N9  UNL     1     -34.673   5.257   3.823  1.00 20.00     0.087 N 
HETATM   10  C7  UNL     1     -33.987   4.046   4.264  1.00 20.00     0.307 C 
HETATM   11  H25 UNL     1     -35.311   5.560   4.564  1.00 20.00     0.316 HD
ENDBRANCH   1   9
TORSDOF 3
ENDMDL
MODEL 3
REMARK VINA RESULT:       0.2      1.787      2.820
REMARK  3 active torsions:
REMARK  status: ('A' for Active; 'I' for Inactive)
REMARK    1  A    between atoms: C2_2  and  C8_8 
REMARK    2  A    between atoms: C6_6  and  C8_8 
REMARK    3  A    between atoms: C8_8  and  N9_9 
ROOT
HETATM    1  C8  UNL     1     -33.265   7.161   3.590  1.00 20.00     0.248 C 
ENDROOT
BRANCH   1   2
HETATM    2  C2  UNL     1     -32.639   8.095   2.592  1.00 20.00    -0.002 C 
HETATM    3  C1  UNL     1     -31.869   7.694   1.573  1.00 20.00     0.009 C 
ENDBRANCH   1   2
BRANCH   1   4
HETATM    4  C6  UNL     1     -34.248   6.200   2.924  1.00 20.00     0.048 C 
HETATM    5  C3  UNL     1     -33.701   4.790   2.847  1.00 20.00     0.035 C 
HETATM    6  C4  UNL     1     -34.048   4.215   4.205  1.00 20.00     0.168 C 
HETATM    7  O10 UNL     1     -35.210   4.912   4.673  1.00 20.00    -0.391 OA
HETATM    8  C5  UNL     1     -35.493   5.991   3.771  1.00 20.00     0.174 C 
ENDBRANCH   1   4
BRANCH   1   9
HETATM    9  N9  UNL     1     -33.923   7.965   4.594  1.00 20.00     0.087 N 
HETATM   10  C7  UNL     1     -32.969   8.488   5.569  1.00 20.00     0.307 C 
HETATM   11  H25 UNL     1     -34.402   8.753   4.148  1.00 20.00     0.316 HD
ENDBRANCH   1   9
TORSDOF 3
ENDMDL
MODEL 4
REMARK VINA RESULT:       0.2      2.588      4.469
REMARK  3 active torsions:
REMARK  status: ('A' for Active; 'I' for Inactive)
REMARK    1  A    between atoms: C2_2  and  C8_8 
REMARK    2  A    between atoms: C6_6  and  C8_8 
REMARK    3  A    between atoms: C8_8  and  N9_9 
ROOT
HETATM    1  C8  UNL     1     -32.712   7.796   1.963  1.00 20.00     0.248 C 
ENDROOT
BRANCH   1   2
HETATM    2  C2  UNL     1     -32.076   6.482   1.599  1.00 20.00    -0.002 C 
HETATM    3  C1  UNL     1     -32.758   5.418   1.159  1.00 20.00     0.009 C 
ENDBRANCH   1   2
BRANCH   1   4
HETATM    4  C6  UNL     1     -31.854   8.980   1.520  1.00 20.00     0.048 C 
HETATM    5  C3  UNL     1     -31.311   8.794   0.118  1.00 20.00     0.035 C 
HETATM    6  C4  UNL     1     -32.449   9.281  -0.756  1.00 20.00     0.168 C 
HETATM    7  O10 UNL     1     -33.188  10.241   0.011  1.00 20.00    -0.391 OA
HETATM    8  C5  UNL     1     -32.682  10.244   1.354  1.00 20.00     0.174 C 
ENDBRANCH   1   4
BRANCH   1   9
HETATM    9  N9  UNL     1     -32.912   7.806   3.394  1.00 20.00     0.087 N 
HETATM   10  C7  UNL     1     -34.239   7.311   3.750  1.00 20.00     0.307 C 
HETATM   11  H25 UNL     1     -32.210   7.215   3.847  1.00 20.00     0.316 HD
ENDBRANCH   1   9
TORSDOF 3
ENDMDL
MODEL 5
REMARK VINA RESULT:       0.6      1.780      3.187
REMARK  3 active torsions:
REMARK  status: ('A' for Active; 'I' for Inactive)
REMARK    1  A    between atoms: C2_2  and  C8_8 
REMARK    2  A    between atoms: C6_6  and  C8_8 
REMARK    3  A    between atoms: C8_8  and  N9_9 
ROOT
HETATM    1  C8  UNL     1     -33.222   5.782   2.819  1.00 20.00     0.248 C 
ENDROOT
BRANCH   1   2
HETATM    2  C2  UNL     1     -34.159   4.906   3.605  1.00 20.00    -0.002 C 
HETATM    3  C1  UNL     1     -33.789   3.774   4.215  1.00 20.00     0.009 C 
ENDBRANCH   1   2
BRANCH   1   4
HETATM    4  C6  UNL     1     -33.703   7.232   2.784  1.00 20.00     0.048 C 
HETATM    5  C3  UNL     1     -34.167   7.710   4.144  1.00 20.00     0.035 C 
HETATM    6  C4  UNL     1     -32.878   8.146   4.810  1.00 20.00     0.168 C 
HETATM    7  O10 UNL     1     -31.974   8.531   3.767  1.00 20.00    -0.391 OA
HETATM    8  C5  UNL     1     -32.562   8.197   2.502  1.00 20.00     0.174 C 
ENDBRANCH   1   4
BRANCH   1   9
HETATM    9  N9  UNL     1     -33.121   5.235   1.487  1.00 20.00     0.087 N 
HETATM   10  C7  UNL     1     -31.728   5.085   1.075  1.00 20.00     0.307 C 
HETATM   11  H25 UNL     1     -33.573   4.317   1.453  1.00 20.00     0.316 HD
ENDBRANCH   1   9
TORSDOF 3
ENDMDL
MODEL 6
REMARK VINA RESULT:       0.7      1.480      2.466
REMARK  3 active torsions:
REMARK  status: ('A' for Active; 'I' for Inactive)
REMARK    1  A    between atoms: C2_2  and  C8_8 
REMARK    2  A    between atoms: C6_6  and  C8_8 
REMARK    3  A    between atoms: C8_8  and  N9_9 
ROOT
HETATM    1  C8  UNL     1     -32.564   6.988   2.380  1.00 20.00     0.248 C 
ENDROOT
BRANCH   1   2
HETATM    2  C2  UNL     1     -32.852   5.895   1.388  1.00 20.00    -0.002 C 
HETATM    3  C1  UNL     1     -31.951   4.987   0.993  1.00 20.00     0.009 C 
ENDBRANCH   1   2
BRANCH   1   4
HETATM    4  C6  UNL     1     -33.838   7.722   2.795  1.00 20.00     0.048 C 
HETATM    5  C3  UNL     1     -35.043   6.806   2.808  1.00 20.00     0.035 C 
HETATM    6  C4  UNL     1     -34.963   6.156   4.175  1.00 20.00     0.168 C 
HETATM    7  O10 UNL     1     -34.279   7.073   5.038  1.00 20.00    -0.391 OA
HETATM    8  C5  UNL     1     -33.784   8.165   4.249  1.00 20.00     0.174 C 
ENDBRANCH   1   4
BRANCH   1   9
HETATM    9  N9  UNL     1     -31.616   7.894   1.774  1.00 20.00     0.087 N 
HETATM   10  C7  UNL     1     -32.285   8.893   0.946  1.00 20.00     0.307 C 
HETATM   11  H25 UNL     1     -31.081   8.376   2.502  1.00 20.00     0.316 HD
ENDBRANCH   1   9
TORSDOF 3
ENDMDL
MODEL 7
REMARK VINA RESULT:       1.3      2.063      3.510
REMARK  3 active torsions:
REMARK  status: ('A' for Active; 'I' for Inactive)
REMARK    1  A    between atoms: C2_2  and  C8_8 
REMARK    2  A    between atoms: C6_6  and  C8_8 
REMARK    3  A    between atoms: C8_8  and  N9_9 
ROOT
HETATM    1  C8  UNL     1     -33.156   6.256   2.741  1.00 20.00     0.248 C 
ENDROOT
BRANCH   1   2
HETATM    2  C2  UNL     1     -34.353   5.661   3.430  1.00 20.00    -0.002 C 
HETATM    3  C1  UNL     1     -35.296   6.382   4.048  1.00 20.00     0.009 C 
ENDBRANCH   1   2
BRANCH   1   4
HETATM    4  C6  UNL     1     -33.231   7.781   2.697  1.00 20.00     0.048 C 
HETATM    5  C3  UNL     1     -32.103   8.428   3.472  1.00 20.00     0.035 C 
HETATM    6  C4  UNL     1     -30.967   8.447   2.469  1.00 20.00     0.168 C 
HETATM    7  O10 UNL     1     -31.558   8.486   1.164  1.00 20.00    -0.391 OA
HETATM    8  C5  UNL     1     -32.977   8.317   1.297  1.00 20.00     0.174 C 
ENDBRANCH   1   4
BRANCH   1   9
HETATM    9  N9  UNL     1     -33.093   5.699   1.409  1.00 20.00     0.087 N 
HETATM   10  C7  UNL     1     -31.860   4.943   1.204  1.00 20.00     0.307 C 
HETATM   11  H25 UNL     1     -33.890   5.075   1.256  1.00 20.00     0.316 HD
ENDBRANCH   1   9
TORSDOF 3
ENDMDL
MODEL 8
REMARK VINA RESULT:       1.3      2.236      4.076
REMARK  3 active torsions:
REMARK  status: ('A' for Active; 'I' for Inactive)
REMARK    1  A    between atoms: C2_2  and  C8_8 
REMARK    2  A    between atoms: C6_6  and  C8_8 
REMARK    3  A    between atoms: C8_8  and  N9_9 
ROOT
HETATM    1  C8  UNL     1     -34.298   6.744   3.246  1.00 20.00     0.248 C 
ENDROOT
BRANCH   1   2
HETATM    2  C2  UNL     1     -34.818   5.627   4.108  1.00 20.00    -0.002 C 
HETATM    3  C1  UNL     1     -34.258   4.414   4.179  1.00 20.00     0.009 C 
ENDBRANCH   1   2
BRANCH   1   4
HETATM    4  C6  UNL     1     -32.852   6.499   2.817  1.00 20.00     0.048 C 
HETATM    5  C3  UNL     1     -32.768   5.833   1.459  1.00 20.00     0.035 C 
HETATM    6  C4  UNL     1     -32.862   7.002   0.500  1.00 20.00     0.168 C 
HETATM    7  O10 UNL     1     -32.352   8.152   1.186  1.00 20.00    -0.391 OA
HETATM    8  C5  UNL     1     -32.113   7.801   2.557  1.00 20.00     0.174 C 
ENDBRANCH   1   4
BRANCH   1   9
HETATM    9  N9  UNL     1     -34.416   7.972   3.998  1.00 20.00     0.087 N 
HETATM   10  C7  UNL     1     -33.575   7.950   5.192  1.00 20.00     0.307 C 
HETATM   11  H25 UNL     1     -34.136   8.765   3.414  1.00 20.00     0.316 HD
ENDBRANCH   1   9
TORSDOF 3
ENDMDL
MODEL 9
REMARK VINA RESULT:       1.5      2.118      3.857
REMARK  3 active torsions:
REMARK  status: ('A' for Active; 'I' for Inactive)
REMARK    1  A    between atoms: C2_2  and  C8_8 
REMARK    2  A    between atoms: C6_6  and  C8_8 
REMARK    3  A    between atoms: C8_8  and  N9_9 
ROOT
HETATM    1  C8  UNL     1     -32.936   7.111   2.843  1.00 20.00     0.248 C 
ENDROOT
BRANCH   1   2
HETATM    2  C2  UNL     1     -34.211   7.309   3.615  1.00 20.00    -0.002 C 
HETATM    3  C1  UNL     1     -35.049   6.318   3.943  1.00 20.00     0.009 C 
ENDBRANCH   1   2
BRANCH   1   4
HETATM    4  C6  UNL     1     -32.170   8.422   2.674  1.00 20.00     0.048 C 
HETATM    5  C3  UNL     1     -30.924   8.247   1.830  1.00 20.00     0.035 C 
HETATM    6  C4  UNL     1     -31.453   8.365   0.415  1.00 20.00     0.168 C 
HETATM    7  O10 UNL     1     -32.628   9.183   0.471  1.00 20.00    -0.391 OA
HETATM    8  C5  UNL     1     -32.952   9.429   1.847  1.00 20.00     0.174 C 
ENDBRANCH   1   4
BRANCH   1   9
HETATM    9  N9  UNL     1     -33.282   6.542   1.561  1.00 20.00     0.087 N 
HETATM   10  C7  UNL     1     -32.663   5.233   1.374  1.00 20.00     0.307 C 
HETATM   11  H25 UNL     1     -34.298   6.438   1.490  1.00 20.00     0.316 HD
ENDBRANCH   1   9
TORSDOF 3
ENDMDL
