MODEL 1
REMARK VINA RESULT:       0.3      0.000      0.000
REMARK  3 active torsions:
REMARK  status: ('A' for Active; 'I' for Inactive)
REMARK    1  A    between atoms: C6_6  and  C10_10 
REMARK    2  A    between atoms: C7_7  and  C11_11 
REMARK    3  A    between atoms: C11_11  and  N12_12 
ROOT
HETATM    1  C1  UNL     1     -32.324   9.770   0.802  1.00 20.00     0.014 C 
HETATM    2  C2  UNL     1     -32.595   8.678   1.218  1.00 20.00    -0.081 C 
HETATM    3  C11 UNL     1     -32.928   7.338   1.723  1.00 20.00     0.301 C 
ENDROOT
BRANCH   3   4
HETATM    4  C7  UNL     1     -33.060   7.338   3.245  1.00 20.00     0.031 C 
HETATM    5  C4  UNL     1     -34.466   7.721   3.701  1.00 20.00     0.008 C 
HETATM    6  C3  UNL     1     -35.269   6.418   3.730  1.00 20.00     0.005 C 
HETATM    7  C6  UNL     1     -34.247   5.276   3.660  1.00 20.00    -0.014 C 
HETATM    8  C5  UNL     1     -32.884   5.945   3.850  1.00 20.00     0.012 C 
BRANCH   7   9
HETATM    9  C10 UNL     1     -34.509   4.175   4.678  1.00 20.00     0.000 C 
HETATM   10  C8  UNL     1     -33.439   3.130   4.657  1.00 20.00     0.005 C 
ENDBRANCH   7   9
ENDBRANCH   3   4
BRANCH   3  11
HETATM   11  N12 UNL     1     -31.926   6.391   1.299  1.00 20.00     0.095 N 
HETATM   12  C9  UNL     1     -32.524   5.251   0.609  1.00 20.00     0.308 C 
HETATM   13  H31 UNL     1     -31.407   6.045   2.112  1.00 20.00     0.317 HD
ENDBRANCH   3  11
TORSDOF 3
ENDMDL
MODEL 2
REMARK VINA RESULT:       0.5      1.395      5.023
REMARK  3 active torsions:
REMARK  status: ('A' for Active; 'I' for Inactive)
REMARK    1  A    between atoms: C6_6  and  C10_10 
REMARK    2  A    between atoms: C7_7  and  C11_11 
REMARK    3  A    between atoms: C11_11  and  N12_12 
ROOT
HETATM    1  C1  UNL     1     -33.673   3.474   4.348  1.00 20.00     0.014 C 
HETATM    2  C2  UNL     1     -33.684   4.502   3.730  1.00 20.00    -0.081 C 
HETATM    3  C11 UNL     1     -33.701   5.762   2.972  1.00 20.00     0.301 C 
ENDROOT
BRANCH   3   4
HETATM    4  C7  UNL     1     -32.290   6.181   2.564  1.00 20.00     0.031 C 
HETATM    5  C4  UNL     1     -31.992   5.851   1.103  1.00 20.00     0.008 C 
HETATM    6  C3  UNL     1     -32.478   7.054   0.292  1.00 20.00     0.005 C 
HETATM    7  C6  UNL     1     -32.697   8.195   1.294  1.00 20.00    -0.014 C 
HETATM    8  C5  UNL     1     -32.091   7.696   2.608  1.00 20.00     0.012 C 
BRANCH   7   9
HETATM    9  C10 UNL     1     -32.101   9.517   0.835  1.00 20.00     0.000 C 
HETATM   10  C8  UNL     1     -32.778  10.039  -0.392  1.00 20.00     0.005 C 
ENDBRANCH   7   9
ENDBRANCH   3   4
BRANCH   3  11
HETATM   11  N12 UNL     1     -34.333   6.796   3.756  1.00 20.00     0.095 N 
HETATM   12  C9  UNL     1     -35.697   6.428   4.128  1.00 20.00     0.308 C 
HETATM   13  H31 UNL     1     -34.365   7.669   3.220  1.00 20.00     0.317 HD
ENDBRANCH   3  11
TORSDOF 3
ENDMDL
MODEL 3
REMARK VINA RESULT:       0.6      1.351      2.468
REMARK  3 active torsions:
REMARK  status: ('A' for Active; 'I' for Inactive)
REMARK    1  A    between atoms: C6_6  and  C10_10 
REMARK    2  A    between atoms: C7_7  and  C11_11 
REMARK    3  A    between atoms: C11_11  and  N12_12 
ROOT
HETATM    1  C1  UNL     1     -32.315   9.751   0.293  1.00 20.00     0.014 C 
HETATM    2  C2  UNL     1     -32.346   8.843   1.077  1.00 20.00    -0.081 C 
HETATM    3  C11 UNL     1     -32.381   7.732   2.040  1.00 20.00     0.301 C 
ENDROOT
BRANCH   3   4
HETATM    4  C7  UNL     1     -33.322   6.624   1.572  1.00 20.00     0.031 C 
HETATM    5  C4  UNL     1     -32.563   5.389   1.089  1.00 20.00     0.008 C 
HETATM    6  C3  UNL     1     -32.326   4.528   2.332  1.00 20.00     0.005 C 
HETATM    7  C6  UNL     1     -33.256   5.074   3.423  1.00 20.00    -0.014 C 
HETATM    8  C5  UNL     1     -34.179   6.062   2.706  1.00 20.00     0.012 C 
BRANCH   7   9
HETATM    9  C10 UNL     1     -34.020   3.984   4.160  1.00 20.00     0.000 C 
HETATM   10  C8  UNL     1     -33.107   2.931   4.701  1.00 20.00     0.005 C 
ENDBRANCH   7   9
ENDBRANCH   3   4
BRANCH   3  11
HETATM   11  N12 UNL     1     -32.777   8.221   3.338  1.00 20.00     0.095 N 
HETATM   12  C9  UNL     1     -31.681   8.923   4.002  1.00 20.00     0.308 C 
HETATM   13  H31 UNL     1     -33.070   7.439   3.931  1.00 20.00     0.317 HD
ENDBRANCH   3  11
TORSDOF 3
ENDMDL
MODEL 4
REMARK VINA RESULT:       0.9      1.871      5.006
REMARK  3 active torsions:
REMARK  status: ('A' for Active; 'I' for Inactive)
REMARK    1  A    between atoms: C6_6  and  C10_10 
REMARK    2  A    between atoms: C7_7  and  C11_11 
REMARK    3  A    between atoms: C11_11  and  N12_12 
ROOT
HETATM    1  C1  UNL     1     -31.968   4.715   0.764  1.00 20.00     0.014 C 
HETATM    2  C2  UNL     1     -32.584   5.529   1.395  1.00 20.00    -0.081 C 
HETATM    3  C11 UNL     1     -33.344   6.524   2.167  1.00 20.00     0.301 C 
ENDROOT
BRANCH   3   4
HETATM    4  C7  UNL     1     -32.489   7.749   2.483  1.00 20.00     0.031 C 
HETATM    5  C4  UNL     1     -31.132   7.700   1.782  1.00 20.00     0.008 C 
HETATM    6  C3  UNL     1     -31.348   8.329   0.404  1.00 20.00     0.005 C 
HETATM    7  C6  UNL     1     -32.697   9.059   0.465  1.00 20.00    -0.014 C 
HETATM    8  C5  UNL     1     -33.094   9.044   1.943  1.00 20.00     0.012 C 
BRANCH   7   9
HETATM    9  C10 UNL     1     -32.644  10.464  -0.116  1.00 20.00     0.000 C 
HETATM   10  C8  UNL     1     -32.400  11.496   0.938  1.00 20.00     0.005 C 
ENDBRANCH   7   9
ENDBRANCH   3   4
BRANCH   3  11
HETATM   11  N12 UNL     1     -33.843   5.925   3.381  1.00 20.00     0.095 N 
HETATM   12  C9  UNL     1     -35.047   6.602   3.856  1.00 20.00     0.308 C 
HETATM   13  H31 UNL     1     -33.130   5.975   4.114  1.00 20.00     0.317 HD
ENDBRANCH   3  11
TORSDOF 3
ENDMDL
MODEL 5
REMARK VINA RESULT:       1.2      1.154      4.542
REMARK  3 active torsions:
REMARK  status: ('A' for Active; 'I' for Inactive)
REMARK    1  A    between atoms: C6_6  and  C10_10 
REMARK    2  A    between atoms: C7_7  and  C11_11 
REMARK    3  A    between atoms: C11_11  and  N12_12 
ROOT
HETATM    1  C1  UNL     1     -33.910   3.682   4.321  1.00 20.00     0.014 C 
HETATM    2  C2  UNL     1     -33.454   4.480   3.549  1.00 20.00    -0.081 C 
HETATM    3  C11 UNL     1     -32.891   5.454   2.602  1.00 20.00     0.301 C 
ENDROOT
BRANCH   3   4
HETATM    4  C7  UNL     1     -33.682   6.760   2.618  1.00 20.00     0.031 C 
HETATM    5  C4  UNL     1     -33.251   7.680   3.759  1.00 20.00     0.008 C 
HETATM    6  C3  UNL     1     -32.085   8.508   3.215  1.00 20.00     0.005 C 
HETATM    7  C6  UNL     1     -32.100   8.333   1.691  1.00 20.00    -0.014 C 
HETATM    8  C5  UNL     1     -33.420   7.621   1.382  1.00 20.00     0.012 C 
BRANCH   7   9
HETATM    9  C10 UNL     1     -31.949   9.645   0.936  1.00 20.00     0.000 C 
HETATM   10  C8  UNL     1     -32.650   9.614  -0.385  1.00 20.00     0.005 C 
ENDBRANCH   7   9
ENDBRANCH   3   4
BRANCH   3  11
HETATM   11  N12 UNL     1     -32.867   4.889   1.274  1.00 20.00     0.095 N 
HETATM   12  C9  UNL     1     -31.499   4.679   0.807  1.00 20.00     0.308 C 
HETATM   13  H31 UNL     1     -33.342   5.518   0.620  1.00 20.00     0.317 HD
ENDBRANCH   3  11
TORSDOF 3
ENDMDL
MODEL 6
REMARK VINA RESULT:       1.3      1.288      4.646
REMARK  3 active torsions:
REMARK  status: ('A' for Active; 'I' for Inactive)
REMARK    1  A    between atoms: C6_6  and  C10_10 
REMARK    2  A    between atoms: C7_7  and  C11_11 
REMARK    3  A    between atoms: C11_11  and  N12_12 
ROOT
HETATM    1  C1  UNL     1     -35.326   5.112   4.471  1.00 20.00     0.014 C 
HETATM    2  C2  UNL     1     -34.435   5.599   3.831  1.00 20.00    -0.081 C 
HETATM    3  C11 UNL     1     -33.342   6.191   3.047  1.00 20.00     0.301 C 
ENDROOT
BRANCH   3   4
HETATM    4  C7  UNL     1     -33.431   7.716   3.037  1.00 20.00     0.031 C 
HETATM    5  C4  UNL     1     -32.233   8.367   3.726  1.00 20.00     0.008 C 
HETATM    6  C3  UNL     1     -31.159   8.521   2.647  1.00 20.00     0.005 C 
HETATM    7  C6  UNL     1     -31.864   8.314   1.299  1.00 20.00    -0.014 C 
HETATM    8  C5  UNL     1     -33.359   8.300   1.626  1.00 20.00     0.012 C 
BRANCH   7   9
HETATM    9  C10 UNL     1     -31.498   9.367   0.264  1.00 20.00     0.000 C 
HETATM   10  C8  UNL     1     -32.679  10.192  -0.136  1.00 20.00     0.005 C 
ENDBRANCH   7   9
ENDBRANCH   3   4
BRANCH   3  11
HETATM   11  N12 UNL     1     -33.367   5.672   1.701  1.00 20.00     0.095 N 
HETATM   12  C9  UNL     1     -32.129   4.968   1.376  1.00 20.00     0.308 C 
HETATM   13  H31 UNL     1     -33.491   6.439   1.033  1.00 20.00     0.317 HD
ENDBRANCH   3  11
TORSDOF 3
ENDMDL
MODEL 7
REMARK VINA RESULT:       1.4      1.253      2.568
REMARK  3 active torsions:
REMARK  status: ('A' for Active; 'I' for Inactive)
REMARK    1  A    between atoms: C6_6  and  C10_10 
REMARK    2  A    between atoms: C7_7  and  C11_11 
REMARK    3  A    between atoms: C11_11  and  N12_12 
ROOT
HETATM    1  C1  UNL     1     -33.172   8.105   5.318  1.00 20.00     0.014 C 
HETATM    2  C2  UNL     1     -33.179   8.032   4.120  1.00 20.00    -0.081 C 
HETATM    3  C11 UNL     1     -33.185   7.947   2.652  1.00 20.00     0.301 C 
ENDROOT
BRANCH   3   4
HETATM    4  C7  UNL     1     -34.036   6.774   2.170  1.00 20.00     0.031 C 
HETATM    5  C4  UNL     1     -33.204   5.723   1.437  1.00 20.00     0.008 C 
HETATM    6  C3  UNL     1     -32.681   4.772   2.516  1.00 20.00     0.005 C 
HETATM    7  C6  UNL     1     -33.504   5.054   3.780  1.00 20.00    -0.014 C 
HETATM    8  C5  UNL     1     -34.640   5.972   3.323  1.00 20.00     0.012 C 
BRANCH   7   9
HETATM    9  C10 UNL     1     -34.007   3.790   4.461  1.00 20.00     0.000 C 
HETATM   10  C8  UNL     1     -32.885   2.875   4.840  1.00 20.00     0.005 C 
ENDBRANCH   7   9
ENDBRANCH   3   4
BRANCH   3  11
HETATM   11  N12 UNL     1     -31.833   7.829   2.163  1.00 20.00     0.095 N 
HETATM   12  C9  UNL     1     -31.594   8.722   1.031  1.00 20.00     0.308 C 
HETATM   13  H31 UNL     1     -31.653   6.866   1.863  1.00 20.00     0.317 HD
ENDBRANCH   3  11
TORSDOF 3
ENDMDL
MODEL 8
REMARK VINA RESULT:       1.5      1.563      4.766
REMARK  3 active torsions:
REMARK  status: ('A' for Active; 'I' for Inactive)
REMARK    1  A    between atoms: C6_6  and  C10_10 
REMARK    2  A    between atoms: C7_7  and  C11_11 
REMARK    3  A    between atoms: C11_11  and  N12_12 
ROOT
HETATM    1  C1  UNL     1     -35.461   6.222   4.049  1.00 20.00     0.014 C 
HETATM    2  C2  UNL     1     -34.391   6.381   3.529  1.00 20.00    -0.081 C 
HETATM    3  C11 UNL     1     -33.079   6.570   2.893  1.00 20.00     0.301 C 
ENDROOT
BRANCH   3   4
HETATM    4  C7  UNL     1     -32.629   8.027   2.978  1.00 20.00     0.031 C 
HETATM    5  C4  UNL     1     -31.146   8.191   2.650  1.00 20.00     0.008 C 
HETATM    6  C3  UNL     1     -31.067   8.358   1.131  1.00 20.00     0.005 C 
HETATM    7  C6  UNL     1     -32.493   8.662   0.652  1.00 20.00    -0.014 C 
HETATM    8  C5  UNL     1     -33.300   8.912   1.928  1.00 20.00     0.012 C 
BRANCH   7   9
HETATM    9  C10 UNL     1     -32.561   9.826  -0.325  1.00 20.00     0.000 C 
HETATM   10  C8  UNL     1     -32.552  11.146   0.377  1.00 20.00     0.005 C 
ENDBRANCH   7   9
ENDBRANCH   3   4
BRANCH   3  11
HETATM   11  N12 UNL     1     -33.134   6.134   1.519  1.00 20.00     0.095 N 
HETATM   12  C9  UNL     1     -32.269   4.979   1.290  1.00 20.00     0.308 C 
HETATM   13  H31 UNL     1     -32.835   6.894   0.900  1.00 20.00     0.317 HD
ENDBRANCH   3  11
TORSDOF 3
ENDMDL
MODEL 9
REMARK VINA RESULT:       1.5      0.995      2.084
REMARK  3 active torsions:
REMARK  status: ('A' for Active; 'I' for Inactive)
REMARK    1  A    between atoms: C6_6  and  C10_10 
REMARK    2  A    between atoms: C7_7  and  C11_11 
REMARK    3  A    between atoms: C11_11  and  N12_12 
ROOT
HETATM    1  C1  UNL     1     -32.327   5.452   0.945  1.00 20.00     0.014 C 
HETATM    2  C2  UNL     1     -32.312   6.526   1.481  1.00 20.00    -0.081 C 
HETATM    3  C11 UNL     1     -32.291   7.843   2.134  1.00 20.00     0.301 C 
ENDROOT
BRANCH   3   4
HETATM    4  C7  UNL     1     -32.812   7.757   3.567  1.00 20.00     0.031 C 
HETATM    5  C4  UNL     1     -34.267   8.209   3.679  1.00 20.00     0.008 C 
HETATM    6  C3  UNL     1     -35.116   6.967   3.401  1.00 20.00     0.005 C 
HETATM    7  C6  UNL     1     -34.171   5.762   3.505  1.00 20.00    -0.014 C 
HETATM    8  C5  UNL     1     -32.871   6.321   4.087  1.00 20.00     0.012 C 
BRANCH   7   9
HETATM    9  C10 UNL     1     -34.744   4.621   4.332  1.00 20.00     0.000 C 
HETATM   10  C8  UNL     1     -33.763   3.505   4.501  1.00 20.00     0.005 C 
ENDBRANCH   7   9
ENDBRANCH   3   4
BRANCH   3  11
HETATM   11  N12 UNL     1     -33.069   8.783   1.365  1.00 20.00     0.095 N 
HETATM   12  C9  UNL     1     -32.227   9.557   0.456  1.00 20.00     0.308 C 
HETATM   13  H31 UNL     1     -33.553   9.431   1.994  1.00 20.00     0.317 HD
ENDBRANCH   3  11
TORSDOF 3
ENDMDL
