MODEL 1
REMARK VINA RESULT:      -2.6      0.000      0.000
REMARK  2 active torsions:
REMARK  status: ('A' for Active; 'I' for Inactive)
REMARK    1  A    between atoms: C2_2  and  C3_3 
REMARK    2  A    between atoms: C3_3  and  C7_7 
ROOT
HETATM    1  C4  UNL     1     -34.993   6.235   4.266  1.00 20.00     0.002 C 
HETATM    2  C5  UNL     1     -34.169   5.309   3.347  1.00 20.00     0.012 C 
HETATM    3  C6  UNL     1     -34.110   7.396   3.761  1.00 20.00     0.012 C 
HETATM    4  C7  UNL     1     -33.873   6.558   2.479  1.00 20.00     0.059 C 
ENDROOT
BRANCH   4   5
HETATM    5  C3  UNL     1     -32.518   6.633   1.908  1.00 20.00     0.152 C 
HETATM    6  O8  UNL     1     -31.969   5.638   1.440  1.00 20.00    -0.293 OA
BRANCH   5   7
HETATM    7  C2  UNL     1     -31.867   7.971   1.904  1.00 20.00     0.040 C 
HETATM    8  C1  UNL     1     -32.135   8.859   0.943  1.00 20.00     0.015 C 
ENDBRANCH   5   7
ENDBRANCH   4   5
TORSDOF 2
ENDMDL
MODEL 2
REMARK VINA RESULT:      -2.5      1.767      3.862
REMARK  2 active torsions:
REMARK  status: ('A' for Active; 'I' for Inactive)
REMARK    1  A    between atoms: C2_2  and  C3_3 
REMARK    2  A    between atoms: C3_3  and  C7_7 
ROOT
HETATM    1  C4  UNL     1     -31.798   7.032   1.247  1.00 20.00     0.002 C 
HETATM    2  C5  UNL     1     -32.187   8.066   2.324  1.00 20.00     0.012 C 
HETATM    3  C6  UNL     1     -32.808   6.073   1.911  1.00 20.00     0.012 C 
HETATM    4  C7  UNL     1     -33.548   7.332   2.431  1.00 20.00     0.059 C 
ENDROOT
BRANCH   4   5
HETATM    5  C3  UNL     1     -34.113   7.227   3.786  1.00 20.00     0.152 C 
HETATM    6  O8  UNL     1     -33.638   7.864   4.725  1.00 20.00    -0.293 OA
BRANCH   5   7
HETATM    7  C2  UNL     1     -35.294   6.339   3.952  1.00 20.00     0.040 C 
HETATM    8  C1  UNL     1     -35.163   5.115   4.471  1.00 20.00     0.015 C 
ENDBRANCH   5   7
ENDBRANCH   4   5
TORSDOF 2
ENDMDL
MODEL 3
REMARK VINA RESULT:      -2.5      0.675      1.192
REMARK  2 active torsions:
REMARK  status: ('A' for Active; 'I' for Inactive)
REMARK    1  A    between atoms: C2_2  and  C3_3 
REMARK    2  A    between atoms: C3_3  and  C7_7 
ROOT
HETATM    1  C4  UNL     1     -35.293   5.818   4.298  1.00 20.00     0.002 C 
HETATM    2  C5  UNL     1     -34.958   7.001   3.366  1.00 20.00     0.012 C 
HETATM    3  C6  UNL     1     -34.105   5.073   3.653  1.00 20.00     0.012 C 
HETATM    4  C7  UNL     1     -33.504   6.464   3.329  1.00 20.00     0.059 C 
ENDROOT
BRANCH   4   5
HETATM    5  C3  UNL     1     -32.814   6.577   2.034  1.00 20.00     0.152 C 
HETATM    6  O8  UNL     1     -32.986   5.743   1.147  1.00 20.00    -0.293 OA
BRANCH   5   7
HETATM    7  C2  UNL     1     -31.928   7.757   1.848  1.00 20.00     0.040 C 
HETATM    8  C1  UNL     1     -32.282   8.758   1.040  1.00 20.00     0.015 C 
ENDBRANCH   5   7
ENDBRANCH   4   5
TORSDOF 2
ENDMDL
MODEL 4
REMARK VINA RESULT:      -2.4      2.260      4.024
REMARK  2 active torsions:
REMARK  status: ('A' for Active; 'I' for Inactive)
REMARK    1  A    between atoms: C2_2  and  C3_3 
REMARK    2  A    between atoms: C3_3  and  C7_7 
ROOT
HETATM    1  C4  UNL     1     -33.054   7.717   2.844  1.00 20.00     0.002 C 
HETATM    2  C5  UNL     1     -33.891   7.364   4.091  1.00 20.00     0.012 C 
HETATM    3  C6  UNL     1     -33.121   6.222   2.469  1.00 20.00     0.012 C 
HETATM    4  C7  UNL     1     -34.433   6.151   3.292  1.00 20.00     0.059 C 
ENDROOT
BRANCH   4   5
HETATM    5  C3  UNL     1     -34.636   4.915   4.065  1.00 20.00     0.152 C 
HETATM    6  O8  UNL     1     -35.608   4.781   4.806  1.00 20.00    -0.293 OA
BRANCH   5   7
HETATM    7  C2  UNL     1     -33.627   3.838   3.882  1.00 20.00     0.040 C 
HETATM    8  C1  UNL     1     -33.212   3.105   4.919  1.00 20.00     0.015 C 
ENDBRANCH   5   7
ENDBRANCH   4   5
TORSDOF 2
ENDMDL
MODEL 5
REMARK VINA RESULT:      -2.4      1.325      1.553
REMARK  2 active torsions:
REMARK  status: ('A' for Active; 'I' for Inactive)
REMARK    1  A    between atoms: C2_2  and  C3_3 
REMARK    2  A    between atoms: C3_3  and  C7_7 
ROOT
HETATM    1  C4  UNL     1     -34.473   6.179   3.751  1.00 20.00     0.002 C 
HETATM    2  C5  UNL     1     -33.435   6.006   2.623  1.00 20.00     0.012 C 
HETATM    3  C6  UNL     1     -33.952   7.623   3.906  1.00 20.00     0.012 C 
HETATM    4  C7  UNL     1     -33.506   7.542   2.424  1.00 20.00     0.059 C 
ENDROOT
BRANCH   4   5
HETATM    5  C3  UNL     1     -32.232   8.205   2.103  1.00 20.00     0.152 C 
HETATM    6  O8  UNL     1     -31.343   8.315   2.945  1.00 20.00    -0.293 OA
BRANCH   5   7
HETATM    7  C2  UNL     1     -32.069   8.703   0.711  1.00 20.00     0.040 C 
HETATM    8  C1  UNL     1     -32.518   9.910   0.359  1.00 20.00     0.015 C 
ENDBRANCH   5   7
ENDBRANCH   4   5
TORSDOF 2
ENDMDL
MODEL 6
REMARK VINA RESULT:      -1.8      1.486      1.573
REMARK  2 active torsions:
REMARK  status: ('A' for Active; 'I' for Inactive)
REMARK    1  A    between atoms: C2_2  and  C3_3 
REMARK    2  A    between atoms: C3_3  and  C7_7 
ROOT
HETATM    1  C4  UNL     1     -35.207   5.031   4.287  1.00 20.00     0.002 C 
HETATM    2  C5  UNL     1     -33.748   5.030   3.786  1.00 20.00     0.012 C 
HETATM    3  C6  UNL     1     -35.195   6.561   4.088  1.00 20.00     0.012 C 
HETATM    4  C7  UNL     1     -34.087   6.339   3.027  1.00 20.00     0.059 C 
ENDROOT
BRANCH   4   5
HETATM    5  C3  UNL     1     -33.021   7.354   2.996  1.00 20.00     0.152 C 
HETATM    6  O8  UNL     1     -32.778   8.052   3.978  1.00 20.00    -0.293 OA
BRANCH   5   7
HETATM    7  C2  UNL     1     -32.243   7.468   1.733  1.00 20.00     0.040 C 
HETATM    8  C1  UNL     1     -31.920   8.664   1.234  1.00 20.00     0.015 C 
ENDBRANCH   5   7
ENDBRANCH   4   5
TORSDOF 2
ENDMDL
MODEL 7
REMARK VINA RESULT:      -1.8      1.032      1.623
REMARK  2 active torsions:
REMARK  status: ('A' for Active; 'I' for Inactive)
REMARK    1  A    between atoms: C2_2  and  C3_3 
REMARK    2  A    between atoms: C3_3  and  C7_7 
ROOT
HETATM    1  C4  UNL     1     -34.697   6.565   3.896  1.00 20.00     0.002 C 
HETATM    2  C5  UNL     1     -34.135   7.974   3.613  1.00 20.00     0.012 C 
HETATM    3  C6  UNL     1     -33.743   6.046   2.799  1.00 20.00     0.012 C 
HETATM    4  C7  UNL     1     -32.849   7.276   3.101  1.00 20.00     0.059 C 
ENDROOT
BRANCH   4   5
HETATM    5  C3  UNL     1     -32.205   7.900   1.933  1.00 20.00     0.152 C 
HETATM    6  O8  UNL     1     -31.299   7.331   1.327  1.00 20.00    -0.293 OA
BRANCH   5   7
HETATM    7  C2  UNL     1     -32.723   9.230   1.515  1.00 20.00     0.040 C 
HETATM    8  C1  UNL     1     -32.404   9.745   0.325  1.00 20.00     0.015 C 
ENDBRANCH   5   7
ENDBRANCH   4   5
TORSDOF 2
ENDMDL
MODEL 8
REMARK VINA RESULT:      -1.8      1.132      3.797
REMARK  2 active torsions:
REMARK  status: ('A' for Active; 'I' for Inactive)
REMARK    1  A    between atoms: C2_2  and  C3_3 
REMARK    2  A    between atoms: C3_3  and  C7_7 
ROOT
HETATM    1  C4  UNL     1     -32.352  10.255  -0.055  1.00 20.00     0.002 C 
HETATM    2  C5  UNL     1     -32.016   8.751  -0.118  1.00 20.00     0.012 C 
HETATM    3  C6  UNL     1     -32.970   9.982   1.333  1.00 20.00     0.012 C 
HETATM    4  C7  UNL     1     -32.019   8.762   1.433  1.00 20.00     0.059 C 
ENDROOT
BRANCH   4   5
HETATM    5  C3  UNL     1     -32.581   7.565   2.079  1.00 20.00     0.152 C 
HETATM    6  O8  UNL     1     -32.548   6.468   1.525  1.00 20.00    -0.293 OA
BRANCH   5   7
HETATM    7  C2  UNL     1     -33.159   7.748   3.438  1.00 20.00     0.040 C 
HETATM    8  C1  UNL     1     -34.288   7.128   3.789  1.00 20.00     0.015 C 
ENDBRANCH   5   7
ENDBRANCH   4   5
TORSDOF 2
ENDMDL
MODEL 9
REMARK VINA RESULT:      -1.7      1.482      2.157
REMARK  2 active torsions:
REMARK  status: ('A' for Active; 'I' for Inactive)
REMARK    1  A    between atoms: C2_2  and  C3_3 
REMARK    2  A    between atoms: C3_3  and  C7_7 
ROOT
HETATM    1  C4  UNL     1     -35.375   5.746   4.363  1.00 20.00     0.002 C 
HETATM    2  C5  UNL     1     -35.041   7.063   3.631  1.00 20.00     0.012 C 
HETATM    3  C6  UNL     1     -34.173   5.119   3.625  1.00 20.00     0.012 C 
HETATM    4  C7  UNL     1     -33.582   6.549   3.530  1.00 20.00     0.059 C 
ENDROOT
BRANCH   4   5
HETATM    5  C3  UNL     1     -32.878   6.867   2.276  1.00 20.00     0.152 C 
HETATM    6  O8  UNL     1     -32.330   7.956   2.113  1.00 20.00    -0.293 OA
BRANCH   5   7
HETATM    7  C2  UNL     1     -32.843   5.801   1.240  1.00 20.00     0.040 C 
HETATM    8  C1  UNL     1     -31.719   5.122   0.995  1.00 20.00     0.015 C 
ENDBRANCH   5   7
ENDBRANCH   4   5
TORSDOF 2
ENDMDL
