MODEL 1
REMARK VINA RESULT:      -2.8      0.000      0.000
REMARK  2 active torsions:
REMARK  status: ('A' for Active; 'I' for Inactive)
REMARK    1  A    between atoms: C3_3  and  C7_7 
REMARK    2  A    between atoms: C8_8  and  C10_10 
ROOT
HETATM    1  C1  UNL     1     -33.516   3.368   4.342  1.00 20.00     0.021 C 
HETATM    2  C2  UNL     1     -34.013   4.427   4.069  1.00 20.00    -0.039 C 
HETATM    3  C3  UNL     1     -34.611   5.699   3.742  1.00 20.00     0.205 C 
HETATM    4  O11 UNL     1     -35.637   6.053   4.308  1.00 20.00    -0.283 OA
ENDROOT
BRANCH   3   5
HETATM    5  C7  UNL     1     -33.896   6.527   2.688  1.00 20.00     0.069 C 
HETATM    6  C4  UNL     1     -32.914   5.716   1.851  1.00 20.00     0.013 C 
HETATM    7  C5  UNL     1     -32.024   6.773   1.202  1.00 20.00     0.005 C 
HETATM    8  C8  UNL     1     -32.026   7.964   2.162  1.00 20.00    -0.014 C 
HETATM    9  C6  UNL     1     -33.004   7.618   3.282  1.00 20.00     0.017 C 
BRANCH   8  10
HETATM   10  C10 UNL     1     -32.538   9.193   1.433  1.00 20.00     0.000 C 
HETATM   11  C9  UNL     1     -32.067   9.239   0.012  1.00 20.00     0.005 C 
ENDBRANCH   8  10
ENDBRANCH   3   5
TORSDOF 2
ENDMDL
MODEL 2
REMARK VINA RESULT:      -2.0      1.375      1.564
REMARK  2 active torsions:
REMARK  status: ('A' for Active; 'I' for Inactive)
REMARK    1  A    between atoms: C3_3  and  C7_7 
REMARK    2  A    between atoms: C8_8  and  C10_10 
ROOT
HETATM    1  C1  UNL     1     -35.457   5.017   4.460  1.00 20.00     0.021 C 
HETATM    2  C2  UNL     1     -34.865   6.037   4.236  1.00 20.00    -0.039 C 
HETATM    3  C3  UNL     1     -34.153   7.264   3.967  1.00 20.00     0.205 C 
HETATM    4  O11 UNL     1     -34.072   8.123   4.835  1.00 20.00    -0.283 OA
ENDROOT
BRANCH   3   5
HETATM    5  C7  UNL     1     -33.539   7.397   2.584  1.00 20.00     0.069 C 
HETATM    6  C4  UNL     1     -32.901   6.106   2.084  1.00 20.00     0.013 C 
HETATM    7  C5  UNL     1     -31.996   6.562   0.942  1.00 20.00     0.005 C 
HETATM    8  C8  UNL     1     -31.600   8.001   1.275  1.00 20.00    -0.014 C 
HETATM    9  C6  UNL     1     -32.372   8.384   2.535  1.00 20.00     0.017 C 
BRANCH   8  10
HETATM   10  C10 UNL     1     -32.034   8.915   0.143  1.00 20.00     0.000 C 
HETATM   11  C9  UNL     1     -32.544  10.229   0.647  1.00 20.00     0.005 C 
ENDBRANCH   8  10
ENDBRANCH   3   5
TORSDOF 2
ENDMDL
MODEL 3
REMARK VINA RESULT:      -1.5      1.039      1.813
REMARK  2 active torsions:
REMARK  status: ('A' for Active; 'I' for Inactive)
REMARK    1  A    between atoms: C3_3  and  C7_7 
REMARK    2  A    between atoms: C8_8  and  C10_10 
ROOT
HETATM    1  C1  UNL     1     -33.027   2.462   4.568  1.00 20.00     0.021 C 
HETATM    2  C2  UNL     1     -33.658   3.478   4.460  1.00 20.00    -0.039 C 
HETATM    3  C3  UNL     1     -34.417   4.699   4.332  1.00 20.00     0.205 C 
HETATM    4  O11 UNL     1     -35.595   4.720   4.660  1.00 20.00    -0.283 OA
ENDROOT
BRANCH   3   5
HETATM    5  C7  UNL     1     -33.669   5.902   3.782  1.00 20.00     0.069 C 
HETATM    6  C4  UNL     1     -34.368   7.225   4.067  1.00 20.00     0.013 C 
HETATM    7  C5  UNL     1     -33.721   8.202   3.088  1.00 20.00     0.005 C 
HETATM    8  C8  UNL     1     -33.274   7.356   1.894  1.00 20.00    -0.014 C 
HETATM    9  C6  UNL     1     -33.566   5.903   2.257  1.00 20.00     0.017 C 
BRANCH   8  10
HETATM   10  C10 UNL     1     -31.778   7.518   1.699  1.00 20.00     0.000 C 
HETATM   11  C9  UNL     1     -31.446   8.722   0.874  1.00 20.00     0.005 C 
ENDBRANCH   8  10
ENDBRANCH   3   5
TORSDOF 2
ENDMDL
MODEL 4
REMARK VINA RESULT:      -1.1      1.521      2.100
REMARK  2 active torsions:
REMARK  status: ('A' for Active; 'I' for Inactive)
REMARK    1  A    between atoms: C3_3  and  C7_7 
REMARK    2  A    between atoms: C8_8  and  C10_10 
ROOT
HETATM    1  C1  UNL     1     -33.426   8.465   5.745  1.00 20.00     0.021 C 
HETATM    2  C2  UNL     1     -33.850   7.802   4.838  1.00 20.00    -0.039 C 
HETATM    3  C3  UNL     1     -34.360   7.004   3.749  1.00 20.00     0.205 C 
HETATM    4  O11 UNL     1     -35.327   6.276   3.928  1.00 20.00    -0.283 OA
ENDROOT
BRANCH   3   5
HETATM    5  C7  UNL     1     -33.634   7.136   2.421  1.00 20.00     0.069 C 
HETATM    6  C4  UNL     1     -32.877   5.875   2.022  1.00 20.00     0.013 C 
HETATM    7  C5  UNL     1     -31.903   6.354   0.948  1.00 20.00     0.005 C 
HETATM    8  C8  UNL     1     -31.626   7.824   1.266  1.00 20.00    -0.014 C 
HETATM    9  C6  UNL     1     -32.529   8.193   2.440  1.00 20.00     0.017 C 
BRANCH   8  10
HETATM   10  C10 UNL     1     -32.011   8.675   0.070  1.00 20.00     0.000 C 
HETATM   11  C9  UNL     1     -32.450  10.048   0.477  1.00 20.00     0.005 C 
ENDBRANCH   8  10
ENDBRANCH   3   5
TORSDOF 2
ENDMDL
MODEL 5
REMARK VINA RESULT:      -0.5      1.784      4.639
REMARK  2 active torsions:
REMARK  status: ('A' for Active; 'I' for Inactive)
REMARK    1  A    between atoms: C3_3  and  C7_7 
REMARK    2  A    between atoms: C8_8  and  C10_10 
ROOT
HETATM    1  C1  UNL     1     -32.383   9.462   0.169  1.00 20.00     0.021 C 
HETATM    2  C2  UNL     1     -32.168   8.994   1.254  1.00 20.00    -0.039 C 
HETATM    3  C3  UNL     1     -31.910   8.433   2.558  1.00 20.00     0.205 C 
HETATM    4  O11 UNL     1     -31.189   9.031   3.346  1.00 20.00    -0.283 OA
ENDROOT
BRANCH   3   5
HETATM    5  C7  UNL     1     -32.576   7.102   2.863  1.00 20.00     0.069 C 
HETATM    6  C4  UNL     1     -32.805   6.247   1.622  1.00 20.00     0.013 C 
HETATM    7  C5  UNL     1     -33.839   5.218   2.070  1.00 20.00     0.005 C 
HETATM    8  C8  UNL     1     -34.645   5.895   3.179  1.00 20.00    -0.014 C 
HETATM    9  C6  UNL     1     -33.989   7.251   3.427  1.00 20.00     0.017 C 
BRANCH   8  10
HETATM   10  C10 UNL     1     -34.545   5.067   4.448  1.00 20.00     0.000 C 
HETATM   11  C9  UNL     1     -33.818   3.778   4.220  1.00 20.00     0.005 C 
ENDBRANCH   8  10
ENDBRANCH   3   5
TORSDOF 2
ENDMDL
MODEL 6
REMARK VINA RESULT:      -0.4      1.524      1.779
REMARK  2 active torsions:
REMARK  status: ('A' for Active; 'I' for Inactive)
REMARK    1  A    between atoms: C3_3  and  C7_7 
REMARK    2  A    between atoms: C8_8  and  C10_10 
ROOT
HETATM    1  C1  UNL     1     -35.702   6.132   4.450  1.00 20.00     0.021 C 
HETATM    2  C2  UNL     1     -34.747   5.897   3.760  1.00 20.00    -0.039 C 
HETATM    3  C3  UNL     1     -33.600   5.614   2.931  1.00 20.00     0.205 C 
HETATM    4  O11 UNL     1     -33.044   4.527   3.012  1.00 20.00    -0.283 OA
ENDROOT
BRANCH   3   5
HETATM    5  C7  UNL     1     -33.160   6.723   1.990  1.00 20.00     0.069 C 
HETATM    6  C4  UNL     1     -31.919   6.366   1.181  1.00 20.00     0.013 C 
HETATM    7  C5  UNL     1     -31.412   7.713   0.671  1.00 20.00     0.005 C 
HETATM    8  C8  UNL     1     -31.870   8.746   1.703  1.00 20.00    -0.014 C 
HETATM    9  C6  UNL     1     -32.725   7.994   2.720  1.00 20.00     0.017 C 
BRANCH   8  10
HETATM   10  C10 UNL     1     -32.733   9.789   1.018  1.00 20.00     0.000 C 
HETATM   11  C9  UNL     1     -32.477   9.849  -0.456  1.00 20.00     0.005 C 
ENDBRANCH   8  10
ENDBRANCH   3   5
TORSDOF 2
ENDMDL
MODEL 7
REMARK VINA RESULT:      -0.3      2.277      5.111
REMARK  2 active torsions:
REMARK  status: ('A' for Active; 'I' for Inactive)
REMARK    1  A    between atoms: C3_3  and  C7_7 
REMARK    2  A    between atoms: C8_8  and  C10_10 
ROOT
HETATM    1  C1  UNL     1     -32.778  10.599  -0.404  1.00 20.00     0.021 C 
HETATM    2  C2  UNL     1     -32.443   9.657   0.260  1.00 20.00    -0.039 C 
HETATM    3  C3  UNL     1     -32.040   8.524   1.058  1.00 20.00     0.205 C 
HETATM    4  O11 UNL     1     -31.005   7.929   0.791  1.00 20.00    -0.283 OA
ENDROOT
BRANCH   3   5
HETATM    5  C7  UNL     1     -32.962   8.147   2.206  1.00 20.00     0.069 C 
HETATM    6  C4  UNL     1     -32.421   8.559   3.570  1.00 20.00     0.013 C 
HETATM    7  C5  UNL     1     -33.236   7.724   4.555  1.00 20.00     0.005 C 
HETATM    8  C8  UNL     1     -33.633   6.457   3.797  1.00 20.00    -0.014 C 
HETATM    9  C6  UNL     1     -33.142   6.637   2.363  1.00 20.00     0.017 C 
BRANCH   8  10
HETATM   10  C10 UNL     1     -35.146   6.338   3.781  1.00 20.00     0.000 C 
HETATM   11  C9  UNL     1     -35.624   5.161   4.574  1.00 20.00     0.005 C 
ENDBRANCH   8  10
ENDBRANCH   3   5
TORSDOF 2
ENDMDL
