MODEL 1
REMARK VINA RESULT:      -1.2      0.000      0.000
REMARK  2 active torsions:
REMARK  status: ('A' for Active; 'I' for Inactive)
REMARK    1  A    between atoms: C3_3  and  C7_7 
REMARK    2  A    between atoms: C8_8  and  C10_10 
ROOT
HETATM    1  C1  UNL     1     -32.369  10.085   0.167  1.00 20.00     0.021 C 
HETATM    2  C2  UNL     1     -32.343   9.157   0.928  1.00 20.00    -0.039 C 
HETATM    3  C3  UNL     1     -32.310   8.041   1.843  1.00 20.00     0.205 C 
HETATM    4  O11 UNL     1     -31.643   8.112   2.867  1.00 20.00    -0.283 OA
ENDROOT
BRANCH   3   5
HETATM    5  C7  UNL     1     -33.130   6.826   1.450  1.00 20.00     0.069 C 
HETATM    6  C4  UNL     1     -32.193   5.644   1.201  1.00 20.00     0.013 C 
HETATM    7  C5  UNL     1     -32.641   4.548   2.163  1.00 20.00     0.005 C 
HETATM    8  C8  UNL     1     -33.253   5.313   3.331  1.00 20.00    -0.014 C 
HETATM    9  C6  UNL     1     -34.019   6.434   2.628  1.00 20.00     0.017 C 
BRANCH   8  10
HETATM   10  C10 UNL     1     -34.133   4.450   4.217  1.00 20.00     0.000 C 
HETATM   11  C9  UNL     1     -33.466   3.162   4.585  1.00 20.00     0.005 C 
ENDBRANCH   8  10
ENDBRANCH   3   5
TORSDOF 2
ENDMDL
MODEL 2
REMARK VINA RESULT:      -1.0      1.650      4.769
REMARK  2 active torsions:
REMARK  status: ('A' for Active; 'I' for Inactive)
REMARK    1  A    between atoms: C3_3  and  C7_7 
REMARK    2  A    between atoms: C8_8  and  C10_10 
ROOT
HETATM    1  C1  UNL     1     -35.425   5.007   4.471  1.00 20.00     0.021 C 
HETATM    2  C2  UNL     1     -34.828   6.004   4.172  1.00 20.00    -0.039 C 
HETATM    3  C3  UNL     1     -34.110   7.204   3.811  1.00 20.00     0.205 C 
HETATM    4  O11 UNL     1     -34.625   8.299   3.995  1.00 20.00    -0.283 OA
ENDROOT
BRANCH   3   5
HETATM    5  C7  UNL     1     -32.730   7.006   3.212  1.00 20.00     0.069 C 
HETATM    6  C4  UNL     1     -32.828   6.052   2.022  1.00 20.00     0.013 C 
HETATM    7  C5  UNL     1     -32.280   6.822   0.825  1.00 20.00     0.005 C 
HETATM    8  C8  UNL     1     -32.567   8.280   1.165  1.00 20.00    -0.014 C 
HETATM    9  C6  UNL     1     -32.242   8.343   2.657  1.00 20.00     0.017 C 
BRANCH   8  10
HETATM   10  C10 UNL     1     -31.756   9.259   0.334  1.00 20.00     0.000 C 
HETATM   11  C9  UNL     1     -32.556  10.464  -0.051  1.00 20.00     0.005 C 
ENDBRANCH   8  10
ENDBRANCH   3   5
TORSDOF 2
ENDMDL
MODEL 3
REMARK VINA RESULT:      -0.8      2.169      4.870
REMARK  2 active torsions:
REMARK  status: ('A' for Active; 'I' for Inactive)
REMARK    1  A    between atoms: C3_3  and  C7_7 
REMARK    2  A    between atoms: C8_8  and  C10_10 
ROOT
HETATM    1  C1  UNL     1     -33.094   3.326   4.020  1.00 20.00     0.021 C 
HETATM    2  C2  UNL     1     -33.985   4.109   4.203  1.00 20.00    -0.039 C 
HETATM    3  C3  UNL     1     -35.058   5.051   4.422  1.00 20.00     0.205 C 
HETATM    4  O11 UNL     1     -35.924   4.804   5.251  1.00 20.00    -0.283 OA
ENDROOT
BRANCH   3   5
HETATM    5  C7  UNL     1     -35.026   6.313   3.581  1.00 20.00     0.069 C 
HETATM    6  C4  UNL     1     -34.391   7.444   4.390  1.00 20.00     0.013 C 
HETATM    7  C5  UNL     1     -33.192   7.917   3.574  1.00 20.00     0.005 C 
HETATM    8  C8  UNL     1     -32.772   6.679   2.789  1.00 20.00    -0.014 C 
HETATM    9  C6  UNL     1     -34.116   6.076   2.377  1.00 20.00     0.017 C 
BRANCH   8  10
HETATM   10  C10 UNL     1     -31.873   6.997   1.608  1.00 20.00     0.000 C 
HETATM   11  C9  UNL     1     -31.946   8.441   1.220  1.00 20.00     0.005 C 
ENDBRANCH   8  10
ENDBRANCH   3   5
TORSDOF 2
ENDMDL
MODEL 4
REMARK VINA RESULT:      -0.8      1.361      2.065
REMARK  2 active torsions:
REMARK  status: ('A' for Active; 'I' for Inactive)
REMARK    1  A    between atoms: C3_3  and  C7_7 
REMARK    2  A    between atoms: C8_8  and  C10_10 
ROOT
HETATM    1  C1  UNL     1     -32.461  10.044   0.516  1.00 20.00     0.021 C 
HETATM    2  C2  UNL     1     -32.421   8.934   0.970  1.00 20.00    -0.039 C 
HETATM    3  C3  UNL     1     -32.372   7.597   1.514  1.00 20.00     0.205 C 
HETATM    4  O11 UNL     1     -32.207   6.642   0.768  1.00 20.00    -0.283 OA
ENDROOT
BRANCH   3   5
HETATM    5  C7  UNL     1     -32.536   7.478   3.018  1.00 20.00     0.069 C 
HETATM    6  C4  UNL     1     -33.717   8.339   3.467  1.00 20.00     0.013 C 
HETATM    7  C5  UNL     1     -34.684   7.387   4.165  1.00 20.00     0.005 C 
HETATM    8  C8  UNL     1     -34.420   6.042   3.497  1.00 20.00    -0.014 C 
HETATM    9  C6  UNL     1     -32.897   6.034   3.358  1.00 20.00     0.017 C 
BRANCH   8  10
HETATM   10  C10 UNL     1     -34.954   4.864   4.292  1.00 20.00     0.000 C 
HETATM   11  C9  UNL     1     -33.935   3.778   4.438  1.00 20.00     0.005 C 
ENDBRANCH   8  10
ENDBRANCH   3   5
TORSDOF 2
ENDMDL
MODEL 5
REMARK VINA RESULT:      -0.4      1.490      2.589
REMARK  2 active torsions:
REMARK  status: ('A' for Active; 'I' for Inactive)
REMARK    1  A    between atoms: C3_3  and  C7_7 
REMARK    2  A    between atoms: C8_8  and  C10_10 
ROOT
HETATM    1  C1  UNL     1     -31.991   5.272   0.914  1.00 20.00     0.021 C 
HETATM    2  C2  UNL     1     -32.259   6.318   1.436  1.00 20.00    -0.039 C 
HETATM    3  C3  UNL     1     -32.581   7.578   2.065  1.00 20.00     0.205 C 
HETATM    4  O11 UNL     1     -32.347   8.627   1.480  1.00 20.00    -0.283 OA
ENDROOT
BRANCH   3   5
HETATM    5  C7  UNL     1     -33.202   7.500   3.447  1.00 20.00     0.069 C 
HETATM    6  C4  UNL     1     -34.711   7.718   3.334  1.00 20.00     0.013 C 
HETATM    7  C5  UNL     1     -35.357   6.471   3.929  1.00 20.00     0.005 C 
HETATM    8  C8  UNL     1     -34.326   5.374   3.689  1.00 20.00    -0.014 C 
HETATM    9  C6  UNL     1     -33.007   6.086   3.992  1.00 20.00     0.017 C 
BRANCH   8  10
HETATM   10  C10 UNL     1     -34.551   4.142   4.548  1.00 20.00     0.000 C 
HETATM   11  C9  UNL     1     -33.390   3.200   4.492  1.00 20.00     0.005 C 
ENDBRANCH   8  10
ENDBRANCH   3   5
TORSDOF 2
ENDMDL
MODEL 6
REMARK VINA RESULT:      -0.4      1.913      4.905
REMARK  2 active torsions:
REMARK  status: ('A' for Active; 'I' for Inactive)
REMARK    1  A    between atoms: C3_3  and  C7_7 
REMARK    2  A    between atoms: C8_8  and  C10_10 
ROOT
HETATM    1  C1  UNL     1     -35.191   6.460   4.093  1.00 20.00     0.021 C 
HETATM    2  C2  UNL     1     -34.277   6.455   3.315  1.00 20.00    -0.039 C 
HETATM    3  C3  UNL     1     -33.178   6.448   2.379  1.00 20.00     0.205 C 
HETATM    4  O11 UNL     1     -33.028   5.496   1.624  1.00 20.00    -0.283 OA
ENDROOT
BRANCH   3   5
HETATM    5  C7  UNL     1     -32.264   7.659   2.406  1.00 20.00     0.069 C 
HETATM    6  C4  UNL     1     -31.068   7.409   1.488  1.00 20.00     0.013 C 
HETATM    7  C5  UNL     1     -31.088   8.539   0.462  1.00 20.00     0.005 C 
HETATM    8  C8  UNL     1     -32.561   8.920   0.366  1.00 20.00    -0.014 C 
HETATM    9  C6  UNL     1     -33.017   8.853   1.824  1.00 20.00     0.017 C 
BRANCH   8  10
HETATM   10  C10 UNL     1     -32.787  10.279  -0.270  1.00 20.00     0.000 C 
HETATM   11  C9  UNL     1     -32.554  11.397   0.698  1.00 20.00     0.005 C 
ENDBRANCH   8  10
ENDBRANCH   3   5
TORSDOF 2
ENDMDL
MODEL 7
REMARK VINA RESULT:      -0.2      1.867      3.785
REMARK  2 active torsions:
REMARK  status: ('A' for Active; 'I' for Inactive)
REMARK    1  A    between atoms: C3_3  and  C7_7 
REMARK    2  A    between atoms: C8_8  and  C10_10 
ROOT
HETATM    1  C1  UNL     1     -35.454   5.292   4.455  1.00 20.00     0.021 C 
HETATM    2  C2  UNL     1     -34.778   6.255   4.220  1.00 20.00    -0.039 C 
HETATM    3  C3  UNL     1     -33.965   7.415   3.937  1.00 20.00     0.205 C 
HETATM    4  O11 UNL     1     -33.604   8.143   4.853  1.00 20.00    -0.283 OA
ENDROOT
BRANCH   3   5
HETATM    5  C7  UNL     1     -33.611   7.649   2.480  1.00 20.00     0.069 C 
HETATM    6  C4  UNL     1     -32.221   8.280   2.393  1.00 20.00     0.013 C 
HETATM    7  C5  UNL     1     -31.387   7.332   1.537  1.00 20.00     0.005 C 
HETATM    8  C8  UNL     1     -32.025   5.967   1.772  1.00 20.00    -0.014 C 
HETATM    9  C6  UNL     1     -33.519   6.296   1.776  1.00 20.00     0.017 C 
BRANCH   8  10
HETATM   10  C10 UNL     1     -31.642   4.939   0.724  1.00 20.00     0.000 C 
HETATM   11  C9  UNL     1     -32.843   4.332   0.068  1.00 20.00     0.005 C 
ENDBRANCH   8  10
ENDBRANCH   3   5
TORSDOF 2
ENDMDL
MODEL 8
REMARK VINA RESULT:      -0.1      1.796      2.528
REMARK  2 active torsions:
REMARK  status: ('A' for Active; 'I' for Inactive)
REMARK    1  A    between atoms: C3_3  and  C7_7 
REMARK    2  A    between atoms: C8_8  and  C10_10 
ROOT
HETATM    1  C1  UNL     1     -33.097  10.819   0.688  1.00 20.00     0.021 C 
HETATM    2  C2  UNL     1     -32.404   9.840   0.643  1.00 20.00    -0.039 C 
HETATM    3  C3  UNL     1     -31.570   8.662   0.587  1.00 20.00     0.205 C 
HETATM    4  O11 UNL     1     -31.049   8.334  -0.470  1.00 20.00    -0.283 OA
ENDROOT
BRANCH   3   5
HETATM    5  C7  UNL     1     -31.399   7.898   1.887  1.00 20.00     0.069 C 
HETATM    6  C4  UNL     1     -31.942   8.740   3.042  1.00 20.00     0.013 C 
HETATM    7  C5  UNL     1     -33.025   7.891   3.702  1.00 20.00     0.005 C 
HETATM    8  C8  UNL     1     -33.542   7.011   2.570  1.00 20.00    -0.014 C 
HETATM    9  C6  UNL     1     -32.258   6.636   1.829  1.00 20.00     0.017 C 
BRANCH   8  10
HETATM   10  C10 UNL     1     -34.325   5.806   3.058  1.00 20.00     0.000 C 
HETATM   11  C9  UNL     1     -35.322   6.174   4.112  1.00 20.00     0.005 C 
ENDBRANCH   8  10
ENDBRANCH   3   5
TORSDOF 2
ENDMDL
MODEL 9
REMARK VINA RESULT:      -0.0      1.394      4.938
REMARK  2 active torsions:
REMARK  status: ('A' for Active; 'I' for Inactive)
REMARK    1  A    between atoms: C3_3  and  C7_7 
REMARK    2  A    between atoms: C8_8  and  C10_10 
ROOT
HETATM    1  C1  UNL     1     -33.846   3.686   4.460  1.00 20.00     0.021 C 
HETATM    2  C2  UNL     1     -33.491   4.352   3.527  1.00 20.00    -0.039 C 
HETATM    3  C3  UNL     1     -33.062   5.153   2.405  1.00 20.00     0.205 C 
HETATM    4  O11 UNL     1     -32.282   4.685   1.586  1.00 20.00    -0.283 OA
ENDROOT
BRANCH   3   5
HETATM    5  C7  UNL     1     -33.629   6.558   2.326  1.00 20.00     0.069 C 
HETATM    6  C4  UNL     1     -33.139   7.368   3.526  1.00 20.00     0.013 C 
HETATM    7  C5  UNL     1     -32.406   8.572   2.943  1.00 20.00     0.005 C 
HETATM    8  C8  UNL     1     -31.893   8.073   1.597  1.00 20.00    -0.014 C 
HETATM    9  C6  UNL     1     -33.069   7.244   1.081  1.00 20.00     0.017 C 
BRANCH   8  10
HETATM   10  C10 UNL     1     -31.493   9.194   0.656  1.00 20.00     0.000 C 
HETATM   11  C9  UNL     1     -32.667  10.029   0.248  1.00 20.00     0.005 C 
ENDBRANCH   8  10
ENDBRANCH   3   5
TORSDOF 2
ENDMDL
