MODEL 1
REMARK VINA RESULT:       2.8      0.000      0.000
REMARK  1 active torsions:
REMARK  status: ('A' for Active; 'I' for Inactive)
REMARK    1  A    between atoms: C3_3  and  C8_8 
ROOT
HETATM    1  C1  UNL     1     -31.814   7.530   1.428  1.00 20.00     0.016 A 
HETATM    2  C2  UNL     1     -31.601   8.510   0.416  1.00 20.00     0.015 A 
HETATM    3  C3  UNL     1     -32.774   7.923   2.335  1.00 20.00    -0.013 A 
HETATM    4  C4  UNL     1     -32.407   9.614   0.587  1.00 20.00    -0.021 A 
HETATM    5  C10 UNL     1     -32.484  10.835  -0.244  1.00 20.00     0.056 C 
HETATM    6  S11 UNL     1     -33.413   9.467   1.964  1.00 20.00    -0.099 SA
ENDROOT
BRANCH   3   7
HETATM    7  C8  UNL     1     -33.287   7.175   3.545  1.00 20.00     0.027 C 
HETATM    8  C5  UNL     1     -34.822   7.050   3.555  1.00 20.00     0.011 C 
HETATM    9  C6  UNL     1     -35.096   5.675   4.146  1.00 20.00     0.016 C 
HETATM   10  C9  UNL     1     -33.972   4.838   3.567  1.00 20.00     0.058 C 
HETATM   11  C7  UNL     1     -32.748   5.734   3.685  1.00 20.00     0.025 C 
HETATM   12 BR12 UNL     1     -33.747   3.182   4.536  1.00 20.00    -0.091 Br
ENDBRANCH   3   7
TORSDOF 1
ENDMDL
MODEL 2
REMARK VINA RESULT:       2.9      3.067      5.528
REMARK  1 active torsions:
REMARK  status: ('A' for Active; 'I' for Inactive)
REMARK    1  A    between atoms: C3_3  and  C8_8 
ROOT
HETATM    1  C1  UNL     1     -34.338   7.461   3.784  1.00 20.00     0.016 A 
HETATM    2  C2  UNL     1     -34.914   6.246   4.257  1.00 20.00     0.015 A 
HETATM    3  C3  UNL     1     -33.176   7.242   3.077  1.00 20.00    -0.013 A 
HETATM    4  C4  UNL     1     -34.169   5.145   3.894  1.00 20.00    -0.021 A 
HETATM    5  C10 UNL     1     -34.430   3.719   4.190  1.00 20.00     0.056 C 
HETATM    6  S11 UNL     1     -32.783   5.577   2.988  1.00 20.00    -0.099 SA
ENDROOT
BRANCH   3   7
HETATM    7  C8  UNL     1     -32.271   8.257   2.416  1.00 20.00     0.027 C 
HETATM    8  C5  UNL     1     -31.318   7.617   1.389  1.00 20.00     0.011 C 
HETATM    9  C6  UNL     1     -31.205   8.644   0.271  1.00 20.00     0.016 C 
HETATM   10  C9  UNL     1     -32.611   9.207   0.199  1.00 20.00     0.058 C 
HETATM   11  C7  UNL     1     -33.014   9.378   1.656  1.00 20.00     0.025 C 
HETATM   12 BR12 UNL     1     -32.656  10.883  -0.762  1.00 20.00    -0.091 Br
ENDBRANCH   3   7
TORSDOF 1
ENDMDL
MODEL 3
REMARK VINA RESULT:       3.2      2.985      5.478
REMARK  1 active torsions:
REMARK  status: ('A' for Active; 'I' for Inactive)
REMARK    1  A    between atoms: C3_3  and  C8_8 
ROOT
HETATM    1  C1  UNL     1     -35.121   5.775   4.272  1.00 20.00     0.016 A 
HETATM    2  C2  UNL     1     -35.037   4.416   4.691  1.00 20.00     0.015 A 
HETATM    3  C3  UNL     1     -34.004   6.168   3.566  1.00 20.00    -0.013 A 
HETATM    4  C4  UNL     1     -33.860   3.822   4.291  1.00 20.00    -0.021 A 
HETATM    5  C10 UNL     1     -33.401   2.436   4.528  1.00 20.00     0.056 C 
HETATM    6  S11 UNL     1     -32.862   4.901   3.414  1.00 20.00    -0.099 SA
ENDROOT
BRANCH   3   7
HETATM    7  C8  UNL     1     -33.705   7.518   2.954  1.00 20.00     0.027 C 
HETATM    8  C5  UNL     1     -32.619   8.289   3.727  1.00 20.00     0.011 C 
HETATM    9  C6  UNL     1     -31.825   9.023   2.655  1.00 20.00     0.016 C 
HETATM   10  C9  UNL     1     -31.802   8.019   1.519  1.00 20.00     0.058 C 
HETATM   11  C7  UNL     1     -33.218   7.464   1.489  1.00 20.00     0.025 C 
HETATM   12 BR12 UNL     1     -31.320   8.853  -0.156  1.00 20.00    -0.091 Br
ENDBRANCH   3   7
TORSDOF 1
ENDMDL
MODEL 4
REMARK VINA RESULT:       3.4      2.999      5.389
REMARK  1 active torsions:
REMARK  status: ('A' for Active; 'I' for Inactive)
REMARK    1  A    between atoms: C3_3  and  C8_8 
ROOT
HETATM    1  C1  UNL     1     -32.924   5.567   2.427  1.00 20.00     0.016 A 
HETATM    2  C2  UNL     1     -33.891   4.796   3.133  1.00 20.00     0.015 A 
HETATM    3  C3  UNL     1     -32.978   6.902   2.765  1.00 20.00    -0.013 A 
HETATM    4  C4  UNL     1     -34.649   5.571   3.985  1.00 20.00    -0.021 A 
HETATM    5  C10 UNL     1     -35.745   5.148   4.883  1.00 20.00     0.056 C 
HETATM    6  S11 UNL     1     -34.193   7.219   3.929  1.00 20.00    -0.099 SA
ENDROOT
BRANCH   3   7
HETATM    7  C8  UNL     1     -32.129   8.039   2.245  1.00 20.00     0.027 C 
HETATM    8  C5  UNL     1     -31.180   7.598   1.115  1.00 20.00     0.011 C 
HETATM    9  C6  UNL     1     -31.133   8.783   0.161  1.00 20.00     0.016 C 
HETATM   10  C9  UNL     1     -32.560   9.294   0.202  1.00 20.00     0.058 C 
HETATM   11  C7  UNL     1     -32.931   9.231   1.676  1.00 20.00     0.025 C 
HETATM   12 BR12 UNL     1     -32.692  11.091  -0.496  1.00 20.00    -0.091 Br
ENDBRANCH   3   7
TORSDOF 1
ENDMDL
