MODEL 1
REMARK VINA RESULT:      -1.9      0.000      0.000
REMARK  5 active torsions:
REMARK  status: ('A' for Active; 'I' for Inactive)
REMARK    1  A    between atoms: C3_3  and  C5_5 
REMARK    2  A    between atoms: C3_3  and  C7_7 
REMARK    3  A    between atoms: C4_4  and  C6_6 
REMARK    4  A    between atoms: C4_4  and  C7_7 
REMARK    5  A    between atoms: C5_5  and  S8_8 
ROOT
HETATM    1  C1  UNL     1     -33.886   7.863   4.578  1.00 20.00     0.010 C 
HETATM    2  C7  UNL     1     -34.273   6.869   3.475  1.00 20.00    -0.017 C 
ENDROOT
BRANCH   2   3
HETATM    3  C3  UNL     1     -33.196   6.808   2.370  1.00 20.00     0.014 C 
BRANCH   3   4
HETATM    4  C5  UNL     1     -32.262   8.018   2.320  1.00 20.00     0.073 C 
BRANCH   4   5
HETATM    5  S8  UNL     1     -31.780   8.377   0.604  1.00 20.00    -0.173 SA
HETATM    6  C2  UNL     1     -32.545  10.006   0.455  1.00 20.00     0.089 C 
ENDBRANCH   4   5
ENDBRANCH   3   4
ENDBRANCH   2   3
BRANCH   2   7
HETATM    7  C4  UNL     1     -34.613   5.503   4.108  1.00 20.00     0.019 C 
BRANCH   7   8
HETATM    8  C6  UNL     1     -33.840   4.305   3.560  1.00 20.00     0.115 C 
HETATM    9 CL9  UNL     1     -33.389   3.156   4.840  1.00 20.00    -0.130 Cl
ENDBRANCH   7   8
ENDBRANCH   2   7
TORSDOF 5
ENDMDL
MODEL 2
REMARK VINA RESULT:      -1.5      3.637      5.247
REMARK  5 active torsions:
REMARK  status: ('A' for Active; 'I' for Inactive)
REMARK    1  A    between atoms: C3_3  and  C5_5 
REMARK    2  A    between atoms: C3_3  and  C7_7 
REMARK    3  A    between atoms: C4_4  and  C6_6 
REMARK    4  A    between atoms: C4_4  and  C7_7 
REMARK    5  A    between atoms: C5_5  and  S8_8 
ROOT
HETATM    1  C1  UNL     1     -32.388   5.674   1.217  1.00 20.00     0.010 C 
HETATM    2  C7  UNL     1     -32.939   6.920   1.922  1.00 20.00    -0.017 C 
ENDROOT
BRANCH   2   3
HETATM    3  C3  UNL     1     -33.327   6.612   3.385  1.00 20.00     0.014 C 
BRANCH   3   4
HETATM    4  C5  UNL     1     -34.825   6.688   3.679  1.00 20.00     0.073 C 
BRANCH   4   5
HETATM    5  S8  UNL     1     -35.385   5.173   4.514  1.00 20.00    -0.173 SA
HETATM    6  C2  UNL     1     -33.957   4.131   4.147  1.00 20.00     0.089 C 
ENDBRANCH   4   5
ENDBRANCH   3   4
ENDBRANCH   2   3
BRANCH   2   7
HETATM    7  C4  UNL     1     -31.942   8.087   1.761  1.00 20.00     0.019 C 
BRANCH   7   8
HETATM    8  C6  UNL     1     -31.911   8.751   0.385  1.00 20.00     0.115 C 
HETATM    9 CL9  UNL     1     -32.625  10.380   0.411  1.00 20.00    -0.130 Cl
ENDBRANCH   7   8
ENDBRANCH   2   7
TORSDOF 5
ENDMDL
MODEL 3
REMARK VINA RESULT:      -1.5      3.336      4.919
REMARK  5 active torsions:
REMARK  status: ('A' for Active; 'I' for Inactive)
REMARK    1  A    between atoms: C3_3  and  C5_5 
REMARK    2  A    between atoms: C3_3  and  C7_7 
REMARK    3  A    between atoms: C4_4  and  C6_6 
REMARK    4  A    between atoms: C4_4  and  C7_7 
REMARK    5  A    between atoms: C5_5  and  S8_8 
ROOT
HETATM    1  C1  UNL     1     -33.471   8.223   4.339  1.00 20.00     0.010 C 
HETATM    2  C7  UNL     1     -33.598   6.889   3.593  1.00 20.00    -0.017 C 
ENDROOT
BRANCH   2   3
HETATM    3  C3  UNL     1     -34.993   6.259   3.802  1.00 20.00     0.014 C 
BRANCH   3   4
HETATM    4  C5  UNL     1     -34.979   4.871   4.442  1.00 20.00     0.073 C 
BRANCH   4   5
HETATM    5  S8  UNL     1     -33.699   3.832   3.675  1.00 20.00    -0.173 SA
HETATM    6  C2  UNL     1     -33.124   2.986   5.163  1.00 20.00     0.089 C 
ENDBRANCH   4   5
ENDBRANCH   3   4
ENDBRANCH   2   3
BRANCH   2   7
HETATM    7  C4  UNL     1     -33.206   7.086   2.114  1.00 20.00     0.019 C 
BRANCH   7   8
HETATM    8  C6  UNL     1     -31.991   7.977   1.860  1.00 20.00     0.115 C 
HETATM    9 CL9  UNL     1     -32.363   9.319   0.755  1.00 20.00    -0.130 Cl
ENDBRANCH   7   8
ENDBRANCH   2   7
TORSDOF 5
ENDMDL
MODEL 4
REMARK VINA RESULT:      -1.5      1.077      1.137
REMARK  5 active torsions:
REMARK  status: ('A' for Active; 'I' for Inactive)
REMARK    1  A    between atoms: C3_3  and  C5_5 
REMARK    2  A    between atoms: C3_3  and  C7_7 
REMARK    3  A    between atoms: C4_4  and  C6_6 
REMARK    4  A    between atoms: C4_4  and  C7_7 
REMARK    5  A    between atoms: C5_5  and  S8_8 
ROOT
HETATM    1  C1  UNL     1     -34.928   6.806   4.049  1.00 20.00     0.010 C 
HETATM    2  C7  UNL     1     -33.877   6.522   2.969  1.00 20.00    -0.017 C 
ENDROOT
BRANCH   2   3
HETATM    3  C3  UNL     1     -32.752   7.580   2.989  1.00 20.00     0.014 C 
BRANCH   3   4
HETATM    4  C5  UNL     1     -32.169   7.919   1.616  1.00 20.00     0.073 C 
BRANCH   4   5
HETATM    5  S8  UNL     1     -32.368   9.692   1.263  1.00 20.00    -0.173 SA
HETATM    6  C2  UNL     1     -32.606   9.575  -0.524  1.00 20.00     0.089 C 
ENDBRANCH   4   5
ENDBRANCH   3   4
ENDBRANCH   2   3
BRANCH   2   7
HETATM    7  C4  UNL     1     -33.382   5.066   3.101  1.00 20.00     0.019 C 
BRANCH   7   8
HETATM    8  C6  UNL     1     -34.126   4.199   4.116  1.00 20.00     0.115 C 
HETATM    9 CL9  UNL     1     -33.085   2.934   4.807  1.00 20.00    -0.130 Cl
ENDBRANCH   7   8
ENDBRANCH   2   7
TORSDOF 5
ENDMDL
MODEL 5
REMARK VINA RESULT:      -1.4      1.280      1.816
REMARK  5 active torsions:
REMARK  status: ('A' for Active; 'I' for Inactive)
REMARK    1  A    between atoms: C3_3  and  C5_5 
REMARK    2  A    between atoms: C3_3  and  C7_7 
REMARK    3  A    between atoms: C4_4  and  C6_6 
REMARK    4  A    between atoms: C4_4  and  C7_7 
REMARK    5  A    between atoms: C5_5  and  S8_8 
ROOT
HETATM    1  C1  UNL     1     -33.136   5.818   1.523  1.00 20.00     0.010 C 
HETATM    2  C7  UNL     1     -33.197   6.498   2.897  1.00 20.00    -0.017 C 
ENDROOT
BRANCH   2   3
HETATM    3  C3  UNL     1     -32.502   7.877   2.872  1.00 20.00     0.014 C 
BRANCH   3   4
HETATM    4  C5  UNL     1     -31.995   8.313   1.497  1.00 20.00     0.073 C 
BRANCH   4   5
HETATM    5  S8  UNL     1     -32.600   9.981   1.099  1.00 20.00    -0.173 SA
HETATM    6  C2  UNL     1     -32.652   9.816  -0.699  1.00 20.00     0.089 C 
ENDBRANCH   4   5
ENDBRANCH   3   4
ENDBRANCH   2   3
BRANCH   2   7
HETATM    7  C4  UNL     1     -34.658   6.531   3.391  1.00 20.00     0.019 C 
BRANCH   7   8
HETATM    8  C6  UNL     1     -35.064   5.409   4.346  1.00 20.00     0.115 C 
HETATM    9 CL9  UNL     1     -34.000   3.992   4.205  1.00 20.00    -0.130 Cl
ENDBRANCH   7   8
ENDBRANCH   2   7
TORSDOF 5
ENDMDL
MODEL 6
REMARK VINA RESULT:      -1.0      1.135      1.994
REMARK  5 active torsions:
REMARK  status: ('A' for Active; 'I' for Inactive)
REMARK    1  A    between atoms: C3_3  and  C5_5 
REMARK    2  A    between atoms: C3_3  and  C7_7 
REMARK    3  A    between atoms: C4_4  and  C6_6 
REMARK    4  A    between atoms: C4_4  and  C7_7 
REMARK    5  A    between atoms: C5_5  and  S8_8 
ROOT
HETATM    1  C1  UNL     1     -33.552   5.420   0.966  1.00 20.00     0.010 C 
HETATM    2  C7  UNL     1     -32.839   6.036   2.176  1.00 20.00    -0.017 C 
ENDROOT
BRANCH   2   3
HETATM    3  C3  UNL     1     -31.730   7.016   1.735  1.00 20.00     0.014 C 
BRANCH   3   4
HETATM    4  C5  UNL     1     -32.142   8.489   1.731  1.00 20.00     0.073 C 
BRANCH   4   5
HETATM    5  S8  UNL     1     -32.191   9.129   0.030  1.00 20.00    -0.173 SA
HETATM    6  C2  UNL     1     -32.731  10.812   0.402  1.00 20.00     0.089 C 
ENDBRANCH   4   5
ENDBRANCH   3   4
ENDBRANCH   2   3
BRANCH   2   7
HETATM    7  C4  UNL     1     -33.883   6.647   3.134  1.00 20.00     0.019 C 
BRANCH   7   8
HETATM    8  C6  UNL     1     -34.781   5.650   3.864  1.00 20.00     0.115 C 
HETATM    9 CL9  UNL     1     -33.973   4.088   4.127  1.00 20.00    -0.130 Cl
ENDBRANCH   7   8
ENDBRANCH   2   7
TORSDOF 5
ENDMDL
MODEL 7
REMARK VINA RESULT:      -0.9      1.978      2.709
REMARK  5 active torsions:
REMARK  status: ('A' for Active; 'I' for Inactive)
REMARK    1  A    between atoms: C3_3  and  C5_5 
REMARK    2  A    between atoms: C3_3  and  C7_7 
REMARK    3  A    between atoms: C4_4  and  C6_6 
REMARK    4  A    between atoms: C4_4  and  C7_7 
REMARK    5  A    between atoms: C5_5  and  S8_8 
ROOT
HETATM    1  C1  UNL     1     -32.718   5.645   1.146  1.00 20.00     0.010 C 
HETATM    2  C7  UNL     1     -32.715   6.548   2.386  1.00 20.00    -0.017 C 
ENDROOT
BRANCH   2   3
HETATM    3  C3  UNL     1     -32.593   8.037   1.995  1.00 20.00     0.014 C 
BRANCH   3   4
HETATM    4  C5  UNL     1     -31.617   8.321   0.853  1.00 20.00     0.073 C 
BRANCH   4   5
HETATM    5  S8  UNL     1     -32.369   9.448  -0.359  1.00 20.00    -0.173 SA
HETATM    6  C2  UNL     1     -32.781  10.801   0.765  1.00 20.00     0.089 C 
ENDBRANCH   4   5
ENDBRANCH   3   4
ENDBRANCH   2   3
BRANCH   2   7
HETATM    7  C4  UNL     1     -33.940   6.220   3.265  1.00 20.00     0.019 C 
BRANCH   7   8
HETATM    8  C6  UNL     1     -34.529   7.390   4.051  1.00 20.00     0.115 C 
HETATM    9 CL9  UNL     1     -33.355   8.093   5.186  1.00 20.00    -0.130 Cl
ENDBRANCH   7   8
ENDBRANCH   2   7
TORSDOF 5
ENDMDL
MODEL 8
REMARK VINA RESULT:      -0.9      1.203      1.632
REMARK  5 active torsions:
REMARK  status: ('A' for Active; 'I' for Inactive)
REMARK    1  A    between atoms: C3_3  and  C5_5 
REMARK    2  A    between atoms: C3_3  and  C7_7 
REMARK    3  A    between atoms: C4_4  and  C6_6 
REMARK    4  A    between atoms: C4_4  and  C7_7 
REMARK    5  A    between atoms: C5_5  and  S8_8 
ROOT
HETATM    1  C1  UNL     1     -34.191   7.543   4.921  1.00 20.00     0.010 C 
HETATM    2  C7  UNL     1     -34.751   6.612   3.839  1.00 20.00    -0.017 C 
ENDROOT
BRANCH   2   3
HETATM    3  C3  UNL     1     -33.928   6.707   2.535  1.00 20.00     0.014 C 
BRANCH   3   4
HETATM    4  C5  UNL     1     -32.870   7.812   2.526  1.00 20.00     0.073 C 
BRANCH   4   5
HETATM    5  S8  UNL     1     -31.526   7.393   1.376  1.00 20.00    -0.173 SA
HETATM    6  C2  UNL     1     -31.876   5.630   1.198  1.00 20.00     0.089 C 
ENDBRANCH   4   5
ENDBRANCH   3   4
ENDBRANCH   2   3
BRANCH   2   7
HETATM    7  C4  UNL     1     -34.881   5.182   4.405  1.00 20.00     0.019 C 
BRANCH   7   8
HETATM    8  C6  UNL     1     -33.979   4.128   3.765  1.00 20.00     0.115 C 
HETATM    9 CL9  UNL     1     -33.212   3.077   4.977  1.00 20.00    -0.130 Cl
ENDBRANCH   7   8
ENDBRANCH   2   7
TORSDOF 5
ENDMDL
MODEL 9
REMARK VINA RESULT:      -0.7      2.006      2.683
REMARK  5 active torsions:
REMARK  status: ('A' for Active; 'I' for Inactive)
REMARK    1  A    between atoms: C3_3  and  C5_5 
REMARK    2  A    between atoms: C3_3  and  C7_7 
REMARK    3  A    between atoms: C4_4  and  C6_6 
REMARK    4  A    between atoms: C4_4  and  C7_7 
REMARK    5  A    between atoms: C5_5  and  S8_8 
ROOT
HETATM    1  C1  UNL     1     -33.782   4.132   3.809  1.00 20.00     0.010 C 
HETATM    2  C7  UNL     1     -33.660   5.586   3.336  1.00 20.00    -0.017 C 
ENDROOT
BRANCH   2   3
HETATM    3  C3  UNL     1     -33.399   5.661   1.815  1.00 20.00     0.014 C 
BRANCH   3   4
HETATM    4  C5  UNL     1     -32.039   6.242   1.428  1.00 20.00     0.073 C 
BRANCH   4   5
HETATM    5  S8  UNL     1     -31.885   7.952   2.028  1.00 20.00    -0.173 SA
HETATM    6  C2  UNL     1     -32.097   8.801   0.448  1.00 20.00     0.089 C 
ENDBRANCH   4   5
ENDBRANCH   3   4
ENDBRANCH   2   3
BRANCH   2   7
HETATM    7  C4  UNL     1     -34.890   6.387   3.810  1.00 20.00     0.019 C 
BRANCH   7   8
HETATM    8  C6  UNL     1     -34.637   7.852   4.159  1.00 20.00     0.115 C 
HETATM    9 CL9  UNL     1     -33.221   8.055   5.216  1.00 20.00    -0.130 Cl
ENDBRANCH   7   8
ENDBRANCH   2   7
TORSDOF 5
ENDMDL
