MODEL 1
REMARK VINA RESULT:      -0.1      0.000      0.000
REMARK  4 active torsions:
REMARK  status: ('A' for Active; 'I' for Inactive)
REMARK    1  A    between atoms: C1_1  and  C8_8 
REMARK    2  A    between atoms: C1_1  and  O11_11 
REMARK    3  A    between atoms: C4_4  and  C8_8 
REMARK    4  A    between atoms: C8_8  and  N9_9 
ROOT
HETATM    1  C8  UNL     1     -32.713   6.891   2.458  1.00 20.00     0.324 C 
ENDROOT
BRANCH   1   2
HETATM    2  C1  UNL     1     -32.030   7.982   1.648  1.00 20.00     0.292 C 
HETATM    3  O10 UNL     1     -30.856   7.912   1.300  1.00 20.00    -0.263 OA
BRANCH   2   4
HETATM    4  O11 UNL     1     -32.873   9.014   1.360  1.00 20.00    -0.325 OA
HETATM    5  C7  UNL     1     -32.469   9.864   0.281  1.00 20.00     0.213 C 
ENDBRANCH   2   4
ENDBRANCH   1   2
BRANCH   1   6
HETATM    6  C4  UNL     1     -33.998   7.416   3.077  1.00 20.00     0.029 A 
HETATM    7  C2  UNL     1     -34.867   6.510   3.905  1.00 20.00     0.008 A 
HETATM    8  C3  UNL     1     -34.094   7.619   4.564  1.00 20.00     0.008 A 
ENDBRANCH   1   6
BRANCH   1   9
HETATM    9  N9  UNL     1     -32.982   5.721   1.662  1.00 20.00     0.094 N 
HETATM   10  C5  UNL     1     -31.744   4.991   1.351  1.00 20.00     0.310 C 
HETATM   11  C6  UNL     1     -33.673   6.073   0.413  1.00 20.00     0.310 C 
ENDBRANCH   1   9
TORSDOF 4
ENDMDL
MODEL 2
REMARK VINA RESULT:       0.0      3.105      4.881
REMARK  4 active torsions:
REMARK  status: ('A' for Active; 'I' for Inactive)
REMARK    1  A    between atoms: C1_1  and  C8_8 
REMARK    2  A    between atoms: C1_1  and  O11_11 
REMARK    3  A    between atoms: C4_4  and  C8_8 
REMARK    4  A    between atoms: C8_8  and  N9_9 
ROOT
HETATM    1  C8  UNL     1     -33.624   6.010   3.728  1.00 20.00     0.324 C 
ENDROOT
BRANCH   1   2
HETATM    2  C1  UNL     1     -34.377   4.738   4.088  1.00 20.00     0.292 C 
HETATM    3  O10 UNL     1     -35.494   4.750   4.592  1.00 20.00    -0.263 OA
BRANCH   2   4
HETATM    4  O11 UNL     1     -33.668   3.615   3.778  1.00 20.00    -0.325 OA
HETATM    5  C7  UNL     1     -33.102   2.911   4.888  1.00 20.00     0.213 C 
ENDBRANCH   2   4
ENDBRANCH   1   2
BRANCH   1   6
HETATM    6  C4  UNL     1     -33.504   6.146   2.219  1.00 20.00     0.029 A 
HETATM    7  C2  UNL     1     -32.380   6.943   1.616  1.00 20.00     0.008 A 
HETATM    8  C3  UNL     1     -32.395   5.445   1.482  1.00 20.00     0.008 A 
ENDBRANCH   1   6
BRANCH   1   9
HETATM    9  N9  UNL     1     -34.251   7.181   4.287  1.00 20.00     0.094 N 
HETATM   10  C5  UNL     1     -35.086   7.866   3.289  1.00 20.00     0.310 C 
HETATM   11  C6  UNL     1     -33.252   8.118   4.821  1.00 20.00     0.310 C 
ENDBRANCH   1   9
TORSDOF 4
ENDMDL
MODEL 3
REMARK VINA RESULT:       0.2      2.353      3.409
REMARK  4 active torsions:
REMARK  status: ('A' for Active; 'I' for Inactive)
REMARK    1  A    between atoms: C1_1  and  C8_8 
REMARK    2  A    between atoms: C1_1  and  O11_11 
REMARK    3  A    between atoms: C4_4  and  C8_8 
REMARK    4  A    between atoms: C8_8  and  N9_9 
ROOT
HETATM    1  C8  UNL     1     -33.433   5.946   3.239  1.00 20.00     0.324 C 
ENDROOT
BRANCH   1   2
HETATM    2  C1  UNL     1     -34.612   6.777   3.721  1.00 20.00     0.292 C 
HETATM    3  O10 UNL     1     -35.762   6.353   3.727  1.00 20.00    -0.263 OA
BRANCH   2   4
HETATM    4  O11 UNL     1     -34.230   8.016   4.142  1.00 20.00    -0.325 OA
HETATM    5  C7  UNL     1     -33.217   8.045   5.152  1.00 20.00     0.213 C 
ENDBRANCH   2   4
ENDBRANCH   1   2
BRANCH   1   6
HETATM    6  C4  UNL     1     -33.741   4.462   3.367  1.00 20.00     0.029 A 
HETATM    7  C2  UNL     1     -32.803   3.555   4.114  1.00 20.00     0.008 A 
HETATM    8  C3  UNL     1     -34.150   3.887   4.695  1.00 20.00     0.008 A 
ENDBRANCH   1   6
BRANCH   1   9
HETATM    9  N9  UNL     1     -33.071   6.266   1.881  1.00 20.00     0.094 N 
HETATM   10  C5  UNL     1     -32.430   5.121   1.217  1.00 20.00     0.310 C 
HETATM   11  C6  UNL     1     -32.175   7.430   1.828  1.00 20.00     0.310 C 
ENDBRANCH   1   9
TORSDOF 4
ENDMDL
MODEL 4
REMARK VINA RESULT:       0.3      1.184      2.930
REMARK  4 active torsions:
REMARK  status: ('A' for Active; 'I' for Inactive)
REMARK    1  A    between atoms: C1_1  and  C8_8 
REMARK    2  A    between atoms: C1_1  and  O11_11 
REMARK    3  A    between atoms: C4_4  and  C8_8 
REMARK    4  A    between atoms: C8_8  and  N9_9 
ROOT
HETATM    1  C8  UNL     1     -33.334   7.011   2.295  1.00 20.00     0.324 C 
ENDROOT
BRANCH   1   2
HETATM    2  C1  UNL     1     -32.215   8.006   2.027  1.00 20.00     0.292 C 
HETATM    3  O10 UNL     1     -31.360   8.282   2.862  1.00 20.00    -0.263 OA
BRANCH   2   4
HETATM    4  O11 UNL     1     -32.281   8.529   0.770  1.00 20.00    -0.325 OA
HETATM    5  C7  UNL     1     -32.492   9.943   0.695  1.00 20.00     0.213 C 
ENDBRANCH   2   4
ENDBRANCH   1   2
BRANCH   1   6
HETATM    6  C4  UNL     1     -32.901   5.607   1.903  1.00 20.00     0.029 A 
HETATM    7  C2  UNL     1     -33.187   5.083   0.523  1.00 20.00     0.008 A 
HETATM    8  C3  UNL     1     -31.775   5.408   0.926  1.00 20.00     0.008 A 
ENDBRANCH   1   6
BRANCH   1   9
HETATM    9  N9  UNL     1     -33.757   7.038   3.672  1.00 20.00     0.094 N 
HETATM   10  C5  UNL     1     -34.983   6.250   3.868  1.00 20.00     0.310 C 
HETATM   11  C6  UNL     1     -33.978   8.415   4.136  1.00 20.00     0.310 C 
ENDBRANCH   1   9
TORSDOF 4
ENDMDL
MODEL 5
REMARK VINA RESULT:       0.4      1.746      3.446
REMARK  4 active torsions:
REMARK  status: ('A' for Active; 'I' for Inactive)
REMARK    1  A    between atoms: C1_1  and  C8_8 
REMARK    2  A    between atoms: C1_1  and  O11_11 
REMARK    3  A    between atoms: C4_4  and  C8_8 
REMARK    4  A    between atoms: C8_8  and  N9_9 
ROOT
HETATM    1  C8  UNL     1     -33.343   7.059   2.071  1.00 20.00     0.324 C 
ENDROOT
BRANCH   1   2
HETATM    2  C1  UNL     1     -33.873   7.180   3.492  1.00 20.00     0.292 C 
HETATM    3  O10 UNL     1     -33.251   7.744   4.385  1.00 20.00    -0.263 OA
BRANCH   2   4
HETATM    4  O11 UNL     1     -35.100   6.602   3.635  1.00 20.00    -0.325 OA
HETATM    5  C7  UNL     1     -35.125   5.373   4.367  1.00 20.00     0.213 C 
ENDBRANCH   2   4
ENDBRANCH   1   2
BRANCH   1   6
HETATM    6  C4  UNL     1     -32.145   7.974   1.872  1.00 20.00     0.029 A 
HETATM    7  C2  UNL     1     -31.730   8.389   0.487  1.00 20.00     0.008 A 
HETATM    8  C3  UNL     1     -32.345   9.395   1.421  1.00 20.00     0.008 A 
ENDBRANCH   1   6
BRANCH   1   9
HETATM    9  N9  UNL     1     -32.995   5.700   1.742  1.00 20.00     0.094 N 
HETATM   10  C5  UNL     1     -31.536   5.520   1.698  1.00 20.00     0.310 C 
HETATM   11  C6  UNL     1     -33.580   5.296   0.456  1.00 20.00     0.310 C 
ENDBRANCH   1   9
TORSDOF 4
ENDMDL
MODEL 6
REMARK VINA RESULT:       0.5      1.847      3.149
REMARK  4 active torsions:
REMARK  status: ('A' for Active; 'I' for Inactive)
REMARK    1  A    between atoms: C1_1  and  C8_8 
REMARK    2  A    between atoms: C1_1  and  O11_11 
REMARK    3  A    between atoms: C4_4  and  C8_8 
REMARK    4  A    between atoms: C8_8  and  N9_9 
ROOT
HETATM    1  C8  UNL     1     -33.104   7.085   1.880  1.00 20.00     0.324 C 
ENDROOT
BRANCH   1   2
HETATM    2  C1  UNL     1     -32.890   5.781   1.126  1.00 20.00     0.292 C 
HETATM    3  O10 UNL     1     -33.743   5.292   0.394  1.00 20.00    -0.263 OA
BRANCH   2   4
HETATM    4  O11 UNL     1     -31.658   5.247   1.360  1.00 20.00    -0.325 OA
HETATM    5  C7  UNL     1     -31.222   4.256   0.423  1.00 20.00     0.213 C 
ENDBRANCH   2   4
ENDBRANCH   1   2
BRANCH   1   6
HETATM    6  C4  UNL     1     -33.395   6.809   3.346  1.00 20.00     0.029 A 
HETATM    7  C2  UNL     1     -34.411   7.635   4.086  1.00 20.00     0.008 A 
HETATM    8  C3  UNL     1     -34.707   6.198   3.755  1.00 20.00     0.008 A 
ENDBRANCH   1   6
BRANCH   1   9
HETATM    9  N9  UNL     1     -31.974   7.970   1.752  1.00 20.00     0.094 N 
HETATM   10  C5  UNL     1     -31.571   8.512   3.058  1.00 20.00     0.310 C 
HETATM   11  C6  UNL     1     -32.264   9.075   0.828  1.00 20.00     0.310 C 
ENDBRANCH   1   9
TORSDOF 4
ENDMDL
MODEL 7
REMARK VINA RESULT:       0.6      1.937      3.058
REMARK  4 active torsions:
REMARK  status: ('A' for Active; 'I' for Inactive)
REMARK    1  A    between atoms: C1_1  and  C8_8 
REMARK    2  A    between atoms: C1_1  and  O11_11 
REMARK    3  A    between atoms: C4_4  and  C8_8 
REMARK    4  A    between atoms: C8_8  and  N9_9 
ROOT
HETATM    1  C8  UNL     1     -33.035   7.059   1.869  1.00 20.00     0.324 C 
ENDROOT
BRANCH   1   2
HETATM    2  C1  UNL     1     -32.725   5.741   1.178  1.00 20.00     0.292 C 
HETATM    3  O10 UNL     1     -31.689   5.115   1.377  1.00 20.00    -0.263 OA
BRANCH   2   4
HETATM    4  O11 UNL     1     -33.726   5.352   0.338  1.00 20.00    -0.325 OA
HETATM    5  C7  UNL     1     -33.515   4.113  -0.348  1.00 20.00     0.213 C 
ENDBRANCH   2   4
ENDBRANCH   1   2
BRANCH   1   6
HETATM    6  C4  UNL     1     -33.356   6.826   3.337  1.00 20.00     0.029 A 
HETATM    7  C2  UNL     1     -34.427   7.633   4.017  1.00 20.00     0.008 A 
HETATM    8  C3  UNL     1     -34.651   6.173   3.734  1.00 20.00     0.008 A 
ENDBRANCH   1   6
BRANCH   1   9
HETATM    9  N9  UNL     1     -31.953   8.002   1.737  1.00 20.00     0.094 N 
HETATM   10  C5  UNL     1     -31.555   8.543   3.046  1.00 20.00     0.310 C 
HETATM   11  C6  UNL     1     -32.314   9.106   0.837  1.00 20.00     0.310 C 
ENDBRANCH   1   9
TORSDOF 4
ENDMDL
MODEL 8
REMARK VINA RESULT:       0.6      1.642      2.580
REMARK  4 active torsions:
REMARK  status: ('A' for Active; 'I' for Inactive)
REMARK    1  A    between atoms: C1_1  and  C8_8 
REMARK    2  A    between atoms: C1_1  and  O11_11 
REMARK    3  A    between atoms: C4_4  and  C8_8 
REMARK    4  A    between atoms: C8_8  and  N9_9 
ROOT
HETATM    1  C8  UNL     1     -33.238   6.330   3.258  1.00 20.00     0.324 C 
ENDROOT
BRANCH   1   2
HETATM    2  C1  UNL     1     -32.707   6.435   1.836  1.00 20.00     0.292 C 
HETATM    3  O10 UNL     1     -33.118   5.727   0.923  1.00 20.00    -0.263 OA
BRANCH   2   4
HETATM    4  O11 UNL     1     -31.749   7.397   1.713  1.00 20.00    -0.325 OA
HETATM    5  C7  UNL     1     -32.093   8.514   0.888  1.00 20.00     0.213 C 
ENDBRANCH   2   4
ENDBRANCH   1   2
BRANCH   1   6
HETATM    6  C4  UNL     1     -33.637   7.703   3.778  1.00 20.00     0.029 A 
HETATM    7  C2  UNL     1     -33.862   7.921   5.248  1.00 20.00     0.008 A 
HETATM    8  C3  UNL     1     -32.660   8.524   4.573  1.00 20.00     0.008 A 
ENDBRANCH   1   6
BRANCH   1   9
HETATM    9  N9  UNL     1     -34.349   5.418   3.351  1.00 20.00     0.094 N 
HETATM   10  C5  UNL     1     -35.521   6.066   3.957  1.00 20.00     0.310 C 
HETATM   11  C6  UNL     1     -33.992   4.220   4.125  1.00 20.00     0.310 C 
ENDBRANCH   1   9
TORSDOF 4
ENDMDL
MODEL 9
REMARK VINA RESULT:       0.7      2.822      3.949
REMARK  4 active torsions:
REMARK  status: ('A' for Active; 'I' for Inactive)
REMARK    1  A    between atoms: C1_1  and  C8_8 
REMARK    2  A    between atoms: C1_1  and  O11_11 
REMARK    3  A    between atoms: C4_4  and  C8_8 
REMARK    4  A    between atoms: C8_8  and  N9_9 
ROOT
HETATM    1  C8  UNL     1     -33.863   5.961   2.840  1.00 20.00     0.324 C 
ENDROOT
BRANCH   1   2
HETATM    2  C1  UNL     1     -34.154   4.791   3.769  1.00 20.00     0.292 C 
HETATM    3  O10 UNL     1     -35.191   4.702   4.417  1.00 20.00    -0.263 OA
BRANCH   2   4
HETATM    4  O11 UNL     1     -33.141   3.878   3.779  1.00 20.00    -0.325 OA
HETATM    5  C7  UNL     1     -33.201   2.896   4.819  1.00 20.00     0.213 C 
ENDBRANCH   2   4
ENDBRANCH   1   2
BRANCH   1   6
HETATM    6  C4  UNL     1     -33.412   7.173   3.638  1.00 20.00     0.029 A 
HETATM    7  C2  UNL     1     -34.181   8.463   3.558  1.00 20.00     0.008 A 
HETATM    8  C3  UNL     1     -34.217   7.644   4.819  1.00 20.00     0.008 A 
ENDBRANCH   1   6
BRANCH   1   9
HETATM    9  N9  UNL     1     -32.879   5.623   1.844  1.00 20.00     0.094 N 
HETATM   10  C5  UNL     1     -31.951   6.740   1.611  1.00 20.00     0.310 C 
HETATM   11  C6  UNL     1     -33.514   5.238   0.575  1.00 20.00     0.310 C 
ENDBRANCH   1   9
TORSDOF 4
ENDMDL
