MODEL 1
REMARK VINA RESULT:       0.0      0.000      0.000
REMARK  4 active torsions:
REMARK  status: ('A' for Active; 'I' for Inactive)
REMARK    1  A    between atoms: C1_1  and  C5_5 
REMARK       I    between atoms: C1_1  and  N8_8 
REMARK    2  A    between atoms: C5_5  and  S10_10 
REMARK    3  A    between atoms: C6_6  and  N8_8 
REMARK    4  A    between atoms: C7_7  and  N8_8 
ROOT
HETATM    1  C1  UNL     1     -32.215   8.015   1.897  1.00 20.00     0.229 C 
HETATM    2  N8  UNL     1     -33.037   7.153   2.636  1.00 20.00    -0.348 N 
HETATM    3  O9  UNL     1     -31.086   7.696   1.513  1.00 20.00    -0.273 OA
ENDROOT
BRANCH   2   4
HETATM    4  C6  UNL     1     -34.017   7.644   3.604  1.00 20.00     0.121 C 
HETATM    5  C2  UNL     1     -33.350   8.104   4.857  1.00 20.00     0.026 C 
ENDBRANCH   2   4
BRANCH   2   6
HETATM    6  C7  UNL     1     -32.980   5.704   2.493  1.00 20.00     0.079 C 
HETATM    7  C3  UNL     1     -33.171   5.340   1.028  1.00 20.00     0.032 C 
HETATM    8  C4  UNL     1     -34.052   5.079   3.373  1.00 20.00     0.032 C 
ENDBRANCH   2   6
BRANCH   1   9
HETATM    9  C5  UNL     1     -32.803   9.381   1.591  1.00 20.00     0.173 C 
BRANCH   9  10
HETATM   10  S10 UNL     1     -32.462   9.902  -0.110  1.00 20.00    -0.173 SA
HETATM   11  H25 UNL     1     -33.578  10.627  -0.268  1.00 20.00     0.102 HD
ENDBRANCH   9  10
ENDBRANCH   1   9
TORSDOF 4
ENDMDL
MODEL 2
REMARK VINA RESULT:       0.3      1.544      2.559
REMARK  4 active torsions:
REMARK  status: ('A' for Active; 'I' for Inactive)
REMARK    1  A    between atoms: C1_1  and  C5_5 
REMARK       I    between atoms: C1_1  and  N8_8 
REMARK    2  A    between atoms: C5_5  and  S10_10 
REMARK    3  A    between atoms: C6_6  and  N8_8 
REMARK    4  A    between atoms: C7_7  and  N8_8 
ROOT
HETATM    1  C1  UNL     1     -32.973   7.653   2.734  1.00 20.00     0.229 C 
HETATM    2  N8  UNL     1     -33.424   6.326   2.703  1.00 20.00    -0.348 N 
HETATM    3  O9  UNL     1     -33.464   8.510   3.474  1.00 20.00    -0.273 OA
ENDROOT
BRANCH   2   4
HETATM    4  C6  UNL     1     -33.353   5.502   1.497  1.00 20.00     0.121 C 
HETATM    5  C2  UNL     1     -31.942   5.142   1.175  1.00 20.00     0.026 C 
ENDBRANCH   2   4
BRANCH   2   6
HETATM    6  C7  UNL     1     -33.998   5.668   3.870  1.00 20.00     0.079 C 
HETATM    7  C3  UNL     1     -33.867   4.161   3.706  1.00 20.00     0.032 C 
HETATM    8  C4  UNL     1     -35.451   6.095   4.012  1.00 20.00     0.032 C 
ENDBRANCH   2   6
BRANCH   1   9
HETATM    9  C5  UNL     1     -31.826   7.977   1.792  1.00 20.00     0.173 C 
BRANCH   9  10
HETATM   10  S10 UNL     1     -32.250   9.308   0.639  1.00 20.00    -0.173 SA
HETATM   11  H25 UNL     1     -33.363   9.703   1.274  1.00 20.00     0.102 HD
ENDBRANCH   9  10
ENDBRANCH   1   9
TORSDOF 4
ENDMDL
MODEL 3
REMARK VINA RESULT:       0.3      1.102      1.447
REMARK  4 active torsions:
REMARK  status: ('A' for Active; 'I' for Inactive)
REMARK    1  A    between atoms: C1_1  and  C5_5 
REMARK       I    between atoms: C1_1  and  N8_8 
REMARK    2  A    between atoms: C5_5  and  S10_10 
REMARK    3  A    between atoms: C6_6  and  N8_8 
REMARK    4  A    between atoms: C7_7  and  N8_8 
ROOT
HETATM    1  C1  UNL     1     -32.519   7.565   2.122  1.00 20.00     0.229 C 
HETATM    2  N8  UNL     1     -33.506   7.257   3.068  1.00 20.00    -0.348 N 
HETATM    3  O9  UNL     1     -31.835   6.702   1.563  1.00 20.00    -0.273 OA
ENDROOT
BRANCH   2   4
HETATM    4  C6  UNL     1     -33.858   8.166   4.157  1.00 20.00     0.121 C 
HETATM    5  C2  UNL     1     -32.790   8.197   5.198  1.00 20.00     0.026 C 
ENDBRANCH   2   4
BRANCH   2   6
HETATM    6  C7  UNL     1     -34.256   6.007   3.037  1.00 20.00     0.079 C 
HETATM    7  C3  UNL     1     -35.504   6.155   3.896  1.00 20.00     0.032 C 
HETATM    8  C4  UNL     1     -33.361   4.881   3.532  1.00 20.00     0.032 C 
ENDBRANCH   2   6
BRANCH   1   9
HETATM    9  C5  UNL     1     -32.340   9.042   1.819  1.00 20.00     0.173 C 
BRANCH   9  10
HETATM   10  S10 UNL     1     -32.393   9.381   0.040  1.00 20.00    -0.173 SA
HETATM   11  H25 UNL     1     -32.907   8.197  -0.320  1.00 20.00     0.102 HD
ENDBRANCH   9  10
ENDBRANCH   1   9
TORSDOF 4
ENDMDL
MODEL 4
REMARK VINA RESULT:       0.4      2.774      4.021
REMARK  4 active torsions:
REMARK  status: ('A' for Active; 'I' for Inactive)
REMARK    1  A    between atoms: C1_1  and  C5_5 
REMARK       I    between atoms: C1_1  and  N8_8 
REMARK    2  A    between atoms: C5_5  and  S10_10 
REMARK    3  A    between atoms: C6_6  and  N8_8 
REMARK    4  A    between atoms: C7_7  and  N8_8 
ROOT
HETATM    1  C1  UNL     1     -33.780   7.307   3.717  1.00 20.00     0.229 C 
HETATM    2  N8  UNL     1     -33.111   7.448   2.493  1.00 20.00    -0.348 N 
HETATM    3  O9  UNL     1     -33.393   7.847   4.757  1.00 20.00    -0.273 OA
ENDROOT
BRANCH   2   4
HETATM    4  C6  UNL     1     -33.124   6.405   1.469  1.00 20.00     0.121 C 
HETATM    5  C2  UNL     1     -32.029   5.417   1.694  1.00 20.00     0.026 C 
ENDBRANCH   2   4
BRANCH   2   6
HETATM    6  C7  UNL     1     -32.354   8.645   2.149  1.00 20.00     0.079 C 
HETATM    7  C3  UNL     1     -32.470   8.894   0.652  1.00 20.00     0.032 C 
HETATM    8  C4  UNL     1     -30.908   8.454   2.578  1.00 20.00     0.032 C 
ENDBRANCH   2   6
BRANCH   1   9
HETATM    9  C5  UNL     1     -35.027   6.440   3.687  1.00 20.00     0.173 C 
BRANCH   9  10
HETATM   10  S10 UNL     1     -34.724   4.789   4.368  1.00 20.00    -0.173 SA
HETATM   11  H25 UNL     1     -34.863   5.135   5.655  1.00 20.00     0.102 HD
ENDBRANCH   9  10
ENDBRANCH   1   9
TORSDOF 4
ENDMDL
MODEL 5
REMARK VINA RESULT:       0.4      2.687      4.076
REMARK  4 active torsions:
REMARK  status: ('A' for Active; 'I' for Inactive)
REMARK    1  A    between atoms: C1_1  and  C5_5 
REMARK       I    between atoms: C1_1  and  N8_8 
REMARK    2  A    between atoms: C5_5  and  S10_10 
REMARK    3  A    between atoms: C6_6  and  N8_8 
REMARK    4  A    between atoms: C7_7  and  N8_8 
ROOT
HETATM    1  C1  UNL     1     -33.646   7.289   3.525  1.00 20.00     0.229 C 
HETATM    2  N8  UNL     1     -32.925   7.015   2.355  1.00 20.00    -0.348 N 
HETATM    3  O9  UNL     1     -33.198   7.985   4.440  1.00 20.00    -0.273 OA
ENDROOT
BRANCH   2   4
HETATM    4  C6  UNL     1     -33.099   5.776   1.599  1.00 20.00     0.121 C 
HETATM    5  C2  UNL     1     -31.792   5.267   1.092  1.00 20.00     0.026 C 
ENDBRANCH   2   4
BRANCH   2   6
HETATM    6  C7  UNL     1     -31.947   7.944   1.804  1.00 20.00     0.079 C 
HETATM    7  C3  UNL     1     -31.151   8.565   2.944  1.00 20.00     0.032 C 
HETATM    8  C4  UNL     1     -32.676   9.000   0.986  1.00 20.00     0.032 C 
ENDBRANCH   2   6
BRANCH   1   9
HETATM    9  C5  UNL     1     -35.032   6.671   3.600  1.00 20.00     0.173 C 
BRANCH   9  10
HETATM   10  S10 UNL     1     -35.018   5.075   4.457  1.00 20.00    -0.173 SA
HETATM   11  H25 UNL     1     -36.116   5.295   5.194  1.00 20.00     0.102 HD
ENDBRANCH   9  10
ENDBRANCH   1   9
TORSDOF 4
ENDMDL
MODEL 6
REMARK VINA RESULT:       0.8      1.506      2.155
REMARK  4 active torsions:
REMARK  status: ('A' for Active; 'I' for Inactive)
REMARK    1  A    between atoms: C1_1  and  C5_5 
REMARK       I    between atoms: C1_1  and  N8_8 
REMARK    2  A    between atoms: C5_5  and  S10_10 
REMARK    3  A    between atoms: C6_6  and  N8_8 
REMARK    4  A    between atoms: C7_7  and  N8_8 
ROOT
HETATM    1  C1  UNL     1     -33.007   6.290   2.074  1.00 20.00     0.229 C 
HETATM    2  N8  UNL     1     -33.868   6.207   3.176  1.00 20.00    -0.348 N 
HETATM    3  O9  UNL     1     -32.280   5.357   1.721  1.00 20.00    -0.273 OA
ENDROOT
BRANCH   2   4
HETATM    4  C6  UNL     1     -34.227   7.375   3.980  1.00 20.00     0.121 C 
HETATM    5  C2  UNL     1     -33.058   7.866   4.766  1.00 20.00     0.026 C 
ENDBRANCH   2   4
BRANCH   2   6
HETATM    6  C7  UNL     1     -34.472   4.952   3.604  1.00 20.00     0.079 C 
HETATM    7  C3  UNL     1     -35.569   5.246   4.617  1.00 20.00     0.032 C 
HETATM    8  C4  UNL     1     -33.389   4.058   4.190  1.00 20.00     0.032 C 
ENDBRANCH   2   6
BRANCH   1   9
HETATM    9  C5  UNL     1     -33.023   7.613   1.327  1.00 20.00     0.173 C 
BRANCH   9  10
HETATM   10  S10 UNL     1     -31.447   8.495   1.475  1.00 20.00    -0.173 SA
HETATM   11  H25 UNL     1     -31.783   9.526   0.688  1.00 20.00     0.102 HD
ENDBRANCH   9  10
ENDBRANCH   1   9
TORSDOF 4
ENDMDL
MODEL 7
REMARK VINA RESULT:       1.0      1.670      2.804
REMARK  4 active torsions:
REMARK  status: ('A' for Active; 'I' for Inactive)
REMARK    1  A    between atoms: C1_1  and  C5_5 
REMARK       I    between atoms: C1_1  and  N8_8 
REMARK    2  A    between atoms: C5_5  and  S10_10 
REMARK    3  A    between atoms: C6_6  and  N8_8 
REMARK    4  A    between atoms: C7_7  and  N8_8 
ROOT
HETATM    1  C1  UNL     1     -33.178   7.355   2.996  1.00 20.00     0.229 C 
HETATM    2  N8  UNL     1     -33.571   6.098   2.515  1.00 20.00    -0.348 N 
HETATM    3  O9  UNL     1     -33.829   7.983   3.835  1.00 20.00    -0.273 OA
ENDROOT
BRANCH   2   4
HETATM    4  C6  UNL     1     -33.244   5.638   1.167  1.00 20.00     0.121 C 
HETATM    5  C2  UNL     1     -31.911   4.971   1.134  1.00 20.00     0.026 C 
ENDBRANCH   2   4
BRANCH   2   6
HETATM    6  C7  UNL     1     -34.333   5.155   3.324  1.00 20.00     0.079 C 
HETATM    7  C3  UNL     1     -35.300   5.926   4.210  1.00 20.00     0.032 C 
HETATM    8  C4  UNL     1     -33.366   4.313   4.143  1.00 20.00     0.032 C 
ENDBRANCH   2   6
BRANCH   1   9
HETATM    9  C5  UNL     1     -31.885   7.903   2.417  1.00 20.00     0.173 C 
BRANCH   9  10
HETATM   10  S10 UNL     1     -32.186   9.022   1.024  1.00 20.00    -0.173 SA
HETATM   11  H25 UNL     1     -32.327  10.135   1.758  1.00 20.00     0.102 HD
ENDBRANCH   9  10
ENDBRANCH   1   9
TORSDOF 4
ENDMDL
MODEL 8
REMARK VINA RESULT:       1.1      2.283      3.540
REMARK  4 active torsions:
REMARK  status: ('A' for Active; 'I' for Inactive)
REMARK    1  A    between atoms: C1_1  and  C5_5 
REMARK       I    between atoms: C1_1  and  N8_8 
REMARK    2  A    between atoms: C5_5  and  S10_10 
REMARK    3  A    between atoms: C6_6  and  N8_8 
REMARK    4  A    between atoms: C7_7  and  N8_8 
ROOT
HETATM    1  C1  UNL     1     -33.147   5.822   2.257  1.00 20.00     0.229 C 
HETATM    2  N8  UNL     1     -33.009   7.163   2.639  1.00 20.00    -0.348 N 
HETATM    3  O9  UNL     1     -33.571   4.949   3.020  1.00 20.00    -0.273 OA
ENDROOT
BRANCH   2   4
HETATM    4  C6  UNL     1     -31.987   8.039   2.067  1.00 20.00     0.121 C 
HETATM    5  C2  UNL     1     -32.589   9.015   1.114  1.00 20.00     0.026 C 
ENDBRANCH   2   4
BRANCH   2   6
HETATM    6  C7  UNL     1     -33.872   7.786   3.634  1.00 20.00     0.079 C 
HETATM    7  C3  UNL     1     -33.050   8.115   4.872  1.00 20.00     0.032 C 
HETATM    8  C4  UNL     1     -35.019   6.839   3.954  1.00 20.00     0.032 C 
ENDBRANCH   2   6
BRANCH   1   9
HETATM    9  C5  UNL     1     -32.742   5.502   0.829  1.00 20.00     0.173 C 
BRANCH   9  10
HETATM   10  S10 UNL     1     -31.319   4.383   0.761  1.00 20.00    -0.173 SA
HETATM   11  H25 UNL     1     -30.609   5.102  -0.120  1.00 20.00     0.102 HD
ENDBRANCH   9  10
ENDBRANCH   1   9
TORSDOF 4
ENDMDL
MODEL 9
REMARK VINA RESULT:       1.3      2.765      3.699
REMARK  4 active torsions:
REMARK  status: ('A' for Active; 'I' for Inactive)
REMARK    1  A    between atoms: C1_1  and  C5_5 
REMARK       I    between atoms: C1_1  and  N8_8 
REMARK    2  A    between atoms: C5_5  and  S10_10 
REMARK    3  A    between atoms: C6_6  and  N8_8 
REMARK    4  A    between atoms: C7_7  and  N8_8 
ROOT
HETATM    1  C1  UNL     1     -33.652   5.836   2.674  1.00 20.00     0.229 C 
HETATM    2  N8  UNL     1     -33.284   7.161   2.942  1.00 20.00    -0.348 N 
HETATM    3  O9  UNL     1     -33.466   5.299   1.578  1.00 20.00    -0.273 OA
ENDROOT
BRANCH   2   4
HETATM    4  C6  UNL     1     -34.005   7.996   3.902  1.00 20.00     0.121 C 
HETATM    5  C2  UNL     1     -33.169   8.275   5.105  1.00 20.00     0.026 C 
ENDBRANCH   2   4
BRANCH   2   6
HETATM    6  C7  UNL     1     -32.155   7.808   2.286  1.00 20.00     0.079 C 
HETATM    7  C3  UNL     1     -32.674   8.910   1.373  1.00 20.00     0.032 C 
HETATM    8  C4  UNL     1     -31.367   6.761   1.513  1.00 20.00     0.032 C 
ENDBRANCH   2   6
BRANCH   1   9
HETATM    9  C5  UNL     1     -34.298   5.089   3.828  1.00 20.00     0.173 C 
BRANCH   9  10
HETATM   10  S10 UNL     1     -33.469   3.513   4.165  1.00 20.00    -0.173 SA
HETATM   11  H25 UNL     1     -34.560   2.864   4.596  1.00 20.00     0.102 HD
ENDBRANCH   9  10
ENDBRANCH   1   9
TORSDOF 4
ENDMDL
