MODEL 1
REMARK VINA RESULT:       2.8      0.000      0.000
REMARK  1 active torsions:
REMARK  status: ('A' for Active; 'I' for Inactive)
REMARK    1  A    between atoms: C3_3  and  C8_8 
ROOT
HETATM    1  C1  UNL     1     -31.758   6.887   1.429  1.00 20.00     0.016 A 
HETATM    2  C2  UNL     1     -31.271   8.053   0.769  1.00 20.00     0.015 A 
HETATM    3  C3  UNL     1     -33.031   7.065   1.922  1.00 20.00    -0.012 A 
HETATM    4  C4  UNL     1     -32.192   9.077   0.783  1.00 20.00    -0.021 A 
HETATM    5  C10 UNL     1     -32.068  10.435   0.208  1.00 20.00     0.056 C 
HETATM    6  S11 UNL     1     -33.636   8.632   1.588  1.00 20.00    -0.099 SA
ENDROOT
BRANCH   3   7
HETATM    7  C8  UNL     1     -33.895   6.079   2.678  1.00 20.00     0.040 C 
HETATM    8  C6  UNL     1     -33.198   4.906   3.387  1.00 20.00     0.011 C 
HETATM    9  C5  UNL     1     -34.238   4.350   4.362  1.00 20.00     0.002 C 
HETATM   10  C7  UNL     1     -35.331   5.414   4.489  1.00 20.00     0.016 C 
HETATM   11  C9  UNL     1     -34.791   6.654   3.786  1.00 20.00     0.067 C 
HETATM   12 BR12 UNL     1     -33.791   7.743   5.071  1.00 20.00    -0.090 Br
ENDBRANCH   3   7
TORSDOF 1
ENDMDL
MODEL 2
REMARK VINA RESULT:       3.1      1.591      1.967
REMARK  1 active torsions:
REMARK  status: ('A' for Active; 'I' for Inactive)
REMARK    1  A    between atoms: C3_3  and  C8_8 
ROOT
HETATM    1  C1  UNL     1     -31.487   7.639   1.404  1.00 20.00     0.016 A 
HETATM    2  C2  UNL     1     -31.265   8.769   0.565  1.00 20.00     0.015 A 
HETATM    3  C3  UNL     1     -32.642   7.763   2.144  1.00 20.00    -0.012 A 
HETATM    4  C4  UNL     1     -32.259   9.713   0.697  1.00 20.00    -0.021 A 
HETATM    5  C10 UNL     1     -32.391  11.014   0.003  1.00 20.00     0.056 C 
HETATM    6  S11 UNL     1     -33.454   9.237   1.826  1.00 20.00    -0.099 SA
ENDROOT
BRANCH   3   7
HETATM    7  C8  UNL     1     -33.229   6.789   3.144  1.00 20.00     0.040 C 
HETATM    8  C6  UNL     1     -34.724   6.915   3.479  1.00 20.00     0.011 C 
HETATM    9  C5  UNL     1     -35.095   5.598   4.164  1.00 20.00     0.002 C 
HETATM   10  C7  UNL     1     -33.963   4.615   3.862  1.00 20.00     0.016 C 
HETATM   11  C9  UNL     1     -33.085   5.295   2.818  1.00 20.00     0.067 C 
HETATM   12 BR12 UNL     1     -33.746   4.849   1.028  1.00 20.00    -0.090 Br
ENDBRANCH   3   7
TORSDOF 1
ENDMDL
MODEL 3
REMARK VINA RESULT:       3.9      2.188      5.213
REMARK  1 active torsions:
REMARK  status: ('A' for Active; 'I' for Inactive)
REMARK    1  A    between atoms: C3_3  and  C8_8 
ROOT
HETATM    1  C1  UNL     1     -34.979   6.049   3.989  1.00 20.00     0.016 A 
HETATM    2  C2  UNL     1     -35.044   4.771   4.618  1.00 20.00     0.015 A 
HETATM    3  C3  UNL     1     -33.814   6.216   3.274  1.00 20.00    -0.012 A 
HETATM    4  C4  UNL     1     -33.925   4.011   4.358  1.00 20.00    -0.021 A 
HETATM    5  C10 UNL     1     -33.615   2.641   4.823  1.00 20.00     0.056 C 
HETATM    6  S11 UNL     1     -32.804   4.836   3.361  1.00 20.00    -0.099 SA
ENDROOT
BRANCH   3   7
HETATM    7  C8  UNL     1     -33.366   7.417   2.470  1.00 20.00     0.040 C 
HETATM    8  C6  UNL     1     -32.133   8.195   2.961  1.00 20.00     0.011 C 
HETATM    9  C5  UNL     1     -31.701   9.055   1.773  1.00 20.00     0.002 C 
HETATM   10  C7  UNL     1     -32.408   8.486   0.540  1.00 20.00     0.016 C 
HETATM   11  C9  UNL     1     -33.037   7.172   0.989  1.00 20.00     0.067 C 
HETATM   12 BR12 UNL     1     -31.750   5.718   0.735  1.00 20.00    -0.090 Br
ENDBRANCH   3   7
TORSDOF 1
ENDMDL
MODEL 4
REMARK VINA RESULT:       4.1      1.711      5.095
REMARK  1 active torsions:
REMARK  status: ('A' for Active; 'I' for Inactive)
REMARK    1  A    between atoms: C3_3  and  C8_8 
ROOT
HETATM    1  C1  UNL     1     -34.463   7.198   3.419  1.00 20.00     0.016 A 
HETATM    2  C2  UNL     1     -34.689   6.046   4.227  1.00 20.00     0.015 A 
HETATM    3  C3  UNL     1     -33.567   6.951   2.403  1.00 20.00    -0.012 A 
HETATM    4  C4  UNL     1     -33.956   4.962   3.796  1.00 20.00    -0.021 A 
HETATM    5  C10 UNL     1     -33.915   3.595   4.362  1.00 20.00     0.056 C 
HETATM    6  S11 UNL     1     -33.002   5.334   2.425  1.00 20.00    -0.099 SA
ENDROOT
BRANCH   3   7
HETATM    7  C8  UNL     1     -33.065   7.902   1.338  1.00 20.00     0.040 C 
HETATM    8  C6  UNL     1     -33.514   9.370   1.412  1.00 20.00     0.011 C 
HETATM    9  C5  UNL     1     -32.558  10.131   0.493  1.00 20.00     0.002 C 
HETATM   10  C7  UNL     1     -31.371   9.201   0.230  1.00 20.00     0.016 C 
HETATM   11  C9  UNL     1     -31.541   8.026   1.187  1.00 20.00     0.067 C 
HETATM   12 BR12 UNL     1     -30.650   8.439   2.883  1.00 20.00    -0.090 Br
ENDBRANCH   3   7
TORSDOF 1
ENDMDL
MODEL 5
REMARK VINA RESULT:       5.4      1.445      4.840
REMARK  1 active torsions:
REMARK  status: ('A' for Active; 'I' for Inactive)
REMARK    1  A    between atoms: C3_3  and  C8_8 
ROOT
HETATM    1  C1  UNL     1     -32.893   5.092   2.223  1.00 20.00     0.016 A 
HETATM    2  C2  UNL     1     -33.690   4.469   3.227  1.00 20.00     0.015 A 
HETATM    3  C3  UNL     1     -33.152   6.441   2.121  1.00 20.00    -0.012 A 
HETATM    4  C4  UNL     1     -34.526   5.366   3.854  1.00 20.00    -0.021 A 
HETATM    5  C10 UNL     1     -35.497   5.113   4.941  1.00 20.00     0.056 C 
HETATM    6  S11 UNL     1     -34.350   6.951   3.234  1.00 20.00    -0.099 SA
ENDROOT
BRANCH   3   7
HETATM    7  C8  UNL     1     -32.524   7.453   1.187  1.00 20.00     0.040 C 
HETATM    8  C6  UNL     1     -33.373   8.660   0.755  1.00 20.00     0.011 C 
HETATM    9  C5  UNL     1     -32.377   9.668   0.180  1.00 20.00     0.002 C 
HETATM   10  C7  UNL     1     -30.987   9.220   0.638  1.00 20.00     0.016 C 
HETATM   11  C9  UNL     1     -31.221   8.115   1.662  1.00 20.00     0.067 C 
HETATM   12 BR12 UNL     1     -31.389   8.909   3.445  1.00 20.00    -0.090 Br
ENDBRANCH   3   7
TORSDOF 1
ENDMDL
