MODEL 1
REMARK VINA RESULT:       1.4      0.000      0.000
REMARK  1 active torsions:
REMARK  status: ('A' for Active; 'I' for Inactive)
REMARK    1  A    between atoms: C3_3  and  C9_9 
ROOT
HETATM    1  C1  UNL     1     -31.712   7.216   1.225  1.00 20.00     0.016 A 
HETATM    2  C2  UNL     1     -31.555   8.385   0.425  1.00 20.00     0.015 A 
HETATM    3  C3  UNL     1     -32.671   7.382   2.201  1.00 20.00    -0.013 A 
HETATM    4  C4  UNL     1     -32.399   9.399   0.820  1.00 20.00    -0.021 A 
HETATM    5  C10 UNL     1     -32.538  10.756   0.247  1.00 20.00     0.056 C 
HETATM    6  S12 UNL     1     -33.376   8.942   2.149  1.00 20.00    -0.099 SA
ENDROOT
BRANCH   3   7
HETATM    7  C9  UNL     1     -33.131   6.392   3.243  1.00 20.00     0.033 C 
HETATM    8  C7  UNL     1     -34.589   6.578   3.685  1.00 20.00     0.088 C 
HETATM    9  C5  UNL     1     -34.921   5.208   4.220  1.00 20.00     0.127 C 
HETATM   10  C6  UNL     1     -33.884   4.180   3.848  1.00 20.00     0.079 C 
HETATM   11  O11 UNL     1     -35.920   4.958   4.882  1.00 20.00    -0.298 OA
HETATM   12  C8  UNL     1     -33.063   4.925   2.800  1.00 20.00     0.018 C 
ENDBRANCH   3   7
TORSDOF 1
ENDMDL
MODEL 2
REMARK VINA RESULT:       1.8      2.701      5.363
REMARK  1 active torsions:
REMARK  status: ('A' for Active; 'I' for Inactive)
REMARK    1  A    between atoms: C3_3  and  C9_9 
ROOT
HETATM    1  C1  UNL     1     -34.436   6.622   3.449  1.00 20.00     0.016 A 
HETATM    2  C2  UNL     1     -34.608   5.480   4.284  1.00 20.00     0.015 A 
HETATM    3  C3  UNL     1     -33.455   6.427   2.502  1.00 20.00    -0.013 A 
HETATM    4  C4  UNL     1     -33.751   4.457   3.944  1.00 20.00    -0.021 A 
HETATM    5  C10 UNL     1     -33.621   3.120   4.565  1.00 20.00     0.056 C 
HETATM    6  S12 UNL     1     -32.745   4.873   2.623  1.00 20.00    -0.099 SA
ENDROOT
BRANCH   3   7
HETATM    7  C9  UNL     1     -32.973   7.383   1.438  1.00 20.00     0.033 C 
HETATM    8  C7  UNL     1     -33.387   8.842   1.670  1.00 20.00     0.088 C 
HETATM    9  C5  UNL     1     -32.352   9.584   0.863  1.00 20.00     0.127 C 
HETATM   10  C6  UNL     1     -31.210   8.696   0.440  1.00 20.00     0.079 C 
HETATM   11  O11 UNL     1     -32.429  10.773   0.583  1.00 20.00    -0.298 OA
HETATM   12  C8  UNL     1     -31.448   7.451   1.288  1.00 20.00     0.018 C 
ENDBRANCH   3   7
TORSDOF 1
ENDMDL
MODEL 3
REMARK VINA RESULT:       1.9      0.949      1.500
REMARK  1 active torsions:
REMARK  status: ('A' for Active; 'I' for Inactive)
REMARK    1  A    between atoms: C3_3  and  C9_9 
ROOT
HETATM    1  C1  UNL     1     -31.735   7.008   1.513  1.00 20.00     0.016 A 
HETATM    2  C2  UNL     1     -31.296   8.242   0.950  1.00 20.00     0.015 A 
HETATM    3  C3  UNL     1     -33.037   7.078   1.960  1.00 20.00    -0.013 A 
HETATM    4  C4  UNL     1     -32.278   9.206   0.988  1.00 20.00    -0.021 A 
HETATM    5  C10 UNL     1     -32.215  10.603   0.506  1.00 20.00     0.056 C 
HETATM    6  S12 UNL     1     -33.723   8.626   1.700  1.00 20.00    -0.099 SA
ENDROOT
BRANCH   3   7
HETATM    7  C9  UNL     1     -33.865   5.998   2.613  1.00 20.00     0.033 C 
HETATM    8  C7  UNL     1     -33.050   4.796   3.110  1.00 20.00     0.088 C 
HETATM    9  C5  UNL     1     -33.968   4.221   4.159  1.00 20.00     0.127 C 
HETATM   10  C6  UNL     1     -35.094   5.158   4.513  1.00 20.00     0.079 C 
HETATM   11  O11 UNL     1     -33.816   3.117   4.666  1.00 20.00    -0.298 OA
HETATM   12  C8  UNL     1     -34.642   6.457   3.853  1.00 20.00     0.018 C 
ENDBRANCH   3   7
TORSDOF 1
ENDMDL
MODEL 4
REMARK VINA RESULT:       1.9      2.841      5.531
REMARK  1 active torsions:
REMARK  status: ('A' for Active; 'I' for Inactive)
REMARK    1  A    between atoms: C3_3  and  C9_9 
ROOT
HETATM    1  C1  UNL     1     -34.261   7.601   3.763  1.00 20.00     0.016 A 
HETATM    2  C2  UNL     1     -34.752   6.380   4.309  1.00 20.00     0.015 A 
HETATM    3  C3  UNL     1     -33.229   7.391   2.875  1.00 20.00    -0.013 A 
HETATM    4  C4  UNL     1     -34.078   5.285   3.817  1.00 20.00    -0.021 A 
HETATM    5  C10 UNL     1     -34.289   3.855   4.134  1.00 20.00     0.056 C 
HETATM    6  S12 UNL     1     -32.857   5.729   2.702  1.00 20.00    -0.099 SA
ENDROOT
BRANCH   3   7
HETATM    7  C9  UNL     1     -32.444   8.414   2.090  1.00 20.00     0.033 C 
HETATM    8  C7  UNL     1     -31.600   7.821   0.953  1.00 20.00     0.088 C 
HETATM    9  C5  UNL     1     -31.427   9.015   0.048  1.00 20.00     0.127 C 
HETATM   10  C6  UNL     1     -32.346  10.152   0.417  1.00 20.00     0.079 C 
HETATM   11  O11 UNL     1     -30.631   9.057  -0.880  1.00 20.00    -0.298 OA
HETATM   12  C8  UNL     1     -33.302   9.479   1.396  1.00 20.00     0.018 C 
ENDBRANCH   3   7
TORSDOF 1
ENDMDL
MODEL 5
REMARK VINA RESULT:       3.9      2.706      5.242
REMARK  1 active torsions:
REMARK  status: ('A' for Active; 'I' for Inactive)
REMARK    1  A    between atoms: C3_3  and  C9_9 
ROOT
HETATM    1  C1  UNL     1     -32.494   5.252   2.329  1.00 20.00     0.016 A 
HETATM    2  C2  UNL     1     -33.314   4.547   3.257  1.00 20.00     0.015 A 
HETATM    3  C3  UNL     1     -32.892   6.562   2.179  1.00 20.00    -0.013 A 
HETATM    4  C4  UNL     1     -34.308   5.345   3.779  1.00 20.00    -0.021 A 
HETATM    5  C10 UNL     1     -35.352   4.988   4.764  1.00 20.00     0.056 C 
HETATM    6  S12 UNL     1     -34.250   6.937   3.153  1.00 20.00    -0.099 SA
ENDROOT
BRANCH   3   7
HETATM    7  C9  UNL     1     -32.292   7.631   1.298  1.00 20.00     0.033 C 
HETATM    8  C7  UNL     1     -33.208   8.094   0.158  1.00 20.00     0.088 C 
HETATM    9  C5  UNL     1     -32.646   9.460  -0.149  1.00 20.00     0.127 C 
HETATM   10  C6  UNL     1     -31.687   9.936   0.911  1.00 20.00     0.079 C 
HETATM   11  O11 UNL     1     -32.935  10.107  -1.146  1.00 20.00    -0.298 OA
HETATM   12  C8  UNL     1     -31.929   8.929   2.031  1.00 20.00     0.018 C 
ENDBRANCH   3   7
TORSDOF 1
ENDMDL
