MODEL 1
REMARK VINA RESULT:       2.8      0.000      0.000
REMARK  1 active torsions:
REMARK  status: ('A' for Active; 'I' for Inactive)
REMARK    1  A    between atoms: C3_3  and  C8_8 
ROOT
HETATM    1  C1  UNL     1     -31.581   7.411   1.289  1.00 20.00     0.016 A 
HETATM    2  C2  UNL     1     -31.337   8.376   0.268  1.00 20.00     0.015 A 
HETATM    3  C3  UNL     1     -32.552   7.827   2.173  1.00 20.00    -0.012 A 
HETATM    4  C4  UNL     1     -32.131   9.492   0.412  1.00 20.00    -0.021 A 
HETATM    5  C10 UNL     1     -32.178  10.702  -0.436  1.00 20.00     0.056 C 
HETATM    6  S11 UNL     1     -33.164   9.375   1.773  1.00 20.00    -0.099 SA
ENDROOT
BRANCH   3   7
HETATM    7  C8  UNL     1     -33.095   7.100   3.385  1.00 20.00     0.040 C 
HETATM    8  C6  UNL     1     -33.846   8.032   4.353  1.00 20.00     0.011 C 
HETATM    9  C5  UNL     1     -34.836   7.111   5.047  1.00 20.00     0.002 C 
HETATM   10  C7  UNL     1     -35.337   6.229   3.911  1.00 20.00     0.016 C 
HETATM   11  C9  UNL     1     -34.104   5.985   3.041  1.00 20.00     0.067 C 
HETATM   12 BR12 UNL     1     -33.331   4.234   3.469  1.00 20.00    -0.090 Br
ENDBRANCH   3   7
TORSDOF 1
ENDMDL
MODEL 2
REMARK VINA RESULT:       2.9      2.559      5.256
REMARK  1 active torsions:
REMARK  status: ('A' for Active; 'I' for Inactive)
REMARK    1  A    between atoms: C3_3  and  C8_8 
ROOT
HETATM    1  C1  UNL     1     -33.776   8.082   3.514  1.00 20.00     0.016 A 
HETATM    2  C2  UNL     1     -34.401   6.967   4.144  1.00 20.00     0.015 A 
HETATM    3  C3  UNL     1     -32.922   7.695   2.505  1.00 20.00    -0.012 A 
HETATM    4  C4  UNL     1     -34.001   5.770   3.592  1.00 20.00    -0.021 A 
HETATM    5  C10 UNL     1     -34.419   4.401   3.963  1.00 20.00     0.056 C 
HETATM    6  S11 UNL     1     -32.876   5.994   2.320  1.00 20.00    -0.099 SA
ENDROOT
BRANCH   3   7
HETATM    7  C8  UNL     1     -32.076   8.566   1.602  1.00 20.00     0.040 C 
HETATM    8  C6  UNL     1     -31.212   7.750   0.623  1.00 20.00     0.011 C 
HETATM    9  C5  UNL     1     -31.016   8.689  -0.557  1.00 20.00     0.002 C 
HETATM   10  C7  UNL     1     -32.391   9.323  -0.719  1.00 20.00     0.016 C 
HETATM   11  C9  UNL     1     -32.896   9.520   0.709  1.00 20.00     0.067 C 
HETATM   12 BR12 UNL     1     -32.594  11.376   1.266  1.00 20.00    -0.090 Br
ENDBRANCH   3   7
TORSDOF 1
ENDMDL
MODEL 3
REMARK VINA RESULT:       4.8      1.022      1.401
REMARK  1 active torsions:
REMARK  status: ('A' for Active; 'I' for Inactive)
REMARK    1  A    between atoms: C3_3  and  C8_8 
ROOT
HETATM    1  C1  UNL     1     -33.017   9.311   1.860  1.00 20.00     0.016 A 
HETATM    2  C2  UNL     1     -32.351   9.733   0.673  1.00 20.00     0.015 A 
HETATM    3  C3  UNL     1     -32.681   8.022   2.211  1.00 20.00    -0.012 A 
HETATM    4  C4  UNL     1     -31.531   8.752   0.163  1.00 20.00    -0.021 A 
HETATM    5  C10 UNL     1     -30.677   8.801  -1.043  1.00 20.00     0.056 C 
HETATM    6  S11 UNL     1     -31.567   7.327   1.113  1.00 20.00    -0.099 SA
ENDROOT
BRANCH   3   7
HETATM    7  C8  UNL     1     -33.167   7.211   3.393  1.00 20.00     0.040 C 
HETATM    8  C6  UNL     1     -33.955   8.053   4.412  1.00 20.00     0.011 C 
HETATM    9  C5  UNL     1     -34.883   7.047   5.074  1.00 20.00     0.002 C 
HETATM   10  C7  UNL     1     -35.349   6.192   3.903  1.00 20.00     0.016 C 
HETATM   11  C9  UNL     1     -34.117   6.058   3.009  1.00 20.00     0.067 C 
HETATM   12 BR12 UNL     1     -33.242   4.335   3.346  1.00 20.00    -0.090 Br
ENDBRANCH   3   7
TORSDOF 1
ENDMDL
MODEL 4
REMARK VINA RESULT:       5.6      2.605      5.142
REMARK  1 active torsions:
REMARK  status: ('A' for Active; 'I' for Inactive)
REMARK    1  A    between atoms: C3_3  and  C8_8 
ROOT
HETATM    1  C1  UNL     1     -34.941   5.974   4.063  1.00 20.00     0.016 A 
HETATM    2  C2  UNL     1     -35.027   4.613   4.477  1.00 20.00     0.015 A 
HETATM    3  C3  UNL     1     -33.736   6.256   3.459  1.00 20.00    -0.012 A 
HETATM    4  C4  UNL     1     -33.884   3.907   4.173  1.00 20.00    -0.021 A 
HETATM    5  C10 UNL     1     -33.586   2.483   4.436  1.00 20.00     0.056 C 
HETATM    6  S11 UNL     1     -32.714   4.884   3.393  1.00 20.00    -0.099 SA
ENDROOT
BRANCH   3   7
HETATM    7  C8  UNL     1     -33.256   7.571   2.885  1.00 20.00     0.040 C 
HETATM    8  C6  UNL     1     -32.588   8.474   3.937  1.00 20.00     0.011 C 
HETATM    9  C5  UNL     1     -31.624   9.325   3.126  1.00 20.00     0.002 C 
HETATM   10  C7  UNL     1     -31.034   8.327   2.139  1.00 20.00     0.016 C 
HETATM   11  C9  UNL     1     -32.203   7.415   1.767  1.00 20.00     0.067 C 
HETATM   12 BR12 UNL     1     -32.965   7.987   0.052  1.00 20.00    -0.090 Br
ENDBRANCH   3   7
TORSDOF 1
ENDMDL
MODEL 5
REMARK VINA RESULT:       5.8      3.181      4.181
REMARK  1 active torsions:
REMARK  status: ('A' for Active; 'I' for Inactive)
REMARK    1  A    between atoms: C3_3  and  C8_8 
ROOT
HETATM    1  C1  UNL     1     -33.772   5.057   0.336  1.00 20.00     0.016 A 
HETATM    2  C2  UNL     1     -32.996   4.040  -0.292  1.00 20.00     0.015 A 
HETATM    3  C3  UNL     1     -33.002   5.882   1.126  1.00 20.00    -0.012 A 
HETATM    4  C4  UNL     1     -31.662   4.127   0.042  1.00 20.00    -0.021 A 
HETATM    5  C10 UNL     1     -30.545   3.265  -0.400  1.00 20.00     0.056 C 
HETATM    6  S11 UNL     1     -31.351   5.429   1.110  1.00 20.00    -0.099 SA
ENDROOT
BRANCH   3   7
HETATM    7  C8  UNL     1     -33.441   7.070   1.955  1.00 20.00     0.040 C 
HETATM    8  C6  UNL     1     -33.974   6.668   3.341  1.00 20.00     0.011 C 
HETATM    9  C5  UNL     1     -33.704   7.891   4.203  1.00 20.00     0.002 C 
HETATM   10  C7  UNL     1     -32.319   8.329   3.748  1.00 20.00     0.016 C 
HETATM   11  C9  UNL     1     -32.311   8.081   2.240  1.00 20.00     0.067 C 
HETATM   12 BR12 UNL     1     -32.669   9.762   1.294  1.00 20.00    -0.090 Br
ENDBRANCH   3   7
TORSDOF 1
ENDMDL
MODEL 6
REMARK VINA RESULT:       5.8      1.521      1.930
REMARK  1 active torsions:
REMARK  status: ('A' for Active; 'I' for Inactive)
REMARK    1  A    between atoms: C3_3  and  C8_8 
ROOT
HETATM    1  C1  UNL     1     -33.195   9.702   2.021  1.00 20.00     0.016 A 
HETATM    2  C2  UNL     1     -32.955  10.673   1.005  1.00 20.00     0.015 A 
HETATM    3  C3  UNL     1     -32.611   8.490   1.726  1.00 20.00    -0.012 A 
HETATM    4  C4  UNL     1     -32.198  10.165  -0.027  1.00 20.00    -0.021 A 
HETATM    5  C10 UNL     1     -31.739  10.849  -1.255  1.00 20.00     0.056 C 
HETATM    6  S11 UNL     1     -31.780   8.524   0.230  1.00 20.00    -0.099 SA
ENDROOT
BRANCH   3   7
HETATM    7  C8  UNL     1     -32.631   7.213   2.539  1.00 20.00     0.040 C 
HETATM    8  C6  UNL     1     -33.656   7.251   3.686  1.00 20.00     0.011 C 
HETATM    9  C5  UNL     1     -34.013   5.789   3.901  1.00 20.00     0.002 C 
HETATM   10  C7  UNL     1     -34.115   5.250   2.481  1.00 20.00     0.016 C 
HETATM   11  C9  UNL     1     -32.997   5.958   1.718  1.00 20.00     0.067 C 
HETATM   12 BR12 UNL     1     -31.439   4.775   1.582  1.00 20.00    -0.090 Br
ENDBRANCH   3   7
TORSDOF 1
ENDMDL
