MODEL 1
REMARK VINA RESULT:       0.5      0.000      0.000
REMARK  1 active torsions:
REMARK  status: ('A' for Active; 'I' for Inactive)
REMARK    1  A    between atoms: C3_3  and  C6_6 
ROOT
HETATM    1  C1  UNL     1     -32.158   8.677   1.123  1.00 20.00     0.087 C 
HETATM    2  C5  UNL     1     -32.449   7.719   2.132  1.00 20.00     0.095 C 
HETATM    3  C6  UNL     1     -33.126   6.542   1.891  1.00 20.00     0.032 C 
HETATM    4  N8  UNL     1     -31.920   9.462   0.303  1.00 20.00    -0.192 NA
ENDROOT
BRANCH   3   5
HETATM    5  C3  UNL     1     -33.463   5.545   2.827  1.00 20.00     0.031 A 
HETATM    6  C4  UNL     1     -34.494   5.493   3.743  1.00 20.00     0.048 A 
HETATM    7  C7  UNL     1     -35.527   6.528   3.957  1.00 20.00     0.072 C 
HETATM    8  N9  UNL     1     -34.548   4.357   4.527  1.00 20.00    -0.258 NA
HETATM    9  C2  UNL     1     -33.555   3.562   4.192  1.00 20.00     0.167 A 
HETATM   10  S10 UNL     1     -32.517   4.119   2.943  1.00 20.00    -0.081 SA
ENDBRANCH   3   5
TORSDOF 1
ENDMDL
MODEL 2
REMARK VINA RESULT:       0.6      1.708      2.473
REMARK  1 active torsions:
REMARK  status: ('A' for Active; 'I' for Inactive)
REMARK    1  A    between atoms: C3_3  and  C6_6 
ROOT
HETATM    1  C1  UNL     1     -32.315  10.008   0.269  1.00 20.00     0.087 C 
HETATM    2  C5  UNL     1     -32.905   8.820   0.781  1.00 20.00     0.095 C 
HETATM    3  C6  UNL     1     -32.657   8.332   2.047  1.00 20.00     0.032 C 
HETATM    4  N8  UNL     1     -31.834  10.976  -0.153  1.00 20.00    -0.192 NA
ENDROOT
BRANCH   3   5
HETATM    5  C3  UNL     1     -33.188   7.165   2.630  1.00 20.00     0.031 A 
HETATM    6  C4  UNL     1     -33.007   5.838   2.295  1.00 20.00     0.048 A 
HETATM    7  C7  UNL     1     -32.171   5.321   1.192  1.00 20.00     0.072 C 
HETATM    8  N9  UNL     1     -33.680   4.922   3.079  1.00 20.00    -0.258 NA
HETATM    9  C2  UNL     1     -34.364   5.568   3.998  1.00 20.00     0.167 A 
HETATM   10  S10 UNL     1     -34.243   7.280   3.977  1.00 20.00    -0.081 SA
ENDBRANCH   3   5
TORSDOF 1
ENDMDL
MODEL 3
REMARK VINA RESULT:       0.7      1.418      1.744
REMARK  1 active torsions:
REMARK  status: ('A' for Active; 'I' for Inactive)
REMARK    1  A    between atoms: C3_3  and  C6_6 
ROOT
HETATM    1  C1  UNL     1     -32.305  10.066   0.155  1.00 20.00     0.087 C 
HETATM    2  C5  UNL     1     -32.881   8.868   0.660  1.00 20.00     0.095 C 
HETATM    3  C6  UNL     1     -32.366   8.169   1.731  1.00 20.00     0.032 C 
HETATM    4  N8  UNL     1     -31.837  11.043  -0.260  1.00 20.00    -0.192 NA
ENDROOT
BRANCH   3   5
HETATM    5  C3  UNL     1     -32.865   6.975   2.290  1.00 20.00     0.031 A 
HETATM    6  C4  UNL     1     -33.674   6.775   3.390  1.00 20.00     0.048 A 
HETATM    7  C7  UNL     1     -34.226   7.824   4.272  1.00 20.00     0.072 C 
HETATM    8  N9  UNL     1     -33.986   5.461   3.677  1.00 20.00    -0.258 NA
HETATM    9  C2  UNL     1     -33.408   4.682   2.788  1.00 20.00     0.167 A 
HETATM   10  S10 UNL     1     -32.472   5.465   1.580  1.00 20.00    -0.081 SA
ENDBRANCH   3   5
TORSDOF 1
ENDMDL
MODEL 4
REMARK VINA RESULT:       1.6      2.964      3.813
REMARK  1 active torsions:
REMARK  status: ('A' for Active; 'I' for Inactive)
REMARK    1  A    between atoms: C3_3  and  C6_6 
ROOT
HETATM    1  C1  UNL     1     -31.080   3.941   0.030  1.00 20.00     0.087 C 
HETATM    2  C5  UNL     1     -31.466   4.777   1.114  1.00 20.00     0.095 C 
HETATM    3  C6  UNL     1     -32.692   5.402   1.193  1.00 20.00     0.032 C 
HETATM    4  N8  UNL     1     -30.761   3.259  -0.852  1.00 20.00    -0.192 NA
ENDROOT
BRANCH   3   5
HETATM    5  C3  UNL     1     -33.153   6.250   2.219  1.00 20.00     0.031 A 
HETATM    6  C4  UNL     1     -32.843   7.566   2.495  1.00 20.00     0.048 A 
HETATM    7  C7  UNL     1     -31.909   8.423   1.735  1.00 20.00     0.072 C 
HETATM    8  N9  UNL     1     -33.476   8.117   3.592  1.00 20.00    -0.258 NA
HETATM    9  C2  UNL     1     -34.260   7.209   4.132  1.00 20.00     0.167 A 
HETATM   10  S10 UNL     1     -34.281   5.670   3.372  1.00 20.00    -0.081 SA
ENDBRANCH   3   5
TORSDOF 1
ENDMDL
MODEL 5
REMARK VINA RESULT:       1.7      1.765      4.710
REMARK  1 active torsions:
REMARK  status: ('A' for Active; 'I' for Inactive)
REMARK    1  A    between atoms: C3_3  and  C6_6 
ROOT
HETATM    1  C1  UNL     1     -33.235   2.661   4.435  1.00 20.00     0.087 C 
HETATM    2  C5  UNL     1     -32.765   3.931   4.002  1.00 20.00     0.095 C 
HETATM    3  C6  UNL     1     -33.512   4.795   3.229  1.00 20.00     0.032 C 
HETATM    4  N8  UNL     1     -33.614   1.623   4.790  1.00 20.00    -0.192 NA
ENDROOT
BRANCH   3   5
HETATM    5  C3  UNL     1     -33.125   6.062   2.750  1.00 20.00     0.031 A 
HETATM    6  C4  UNL     1     -33.414   7.323   3.229  1.00 20.00     0.048 A 
HETATM    7  C7  UNL     1     -34.237   7.641   4.415  1.00 20.00     0.072 C 
HETATM    8  N9  UNL     1     -32.873   8.377   2.519  1.00 20.00    -0.258 NA
HETATM    9  C2  UNL     1     -32.180   7.898   1.509  1.00 20.00     0.167 A 
HETATM   10  S10 UNL     1     -32.139   6.189   1.353  1.00 20.00    -0.081 SA
ENDBRANCH   3   5
TORSDOF 1
ENDMDL
MODEL 6
REMARK VINA RESULT:       1.8      2.109      5.052
REMARK  1 active torsions:
REMARK  status: ('A' for Active; 'I' for Inactive)
REMARK    1  A    between atoms: C3_3  and  C6_6 
ROOT
HETATM    1  C1  UNL     1     -33.285   2.435   4.522  1.00 20.00     0.087 C 
HETATM    2  C5  UNL     1     -32.952   3.776   4.188  1.00 20.00     0.095 C 
HETATM    3  C6  UNL     1     -33.812   4.634   3.536  1.00 20.00     0.032 C 
HETATM    4  N8  UNL     1     -33.554   1.339   4.795  1.00 20.00    -0.192 NA
ENDROOT
BRANCH   3   5
HETATM    5  C3  UNL     1     -33.563   5.968   3.160  1.00 20.00     0.031 A 
HETATM    6  C4  UNL     1     -32.816   6.477   2.117  1.00 20.00     0.048 A 
HETATM    7  C7  UNL     1     -32.072   5.692   1.110  1.00 20.00     0.072 C 
HETATM    8  N9  UNL     1     -32.771   7.854   2.022  1.00 20.00    -0.258 NA
HETATM    9  C2  UNL     1     -33.487   8.371   2.997  1.00 20.00     0.167 A 
HETATM   10  S10 UNL     1     -34.240   7.257   4.065  1.00 20.00    -0.081 SA
ENDBRANCH   3   5
TORSDOF 1
ENDMDL
MODEL 7
REMARK VINA RESULT:       2.0      2.941      3.467
REMARK  1 active torsions:
REMARK  status: ('A' for Active; 'I' for Inactive)
REMARK    1  A    between atoms: C3_3  and  C6_6 
ROOT
HETATM    1  C1  UNL     1     -31.308   4.238   0.178  1.00 20.00     0.087 C 
HETATM    2  C5  UNL     1     -31.612   5.212   1.168  1.00 20.00     0.095 C 
HETATM    3  C6  UNL     1     -32.890   5.460   1.624  1.00 20.00     0.032 C 
HETATM    4  N8  UNL     1     -31.056   3.445  -0.630  1.00 20.00    -0.192 NA
ENDROOT
BRANCH   3   5
HETATM    5  C3  UNL     1     -33.282   6.408   2.590  1.00 20.00     0.031 A 
HETATM    6  C4  UNL     1     -34.177   6.297   3.635  1.00 20.00     0.048 A 
HETATM    7  C7  UNL     1     -34.963   5.097   3.991  1.00 20.00     0.072 C 
HETATM    8  N9  UNL     1     -34.339   7.428   4.412  1.00 20.00    -0.258 NA
HETATM    9  C2  UNL     1     -33.563   8.381   3.943  1.00 20.00     0.167 A 
HETATM   10  S10 UNL     1     -32.613   7.986   2.569  1.00 20.00    -0.081 SA
ENDBRANCH   3   5
TORSDOF 1
ENDMDL
MODEL 8
REMARK VINA RESULT:       2.3      2.961      3.912
REMARK  1 active torsions:
REMARK  status: ('A' for Active; 'I' for Inactive)
REMARK    1  A    between atoms: C3_3  and  C6_6 
ROOT
HETATM    1  C1  UNL     1     -34.123   4.008  -0.506  1.00 20.00     0.087 C 
HETATM    2  C5  UNL     1     -33.931   5.229   0.196  1.00 20.00     0.095 C 
HETATM    3  C6  UNL     1     -33.336   5.307   1.438  1.00 20.00     0.032 C 
HETATM    4  N8  UNL     1     -34.281   3.013  -1.081  1.00 20.00    -0.192 NA
ENDROOT
BRANCH   3   5
HETATM    5  C3  UNL     1     -33.115   6.467   2.207  1.00 20.00     0.031 A 
HETATM    6  C4  UNL     1     -33.782   6.942   3.318  1.00 20.00     0.048 A 
HETATM    7  C7  UNL     1     -34.938   6.305   3.983  1.00 20.00     0.072 C 
HETATM    8  N9  UNL     1     -33.309   8.128   3.844  1.00 20.00    -0.258 NA
HETATM    9  C2  UNL     1     -32.287   8.536   3.123  1.00 20.00     0.167 A 
HETATM   10  S10 UNL     1     -31.844   7.541   1.795  1.00 20.00    -0.081 SA
ENDBRANCH   3   5
TORSDOF 1
ENDMDL
MODEL 9
REMARK VINA RESULT:       2.7      2.112      5.083
REMARK  1 active torsions:
REMARK  status: ('A' for Active; 'I' for Inactive)
REMARK    1  A    between atoms: C3_3  and  C6_6 
ROOT
HETATM    1  C1  UNL     1     -35.049   5.322   4.253  1.00 20.00     0.087 C 
HETATM    2  C5  UNL     1     -34.246   5.862   3.212  1.00 20.00     0.095 C 
HETATM    3  C6  UNL     1     -33.723   7.138   3.240  1.00 20.00     0.032 C 
HETATM    4  N8  UNL     1     -35.706   4.877   5.100  1.00 20.00    -0.192 NA
ENDROOT
BRANCH   3   5
HETATM    5  C3  UNL     1     -32.929   7.756   2.254  1.00 20.00     0.031 A 
HETATM    6  C4  UNL     1     -32.027   7.209   1.363  1.00 20.00     0.048 A 
HETATM    7  C7  UNL     1     -31.678   5.778   1.240  1.00 20.00     0.072 C 
HETATM    8  N9  UNL     1     -31.402   8.101   0.514  1.00 20.00    -0.258 NA
HETATM    9  C2  UNL     1     -31.839   9.314   0.774  1.00 20.00     0.167 A 
HETATM   10  S10 UNL     1     -33.003   9.454   2.029  1.00 20.00    -0.081 SA
ENDBRANCH   3   5
TORSDOF 1
ENDMDL
