MODEL 1
REMARK VINA RESULT:      -1.0      0.000      0.000
REMARK  3 active torsions:
REMARK  status: ('A' for Active; 'I' for Inactive)
REMARK    1  A    between atoms: C4_4  and  C9_9 
REMARK    2  A    between atoms: C7_7  and  C8_8 
REMARK    3  A    between atoms: C7_7  and  N10_10 
ROOT
HETATM    1  C1  UNL     1     -32.018   5.423   1.568  1.00 20.00     0.032 C 
HETATM    2  C2  UNL     1     -33.328   5.514   2.344  1.00 20.00     0.038 C 
HETATM    3  C3  UNL     1     -31.681   6.855   1.189  1.00 20.00     0.273 C 
HETATM    4  C4  UNL     1     -33.675   7.004   2.378  1.00 20.00     0.226 C 
HETATM    5  N10 UNL     1     -32.364   7.646   2.216  1.00 20.00     0.094 N 
ENDROOT
BRANCH   4   6
HETATM    6  C9  UNL     1     -34.382   7.391   3.672  1.00 20.00     0.011 C 
HETATM    7  C5  UNL     1     -35.243   6.236   4.182  1.00 20.00     0.011 C 
HETATM    8  C6  UNL     1     -33.368   7.812   4.735  1.00 20.00     0.011 C 
ENDBRANCH   4   6
BRANCH   5   9
HETATM    9  C7  UNL     1     -32.451   9.051   1.838  1.00 20.00     0.287 C 
BRANCH   9  10
HETATM   10  C8  UNL     1     -31.934   9.311   0.433  1.00 20.00     0.144 C 
HETATM   11 CL11 UNL     1     -33.022  10.397  -0.467  1.00 20.00    -0.129 Cl
ENDBRANCH   9  10
ENDBRANCH   5   9
TORSDOF 3
ENDMDL
MODEL 2
REMARK VINA RESULT:      -0.4      1.034      3.002
REMARK  3 active torsions:
REMARK  status: ('A' for Active; 'I' for Inactive)
REMARK    1  A    between atoms: C4_4  and  C9_9 
REMARK    2  A    between atoms: C7_7  and  C8_8 
REMARK    3  A    between atoms: C7_7  and  N10_10 
ROOT
HETATM    1  C1  UNL     1     -34.768   6.527   3.932  1.00 20.00     0.032 C 
HETATM    2  C2  UNL     1     -34.123   5.469   3.040  1.00 20.00     0.038 C 
HETATM    3  C3  UNL     1     -33.862   7.742   3.826  1.00 20.00     0.273 C 
HETATM    4  C4  UNL     1     -32.877   6.139   2.457  1.00 20.00     0.226 C 
HETATM    5  N10 UNL     1     -33.215   7.568   2.523  1.00 20.00     0.094 N 
ENDROOT
BRANCH   4   6
HETATM    6  C9  UNL     1     -32.583   5.652   1.043  1.00 20.00     0.011 C 
HETATM    7  C5  UNL     1     -31.439   4.639   1.048  1.00 20.00     0.011 C 
HETATM    8  C6  UNL     1     -33.834   5.043   0.412  1.00 20.00     0.011 C 
ENDBRANCH   4   6
BRANCH   5   9
HETATM    9  C7  UNL     1     -32.058   8.442   2.381  1.00 20.00     0.287 C 
BRANCH   9  10
HETATM   10  C8  UNL     1     -31.779   8.811   0.934  1.00 20.00     0.144 C 
HETATM   11 CL11 UNL     1     -32.673  10.275   0.453  1.00 20.00    -0.129 Cl
ENDBRANCH   9  10
ENDBRANCH   5   9
TORSDOF 3
ENDMDL
MODEL 3
REMARK VINA RESULT:      -0.3      2.778      4.470
REMARK  3 active torsions:
REMARK  status: ('A' for Active; 'I' for Inactive)
REMARK    1  A    between atoms: C4_4  and  C9_9 
REMARK    2  A    between atoms: C7_7  and  C8_8 
REMARK    3  A    between atoms: C7_7  and  N10_10 
ROOT
HETATM    1  C1  UNL     1     -32.147   8.378   3.219  1.00 20.00     0.032 C 
HETATM    2  C2  UNL     1     -32.066   7.541   1.945  1.00 20.00     0.038 C 
HETATM    3  C3  UNL     1     -33.451   7.967   3.882  1.00 20.00     0.273 C 
HETATM    4  C4  UNL     1     -33.332   6.681   1.946  1.00 20.00     0.226 C 
HETATM    5  N10 UNL     1     -33.676   6.611   3.373  1.00 20.00     0.094 N 
ENDROOT
BRANCH   4   6
HETATM    6  C9  UNL     1     -33.087   5.316   1.315  1.00 20.00     0.011 C 
HETATM    7  C5  UNL     1     -33.881   5.170   0.018  1.00 20.00     0.011 C 
HETATM    8  C6  UNL     1     -31.596   5.100   1.057  1.00 20.00     0.011 C 
ENDBRANCH   4   6
BRANCH   5   9
HETATM    9  C7  UNL     1     -35.043   6.170   3.616  1.00 20.00     0.287 C 
BRANCH   9  10
HETATM   10  C8  UNL     1     -35.115   4.996   4.578  1.00 20.00     0.144 C 
HETATM   11 CL11 UNL     1     -33.826   3.811   4.253  1.00 20.00    -0.129 Cl
ENDBRANCH   9  10
ENDBRANCH   5   9
TORSDOF 3
ENDMDL
MODEL 4
REMARK VINA RESULT:      -0.1      3.385      5.151
REMARK  3 active torsions:
REMARK  status: ('A' for Active; 'I' for Inactive)
REMARK    1  A    between atoms: C4_4  and  C9_9 
REMARK    2  A    between atoms: C7_7  and  C8_8 
REMARK    3  A    between atoms: C7_7  and  N10_10 
ROOT
HETATM    1  C1  UNL     1     -35.213   6.676   4.257  1.00 20.00     0.032 C 
HETATM    2  C2  UNL     1     -34.335   7.118   3.090  1.00 20.00     0.038 C 
HETATM    3  C3  UNL     1     -35.014   5.172   4.356  1.00 20.00     0.273 C 
HETATM    4  C4  UNL     1     -33.666   5.839   2.581  1.00 20.00     0.226 C 
HETATM    5  N10 UNL     1     -33.691   4.966   3.763  1.00 20.00     0.094 N 
ENDROOT
BRANCH   4   6
HETATM    6  C9  UNL     1     -32.261   6.106   2.056  1.00 20.00     0.011 C 
HETATM    7  C5  UNL     1     -31.988   5.282   0.799  1.00 20.00     0.011 C 
HETATM    8  C6  UNL     1     -32.065   7.595   1.771  1.00 20.00     0.011 C 
ENDBRANCH   4   6
BRANCH   5   9
HETATM    9  C7  UNL     1     -33.458   3.563   3.451  1.00 20.00     0.287 C 
BRANCH   9  10
HETATM   10  C8  UNL     1     -33.464   2.680   4.687  1.00 20.00     0.144 C 
HETATM   11 CL11 UNL     1     -32.382   3.322   5.948  1.00 20.00    -0.129 Cl
ENDBRANCH   9  10
ENDBRANCH   5   9
TORSDOF 3
ENDMDL
MODEL 5
REMARK VINA RESULT:       0.2      2.473      3.366
REMARK  3 active torsions:
REMARK  status: ('A' for Active; 'I' for Inactive)
REMARK    1  A    between atoms: C4_4  and  C9_9 
REMARK    2  A    between atoms: C7_7  and  C8_8 
REMARK    3  A    between atoms: C7_7  and  N10_10 
ROOT
HETATM    1  C1  UNL     1     -32.306   8.338   2.441  1.00 20.00     0.032 C 
HETATM    2  C2  UNL     1     -33.063   7.563   3.516  1.00 20.00     0.038 C 
HETATM    3  C3  UNL     1     -32.006   7.319   1.355  1.00 20.00     0.273 C 
HETATM    4  C4  UNL     1     -33.167   6.132   2.986  1.00 20.00     0.226 C 
HETATM    5  N10 UNL     1     -33.060   6.316   1.531  1.00 20.00     0.094 N 
ENDROOT
BRANCH   4   6
HETATM    6  C9  UNL     1     -34.466   5.462   3.416  1.00 20.00     0.011 C 
HETATM    7  C5  UNL     1     -34.180   4.228   4.270  1.00 20.00     0.011 C 
HETATM    8  C6  UNL     1     -35.353   6.446   4.178  1.00 20.00     0.011 C 
ENDBRANCH   4   6
BRANCH   5   9
HETATM    9  C7  UNL     1     -32.752   5.086   0.814  1.00 20.00     0.287 C 
BRANCH   9  10
HETATM   10  C8  UNL     1     -31.295   4.680   0.949  1.00 20.00     0.144 C 
HETATM   11 CL11 UNL     1     -30.796   3.602  -0.378  1.00 20.00    -0.129 Cl
ENDBRANCH   9  10
ENDBRANCH   5   9
TORSDOF 3
ENDMDL
MODEL 6
REMARK VINA RESULT:       0.6      3.029      3.886
REMARK  3 active torsions:
REMARK  status: ('A' for Active; 'I' for Inactive)
REMARK    1  A    between atoms: C4_4  and  C9_9 
REMARK    2  A    between atoms: C7_7  and  C8_8 
REMARK    3  A    between atoms: C7_7  and  N10_10 
ROOT
HETATM    1  C1  UNL     1     -31.799   7.087   1.078  1.00 20.00     0.032 C 
HETATM    2  C2  UNL     1     -32.318   7.916   2.249  1.00 20.00     0.038 C 
HETATM    3  C3  UNL     1     -32.232   5.661   1.377  1.00 20.00     0.273 C 
HETATM    4  C4  UNL     1     -33.035   6.919   3.162  1.00 20.00     0.226 C 
HETATM    5  N10 UNL     1     -33.405   5.839   2.237  1.00 20.00     0.094 N 
ENDROOT
BRANCH   4   6
HETATM    6  C9  UNL     1     -34.232   7.553   3.861  1.00 20.00     0.011 C 
HETATM    7  C5  UNL     1     -35.341   6.524   4.072  1.00 20.00     0.011 C 
HETATM    8  C6  UNL     1     -33.814   8.170   5.195  1.00 20.00     0.011 C 
ENDBRANCH   4   6
BRANCH   5   9
HETATM    9  C7  UNL     1     -33.764   4.599   2.912  1.00 20.00     0.287 C 
BRANCH   9  10
HETATM   10  C8  UNL     1     -32.638   4.055   3.775  1.00 20.00     0.144 C 
HETATM   11 CL11 UNL     1     -33.231   2.819   4.912  1.00 20.00    -0.129 Cl
ENDBRANCH   9  10
ENDBRANCH   5   9
TORSDOF 3
ENDMDL
MODEL 7
REMARK VINA RESULT:       0.7      2.346      3.939
REMARK  3 active torsions:
REMARK  status: ('A' for Active; 'I' for Inactive)
REMARK    1  A    between atoms: C4_4  and  C9_9 
REMARK    2  A    between atoms: C7_7  and  C8_8 
REMARK    3  A    between atoms: C7_7  and  N10_10 
ROOT
HETATM    1  C1  UNL     1     -34.489   6.727   4.118  1.00 20.00     0.032 C 
HETATM    2  C2  UNL     1     -33.859   7.945   3.447  1.00 20.00     0.038 C 
HETATM    3  C3  UNL     1     -34.221   5.569   3.171  1.00 20.00     0.273 C 
HETATM    4  C4  UNL     1     -33.250   7.419   2.145  1.00 20.00     0.226 C 
HETATM    5  N10 UNL     1     -33.023   5.998   2.444  1.00 20.00     0.094 N 
ENDROOT
BRANCH   4   6
HETATM    6  C9  UNL     1     -31.977   8.170   1.774  1.00 20.00     0.011 C 
HETATM    7  C5  UNL     1     -32.281   9.289   0.780  1.00 20.00     0.011 C 
HETATM    8  C6  UNL     1     -31.299   8.733   3.022  1.00 20.00     0.011 C 
ENDBRANCH   4   6
BRANCH   5   9
HETATM    9  C7  UNL     1     -32.801   5.186   1.255  1.00 20.00     0.287 C 
BRANCH   9  10
HETATM   10  C8  UNL     1     -31.373   4.679   1.152  1.00 20.00     0.144 C 
HETATM   11 CL11 UNL     1     -31.124   3.740  -0.342  1.00 20.00    -0.129 Cl
ENDBRANCH   9  10
ENDBRANCH   5   9
TORSDOF 3
ENDMDL
MODEL 8
REMARK VINA RESULT:       0.8      2.717      4.612
REMARK  3 active torsions:
REMARK  status: ('A' for Active; 'I' for Inactive)
REMARK    1  A    between atoms: C4_4  and  C9_9 
REMARK    2  A    between atoms: C7_7  and  C8_8 
REMARK    3  A    between atoms: C7_7  and  N10_10 
ROOT
HETATM    1  C1  UNL     1     -32.474   8.580   4.871  1.00 20.00     0.032 C 
HETATM    2  C2  UNL     1     -32.160   8.631   3.379  1.00 20.00     0.038 C 
HETATM    3  C3  UNL     1     -33.753   7.768   4.980  1.00 20.00     0.273 C 
HETATM    4  C4  UNL     1     -33.278   7.833   2.704  1.00 20.00     0.226 C 
HETATM    5  N10 UNL     1     -33.728   6.934   3.776  1.00 20.00     0.094 N 
ENDROOT
BRANCH   4   6
HETATM    6  C9  UNL     1     -32.778   7.095   1.467  1.00 20.00     0.011 C 
HETATM    7  C5  UNL     1     -31.726   7.925   0.733  1.00 20.00     0.011 C 
HETATM    8  C6  UNL     1     -32.210   5.728   1.847  1.00 20.00     0.011 C 
ENDBRANCH   4   6
BRANCH   5   9
HETATM    9  C7  UNL     1     -35.028   6.331   3.516  1.00 20.00     0.287 C 
BRANCH   9  10
HETATM   10  C8  UNL     1     -35.301   5.126   4.401  1.00 20.00     0.144 C 
HETATM   11 CL11 UNL     1     -33.998   3.919   4.273  1.00 20.00    -0.129 Cl
ENDBRANCH   9  10
ENDBRANCH   5   9
TORSDOF 3
ENDMDL
MODEL 9
REMARK VINA RESULT:       1.0      3.093      4.117
REMARK  3 active torsions:
REMARK  status: ('A' for Active; 'I' for Inactive)
REMARK    1  A    between atoms: C4_4  and  C9_9 
REMARK    2  A    between atoms: C7_7  and  C8_8 
REMARK    3  A    between atoms: C7_7  and  N10_10 
ROOT
HETATM    1  C1  UNL     1     -32.036   7.283   1.237  1.00 20.00     0.032 C 
HETATM    2  C2  UNL     1     -32.560   7.817   2.568  1.00 20.00     0.038 C 
HETATM    3  C3  UNL     1     -32.278   5.784   1.287  1.00 20.00     0.273 C 
HETATM    4  C4  UNL     1     -33.086   6.589   3.315  1.00 20.00     0.226 C 
HETATM    5  N10 UNL     1     -33.396   5.653   2.225  1.00 20.00     0.094 N 
ENDROOT
BRANCH   4   6
HETATM    6  C9  UNL     1     -34.293   6.930   4.181  1.00 20.00     0.011 C 
HETATM    7  C5  UNL     1     -34.039   8.204   4.985  1.00 20.00     0.011 C 
HETATM    8  C6  UNL     1     -35.548   7.082   3.321  1.00 20.00     0.011 C 
ENDBRANCH   4   6
BRANCH   5   9
HETATM    9  C7  UNL     1     -33.558   4.277   2.675  1.00 20.00     0.287 C 
BRANCH   9  10
HETATM   10  C8  UNL     1     -33.899   4.181   4.152  1.00 20.00     0.144 C 
HETATM   11 CL11 UNL     1     -33.051   2.819   4.926  1.00 20.00    -0.129 Cl
ENDBRANCH   9  10
ENDBRANCH   5   9
TORSDOF 3
ENDMDL
