MODEL 1
REMARK VINA RESULT:       0.7      0.000      0.000
REMARK  0 active torsions:
REMARK  status: ('A' for Active; 'I' for Inactive)
ROOT
HETATM    1  C1  UNL     1     -31.847   8.986   0.466  1.00 20.00     0.002 C 
HETATM    2  C2  UNL     1     -33.100   8.814   1.358  1.00 20.00     0.015 C 
HETATM    3  C3  UNL     1     -31.064   8.146   1.505  1.00 20.00     0.015 C 
HETATM    4  C4  UNL     1     -34.858   6.424   3.300  1.00 20.00     0.036 C 
HETATM    5  C5  UNL     1     -34.692   7.374   4.481  1.00 20.00     0.168 C 
HETATM    6  C6  UNL     1     -33.428   6.008   2.945  1.00 20.00     0.050 C 
HETATM    7  C7  UNL     1     -32.926   6.234   1.484  1.00 20.00     0.178 C 
HETATM    8  C8  UNL     1     -32.629   7.263   3.402  1.00 20.00     0.139 C 
HETATM    9  C9  UNL     1     -32.405   7.588   1.941  1.00 20.00     0.016 C 
HETATM   10  O10 UNL     1     -31.936   5.297   1.134  1.00 20.00    -0.234 OA
HETATM   11  O11 UNL     1     -33.500   8.110   4.183  1.00 20.00    -0.385 OA
ENDROOT
TORSDOF 0
ENDMDL
MODEL 2
REMARK VINA RESULT:       1.7      1.590      2.678
REMARK  0 active torsions:
REMARK  status: ('A' for Active; 'I' for Inactive)
ROOT
HETATM    1  C1  UNL     1     -32.005   4.745   0.945  1.00 20.00     0.002 C 
HETATM    2  C2  UNL     1     -32.297   5.170   2.403  1.00 20.00     0.015 C 
HETATM    3  C3  UNL     1     -33.082   5.763   0.495  1.00 20.00     0.015 C 
HETATM    4  C4  UNL     1     -32.917   8.013   4.429  1.00 20.00     0.036 C 
HETATM    5  C5  UNL     1     -34.230   7.349   4.828  1.00 20.00     0.168 C 
HETATM    6  C6  UNL     1     -33.064   8.274   2.929  1.00 20.00     0.050 C 
HETATM    7  C7  UNL     1     -31.980   7.701   1.961  1.00 20.00     0.178 C 
HETATM    8  C8  UNL     1     -34.025   7.121   2.517  1.00 20.00     0.139 C 
HETATM    9  C9  UNL     1     -32.854   6.464   1.819  1.00 20.00     0.016 C 
HETATM   10  O10 UNL     1     -31.862   8.489   0.802  1.00 20.00    -0.234 OA
HETATM   11  O11 UNL     1     -34.560   6.513   3.713  1.00 20.00    -0.385 OA
ENDROOT
TORSDOF 0
ENDMDL
MODEL 3
REMARK VINA RESULT:       2.5      1.190      3.896
REMARK  0 active torsions:
REMARK  status: ('A' for Active; 'I' for Inactive)
ROOT
HETATM    1  C1  UNL     1     -35.769   6.117   3.864  1.00 20.00     0.002 C 
HETATM    2  C2  UNL     1     -35.140   6.834   2.646  1.00 20.00     0.015 C 
HETATM    3  C3  UNL     1     -34.340   5.676   4.267  1.00 20.00     0.015 C 
HETATM    4  C4  UNL     1     -32.391   8.859   1.691  1.00 20.00     0.036 C 
HETATM    5  C5  UNL     1     -32.046   7.779   0.672  1.00 20.00     0.168 C 
HETATM    6  C6  UNL     1     -32.216   8.172   3.046  1.00 20.00     0.050 C 
HETATM    7  C7  UNL     1     -33.418   8.170   4.044  1.00 20.00     0.178 C 
HETATM    8  C8  UNL     1     -32.535   6.694   2.676  1.00 20.00     0.139 C 
HETATM    9  C9  UNL     1     -33.835   6.839   3.436  1.00 20.00     0.016 C 
HETATM   10  O10 UNL     1     -32.974   8.108   5.377  1.00 20.00    -0.234 OA
HETATM   11  O11 UNL     1     -32.574   6.574   1.237  1.00 20.00    -0.385 OA
ENDROOT
TORSDOF 0
ENDMDL
MODEL 4
REMARK VINA RESULT:       2.6      1.754      3.626
REMARK  0 active torsions:
REMARK  status: ('A' for Active; 'I' for Inactive)
ROOT
HETATM    1  C1  UNL     1     -33.081   5.097   1.189  1.00 20.00     0.002 C 
HETATM    2  C2  UNL     1     -33.257   6.456   0.471  1.00 20.00     0.015 C 
HETATM    3  C3  UNL     1     -31.845   5.700   1.901  1.00 20.00     0.015 C 
HETATM    4  C4  UNL     1     -33.136   9.957   1.018  1.00 20.00     0.036 C 
HETATM    5  C5  UNL     1     -32.080  10.016  -0.080  1.00 20.00     0.168 C 
HETATM    6  C6  UNL     1     -32.483   9.131   2.128  1.00 20.00     0.050 C 
HETATM    7  C7  UNL     1     -33.225   7.858   2.646  1.00 20.00     0.178 C 
HETATM    8  C8  UNL     1     -31.527   8.223   1.302  1.00 20.00     0.139 C 
HETATM    9  C9  UNL     1     -32.446   7.062   1.612  1.00 20.00     0.016 C 
HETATM   10  O10 UNL     1     -32.896   7.586   3.987  1.00 20.00    -0.234 OA
HETATM   11  O11 UNL     1     -31.462   8.724  -0.051  1.00 20.00    -0.385 OA
ENDROOT
TORSDOF 0
ENDMDL
MODEL 5
REMARK VINA RESULT:       2.8      1.531      3.497
REMARK  0 active torsions:
REMARK  status: ('A' for Active; 'I' for Inactive)
ROOT
HETATM    1  C1  UNL     1     -32.961   7.819   4.686  1.00 20.00     0.002 C 
HETATM    2  C2  UNL     1     -32.224   8.713   3.661  1.00 20.00     0.015 C 
HETATM    3  C3  UNL     1     -33.971   7.468   3.566  1.00 20.00     0.015 C 
HETATM    4  C4  UNL     1     -31.138   8.808   0.287  1.00 20.00     0.036 C 
HETATM    5  C5  UNL     1     -31.965  10.080   0.135  1.00 20.00     0.168 C 
HETATM    6  C6  UNL     1     -32.171   7.717   0.577  1.00 20.00     0.050 C 
HETATM    7  C7  UNL     1     -32.004   6.857   1.870  1.00 20.00     0.178 C 
HETATM    8  C8  UNL     1     -33.286   8.541   1.284  1.00 20.00     0.139 C 
HETATM    9  C9  UNL     1     -32.891   7.868   2.580  1.00 20.00     0.016 C 
HETATM   10  O10 UNL     1     -32.564   5.577   1.707  1.00 20.00    -0.234 OA
HETATM   11  O11 UNL     1     -33.006   9.948   1.111  1.00 20.00    -0.385 OA
ENDROOT
TORSDOF 0
ENDMDL
MODEL 6
REMARK VINA RESULT:       3.0      1.374      3.427
REMARK  0 active torsions:
REMARK  status: ('A' for Active; 'I' for Inactive)
ROOT
HETATM    1  C1  UNL     1     -34.323   7.425   5.030  1.00 20.00     0.002 C 
HETATM    2  C2  UNL     1     -33.160   8.009   4.192  1.00 20.00     0.015 C 
HETATM    3  C3  UNL     1     -34.999   7.015   3.698  1.00 20.00     0.015 C 
HETATM    4  C4  UNL     1     -31.118   7.340   1.372  1.00 20.00     0.036 C 
HETATM    5  C5  UNL     1     -31.611   8.663   0.796  1.00 20.00     0.168 C 
HETATM    6  C6  UNL     1     -32.374   6.470   1.451  1.00 20.00     0.050 C 
HETATM    7  C7  UNL     1     -32.763   5.845   2.829  1.00 20.00     0.178 C 
HETATM    8  C8  UNL     1     -33.476   7.551   1.643  1.00 20.00     0.139 C 
HETATM    9  C9  UNL     1     -33.618   7.079   3.074  1.00 20.00     0.016 C 
HETATM   10  O10 UNL     1     -33.477   4.644   2.661  1.00 20.00    -0.234 OA
HETATM   11  O11 UNL     1     -32.901   8.852   1.389  1.00 20.00    -0.385 OA
ENDROOT
TORSDOF 0
ENDMDL
MODEL 7
REMARK VINA RESULT:       3.0      2.086      3.675
REMARK  0 active torsions:
REMARK  status: ('A' for Active; 'I' for Inactive)
ROOT
HETATM    1  C1  UNL     1     -34.175   7.830   4.803  1.00 20.00     0.002 C 
HETATM    2  C2  UNL     1     -33.013   7.482   3.842  1.00 20.00     0.015 C 
HETATM    3  C3  UNL     1     -35.115   7.042   3.856  1.00 20.00     0.015 C 
HETATM    4  C4  UNL     1     -31.666   4.833   1.908  1.00 20.00     0.036 C 
HETATM    5  C5  UNL     1     -31.806   5.747   0.696  1.00 20.00     0.168 C 
HETATM    6  C6  UNL     1     -33.104   4.595   2.372  1.00 20.00     0.050 C 
HETATM    7  C7  UNL     1     -33.478   4.935   3.850  1.00 20.00     0.178 C 
HETATM    8  C8  UNL     1     -33.790   5.913   1.908  1.00 20.00     0.139 C 
HETATM    9  C9  UNL     1     -33.877   6.319   3.363  1.00 20.00     0.016 C 
HETATM   10  O10 UNL     1     -34.538   4.130   4.306  1.00 20.00    -0.234 OA
HETATM   11  O11 UNL     1     -32.887   6.625   1.034  1.00 20.00    -0.385 OA
ENDROOT
TORSDOF 0
ENDMDL
MODEL 8
REMARK VINA RESULT:       3.2      2.236      2.505
REMARK  0 active torsions:
REMARK  status: ('A' for Active; 'I' for Inactive)
ROOT
HETATM    1  C1  UNL     1     -32.373   4.799   0.514  1.00 20.00     0.002 C 
HETATM    2  C2  UNL     1     -33.444   5.795   1.020  1.00 20.00     0.015 C 
HETATM    3  C3  UNL     1     -31.674   4.944   1.889  1.00 20.00     0.015 C 
HETATM    4  C4  UNL     1     -35.405   6.604   3.861  1.00 20.00     0.036 C 
HETATM    5  C5  UNL     1     -34.780   7.994   3.803  1.00 20.00     0.168 C 
HETATM    6  C6  UNL     1     -34.230   5.672   4.162  1.00 20.00     0.050 C 
HETATM    7  C7  UNL     1     -33.956   4.479   3.191  1.00 20.00     0.178 C 
HETATM    8  C8  UNL     1     -33.052   6.456   3.514  1.00 20.00     0.139 C 
HETATM    9  C9  UNL     1     -33.014   5.400   2.430  1.00 20.00     0.016 C 
HETATM   10  O10 UNL     1     -33.337   3.408   3.860  1.00 20.00    -0.234 OA
HETATM   11  O11 UNL     1     -33.506   7.786   3.181  1.00 20.00    -0.385 OA
ENDROOT
TORSDOF 0
ENDMDL
MODEL 9
REMARK VINA RESULT:       3.6      1.826      2.986
REMARK  0 active torsions:
REMARK  status: ('A' for Active; 'I' for Inactive)
ROOT
HETATM    1  C1  UNL     1     -32.164  10.338   0.000  1.00 20.00     0.002 C 
HETATM    2  C2  UNL     1     -32.100   8.818  -0.281  1.00 20.00     0.015 C 
HETATM    3  C3  UNL     1     -33.077  10.016   1.209  1.00 20.00     0.015 C 
HETATM    4  C4  UNL     1     -31.765   5.676   1.327  1.00 20.00     0.036 C 
HETATM    5  C5  UNL     1     -33.093   5.290   0.684  1.00 20.00     0.168 C 
HETATM    6  C6  UNL     1     -32.122   6.824   2.273  1.00 20.00     0.050 C 
HETATM    7  C7  UNL     1     -31.365   8.182   2.118  1.00 20.00     0.178 C 
HETATM    8  C8  UNL     1     -33.352   7.440   1.546  1.00 20.00     0.139 C 
HETATM    9  C9  UNL     1     -32.481   8.622   1.183  1.00 20.00     0.016 C 
HETATM   10  O10 UNL     1     -31.299   8.872   3.342  1.00 20.00    -0.234 OA
HETATM   11  O11 UNL     1     -33.777   6.535   0.503  1.00 20.00    -0.385 OA
ENDROOT
TORSDOF 0
ENDMDL
