MODEL 1
REMARK VINA RESULT:      -0.6      0.000      0.000
REMARK  5 active torsions:
REMARK  status: ('A' for Active; 'I' for Inactive)
REMARK    1  A    between atoms: C1_1  and  C9_9 
REMARK    2  A    between atoms: C6_6  and  C7_7 
REMARK    3  A    between atoms: C6_6  and  C8_8 
REMARK    4  A    between atoms: C7_7  and  C9_9 
REMARK    5  A    between atoms: C8_8  and  C10_10 
ROOT
HETATM    1  C6  UNL     1     -33.275   5.911   1.565  1.00 20.00     0.001 C 
ENDROOT
BRANCH   1   2
HETATM    2  C7  UNL     1     -32.039   6.781   1.307  1.00 20.00     0.011 C 
BRANCH   2   3
HETATM    3  C9  UNL     1     -32.234   8.251   1.708  1.00 20.00     0.043 C 
HETATM    4  C2  UNL     1     -31.279   8.701   2.810  1.00 20.00     0.017 C 
BRANCH   3   5
HETATM    5  C1  UNL     1     -32.074   9.110   0.465  1.00 20.00     0.235 C 
HETATM    6  O11 UNL     1     -32.520  10.245   0.337  1.00 20.00    -0.306 OA
ENDBRANCH   3   5
ENDBRANCH   2   3
ENDBRANCH   1   2
BRANCH   1   7
HETATM    7  C8  UNL     1     -33.429   5.606   3.061  1.00 20.00     0.008 C 
BRANCH   7   8
HETATM    8  C10 UNL     1     -34.610   6.316   3.776  1.00 20.00    -0.051 C 
HETATM    9  C3  UNL     1     -35.318   5.281   4.672  1.00 20.00     0.014 C 
HETATM   10  C4  UNL     1     -34.114   7.470   4.661  1.00 20.00     0.014 C 
HETATM   11  C5  UNL     1     -35.630   6.858   2.761  1.00 20.00     0.014 C 
ENDBRANCH   7   8
ENDBRANCH   1   7
TORSDOF 5
ENDMDL
MODEL 2
REMARK VINA RESULT:      -0.5      0.742      1.287
REMARK  5 active torsions:
REMARK  status: ('A' for Active; 'I' for Inactive)
REMARK    1  A    between atoms: C1_1  and  C9_9 
REMARK    2  A    between atoms: C6_6  and  C7_7 
REMARK    3  A    between atoms: C6_6  and  C8_8 
REMARK    4  A    between atoms: C7_7  and  C9_9 
REMARK    5  A    between atoms: C8_8  and  C10_10 
ROOT
HETATM    1  C6  UNL     1     -32.761   5.805   1.680  1.00 20.00     0.001 C 
ENDROOT
BRANCH   1   2
HETATM    2  C7  UNL     1     -31.755   6.855   1.191  1.00 20.00     0.011 C 
BRANCH   2   3
HETATM    3  C9  UNL     1     -32.111   8.286   1.621  1.00 20.00     0.043 C 
HETATM    4  C2  UNL     1     -31.242   8.799   2.766  1.00 20.00     0.017 C 
BRANCH   3   5
HETATM    5  C1  UNL     1     -32.001   9.191   0.406  1.00 20.00     0.235 C 
HETATM    6  O11 UNL     1     -32.514  10.301   0.311  1.00 20.00    -0.306 OA
ENDBRANCH   3   5
ENDBRANCH   2   3
ENDBRANCH   1   2
BRANCH   1   7
HETATM    7  C8  UNL     1     -34.066   6.469   2.142  1.00 20.00     0.008 C 
BRANCH   7   8
HETATM    8  C10 UNL     1     -34.455   6.231   3.626  1.00 20.00    -0.051 C 
HETATM    9  C3  UNL     1     -35.993   6.244   3.725  1.00 20.00     0.014 C 
HETATM   10  C4  UNL     1     -33.944   4.870   4.125  1.00 20.00     0.014 C 
HETATM   11  C5  UNL     1     -33.900   7.344   4.531  1.00 20.00     0.014 C 
ENDBRANCH   7   8
ENDBRANCH   1   7
TORSDOF 5
ENDMDL
MODEL 3
REMARK VINA RESULT:      -0.0      2.284      4.616
REMARK  5 active torsions:
REMARK  status: ('A' for Active; 'I' for Inactive)
REMARK    1  A    between atoms: C1_1  and  C9_9 
REMARK    2  A    between atoms: C6_6  and  C7_7 
REMARK    3  A    between atoms: C6_6  and  C8_8 
REMARK    4  A    between atoms: C7_7  and  C9_9 
REMARK    5  A    between atoms: C8_8  and  C10_10 
ROOT
HETATM    1  C6  UNL     1     -33.246   5.660   1.837  1.00 20.00     0.001 C 
ENDROOT
BRANCH   1   2
HETATM    2  C7  UNL     1     -32.947   5.134   3.247  1.00 20.00     0.011 C 
BRANCH   2   3
HETATM    3  C9  UNL     1     -34.006   4.151   3.767  1.00 20.00     0.043 C 
HETATM    4  C2  UNL     1     -33.416   3.042   4.634  1.00 20.00     0.017 C 
BRANCH   3   5
HETATM    5  C1  UNL     1     -35.055   4.940   4.532  1.00 20.00     0.235 C 
HETATM    6  O11 UNL     1     -35.538   6.005   4.163  1.00 20.00    -0.306 OA
ENDBRANCH   3   5
ENDBRANCH   2   3
ENDBRANCH   1   2
BRANCH   1   7
HETATM    7  C8  UNL     1     -32.145   6.619   1.364  1.00 20.00     0.008 C 
BRANCH   7   8
HETATM    8  C10 UNL     1     -32.248   8.076   1.890  1.00 20.00    -0.051 C 
HETATM    9  C3  UNL     1     -30.956   8.395   2.668  1.00 20.00     0.014 C 
HETATM   10  C4  UNL     1     -32.382   9.078   0.733  1.00 20.00     0.014 C 
HETATM   11  C5  UNL     1     -33.443   8.239   2.844  1.00 20.00     0.014 C 
ENDBRANCH   7   8
ENDBRANCH   1   7
TORSDOF 5
ENDMDL
MODEL 4
REMARK VINA RESULT:      -0.0      0.943      1.449
REMARK  5 active torsions:
REMARK  status: ('A' for Active; 'I' for Inactive)
REMARK    1  A    between atoms: C1_1  and  C9_9 
REMARK    2  A    between atoms: C6_6  and  C7_7 
REMARK    3  A    between atoms: C6_6  and  C8_8 
REMARK    4  A    between atoms: C7_7  and  C9_9 
REMARK    5  A    between atoms: C8_8  and  C10_10 
ROOT
HETATM    1  C6  UNL     1     -32.318   7.026   2.064  1.00 20.00     0.001 C 
ENDROOT
BRANCH   1   2
HETATM    2  C7  UNL     1     -32.700   8.504   1.921  1.00 20.00     0.011 C 
BRANCH   2   3
HETATM    3  C9  UNL     1     -31.809   9.270   0.931  1.00 20.00     0.043 C 
HETATM    4  C2  UNL     1     -31.070   8.353  -0.040  1.00 20.00     0.017 C 
BRANCH   3   5
HETATM    5  C1  UNL     1     -32.675  10.270   0.183  1.00 20.00     0.235 C 
HETATM    6  O11 UNL     1     -33.136  10.095  -0.939  1.00 20.00    -0.306 OA
ENDBRANCH   3   5
ENDBRANCH   2   3
ENDBRANCH   1   2
BRANCH   1   7
HETATM    7  C8  UNL     1     -33.568   6.148   2.208  1.00 20.00     0.008 C 
BRANCH   7   8
HETATM    8  C10 UNL     1     -34.348   6.299   3.542  1.00 20.00    -0.051 C 
HETATM    9  C3  UNL     1     -34.342   4.933   4.257  1.00 20.00     0.014 C 
HETATM   10  C4  UNL     1     -33.684   7.335   4.463  1.00 20.00     0.014 C 
HETATM   11  C5  UNL     1     -35.808   6.708   3.289  1.00 20.00     0.014 C 
ENDBRANCH   7   8
ENDBRANCH   1   7
TORSDOF 5
ENDMDL
MODEL 5
REMARK VINA RESULT:       0.0      0.963      1.974
REMARK  5 active torsions:
REMARK  status: ('A' for Active; 'I' for Inactive)
REMARK    1  A    between atoms: C1_1  and  C9_9 
REMARK    2  A    between atoms: C6_6  and  C7_7 
REMARK    3  A    between atoms: C6_6  and  C8_8 
REMARK    4  A    between atoms: C7_7  and  C9_9 
REMARK    5  A    between atoms: C8_8  and  C10_10 
ROOT
HETATM    1  C6  UNL     1     -32.284   7.140   2.191  1.00 20.00     0.001 C 
ENDROOT
BRANCH   1   2
HETATM    2  C7  UNL     1     -32.618   8.622   1.983  1.00 20.00     0.011 C 
BRANCH   2   3
HETATM    3  C9  UNL     1     -31.767   9.291   0.893  1.00 20.00     0.043 C 
HETATM    4  C2  UNL     1     -31.143   8.289  -0.076  1.00 20.00     0.017 C 
BRANCH   3   5
HETATM    5  C1  UNL     1     -32.637  10.293   0.154  1.00 20.00     0.235 C 
HETATM    6  O11 UNL     1     -33.160  10.096  -0.937  1.00 20.00    -0.306 OA
ENDBRANCH   3   5
ENDBRANCH   2   3
ENDBRANCH   1   2
BRANCH   1   7
HETATM    7  C8  UNL     1     -33.560   6.287   2.203  1.00 20.00     0.008 C 
BRANCH   7   8
HETATM    8  C10 UNL     1     -34.353   6.277   3.538  1.00 20.00    -0.051 C 
HETATM    9  C3  UNL     1     -33.734   7.338   4.469  1.00 20.00     0.014 C 
HETATM   10  C4  UNL     1     -35.832   6.630   3.311  1.00 20.00     0.014 C 
HETATM   11  C5  UNL     1     -34.259   4.908   4.230  1.00 20.00     0.014 C 
ENDBRANCH   7   8
ENDBRANCH   1   7
TORSDOF 5
ENDMDL
MODEL 6
REMARK VINA RESULT:       0.1      0.932      1.872
REMARK  5 active torsions:
REMARK  status: ('A' for Active; 'I' for Inactive)
REMARK    1  A    between atoms: C1_1  and  C9_9 
REMARK    2  A    between atoms: C6_6  and  C7_7 
REMARK    3  A    between atoms: C6_6  and  C8_8 
REMARK    4  A    between atoms: C7_7  and  C9_9 
REMARK    5  A    between atoms: C8_8  and  C10_10 
ROOT
HETATM    1  C6  UNL     1     -32.319   6.964   2.007  1.00 20.00     0.001 C 
ENDROOT
BRANCH   1   2
HETATM    2  C7  UNL     1     -32.413   8.493   2.088  1.00 20.00     0.011 C 
BRANCH   2   3
HETATM    3  C9  UNL     1     -31.700   9.209   0.932  1.00 20.00     0.043 C 
HETATM    4  C2  UNL     1     -31.091   8.246  -0.083  1.00 20.00     0.017 C 
BRANCH   3   5
HETATM    5  C1  UNL     1     -32.693  10.146   0.265  1.00 20.00     0.235 C 
HETATM    6  O11 UNL     1     -33.113  10.021  -0.880  1.00 20.00    -0.306 OA
ENDBRANCH   3   5
ENDBRANCH   2   3
ENDBRANCH   1   2
BRANCH   1   7
HETATM    7  C8  UNL     1     -33.711   6.323   2.092  1.00 20.00     0.008 C 
BRANCH   7   8
HETATM    8  C10 UNL     1     -34.366   6.317   3.499  1.00 20.00    -0.051 C 
HETATM    9  C3  UNL     1     -35.863   6.643   3.331  1.00 20.00     0.014 C 
HETATM   10  C4  UNL     1     -34.237   4.939   4.169  1.00 20.00     0.014 C 
HETATM   11  C5  UNL     1     -33.736   7.384   4.410  1.00 20.00     0.014 C 
ENDBRANCH   7   8
ENDBRANCH   1   7
TORSDOF 5
ENDMDL
MODEL 7
REMARK VINA RESULT:       0.1      2.577      5.149
REMARK  5 active torsions:
REMARK  status: ('A' for Active; 'I' for Inactive)
REMARK    1  A    between atoms: C1_1  and  C9_9 
REMARK    2  A    between atoms: C6_6  and  C7_7 
REMARK    3  A    between atoms: C6_6  and  C8_8 
REMARK    4  A    between atoms: C7_7  and  C9_9 
REMARK    5  A    between atoms: C8_8  and  C10_10 
ROOT
HETATM    1  C6  UNL     1     -32.193   7.359   1.762  1.00 20.00     0.001 C 
ENDROOT
BRANCH   1   2
HETATM    2  C7  UNL     1     -33.204   6.215   1.905  1.00 20.00     0.011 C 
BRANCH   2   3
HETATM    3  C9  UNL     1     -33.632   5.959   3.358  1.00 20.00     0.043 C 
HETATM    4  C2  UNL     1     -34.952   6.635   3.720  1.00 20.00     0.017 C 
BRANCH   3   5
HETATM    5  C1  UNL     1     -33.711   4.458   3.576  1.00 20.00     0.235 C 
HETATM    6  O11 UNL     1     -34.376   3.911   4.449  1.00 20.00    -0.306 OA
ENDBRANCH   3   5
ENDBRANCH   2   3
ENDBRANCH   1   2
BRANCH   1   7
HETATM    7  C8  UNL     1     -32.907   8.698   1.536  1.00 20.00     0.008 C 
BRANCH   7   8
HETATM    8  C10 UNL     1     -32.274   9.630   0.469  1.00 20.00    -0.051 C 
HETATM    9  C3  UNL     1     -30.834   9.145   0.205  1.00 20.00     0.014 C 
HETATM   10  C4  UNL     1     -33.057   9.578  -0.853  1.00 20.00     0.014 C 
HETATM   11  C5  UNL     1     -32.214  11.084   0.965  1.00 20.00     0.014 C 
ENDBRANCH   7   8
ENDBRANCH   1   7
TORSDOF 5
ENDMDL
MODEL 8
REMARK VINA RESULT:       0.1      2.624      4.892
REMARK  5 active torsions:
REMARK  status: ('A' for Active; 'I' for Inactive)
REMARK    1  A    between atoms: C1_1  and  C9_9 
REMARK    2  A    between atoms: C6_6  and  C7_7 
REMARK    3  A    between atoms: C6_6  and  C8_8 
REMARK    4  A    between atoms: C7_7  and  C9_9 
REMARK    5  A    between atoms: C8_8  and  C10_10 
ROOT
HETATM    1  C6  UNL     1     -32.405   6.260   1.623  1.00 20.00     0.001 C 
ENDROOT
BRANCH   1   2
HETATM    2  C7  UNL     1     -33.565   5.392   2.126  1.00 20.00     0.011 C 
BRANCH   2   3
HETATM    3  C9  UNL     1     -33.868   5.586   3.619  1.00 20.00     0.043 C 
HETATM    4  C2  UNL     1     -34.947   6.634   3.879  1.00 20.00     0.017 C 
BRANCH   3   5
HETATM    5  C1  UNL     1     -34.263   4.241   4.205  1.00 20.00     0.235 C 
HETATM    6  O11 UNL     1     -33.474   3.367   4.546  1.00 20.00    -0.306 OA
ENDBRANCH   3   5
ENDBRANCH   2   3
ENDBRANCH   1   2
BRANCH   1   7
HETATM    7  C8  UNL     1     -32.928   7.520   0.920  1.00 20.00     0.008 C 
BRANCH   7   8
HETATM    8  C10 UNL     1     -32.031   8.781   1.041  1.00 20.00    -0.051 C 
HETATM    9  C3  UNL     1     -31.375   8.769   2.435  1.00 20.00     0.014 C 
HETATM   10  C4  UNL     1     -30.921   8.780  -0.022  1.00 20.00     0.014 C 
HETATM   11  C5  UNL     1     -32.861  10.069   0.905  1.00 20.00     0.014 C 
ENDBRANCH   7   8
ENDBRANCH   1   7
TORSDOF 5
ENDMDL
MODEL 9
REMARK VINA RESULT:       0.2      2.558      5.090
REMARK  5 active torsions:
REMARK  status: ('A' for Active; 'I' for Inactive)
REMARK    1  A    between atoms: C1_1  and  C9_9 
REMARK    2  A    between atoms: C6_6  and  C7_7 
REMARK    3  A    between atoms: C6_6  and  C8_8 
REMARK    4  A    between atoms: C7_7  and  C9_9 
REMARK    5  A    between atoms: C8_8  and  C10_10 
ROOT
HETATM    1  C6  UNL     1     -32.101   7.302   1.785  1.00 20.00     0.001 C 
ENDROOT
BRANCH   1   2
HETATM    2  C7  UNL     1     -33.216   6.256   1.909  1.00 20.00     0.011 C 
BRANCH   2   3
HETATM    3  C9  UNL     1     -33.650   5.999   3.360  1.00 20.00     0.043 C 
HETATM    4  C2  UNL     1     -34.962   6.690   3.722  1.00 20.00     0.017 C 
BRANCH   3   5
HETATM    5  C1  UNL     1     -33.750   4.497   3.569  1.00 20.00     0.235 C 
HETATM    6  O11 UNL     1     -34.397   3.956   4.459  1.00 20.00    -0.306 OA
ENDBRANCH   3   5
ENDBRANCH   2   3
ENDBRANCH   1   2
BRANCH   1   7
HETATM    7  C8  UNL     1     -32.686   8.716   1.666  1.00 20.00     0.008 C 
BRANCH   7   8
HETATM    8  C10 UNL     1     -32.185   9.554   0.459  1.00 20.00    -0.051 C 
HETATM    9  C3  UNL     1     -33.107   9.262  -0.742  1.00 20.00     0.014 C 
HETATM   10  C4  UNL     1     -32.241  11.059   0.763  1.00 20.00     0.014 C 
HETATM   11  C5  UNL     1     -30.747   9.168   0.073  1.00 20.00     0.014 C 
ENDBRANCH   7   8
ENDBRANCH   1   7
TORSDOF 5
ENDMDL
