MODEL 1
REMARK VINA RESULT:      -0.8      0.000      0.000
REMARK  2 active torsions:
REMARK  status: ('A' for Active; 'I' for Inactive)
REMARK    1  A    between atoms: C6_6  and  C7_7 
REMARK    2  A    between atoms: C7_7  and  N8_8 
ROOT
HETATM    1  C1  UNL     1     -32.253   9.054   0.777  1.00 20.00     0.157 C 
HETATM    2  N8  UNL     1     -32.020   8.139   1.479  1.00 20.00    -0.274 NA
HETATM    3  S9  UNL     1     -32.560  10.281  -0.192  1.00 20.00    -0.055 SA
ENDROOT
BRANCH   2   4
HETATM    4  C7  UNL     1     -32.320   8.350   2.892  1.00 20.00     0.165 C 
BRANCH   4   5
HETATM    5  C6  UNL     1     -33.028   7.111   3.430  1.00 20.00     0.067 C 
HETATM    6  C4  UNL     1     -34.473   7.433   3.829  1.00 20.00     0.017 C 
HETATM    7  C2  UNL     1     -35.379   6.219   4.066  1.00 20.00     0.002 C 
HETATM    8  C3  UNL     1     -34.607   4.930   4.318  1.00 20.00     0.010 C 
HETATM    9  C5  UNL     1     -33.817   4.463   3.098  1.00 20.00     0.074 C 
HETATM   10  S10 UNL     1     -32.965   5.786   2.180  1.00 20.00    -0.163 SA
ENDBRANCH   4   5
ENDBRANCH   2   4
TORSDOF 2
ENDMDL
MODEL 2
REMARK VINA RESULT:      -0.4      1.241      1.912
REMARK  2 active torsions:
REMARK  status: ('A' for Active; 'I' for Inactive)
REMARK    1  A    between atoms: C6_6  and  C7_7 
REMARK    2  A    between atoms: C7_7  and  N8_8 
ROOT
HETATM    1  C1  UNL     1     -32.077   8.825   0.978  1.00 20.00     0.157 C 
HETATM    2  N8  UNL     1     -31.747   7.990   1.739  1.00 20.00    -0.274 NA
HETATM    3  S9  UNL     1     -32.514   9.971  -0.039  1.00 20.00    -0.055 SA
ENDROOT
BRANCH   2   4
HETATM    4  C7  UNL     1     -32.176   6.637   1.400  1.00 20.00     0.165 C 
BRANCH   4   5
HETATM    5  C6  UNL     1     -33.357   6.263   2.289  1.00 20.00     0.067 C 
HETATM    6  C4  UNL     1     -33.197   4.844   2.849  1.00 20.00     0.017 C 
HETATM    7  C2  UNL     1     -34.136   4.481   4.006  1.00 20.00     0.002 C 
HETATM    8  C3  UNL     1     -35.354   5.389   4.102  1.00 20.00     0.010 C 
HETATM    9  C5  UNL     1     -34.996   6.827   4.466  1.00 20.00     0.074 C 
HETATM   10  S10 UNL     1     -33.521   7.489   3.628  1.00 20.00    -0.163 SA
ENDBRANCH   4   5
ENDBRANCH   2   4
TORSDOF 2
ENDMDL
MODEL 3
REMARK VINA RESULT:       0.8      2.437      4.717
REMARK  2 active torsions:
REMARK  status: ('A' for Active; 'I' for Inactive)
REMARK    1  A    between atoms: C6_6  and  C7_7 
REMARK    2  A    between atoms: C7_7  and  N8_8 
ROOT
HETATM    1  C1  UNL     1     -33.910   3.856   4.415  1.00 20.00     0.157 C 
HETATM    2  N8  UNL     1     -34.670   4.467   3.756  1.00 20.00    -0.274 NA
HETATM    3  S9  UNL     1     -32.884   3.011   5.295  1.00 20.00    -0.055 SA
ENDROOT
BRANCH   2   4
HETATM    4  C7  UNL     1     -34.857   5.858   4.154  1.00 20.00     0.165 C 
BRANCH   4   5
HETATM    5  C6  UNL     1     -34.024   6.744   3.234  1.00 20.00     0.067 C 
HETATM    6  C4  UNL     1     -33.190   7.747   4.040  1.00 20.00     0.017 C 
HETATM    7  C2  UNL     1     -32.077   8.457   3.262  1.00 20.00     0.002 C 
HETATM    8  C3  UNL     1     -32.268   8.406   1.752  1.00 20.00     0.010 C 
HETATM    9  C5  UNL     1     -32.155   6.993   1.187  1.00 20.00     0.074 C 
HETATM   10  S10 UNL     1     -32.966   5.699   2.180  1.00 20.00    -0.163 SA
ENDBRANCH   4   5
ENDBRANCH   2   4
TORSDOF 2
ENDMDL
MODEL 4
REMARK VINA RESULT:       0.9      2.625      4.842
REMARK  2 active torsions:
REMARK  status: ('A' for Active; 'I' for Inactive)
REMARK    1  A    between atoms: C6_6  and  C7_7 
REMARK    2  A    between atoms: C7_7  and  N8_8 
ROOT
HETATM    1  C1  UNL     1     -34.187   4.008   4.598  1.00 20.00     0.157 C 
HETATM    2  N8  UNL     1     -35.144   4.643   4.339  1.00 20.00    -0.274 NA
HETATM    3  S9  UNL     1     -32.905   3.131   4.949  1.00 20.00    -0.055 SA
ENDROOT
BRANCH   2   4
HETATM    4  C7  UNL     1     -34.928   6.083   4.252  1.00 20.00     0.165 C 
BRANCH   4   5
HETATM    5  C6  UNL     1     -33.688   6.339   3.401  1.00 20.00     0.067 C 
HETATM    6  C4  UNL     1     -33.755   5.562   2.081  1.00 20.00     0.017 C 
HETATM    7  C2  UNL     1     -32.745   5.989   1.010  1.00 20.00     0.002 C 
HETATM    8  C3  UNL     1     -31.565   6.771   1.572  1.00 20.00     0.010 C 
HETATM    9  C5  UNL     1     -31.968   8.128   2.141  1.00 20.00     0.074 C 
HETATM   10  S10 UNL     1     -33.512   8.130   3.108  1.00 20.00    -0.163 SA
ENDBRANCH   4   5
ENDBRANCH   2   4
TORSDOF 2
ENDMDL
MODEL 5
REMARK VINA RESULT:       2.1      2.811      5.042
REMARK  2 active torsions:
REMARK  status: ('A' for Active; 'I' for Inactive)
REMARK    1  A    between atoms: C6_6  and  C7_7 
REMARK    2  A    between atoms: C7_7  and  N8_8 
ROOT
HETATM    1  C1  UNL     1     -33.634   3.533   4.564  1.00 20.00     0.157 C 
HETATM    2  N8  UNL     1     -34.398   4.072   3.849  1.00 20.00    -0.274 NA
HETATM    3  S9  UNL     1     -32.616   2.801   5.547  1.00 20.00    -0.055 SA
ENDROOT
BRANCH   2   4
HETATM    4  C7  UNL     1     -33.831   4.575   2.602  1.00 20.00     0.165 C 
BRANCH   4   5
HETATM    5  C6  UNL     1     -33.128   5.899   2.885  1.00 20.00     0.067 C 
HETATM    6  C4  UNL     1     -32.588   6.523   1.593  1.00 20.00     0.017 C 
HETATM    7  C2  UNL     1     -32.163   7.993   1.698  1.00 20.00     0.002 C 
HETATM    8  C3  UNL     1     -31.911   8.448   3.129  1.00 20.00     0.010 C 
HETATM    9  C5  UNL     1     -33.178   8.457   3.980  1.00 20.00     0.074 C 
HETATM   10  S10 UNL     1     -34.280   7.027   3.736  1.00 20.00    -0.163 SA
ENDBRANCH   4   5
ENDBRANCH   2   4
TORSDOF 2
ENDMDL
