MODEL 1
REMARK VINA RESULT:      -1.2      0.000      0.000
REMARK  2 active torsions:
REMARK  status: ('A' for Active; 'I' for Inactive)
REMARK    1  A    between atoms: C6_6  and  C7_7 
REMARK    2  A    between atoms: C7_7  and  N8_8 
ROOT
HETATM    1  C1  UNL     1     -32.048   9.071   0.753  1.00 20.00     0.157 C 
HETATM    2  N8  UNL     1     -31.602   8.166   1.358  1.00 20.00    -0.274 NA
HETATM    3  S9  UNL     1     -32.638  10.291  -0.083  1.00 20.00    -0.055 SA
ENDROOT
BRANCH   2   4
HETATM    4  C7  UNL     1     -32.116   8.013   2.714  1.00 20.00     0.165 C 
BRANCH   4   5
HETATM    5  C6  UNL     1     -33.457   7.287   2.648  1.00 20.00     0.067 C 
HETATM    6  C4  UNL     1     -34.188   7.363   3.997  1.00 20.00     0.017 C 
HETATM    7  C2  UNL     1     -35.324   6.353   4.114  1.00 20.00     0.002 C 
HETATM    8  C3  UNL     1     -34.830   4.906   4.171  1.00 20.00     0.010 C 
HETATM    9  C5  UNL     1     -33.445   4.664   3.578  1.00 20.00     0.074 C 
HETATM   10  S10 UNL     1     -33.195   5.580   2.034  1.00 20.00    -0.163 SA
ENDBRANCH   4   5
ENDBRANCH   2   4
TORSDOF 2
ENDMDL
MODEL 2
REMARK VINA RESULT:      -0.6      1.259      1.849
REMARK  2 active torsions:
REMARK  status: ('A' for Active; 'I' for Inactive)
REMARK    1  A    between atoms: C6_6  and  C7_7 
REMARK    2  A    between atoms: C7_7  and  N8_8 
ROOT
HETATM    1  C1  UNL     1     -32.197   8.996   0.948  1.00 20.00     0.157 C 
HETATM    2  N8  UNL     1     -31.942   8.139   1.712  1.00 20.00    -0.274 NA
HETATM    3  S9  UNL     1     -32.526  10.171  -0.076  1.00 20.00    -0.055 SA
ENDROOT
BRANCH   2   4
HETATM    4  C7  UNL     1     -32.716   6.913   1.548  1.00 20.00     0.165 C 
BRANCH   4   5
HETATM    5  C6  UNL     1     -32.918   6.277   2.920  1.00 20.00     0.067 C 
HETATM    6  C4  UNL     1     -33.456   4.844   2.786  1.00 20.00     0.017 C 
HETATM    7  C2  UNL     1     -34.035   4.303   4.088  1.00 20.00     0.002 C 
HETATM    8  C3  UNL     1     -35.318   5.021   4.513  1.00 20.00     0.010 C 
HETATM    9  C5  UNL     1     -35.503   6.422   3.939  1.00 20.00     0.074 C 
HETATM   10  S10 UNL     1     -33.961   7.375   3.953  1.00 20.00    -0.163 SA
ENDBRANCH   4   5
ENDBRANCH   2   4
TORSDOF 2
ENDMDL
MODEL 3
REMARK VINA RESULT:       0.6      2.579      4.764
REMARK  2 active torsions:
REMARK  status: ('A' for Active; 'I' for Inactive)
REMARK    1  A    between atoms: C6_6  and  C7_7 
REMARK    2  A    between atoms: C7_7  and  N8_8 
ROOT
HETATM    1  C1  UNL     1     -34.344   4.087   4.583  1.00 20.00     0.157 C 
HETATM    2  N8  UNL     1     -35.196   4.898   4.570  1.00 20.00    -0.274 NA
HETATM    3  S9  UNL     1     -33.201   2.978   4.618  1.00 20.00    -0.055 SA
ENDROOT
BRANCH   2   4
HETATM    4  C7  UNL     1     -35.057   5.926   3.544  1.00 20.00     0.165 C 
BRANCH   4   5
HETATM    5  C6  UNL     1     -33.592   6.344   3.468  1.00 20.00     0.067 C 
HETATM    6  C4  UNL     1     -33.438   7.851   3.723  1.00 20.00     0.017 C 
HETATM    7  C2  UNL     1     -32.081   8.391   3.288  1.00 20.00     0.002 C 
HETATM    8  C3  UNL     1     -31.890   8.367   1.769  1.00 20.00     0.010 C 
HETATM    9  C5  UNL     1     -32.764   7.369   1.017  1.00 20.00     0.074 C 
HETATM   10  S10 UNL     1     -32.879   5.778   1.877  1.00 20.00    -0.163 SA
ENDBRANCH   4   5
ENDBRANCH   2   4
TORSDOF 2
ENDMDL
MODEL 4
REMARK VINA RESULT:       1.3      2.652      4.987
REMARK  2 active torsions:
REMARK  status: ('A' for Active; 'I' for Inactive)
REMARK    1  A    between atoms: C6_6  and  C7_7 
REMARK    2  A    between atoms: C7_7  and  N8_8 
ROOT
HETATM    1  C1  UNL     1     -33.813   3.632   4.474  1.00 20.00     0.157 C 
HETATM    2  N8  UNL     1     -34.636   4.297   3.961  1.00 20.00    -0.274 NA
HETATM    3  S9  UNL     1     -32.707   2.713   5.160  1.00 20.00    -0.055 SA
ENDROOT
BRANCH   2   4
HETATM    4  C7  UNL     1     -34.623   5.704   4.344  1.00 20.00     0.165 C 
BRANCH   4   5
HETATM    5  C6  UNL     1     -34.306   6.544   3.110  1.00 20.00     0.067 C 
HETATM    6  C4  UNL     1     -33.234   5.865   2.246  1.00 20.00     0.017 C 
HETATM    7  C2  UNL     1     -32.605   6.810   1.229  1.00 20.00     0.002 C 
HETATM    8  C3  UNL     1     -31.756   7.905   1.879  1.00 20.00     0.010 C 
HETATM    9  C5  UNL     1     -32.093   8.216   3.334  1.00 20.00     0.074 C 
HETATM   10  S10 UNL     1     -33.882   8.251   3.628  1.00 20.00    -0.163 SA
ENDBRANCH   4   5
ENDBRANCH   2   4
TORSDOF 2
ENDMDL
