MODEL 1
REMARK VINA RESULT:      -1.7      0.000      0.000
REMARK  2 active torsions:
REMARK  status: ('A' for Active; 'I' for Inactive)
REMARK    1  A    between atoms: C1_1  and  C7_7 
REMARK    2  A    between atoms: C3_3  and  C7_7 
ROOT
HETATM    1  C2  UNL     1     -31.839   6.599   1.097  1.00 20.00     0.015 A 
HETATM    2  C3  UNL     1     -33.148   6.843   1.801  1.00 20.00     0.004 A 
HETATM    3  C4  UNL     1     -32.124   7.961   1.693  1.00 20.00    -0.043 A 
HETATM    4  C5  UNL     1     -32.439   9.092   0.748  1.00 20.00     0.015 C 
HETATM    5  C6  UNL     1     -31.334   8.381   2.904  1.00 20.00     0.015 C 
ENDROOT
BRANCH   2   6
HETATM    6  C7  UNL     1     -33.452   6.151   3.084  1.00 20.00     0.118 C 
BRANCH   6   7
HETATM    7  C1  UNL     1     -34.573   6.769   3.944  1.00 20.00     0.172 C 
HETATM    8  O8  UNL     1     -35.628   6.084   4.045  1.00 20.00    -0.648 OA
HETATM    9  O9  UNL     1     -34.298   7.897   4.449  1.00 20.00    -0.648 OA
ENDBRANCH   6   7
ENDBRANCH   2   6
TORSDOF 2
ENDMDL
MODEL 2
REMARK VINA RESULT:      -1.6      2.976      4.263
REMARK  2 active torsions:
REMARK  status: ('A' for Active; 'I' for Inactive)
REMARK    1  A    between atoms: C1_1  and  C7_7 
REMARK    2  A    between atoms: C3_3  and  C7_7 
ROOT
HETATM    1  C2  UNL     1     -31.685   7.817   3.062  1.00 20.00     0.015 A 
HETATM    2  C3  UNL     1     -32.571   8.500   2.054  1.00 20.00     0.004 A 
HETATM    3  C4  UNL     1     -32.915   7.104   2.545  1.00 20.00    -0.043 A 
HETATM    4  C5  UNL     1     -34.097   6.975   3.472  1.00 20.00     0.015 C 
HETATM    5  C6  UNL     1     -32.716   5.915   1.643  1.00 20.00     0.015 C 
ENDROOT
BRANCH   2   6
HETATM    6  C7  UNL     1     -32.073   8.768   0.675  1.00 20.00     0.118 C 
BRANCH   6   7
HETATM    7  C1  UNL     1     -32.565  10.072   0.014  1.00 20.00     0.172 C 
HETATM    8  O8  UNL     1     -32.445  11.118   0.709  1.00 20.00    -0.648 OA
HETATM    9  O9  UNL     1     -33.032   9.934  -1.154  1.00 20.00    -0.648 OA
ENDBRANCH   6   7
ENDBRANCH   2   6
TORSDOF 2
ENDMDL
MODEL 3
REMARK VINA RESULT:      -1.6      2.965      4.160
REMARK  2 active torsions:
REMARK  status: ('A' for Active; 'I' for Inactive)
REMARK    1  A    between atoms: C1_1  and  C7_7 
REMARK    2  A    between atoms: C3_3  and  C7_7 
ROOT
HETATM    1  C2  UNL     1     -31.670   7.797   3.037  1.00 20.00     0.015 A 
HETATM    2  C3  UNL     1     -32.559   8.486   2.036  1.00 20.00     0.004 A 
HETATM    3  C4  UNL     1     -32.901   7.085   2.518  1.00 20.00    -0.043 A 
HETATM    4  C5  UNL     1     -34.080   6.947   3.447  1.00 20.00     0.015 C 
HETATM    5  C6  UNL     1     -32.702   5.904   1.606  1.00 20.00     0.015 C 
ENDROOT
BRANCH   2   6
HETATM    6  C7  UNL     1     -32.065   8.765   0.659  1.00 20.00     0.118 C 
BRANCH   6   7
HETATM    7  C1  UNL     1     -32.584  10.058  -0.002  1.00 20.00     0.172 C 
HETATM    8  O8  UNL     1     -33.063   9.927  -1.162  1.00 20.00    -0.648 OA
HETATM    9  O9  UNL     1     -32.468  11.103   0.704  1.00 20.00    -0.648 OA
ENDBRANCH   6   7
ENDBRANCH   2   6
TORSDOF 2
ENDMDL
MODEL 4
REMARK VINA RESULT:      -1.6      2.750      3.986
REMARK  2 active torsions:
REMARK  status: ('A' for Active; 'I' for Inactive)
REMARK    1  A    between atoms: C1_1  and  C7_7 
REMARK    2  A    between atoms: C3_3  and  C7_7 
ROOT
HETATM    1  C2  UNL     1     -35.486   6.122   3.752  1.00 20.00     0.015 A 
HETATM    2  C3  UNL     1     -34.350   5.333   4.348  1.00 20.00     0.004 A 
HETATM    3  C4  UNL     1     -34.074   6.655   3.651  1.00 20.00    -0.043 A 
HETATM    4  C5  UNL     1     -33.698   7.826   4.523  1.00 20.00     0.015 C 
HETATM    5  C6  UNL     1     -33.420   6.672   2.295  1.00 20.00     0.015 C 
ENDROOT
BRANCH   2   6
HETATM    6  C7  UNL     1     -33.960   4.019   3.764  1.00 20.00     0.118 C 
BRANCH   6   7
HETATM    7  C1  UNL     1     -33.307   3.011   4.731  1.00 20.00     0.172 C 
HETATM    8  O8  UNL     1     -32.591   3.510   5.642  1.00 20.00    -0.648 OA
HETATM    9  O9  UNL     1     -33.570   1.796   4.493  1.00 20.00    -0.648 OA
ENDBRANCH   6   7
ENDBRANCH   2   6
TORSDOF 2
ENDMDL
MODEL 5
REMARK VINA RESULT:      -1.6      0.969      1.203
REMARK  2 active torsions:
REMARK  status: ('A' for Active; 'I' for Inactive)
REMARK    1  A    between atoms: C1_1  and  C7_7 
REMARK    2  A    between atoms: C3_3  and  C7_7 
ROOT
HETATM    1  C2  UNL     1     -32.143   6.619   1.534  1.00 20.00     0.015 A 
HETATM    2  C3  UNL     1     -33.309   7.322   2.179  1.00 20.00     0.004 A 
HETATM    3  C4  UNL     1     -32.076   8.112   1.772  1.00 20.00    -0.043 A 
HETATM    4  C5  UNL     1     -32.207   9.022   0.577  1.00 20.00     0.015 C 
HETATM    5  C6  UNL     1     -31.123   8.619   2.822  1.00 20.00     0.015 C 
ENDROOT
BRANCH   2   6
HETATM    6  C7  UNL     1     -33.657   7.050   3.601  1.00 20.00     0.118 C 
BRANCH   6   7
HETATM    7  C1  UNL     1     -34.569   5.833   3.860  1.00 20.00     0.172 C 
HETATM    8  O8  UNL     1     -34.003   4.706   3.821  1.00 20.00    -0.648 OA
HETATM    9  O9  UNL     1     -35.783   6.114   4.083  1.00 20.00    -0.648 OA
ENDBRANCH   6   7
ENDBRANCH   2   6
TORSDOF 2
ENDMDL
MODEL 6
REMARK VINA RESULT:      -1.1      2.472      4.063
REMARK  2 active torsions:
REMARK  status: ('A' for Active; 'I' for Inactive)
REMARK    1  A    between atoms: C1_1  and  C7_7 
REMARK    2  A    between atoms: C3_3  and  C7_7 
ROOT
HETATM    1  C2  UNL     1     -33.309   7.641   4.258  1.00 20.00     0.015 A 
HETATM    2  C3  UNL     1     -33.517   7.757   2.771  1.00 20.00     0.004 A 
HETATM    3  C4  UNL     1     -34.069   6.558   3.524  1.00 20.00    -0.043 A 
HETATM    4  C5  UNL     1     -35.563   6.494   3.711  1.00 20.00     0.015 C 
HETATM    5  C6  UNL     1     -33.415   5.209   3.380  1.00 20.00     0.015 C 
ENDROOT
BRANCH   2   6
HETATM    6  C7  UNL     1     -32.357   7.659   1.840  1.00 20.00     0.118 C 
BRANCH   6   7
HETATM    7  C1  UNL     1     -32.098   8.886   0.943  1.00 20.00     0.172 C 
HETATM    8  O8  UNL     1     -32.882   9.861   1.105  1.00 20.00    -0.648 OA
HETATM    9  O9  UNL     1     -31.121   8.767   0.146  1.00 20.00    -0.648 OA
ENDBRANCH   6   7
ENDBRANCH   2   6
TORSDOF 2
ENDMDL
MODEL 7
REMARK VINA RESULT:      -0.9      2.560      3.974
REMARK  2 active torsions:
REMARK  status: ('A' for Active; 'I' for Inactive)
REMARK    1  A    between atoms: C1_1  and  C7_7 
REMARK    2  A    between atoms: C3_3  and  C7_7 
ROOT
HETATM    1  C2  UNL     1     -33.653   6.409   1.359  1.00 20.00     0.015 A 
HETATM    2  C3  UNL     1     -32.403   6.825   2.088  1.00 20.00     0.004 A 
HETATM    3  C4  UNL     1     -33.577   6.246   2.861  1.00 20.00    -0.043 A 
HETATM    4  C5  UNL     1     -33.415   4.852   3.412  1.00 20.00     0.015 C 
HETATM    5  C6  UNL     1     -34.436   7.141   3.714  1.00 20.00     0.015 C 
ENDROOT
BRANCH   2   6
HETATM    6  C7  UNL     1     -32.022   8.263   2.164  1.00 20.00     0.118 C 
BRANCH   6   7
HETATM    7  C1  UNL     1     -31.974   9.027   0.825  1.00 20.00     0.172 C 
HETATM    8  O8  UNL     1     -32.778   9.993   0.716  1.00 20.00    -0.648 OA
HETATM    9  O9  UNL     1     -31.126   8.592  -0.008  1.00 20.00    -0.648 OA
ENDBRANCH   6   7
ENDBRANCH   2   6
TORSDOF 2
ENDMDL
MODEL 8
REMARK VINA RESULT:      -0.9      2.553      3.954
REMARK  2 active torsions:
REMARK  status: ('A' for Active; 'I' for Inactive)
REMARK    1  A    between atoms: C1_1  and  C7_7 
REMARK    2  A    between atoms: C3_3  and  C7_7 
ROOT
HETATM    1  C2  UNL     1     -33.674   6.422   1.368  1.00 20.00     0.015 A 
HETATM    2  C3  UNL     1     -32.413   6.823   2.088  1.00 20.00     0.004 A 
HETATM    3  C4  UNL     1     -33.587   6.256   2.870  1.00 20.00    -0.043 A 
HETATM    4  C5  UNL     1     -33.438   4.859   3.416  1.00 20.00     0.015 C 
HETATM    5  C6  UNL     1     -34.429   7.160   3.731  1.00 20.00     0.015 C 
ENDROOT
BRANCH   2   6
HETATM    6  C7  UNL     1     -32.014   8.256   2.163  1.00 20.00     0.118 C 
BRANCH   6   7
HETATM    7  C1  UNL     1     -31.969   9.022   0.826  1.00 20.00     0.172 C 
HETATM    8  O8  UNL     1     -31.139   8.596  -0.024  1.00 20.00    -0.648 OA
HETATM    9  O9  UNL     1     -32.777   9.993   0.740  1.00 20.00    -0.648 OA
ENDBRANCH   6   7
ENDBRANCH   2   6
TORSDOF 2
ENDMDL
MODEL 9
REMARK VINA RESULT:      -0.7      1.680      2.778
REMARK  2 active torsions:
REMARK  status: ('A' for Active; 'I' for Inactive)
REMARK    1  A    between atoms: C1_1  and  C7_7 
REMARK    2  A    between atoms: C3_3  and  C7_7 
ROOT
HETATM    1  C2  UNL     1     -32.506   7.196   1.778  1.00 20.00     0.015 A 
HETATM    2  C3  UNL     1     -32.905   6.120   2.753  1.00 20.00     0.004 A 
HETATM    3  C4  UNL     1     -32.677   5.774   1.291  1.00 20.00    -0.043 A 
HETATM    4  C5  UNL     1     -31.433   4.989   0.958  1.00 20.00     0.015 C 
HETATM    5  C6  UNL     1     -33.848   5.469   0.395  1.00 20.00     0.015 C 
ENDROOT
BRANCH   2   6
HETATM    6  C7  UNL     1     -34.259   6.133   3.375  1.00 20.00     0.118 C 
BRANCH   6   7
HETATM    7  C1  UNL     1     -34.660   4.869   4.161  1.00 20.00     0.172 C 
HETATM    8  O8  UNL     1     -35.762   4.929   4.772  1.00 20.00    -0.648 OA
HETATM    9  O9  UNL     1     -33.830   3.915   4.097  1.00 20.00    -0.648 OA
ENDBRANCH   6   7
ENDBRANCH   2   6
TORSDOF 2
ENDMDL
