MODEL 1
REMARK VINA RESULT:      -1.8      0.000      0.000
REMARK  2 active torsions:
REMARK  status: ('A' for Active; 'I' for Inactive)
REMARK    1  A    between atoms: C1_1  and  C5_5 
REMARK    2  A    between atoms: C6_6  and  C8_8 
ROOT
HETATM    1  C2  UNL     1     -34.041   7.504   4.149  1.00 20.00     0.012 C 
HETATM    2  C3  UNL     1     -35.233   6.635   3.768  1.00 20.00     0.005 C 
HETATM    3  C4  UNL     1     -33.323   5.672   2.682  1.00 20.00     0.016 C 
HETATM    4  C5  UNL     1     -32.903   7.028   3.253  1.00 20.00     0.047 C 
HETATM    5  C6  UNL     1     -34.614   5.286   3.411  1.00 20.00    -0.014 C 
ENDROOT
BRANCH   4   6
HETATM    6  C1  UNL     1     -32.737   8.016   2.114  1.00 20.00     0.235 C 
HETATM    7  O9  UNL     1     -31.741   8.064   1.399  1.00 20.00    -0.306 OA
ENDBRANCH   4   6
BRANCH   5   8
HETATM    8  C8  UNL     1     -34.337   4.430   4.645  1.00 20.00     0.000 C 
HETATM    9  C7  UNL     1     -33.458   3.260   4.330  1.00 20.00     0.005 C 
ENDBRANCH   5   8
TORSDOF 2
ENDMDL
MODEL 2
REMARK VINA RESULT:      -1.6      2.184      4.192
REMARK  2 active torsions:
REMARK  status: ('A' for Active; 'I' for Inactive)
REMARK    1  A    between atoms: C1_1  and  C5_5 
REMARK    2  A    between atoms: C6_6  and  C8_8 
ROOT
HETATM    1  C2  UNL     1     -34.062   7.304   3.688  1.00 20.00     0.012 C 
HETATM    2  C3  UNL     1     -32.682   7.932   3.542  1.00 20.00     0.005 C 
HETATM    3  C4  UNL     1     -32.812   6.201   1.887  1.00 20.00     0.016 C 
HETATM    4  C5  UNL     1     -34.022   6.057   2.811  1.00 20.00     0.047 C 
HETATM    5  C6  UNL     1     -32.279   7.621   2.103  1.00 20.00    -0.014 C 
ENDROOT
BRANCH   4   6
HETATM    6  C1  UNL     1     -33.826   4.844   3.701  1.00 20.00     0.235 C 
HETATM    7  O9  UNL     1     -34.726   4.341   4.367  1.00 20.00    -0.306 OA
ENDBRANCH   4   6
BRANCH   5   8
HETATM    8  C8  UNL     1     -32.878   8.612   1.106  1.00 20.00     0.000 C 
HETATM    9  C7  UNL     1     -31.824   9.438   0.436  1.00 20.00     0.005 C 
ENDBRANCH   5   8
TORSDOF 2
ENDMDL
MODEL 3
REMARK VINA RESULT:      -1.3      1.021      1.267
REMARK  2 active torsions:
REMARK  status: ('A' for Active; 'I' for Inactive)
REMARK    1  A    between atoms: C1_1  and  C5_5 
REMARK    2  A    between atoms: C6_6  and  C8_8 
ROOT
HETATM    1  C2  UNL     1     -32.986   7.808   3.578  1.00 20.00     0.012 C 
HETATM    2  C3  UNL     1     -34.242   6.948   3.511  1.00 20.00     0.005 C 
HETATM    3  C4  UNL     1     -32.910   6.344   1.610  1.00 20.00     0.016 C 
HETATM    4  C5  UNL     1     -32.288   7.591   2.240  1.00 20.00     0.047 C 
HETATM    5  C6  UNL     1     -33.824   5.738   2.680  1.00 20.00    -0.014 C 
ENDROOT
BRANCH   4   6
HETATM    6  C1  UNL     1     -32.564   8.788   1.350  1.00 20.00     0.235 C 
HETATM    7  O9  UNL     1     -31.859   9.097   0.394  1.00 20.00    -0.306 OA
ENDBRANCH   4   6
BRANCH   5   8
HETATM    8  C8  UNL     1     -33.100   4.683   3.515  1.00 20.00     0.000 C 
HETATM    9  C7  UNL     1     -34.049   3.890   4.359  1.00 20.00     0.005 C 
ENDBRANCH   5   8
TORSDOF 2
ENDMDL
MODEL 4
REMARK VINA RESULT:      -0.9      2.395      4.169
REMARK  2 active torsions:
REMARK  status: ('A' for Active; 'I' for Inactive)
REMARK    1  A    between atoms: C1_1  and  C5_5 
REMARK    2  A    between atoms: C6_6  and  C8_8 
ROOT
HETATM    1  C2  UNL     1     -33.163   5.347   3.138  1.00 20.00     0.012 C 
HETATM    2  C3  UNL     1     -33.210   5.724   1.662  1.00 20.00     0.005 C 
HETATM    3  C4  UNL     1     -34.113   7.594   2.864  1.00 20.00     0.016 C 
HETATM    4  C5  UNL     1     -33.967   6.431   3.848  1.00 20.00     0.047 C 
HETATM    5  C6  UNL     1     -33.221   7.251   1.666  1.00 20.00    -0.014 C 
ENDROOT
BRANCH   4   6
HETATM    6  C1  UNL     1     -35.343   5.880   4.172  1.00 20.00     0.235 C 
HETATM    7  O9  UNL     1     -35.528   4.769   4.660  1.00 20.00    -0.306 OA
ENDBRANCH   4   6
BRANCH   5   8
HETATM    8  C8  UNL     1     -31.820   7.841   1.811  1.00 20.00     0.000 C 
HETATM    9  C7  UNL     1     -31.587   8.971   0.857  1.00 20.00     0.005 C 
ENDBRANCH   5   8
TORSDOF 2
ENDMDL
MODEL 5
REMARK VINA RESULT:      -0.4      1.332      2.222
REMARK  2 active torsions:
REMARK  status: ('A' for Active; 'I' for Inactive)
REMARK    1  A    between atoms: C1_1  and  C5_5 
REMARK    2  A    between atoms: C6_6  and  C8_8 
ROOT
HETATM    1  C2  UNL     1     -33.167   6.293   1.415  1.00 20.00     0.012 C 
HETATM    2  C3  UNL     1     -32.982   5.590   2.754  1.00 20.00     0.005 C 
HETATM    3  C4  UNL     1     -33.230   7.924   3.248  1.00 20.00     0.016 C 
HETATM    4  C5  UNL     1     -33.066   7.781   1.734  1.00 20.00     0.047 C 
HETATM    5  C6  UNL     1     -33.623   6.537   3.766  1.00 20.00    -0.014 C 
ENDROOT
BRANCH   4   6
HETATM    6  C1  UNL     1     -31.686   8.270   1.335  1.00 20.00     0.235 C 
HETATM    7  O9  UNL     1     -31.484   9.028   0.392  1.00 20.00    -0.306 OA
ENDBRANCH   4   6
BRANCH   5   8
HETATM    8  C8  UNL     1     -35.139   6.365   3.842  1.00 20.00     0.000 C 
HETATM    9  C7  UNL     1     -35.525   5.112   4.565  1.00 20.00     0.005 C 
ENDBRANCH   5   8
TORSDOF 2
ENDMDL
MODEL 6
REMARK VINA RESULT:      -0.4      2.400      4.503
REMARK  2 active torsions:
REMARK  status: ('A' for Active; 'I' for Inactive)
REMARK    1  A    between atoms: C1_1  and  C5_5 
REMARK    2  A    between atoms: C6_6  and  C8_8 
ROOT
HETATM    1  C2  UNL     1     -33.341   7.352   2.797  1.00 20.00     0.012 C 
HETATM    2  C3  UNL     1     -32.179   8.312   3.021  1.00 20.00     0.005 C 
HETATM    3  C4  UNL     1     -31.944   7.482   0.784  1.00 20.00     0.016 C 
HETATM    4  C5  UNL     1     -33.027   6.654   1.478  1.00 20.00     0.047 C 
HETATM    5  C6  UNL     1     -31.785   8.758   1.616  1.00 20.00    -0.014 C 
ENDROOT
BRANCH   4   6
HETATM    6  C1  UNL     1     -32.478   5.272   1.780  1.00 20.00     0.235 C 
HETATM    7  O9  UNL     1     -31.531   4.774   1.180  1.00 20.00    -0.306 OA
ENDBRANCH   4   6
BRANCH   5   8
HETATM    8  C8  UNL     1     -32.670   9.890   1.096  1.00 20.00     0.000 C 
HETATM    9  C7  UNL     1     -32.636   9.988  -0.397  1.00 20.00     0.005 C 
ENDBRANCH   5   8
TORSDOF 2
ENDMDL
MODEL 7
REMARK VINA RESULT:      -0.2      2.098      3.761
REMARK  2 active torsions:
REMARK  status: ('A' for Active; 'I' for Inactive)
REMARK    1  A    between atoms: C1_1  and  C5_5 
REMARK    2  A    between atoms: C6_6  and  C8_8 
ROOT
HETATM    1  C2  UNL     1     -35.346   6.196   3.703  1.00 20.00     0.012 C 
HETATM    2  C3  UNL     1     -34.665   7.336   4.450  1.00 20.00     0.005 C 
HETATM    3  C4  UNL     1     -32.907   5.983   3.540  1.00 20.00     0.016 C 
HETATM    4  C5  UNL     1     -34.223   5.224   3.358  1.00 20.00     0.047 C 
HETATM    5  C6  UNL     1     -33.290   7.444   3.796  1.00 20.00    -0.014 C 
ENDROOT
BRANCH   4   6
HETATM    6  C1  UNL     1     -34.267   4.065   4.337  1.00 20.00     0.235 C 
HETATM    7  O9  UNL     1     -33.334   3.286   4.506  1.00 20.00    -0.306 OA
ENDBRANCH   4   6
BRANCH   5   8
HETATM    8  C8  UNL     1     -33.323   8.258   2.504  1.00 20.00     0.000 C 
HETATM    9  C7  UNL     1     -32.106   8.025   1.664  1.00 20.00     0.005 C 
ENDBRANCH   5   8
TORSDOF 2
ENDMDL
MODEL 8
REMARK VINA RESULT:      -0.0      2.127      4.368
REMARK  2 active torsions:
REMARK  status: ('A' for Active; 'I' for Inactive)
REMARK    1  A    between atoms: C1_1  and  C5_5 
REMARK    2  A    between atoms: C6_6  and  C8_8 
ROOT
HETATM    1  C2  UNL     1     -33.615   7.911   2.704  1.00 20.00     0.012 C 
HETATM    2  C3  UNL     1     -32.164   8.354   2.842  1.00 20.00     0.005 C 
HETATM    3  C4  UNL     1     -32.149   6.443   1.393  1.00 20.00     0.016 C 
HETATM    4  C5  UNL     1     -33.550   6.561   1.997  1.00 20.00     0.047 C 
HETATM    5  C6  UNL     1     -31.485   7.809   1.588  1.00 20.00    -0.014 C 
ENDROOT
BRANCH   4   6
HETATM    6  C1  UNL     1     -33.741   5.464   3.028  1.00 20.00     0.235 C 
HETATM    7  O9  UNL     1     -34.263   5.649   4.123  1.00 20.00    -0.306 OA
ENDBRANCH   4   6
BRANCH   5   8
HETATM    8  C8  UNL     1     -31.688   8.718   0.377  1.00 20.00     0.000 C 
HETATM    9  C7  UNL     1     -32.411   9.979   0.738  1.00 20.00     0.005 C 
ENDBRANCH   5   8
TORSDOF 2
ENDMDL
MODEL 9
REMARK VINA RESULT:      -0.0      2.290      2.924
REMARK  2 active torsions:
REMARK  status: ('A' for Active; 'I' for Inactive)
REMARK    1  A    between atoms: C1_1  and  C5_5 
REMARK    2  A    between atoms: C6_6  and  C8_8 
ROOT
HETATM    1  C2  UNL     1     -31.934   8.322   2.635  1.00 20.00     0.012 C 
HETATM    2  C3  UNL     1     -33.179   7.498   2.939  1.00 20.00     0.005 C 
HETATM    3  C4  UNL     1     -32.814   7.318   0.576  1.00 20.00     0.016 C 
HETATM    4  C5  UNL     1     -31.875   8.399   1.113  1.00 20.00     0.047 C 
HETATM    5  C6  UNL     1     -33.254   6.495   1.791  1.00 20.00    -0.014 C 
ENDROOT
BRANCH   4   6
HETATM    6  C1  UNL     1     -32.383   9.760   0.677  1.00 20.00     0.235 C 
HETATM    7  O9  UNL     1     -32.784  10.001  -0.458  1.00 20.00    -0.306 OA
ENDBRANCH   4   6
BRANCH   5   8
HETATM    8  C8  UNL     1     -32.351   5.284   2.017  1.00 20.00     0.000 C 
HETATM    9  C7  UNL     1     -31.795   4.753   0.733  1.00 20.00     0.005 C 
ENDBRANCH   5   8
TORSDOF 2
ENDMDL
