MODEL 1
REMARK VINA RESULT:       0.2      0.000      0.000
REMARK  2 active torsions:
REMARK  status: ('A' for Active; 'I' for Inactive)
REMARK    1  A    between atoms: C4_4  and  C8_8 
REMARK    2  A    between atoms: C5_5  and  C9_9 
ROOT
HETATM    1  C1  UNL     1     -32.594   8.148   3.407  1.00 20.00     0.032 C 
HETATM    2  C2  UNL     1     -33.610   5.959   2.745  1.00 20.00     0.043 C 
HETATM    3  C3  UNL     1     -33.733   8.311   4.403  1.00 20.00     0.169 C 
HETATM    4  C4  UNL     1     -33.026   7.278   2.225  1.00 20.00     0.004 C 
HETATM    5  C5  UNL     1     -34.700   6.177   3.812  1.00 20.00     0.057 C 
HETATM    6  C6  UNL     1     -36.005   6.716   3.207  1.00 20.00     0.046 C 
HETATM    7  O10 UNL     1     -34.221   7.048   4.848  1.00 20.00    -0.381 OA
ENDROOT
BRANCH   5   8
HETATM    8  C9  UNL     1     -35.007   4.838   4.500  1.00 20.00     0.033 C 
HETATM    9  C7  UNL     1     -33.907   3.855   4.291  1.00 20.00     0.008 C 
ENDBRANCH   5   8
BRANCH   4  10
HETATM   10  C8  UNL     1     -31.856   7.022   1.278  1.00 20.00     0.119 C 
HETATM   11 CL11 UNL     1     -31.648   5.279   1.026  1.00 20.00    -0.130 Cl
ENDBRANCH   4  10
TORSDOF 2
ENDMDL
MODEL 2
REMARK VINA RESULT:       0.3      1.119      1.119
REMARK  2 active torsions:
REMARK  status: ('A' for Active; 'I' for Inactive)
REMARK    1  A    between atoms: C4_4  and  C8_8 
REMARK    2  A    between atoms: C5_5  and  C9_9 
ROOT
HETATM    1  C1  UNL     1     -32.608   8.268   3.587  1.00 20.00     0.032 C 
HETATM    2  C2  UNL     1     -33.528   6.103   2.736  1.00 20.00     0.043 C 
HETATM    3  C3  UNL     1     -33.747   8.291   4.597  1.00 20.00     0.169 C 
HETATM    4  C4  UNL     1     -33.009   7.489   2.333  1.00 20.00     0.004 C 
HETATM    5  C5  UNL     1     -34.620   6.175   3.821  1.00 20.00     0.057 C 
HETATM    6  C6  UNL     1     -35.952   6.705   3.271  1.00 20.00     0.046 C 
HETATM    7  O10 UNL     1     -34.174   6.971   4.929  1.00 20.00    -0.381 OA
ENDROOT
BRANCH   5   8
HETATM    8  C9  UNL     1     -34.860   4.768   4.388  1.00 20.00     0.033 C 
HETATM    9  C7  UNL     1     -33.727   3.853   4.072  1.00 20.00     0.008 C 
ENDBRANCH   5   8
BRANCH   4  10
HETATM   10  C8  UNL     1     -31.835   7.371   1.364  1.00 20.00     0.119 C 
HETATM   11 CL11 UNL     1     -31.633   8.887   0.466  1.00 20.00    -0.130 Cl
ENDBRANCH   4  10
TORSDOF 2
ENDMDL
MODEL 3
REMARK VINA RESULT:       0.3      2.000      3.964
REMARK  2 active torsions:
REMARK  status: ('A' for Active; 'I' for Inactive)
REMARK    1  A    between atoms: C4_4  and  C8_8 
REMARK    2  A    between atoms: C5_5  and  C9_9 
ROOT
HETATM    1  C1  UNL     1     -34.515   6.530   3.872  1.00 20.00     0.032 C 
HETATM    2  C2  UNL     1     -32.900   6.231   1.984  1.00 20.00     0.043 C 
HETATM    3  C3  UNL     1     -34.109   7.995   3.915  1.00 20.00     0.169 C 
HETATM    4  C4  UNL     1     -33.376   5.665   3.328  1.00 20.00     0.004 C 
HETATM    5  C5  UNL     1     -32.581   7.737   2.059  1.00 20.00     0.057 C 
HETATM    6  C6  UNL     1     -31.285   8.019   2.834  1.00 20.00     0.046 C 
HETATM    7  O10 UNL     1     -33.684   8.455   2.634  1.00 20.00    -0.381 OA
ENDROOT
BRANCH   5   8
HETATM    8  C9  UNL     1     -32.419   8.289   0.636  1.00 20.00     0.033 C 
HETATM    9  C7  UNL     1     -32.471   9.778   0.620  1.00 20.00     0.008 C 
ENDBRANCH   5   8
BRANCH   4  10
HETATM   10  C8  UNL     1     -33.816   4.210   3.182  1.00 20.00     0.119 C 
HETATM   11 CL11 UNL     1     -33.379   3.293   4.634  1.00 20.00    -0.130 Cl
ENDBRANCH   4  10
TORSDOF 2
ENDMDL
MODEL 4
REMARK VINA RESULT:       0.7      2.228      3.062
REMARK  2 active torsions:
REMARK  status: ('A' for Active; 'I' for Inactive)
REMARK    1  A    between atoms: C4_4  and  C8_8 
REMARK    2  A    between atoms: C5_5  and  C9_9 
ROOT
HETATM    1  C1  UNL     1     -31.904   6.791   0.962  1.00 20.00     0.032 C 
HETATM    2  C2  UNL     1     -33.457   8.340   2.166  1.00 20.00     0.043 C 
HETATM    3  C3  UNL     1     -32.090   5.806   2.107  1.00 20.00     0.169 C 
HETATM    4  C4  UNL     1     -32.109   8.228   1.444  1.00 20.00     0.004 C 
HETATM    5  C5  UNL     1     -33.630   7.268   3.259  1.00 20.00     0.057 C 
HETATM    6  C6  UNL     1     -32.753   7.545   4.489  1.00 20.00     0.046 C 
HETATM    7  O10 UNL     1     -33.364   5.962   2.727  1.00 20.00    -0.381 OA
ENDROOT
BRANCH   5   8
HETATM    8  C9  UNL     1     -35.098   7.244   3.712  1.00 20.00     0.033 C 
HETATM    9  C7  UNL     1     -35.491   5.896   4.210  1.00 20.00     0.008 C 
ENDBRANCH   5   8
BRANCH   4  10
HETATM   10  C8  UNL     1     -32.031   9.212   0.278  1.00 20.00     0.119 C 
HETATM   11 CL11 UNL     1     -32.808  10.742   0.720  1.00 20.00    -0.130 Cl
ENDBRANCH   4  10
TORSDOF 2
ENDMDL
MODEL 5
REMARK VINA RESULT:       0.9      2.304      4.255
REMARK  2 active torsions:
REMARK  status: ('A' for Active; 'I' for Inactive)
REMARK    1  A    between atoms: C4_4  and  C8_8 
REMARK    2  A    between atoms: C5_5  and  C9_9 
ROOT
HETATM    1  C1  UNL     1     -33.431   8.040   4.444  1.00 20.00     0.032 C 
HETATM    2  C2  UNL     1     -33.705   7.352   2.054  1.00 20.00     0.043 C 
HETATM    3  C3  UNL     1     -32.067   8.601   4.068  1.00 20.00     0.169 C 
HETATM    4  C4  UNL     1     -33.822   6.891   3.513  1.00 20.00     0.004 C 
HETATM    5  C5  UNL     1     -32.335   7.988   1.746  1.00 20.00     0.057 C 
HETATM    6  C6  UNL     1     -31.209   6.946   1.689  1.00 20.00     0.046 C 
HETATM    7  O10 UNL     1     -32.032   9.013   2.704  1.00 20.00    -0.381 OA
ENDROOT
BRANCH   5   8
HETATM    8  C9  UNL     1     -32.404   8.696   0.385  1.00 20.00     0.033 C 
HETATM    9  C7  UNL     1     -32.565  10.169   0.544  1.00 20.00     0.008 C 
ENDBRANCH   5   8
BRANCH   4  10
HETATM   10  C8  UNL     1     -35.235   6.397   3.817  1.00 20.00     0.119 C 
HETATM   11 CL11 UNL     1     -35.170   4.793   4.569  1.00 20.00    -0.130 Cl
ENDBRANCH   4  10
TORSDOF 2
ENDMDL
MODEL 6
REMARK VINA RESULT:       1.0      1.882      3.764
REMARK  2 active torsions:
REMARK  status: ('A' for Active; 'I' for Inactive)
REMARK    1  A    between atoms: C4_4  and  C8_8 
REMARK    2  A    between atoms: C5_5  and  C9_9 
ROOT
HETATM    1  C1  UNL     1     -35.313   5.070   4.197  1.00 20.00     0.032 C 
HETATM    2  C2  UNL     1     -33.137   5.526   3.049  1.00 20.00     0.043 C 
HETATM    3  C3  UNL     1     -35.581   6.567   4.162  1.00 20.00     0.169 C 
HETATM    4  C4  UNL     1     -33.809   4.787   4.213  1.00 20.00     0.004 C 
HETATM    5  C5  UNL     1     -33.507   7.021   3.008  1.00 20.00     0.057 C 
HETATM    6  C6  UNL     1     -32.830   7.819   4.133  1.00 20.00     0.046 C 
HETATM    7  O10 UNL     1     -34.932   7.186   3.054  1.00 20.00    -0.381 OA
ENDROOT
BRANCH   5   8
HETATM    8  C9  UNL     1     -33.060   7.613   1.663  1.00 20.00     0.033 C 
HETATM    9  C7  UNL     1     -31.606   7.939   1.668  1.00 20.00     0.008 C 
ENDBRANCH   5   8
BRANCH   4  10
HETATM   10  C8  UNL     1     -33.534   3.287   4.140  1.00 20.00     0.119 C 
HETATM   11 CL11 UNL     1     -32.703   2.748   5.610  1.00 20.00    -0.130 Cl
ENDBRANCH   4  10
TORSDOF 2
ENDMDL
MODEL 7
REMARK VINA RESULT:       1.4      1.905      3.923
REMARK  2 active torsions:
REMARK  status: ('A' for Active; 'I' for Inactive)
REMARK    1  A    between atoms: C4_4  and  C8_8 
REMARK    2  A    between atoms: C5_5  and  C9_9 
ROOT
HETATM    1  C1  UNL     1     -33.798   6.003   2.700  1.00 20.00     0.032 C 
HETATM    2  C2  UNL     1     -32.437   7.254   1.014  1.00 20.00     0.043 C 
HETATM    3  C3  UNL     1     -33.634   7.194   3.633  1.00 20.00     0.169 C 
HETATM    4  C4  UNL     1     -32.621   5.908   1.727  1.00 20.00     0.004 C 
HETATM    5  C5  UNL     1     -32.360   8.437   1.998  1.00 20.00     0.057 C 
HETATM    6  C6  UNL     1     -31.031   8.466   2.769  1.00 20.00     0.046 C 
HETATM    7  O10 UNL     1     -33.473   8.408   2.904  1.00 20.00    -0.381 OA
ENDROOT
BRANCH   5   8
HETATM    8  C9  UNL     1     -32.490   9.752   1.216  1.00 20.00     0.033 C 
HETATM    9  C7  UNL     1     -32.466   9.515  -0.255  1.00 20.00     0.008 C 
ENDBRANCH   5   8
BRANCH   4  10
HETATM   10  C8  UNL     1     -32.834   4.781   0.719  1.00 20.00     0.119 C 
HETATM   11 CL11 UNL     1     -31.270   4.172   0.148  1.00 20.00    -0.130 Cl
ENDBRANCH   4  10
TORSDOF 2
ENDMDL
MODEL 8
REMARK VINA RESULT:       1.6      2.273      4.198
REMARK  2 active torsions:
REMARK  status: ('A' for Active; 'I' for Inactive)
REMARK    1  A    between atoms: C4_4  and  C8_8 
REMARK    2  A    between atoms: C5_5  and  C9_9 
ROOT
HETATM    1  C1  UNL     1     -33.574   5.351   2.374  1.00 20.00     0.032 C 
HETATM    2  C2  UNL     1     -33.266   7.678   3.241  1.00 20.00     0.043 C 
HETATM    3  C3  UNL     1     -32.560   5.681   1.289  1.00 20.00     0.169 C 
HETATM    4  C4  UNL     1     -34.298   6.615   2.843  1.00 20.00     0.004 C 
HETATM    5  C5  UNL     1     -32.211   7.915   2.142  1.00 20.00     0.057 C 
HETATM    6  C6  UNL     1     -32.787   8.675   0.938  1.00 20.00     0.046 C 
HETATM    7  O10 UNL     1     -31.631   6.669   1.728  1.00 20.00    -0.381 OA
ENDROOT
BRANCH   5   8
HETATM    8  C9  UNL     1     -31.056   8.742   2.724  1.00 20.00     0.033 C 
HETATM    9  C7  UNL     1     -31.337   9.160   4.126  1.00 20.00     0.008 C 
ENDBRANCH   5   8
BRANCH   4  10
HETATM   10  C8  UNL     1     -35.239   6.306   4.006  1.00 20.00     0.119 C 
HETATM   11 CL11 UNL     1     -35.007   4.635   4.550  1.00 20.00    -0.130 Cl
ENDBRANCH   4  10
TORSDOF 2
ENDMDL
MODEL 9
REMARK VINA RESULT:       1.8      2.436      3.375
REMARK  2 active torsions:
REMARK  status: ('A' for Active; 'I' for Inactive)
REMARK    1  A    between atoms: C4_4  and  C8_8 
REMARK    2  A    between atoms: C5_5  and  C9_9 
ROOT
HETATM    1  C1  UNL     1     -33.506   7.752   3.245  1.00 20.00     0.032 C 
HETATM    2  C2  UNL     1     -31.973   7.007   1.413  1.00 20.00     0.043 C 
HETATM    3  C3  UNL     1     -34.045   6.330   3.297  1.00 20.00     0.169 C 
HETATM    4  C4  UNL     1     -32.977   8.082   1.848  1.00 20.00     0.004 C 
HETATM    5  C5  UNL     1     -32.536   5.580   1.564  1.00 20.00     0.057 C 
HETATM    6  C6  UNL     1     -33.600   5.260   0.505  1.00 20.00     0.046 C 
HETATM    7  O10 UNL     1     -33.059   5.385   2.887  1.00 20.00    -0.381 OA
ENDROOT
BRANCH   5   8
HETATM    8  C9  UNL     1     -31.390   4.569   1.414  1.00 20.00     0.033 C 
HETATM    9  C7  UNL     1     -31.315   4.032   0.026  1.00 20.00     0.008 C 
ENDBRANCH   5   8
BRANCH   4  10
HETATM   10  C8  UNL     1     -32.338   9.469   1.818  1.00 20.00     0.119 C 
HETATM   11 CL11 UNL     1     -32.486  10.173   0.198  1.00 20.00    -0.130 Cl
ENDBRANCH   4  10
TORSDOF 2
ENDMDL
