MODEL 1
REMARK VINA RESULT:      -2.1      0.000      0.000
REMARK  2 active torsions:
REMARK  status: ('A' for Active; 'I' for Inactive)
REMARK    1  A    between atoms: C5_5  and  C8_8 
REMARK    2  A    between atoms: C6_6  and  C9_9 
ROOT
HETATM    1  C1  UNL     1     -32.563   5.733   1.259  1.00 20.00     0.001 C 
HETATM    2  C2  UNL     1     -31.429   6.755   1.322  1.00 20.00     0.005 C 
HETATM    3  C3  UNL     1     -33.378   5.715   2.549  1.00 20.00     0.005 C 
HETATM    4  C4  UNL     1     -32.763   8.131   2.972  1.00 20.00     0.010 C 
HETATM    5  C5  UNL     1     -31.911   8.164   1.693  1.00 20.00    -0.014 C 
HETATM    6  C6  UNL     1     -33.909   7.109   2.909  1.00 20.00    -0.000 C 
ENDROOT
BRANCH   5   7
HETATM    7  C8  UNL     1     -32.653   8.834   0.533  1.00 20.00     0.000 C 
HETATM    8  C7  UNL     1     -32.397  10.304   0.492  1.00 20.00     0.005 C 
ENDBRANCH   5   7
BRANCH   6   9
HETATM    9  C9  UNL     1     -34.664   7.068   4.238  1.00 20.00     0.119 C 
HETATM   10 CL10 UNL     1     -35.465   5.501   4.431  1.00 20.00    -0.130 Cl
ENDBRANCH   6   9
TORSDOF 2
ENDMDL
MODEL 2
REMARK VINA RESULT:      -0.2      1.216      2.807
REMARK  2 active torsions:
REMARK  status: ('A' for Active; 'I' for Inactive)
REMARK    1  A    between atoms: C5_5  and  C8_8 
REMARK    2  A    between atoms: C6_6  and  C9_9 
ROOT
HETATM    1  C1  UNL     1     -31.958   8.208   2.987  1.00 20.00     0.001 C 
HETATM    2  C2  UNL     1     -32.007   7.909   1.490  1.00 20.00     0.005 C 
HETATM    3  C3  UNL     1     -33.312   7.980   3.652  1.00 20.00     0.005 C 
HETATM    4  C4  UNL     1     -33.897   6.275   1.879  1.00 20.00     0.010 C 
HETATM    5  C5  UNL     1     -32.553   6.509   1.175  1.00 20.00    -0.014 C 
HETATM    6  C6  UNL     1     -33.849   6.568   3.387  1.00 20.00    -0.000 C 
ENDROOT
BRANCH   5   7
HETATM    7  C8  UNL     1     -31.535   5.416   1.512  1.00 20.00     0.000 C 
HETATM    8  C7  UNL     1     -31.477   4.370   0.448  1.00 20.00     0.005 C 
ENDBRANCH   5   7
BRANCH   6   9
HETATM    9  C9  UNL     1     -35.234   6.395   4.011  1.00 20.00     0.119 C 
HETATM   10 CL10 UNL     1     -35.382   4.779   4.720  1.00 20.00    -0.130 Cl
ENDBRANCH   6   9
TORSDOF 2
ENDMDL
MODEL 3
REMARK VINA RESULT:      -0.2      1.669      2.898
REMARK  2 active torsions:
REMARK  status: ('A' for Active; 'I' for Inactive)
REMARK    1  A    between atoms: C5_5  and  C8_8 
REMARK    2  A    between atoms: C6_6  and  C9_9 
ROOT
HETATM    1  C1  UNL     1     -34.392   7.379   4.047  1.00 20.00     0.001 C 
HETATM    2  C2  UNL     1     -34.347   7.690   2.552  1.00 20.00     0.005 C 
HETATM    3  C3  UNL     1     -34.580   5.887   4.306  1.00 20.00     0.005 C 
HETATM    4  C4  UNL     1     -33.473   5.363   2.094  1.00 20.00     0.010 C 
HETATM    5  C5  UNL     1     -33.300   6.860   1.797  1.00 20.00    -0.014 C 
HETATM    6  C6  UNL     1     -33.511   5.045   3.597  1.00 20.00    -0.000 C 
ENDROOT
BRANCH   5   7
HETATM    7  C8  UNL     1     -31.876   7.339   2.093  1.00 20.00     0.000 C 
HETATM    8  C7  UNL     1     -31.563   8.610   1.377  1.00 20.00     0.005 C 
ENDBRANCH   5   7
BRANCH   6   9
HETATM    9  C9  UNL     1     -33.766   3.554   3.824  1.00 20.00     0.119 C 
HETATM   10 CL10 UNL     1     -32.757   2.962   5.153  1.00 20.00    -0.130 Cl
ENDBRANCH   6   9
TORSDOF 2
ENDMDL
MODEL 4
REMARK VINA RESULT:      -0.1      2.314      3.776
REMARK  2 active torsions:
REMARK  status: ('A' for Active; 'I' for Inactive)
REMARK    1  A    between atoms: C5_5  and  C8_8 
REMARK    2  A    between atoms: C6_6  and  C9_9 
ROOT
HETATM    1  C1  UNL     1     -33.526   5.289   2.962  1.00 20.00     0.001 C 
HETATM    2  C2  UNL     1     -34.684   6.136   3.486  1.00 20.00     0.005 C 
HETATM    3  C3  UNL     1     -32.826   5.960   1.783  1.00 20.00     0.005 C 
HETATM    4  C4  UNL     1     -33.533   8.227   2.651  1.00 20.00     0.010 C 
HETATM    5  C5  UNL     1     -34.270   7.574   3.830  1.00 20.00    -0.014 C 
HETATM    6  C6  UNL     1     -32.362   7.381   2.126  1.00 20.00    -0.000 C 
ENDROOT
BRANCH   5   7
HETATM    7  C8  UNL     1     -33.446   7.632   5.119  1.00 20.00     0.000 C 
HETATM    8  C7  UNL     1     -32.443   8.737   5.081  1.00 20.00     0.005 C 
ENDBRANCH   5   7
BRANCH   6   9
HETATM    9  C9  UNL     1     -31.725   8.046   0.906  1.00 20.00     0.119 C 
HETATM   10 CL10 UNL     1     -32.499   9.608   0.594  1.00 20.00    -0.130 Cl
ENDBRANCH   6   9
TORSDOF 2
ENDMDL
MODEL 5
REMARK VINA RESULT:       0.4      2.531      3.886
REMARK  2 active torsions:
REMARK  status: ('A' for Active; 'I' for Inactive)
REMARK    1  A    between atoms: C5_5  and  C8_8 
REMARK    2  A    between atoms: C6_6  and  C9_9 
ROOT
HETATM    1  C1  UNL     1     -34.316   4.769   4.099  1.00 20.00     0.001 C 
HETATM    2  C2  UNL     1     -35.343   5.893   4.210  1.00 20.00     0.005 C 
HETATM    3  C3  UNL     1     -33.536   4.846   2.789  1.00 20.00     0.005 C 
HETATM    4  C4  UNL     1     -33.918   7.344   2.708  1.00 20.00     0.010 C 
HETATM    5  C5  UNL     1     -34.733   7.287   4.009  1.00 20.00    -0.014 C 
HETATM    6  C6  UNL     1     -32.878   6.218   2.595  1.00 20.00    -0.000 C 
ENDROOT
BRANCH   5   7
HETATM    7  C8  UNL     1     -33.903   7.722   5.220  1.00 20.00     0.000 C 
HETATM    8  C7  UNL     1     -32.699   8.503   4.809  1.00 20.00     0.005 C 
ENDBRANCH   5   7
BRANCH   6   9
HETATM    9  C9  UNL     1     -32.161   6.284   1.246  1.00 20.00     0.119 C 
HETATM   10 CL10 UNL     1     -31.607   7.936   0.934  1.00 20.00    -0.130 Cl
ENDBRANCH   6   9
TORSDOF 2
ENDMDL
MODEL 6
REMARK VINA RESULT:       0.4      2.474      4.022
REMARK  2 active torsions:
REMARK  status: ('A' for Active; 'I' for Inactive)
REMARK    1  A    between atoms: C5_5  and  C8_8 
REMARK    2  A    between atoms: C6_6  and  C9_9 
ROOT
HETATM    1  C1  UNL     1     -34.145   6.494   3.340  1.00 20.00     0.001 C 
HETATM    2  C2  UNL     1     -33.367   5.242   2.937  1.00 20.00     0.005 C 
HETATM    3  C3  UNL     1     -33.309   7.758   3.164  1.00 20.00     0.005 C 
HETATM    4  C4  UNL     1     -31.973   6.623   1.342  1.00 20.00     0.010 C 
HETATM    5  C5  UNL     1     -32.782   5.329   1.521  1.00 20.00    -0.014 C 
HETATM    6  C6  UNL     1     -32.755   7.885   1.739  1.00 20.00    -0.000 C 
ENDROOT
BRANCH   5   7
HETATM    7  C8  UNL     1     -33.866   5.182   0.450  1.00 20.00     0.000 C 
HETATM    8  C7  UNL     1     -33.606   4.013  -0.440  1.00 20.00     0.005 C 
ENDBRANCH   5   7
BRANCH   6   9
HETATM    9  C9  UNL     1     -31.870   9.125   1.616  1.00 20.00     0.119 C 
HETATM   10 CL10 UNL     1     -32.450  10.155   0.297  1.00 20.00    -0.130 Cl
ENDBRANCH   6   9
TORSDOF 2
ENDMDL
MODEL 7
REMARK VINA RESULT:       0.5      2.500      3.783
REMARK  2 active torsions:
REMARK  status: ('A' for Active; 'I' for Inactive)
REMARK    1  A    between atoms: C5_5  and  C8_8 
REMARK    2  A    between atoms: C6_6  and  C9_9 
ROOT
HETATM    1  C1  UNL     1     -34.502   4.670   4.414  1.00 20.00     0.001 C 
HETATM    2  C2  UNL     1     -35.423   5.881   4.269  1.00 20.00     0.005 C 
HETATM    3  C3  UNL     1     -33.700   4.417   3.141  1.00 20.00     0.005 C 
HETATM    4  C4  UNL     1     -33.849   6.873   2.558  1.00 20.00     0.010 C 
HETATM    5  C5  UNL     1     -34.684   7.147   3.818  1.00 20.00    -0.014 C 
HETATM    6  C6  UNL     1     -32.916   5.660   2.702  1.00 20.00    -0.000 C 
ENDROOT
BRANCH   5   7
HETATM    7  C8  UNL     1     -33.834   7.739   4.946  1.00 20.00     0.000 C 
HETATM    8  C7  UNL     1     -32.623   8.433   4.416  1.00 20.00     0.005 C 
ENDBRANCH   5   7
BRANCH   6   9
HETATM    9  C9  UNL     1     -32.177   5.393   1.391  1.00 20.00     0.119 C 
HETATM   10 CL10 UNL     1     -33.288   4.696   0.201  1.00 20.00    -0.130 Cl
ENDBRANCH   6   9
TORSDOF 2
ENDMDL
MODEL 8
REMARK VINA RESULT:       0.5      1.956      3.813
REMARK  2 active torsions:
REMARK  status: ('A' for Active; 'I' for Inactive)
REMARK    1  A    between atoms: C5_5  and  C8_8 
REMARK    2  A    between atoms: C6_6  and  C9_9 
ROOT
HETATM    1  C1  UNL     1     -32.371   8.497   1.861  1.00 20.00     0.001 C 
HETATM    2  C2  UNL     1     -32.398   8.247   3.367  1.00 20.00     0.005 C 
HETATM    3  C3  UNL     1     -31.959   7.246   1.090  1.00 20.00     0.005 C 
HETATM    4  C4  UNL     1     -32.865   5.797   2.953  1.00 20.00     0.010 C 
HETATM    5  C5  UNL     1     -33.262   7.042   3.762  1.00 20.00    -0.014 C 
HETATM    6  C6  UNL     1     -32.845   6.042   1.436  1.00 20.00    -0.000 C 
ENDROOT
BRANCH   5   7
HETATM    7  C8  UNL     1     -34.757   7.351   3.634  1.00 20.00     0.000 C 
HETATM    8  C7  UNL     1     -35.594   6.154   3.940  1.00 20.00     0.005 C 
ENDBRANCH   5   7
BRANCH   6   9
HETATM    9  C9  UNL     1     -32.364   4.793   0.698  1.00 20.00     0.119 C 
HETATM   10 CL10 UNL     1     -33.663   4.158  -0.326  1.00 20.00    -0.130 Cl
ENDBRANCH   6   9
TORSDOF 2
ENDMDL
MODEL 9
REMARK VINA RESULT:       0.7      2.365      4.118
REMARK  2 active torsions:
REMARK  status: ('A' for Active; 'I' for Inactive)
REMARK    1  A    between atoms: C5_5  and  C8_8 
REMARK    2  A    between atoms: C6_6  and  C9_9 
ROOT
HETATM    1  C1  UNL     1     -32.036   5.491   1.264  1.00 20.00     0.001 C 
HETATM    2  C2  UNL     1     -33.503   5.165   1.536  1.00 20.00     0.005 C 
HETATM    3  C3  UNL     1     -31.802   6.996   1.170  1.00 20.00     0.005 C 
HETATM    4  C4  UNL     1     -33.788   7.401   2.681  1.00 20.00     0.010 C 
HETATM    5  C5  UNL     1     -34.062   5.891   2.767  1.00 20.00    -0.014 C 
HETATM    6  C6  UNL     1     -32.312   7.733   2.415  1.00 20.00    -0.000 C 
ENDROOT
BRANCH   5   7
HETATM    7  C8  UNL     1     -33.531   5.289   4.070  1.00 20.00     0.000 C 
HETATM    8  C7  UNL     1     -33.849   3.834   4.174  1.00 20.00     0.005 C 
ENDBRANCH   5   7
BRANCH   6   9
HETATM    9  C9  UNL     1     -32.121   9.242   2.261  1.00 20.00     0.119 C 
HETATM   10 CL10 UNL     1     -32.397   9.718   0.577  1.00 20.00    -0.130 Cl
ENDBRANCH   6   9
TORSDOF 2
ENDMDL
