MODEL 1
REMARK VINA RESULT:      -2.1      0.000      0.000
REMARK  2 active torsions:
REMARK  status: ('A' for Active; 'I' for Inactive)
REMARK    1  A    between atoms: C1_1  and  C7_7 
REMARK    2  A    between atoms: C8_8  and  C10_10 
ROOT
HETATM    1  C2  UNL     1     -32.232   5.682   1.719  1.00 20.00     0.001 C 
HETATM    2  C3  UNL     1     -33.363   5.444   2.728  1.00 20.00     0.011 C 
HETATM    3  C4  UNL     1     -33.387   7.770   3.839  1.00 20.00     0.012 C 
HETATM    4  C5  UNL     1     -32.339   6.973   0.912  1.00 20.00     0.004 C 
HETATM    5  C6  UNL     1     -32.045   8.159   3.218  1.00 20.00     0.005 C 
HETATM    6  C7  UNL     1     -34.193   6.669   3.138  1.00 20.00     0.047 C 
HETATM    7  C8  UNL     1     -31.979   8.247   1.691  1.00 20.00    -0.015 C 
ENDROOT
BRANCH   6   8
HETATM    8  C1  UNL     1     -35.352   6.231   4.043  1.00 20.00     0.235 C 
HETATM    9  O11 UNL     1     -35.468   5.095   4.489  1.00 20.00    -0.306 OA
ENDBRANCH   6   8
BRANCH   7  10
HETATM   10  C10 UNL     1     -32.815   9.393   1.200  1.00 20.00     0.000 C 
HETATM   11  C9  UNL     1     -32.375   9.850  -0.150  1.00 20.00     0.005 C 
ENDBRANCH   7  10
TORSDOF 2
ENDMDL
MODEL 2
REMARK VINA RESULT:      -1.1      1.698      3.038
REMARK  2 active torsions:
REMARK  status: ('A' for Active; 'I' for Inactive)
REMARK    1  A    between atoms: C1_1  and  C7_7 
REMARK    2  A    between atoms: C8_8  and  C10_10 
ROOT
HETATM    1  C2  UNL     1     -35.419   6.508   4.051  1.00 20.00     0.001 C 
HETATM    2  C3  UNL     1     -35.018   5.041   4.250  1.00 20.00     0.011 C 
HETATM    3  C4  UNL     1     -33.235   4.871   2.394  1.00 20.00     0.012 C 
HETATM    4  C5  UNL     1     -34.258   7.493   3.939  1.00 20.00     0.004 C 
HETATM    5  C6  UNL     1     -33.674   6.189   1.755  1.00 20.00     0.005 C 
HETATM    6  C7  UNL     1     -33.578   4.661   3.875  1.00 20.00     0.047 C 
HETATM    7  C8  UNL     1     -33.517   7.461   2.594  1.00 20.00    -0.015 C 
ENDROOT
BRANCH   6   8
HETATM    8  C1  UNL     1     -33.311   3.199   4.257  1.00 20.00     0.235 C 
HETATM    9  O11 UNL     1     -32.770   2.862   5.304  1.00 20.00    -0.306 OA
ENDBRANCH   6   8
BRANCH   7  10
HETATM   10  C10 UNL     1     -32.064   7.767   2.809  1.00 20.00     0.000 C 
HETATM   11  C9  UNL     1     -31.382   8.103   1.525  1.00 20.00     0.005 C 
ENDBRANCH   7  10
TORSDOF 2
ENDMDL
MODEL 3
REMARK VINA RESULT:       0.7      2.361      4.448
REMARK  2 active torsions:
REMARK  status: ('A' for Active; 'I' for Inactive)
REMARK    1  A    between atoms: C1_1  and  C7_7 
REMARK    2  A    between atoms: C8_8  and  C10_10 
ROOT
HETATM    1  C2  UNL     1     -33.168   5.853   1.556  1.00 20.00     0.001 C 
HETATM    2  C3  UNL     1     -32.769   7.216   2.137  1.00 20.00     0.011 C 
HETATM    3  C4  UNL     1     -34.313   7.224   4.203  1.00 20.00     0.012 C 
HETATM    4  C5  UNL     1     -33.200   4.701   2.557  1.00 20.00     0.004 C 
HETATM    5  C6  UNL     1     -35.136   6.046   3.679  1.00 20.00     0.005 C 
HETATM    6  C7  UNL     1     -32.887   7.380   3.659  1.00 20.00     0.047 C 
HETATM    7  C8  UNL     1     -34.411   4.708   3.503  1.00 20.00    -0.015 C 
ENDROOT
BRANCH   6   8
HETATM    8  C1  UNL     1     -32.328   8.746   4.079  1.00 20.00     0.235 C 
HETATM    9  O11 UNL     1     -31.186   9.115   3.829  1.00 20.00    -0.306 OA
ENDBRANCH   6   8
BRANCH   7  10
HETATM   10  C10 UNL     1     -34.013   4.152   4.839  1.00 20.00     0.000 C 
HETATM   11  C9  UNL     1     -33.174   2.927   4.692  1.00 20.00     0.005 C 
ENDBRANCH   7  10
TORSDOF 2
ENDMDL
