MODEL 1
REMARK VINA RESULT:       1.8      0.000      0.000
REMARK  0 active torsions:
REMARK  status: ('A' for Active; 'I' for Inactive)
ROOT
HETATM    1  C1  UNL     1     -33.996   4.498   3.889  1.00 20.00     0.066 C 
HETATM    2  C2  UNL     1     -33.877   7.333   4.866  1.00 20.00     0.038 C 
HETATM    3  C3  UNL     1     -32.643   7.835   4.117  1.00 20.00     0.273 C 
HETATM    4  C4  UNL     1     -32.950   6.202   2.372  1.00 20.00     0.292 C 
HETATM    5  C5  UNL     1     -34.454   7.952   2.678  1.00 20.00     0.278 C 
HETATM    6  C6  UNL     1     -34.230   5.644   3.007  1.00 20.00     0.127 C 
HETATM    7  C7  UNL     1     -34.786   6.889   3.714  1.00 20.00     0.035 C 
HETATM    8  N8  UNL     1     -33.810   3.592   4.588  1.00 20.00    -0.197 NA
HETATM    9  N9  UNL     1     -32.994   7.663   2.680  1.00 20.00     0.090 N 
ENDROOT
TORSDOF 0
ENDMDL
MODEL 2
REMARK VINA RESULT:       1.8      2.315      4.272
REMARK  0 active torsions:
REMARK  status: ('A' for Active; 'I' for Inactive)
ROOT
HETATM    1  C1  UNL     1     -32.426   9.496   0.534  1.00 20.00     0.066 C 
HETATM    2  C2  UNL     1     -32.528   7.988   3.126  1.00 20.00     0.038 C 
HETATM    3  C3  UNL     1     -33.672   7.015   2.839  1.00 20.00     0.273 C 
HETATM    4  C4  UNL     1     -33.270   7.133   0.466  1.00 20.00     0.292 C 
HETATM    5  C5  UNL     1     -31.737   6.145   1.911  1.00 20.00     0.278 C 
HETATM    6  C6  UNL     1     -32.073   8.078   0.633  1.00 20.00     0.127 C 
HETATM    7  C7  UNL     1     -31.538   7.649   2.007  1.00 20.00     0.035 C 
HETATM    8  N8  UNL     1     -32.706  10.619   0.457  1.00 20.00    -0.197 NA
HETATM    9  N9  UNL     1     -33.201   6.238   1.659  1.00 20.00     0.090 N 
ENDROOT
TORSDOF 0
ENDMDL
MODEL 3
REMARK VINA RESULT:       2.0      1.639      3.455
REMARK  0 active torsions:
REMARK  status: ('A' for Active; 'I' for Inactive)
ROOT
HETATM    1  C1  UNL     1     -32.373   8.412   1.441  1.00 20.00     0.066 C 
HETATM    2  C2  UNL     1     -34.280   7.969   3.714  1.00 20.00     0.038 C 
HETATM    3  C3  UNL     1     -35.113   6.814   3.158  1.00 20.00     0.273 C 
HETATM    4  C4  UNL     1     -33.305   6.100   1.734  1.00 20.00     0.292 C 
HETATM    5  C5  UNL     1     -33.167   5.932   4.052  1.00 20.00     0.278 C 
HETATM    6  C6  UNL     1     -32.359   7.192   2.251  1.00 20.00     0.127 C 
HETATM    7  C7  UNL     1     -32.866   7.378   3.689  1.00 20.00     0.035 C 
HETATM    8  N8  UNL     1     -32.384   9.379   0.799  1.00 20.00    -0.197 NA
HETATM    9  N9  UNL     1     -34.122   5.727   2.928  1.00 20.00     0.090 N 
ENDROOT
TORSDOF 0
ENDMDL
MODEL 4
REMARK VINA RESULT:       2.2      1.141      1.367
REMARK  0 active torsions:
REMARK  status: ('A' for Active; 'I' for Inactive)
ROOT
HETATM    1  C1  UNL     1     -33.651   5.027   3.196  1.00 20.00     0.066 C 
HETATM    2  C2  UNL     1     -33.176   7.939   3.742  1.00 20.00     0.038 C 
HETATM    3  C3  UNL     1     -31.720   8.073   3.297  1.00 20.00     0.273 C 
HETATM    4  C4  UNL     1     -31.933   6.202   1.793  1.00 20.00     0.292 C 
HETATM    5  C5  UNL     1     -33.062   8.202   1.415  1.00 20.00     0.278 C 
HETATM    6  C6  UNL     1     -33.417   5.999   2.126  1.00 20.00     0.127 C 
HETATM    7  C7  UNL     1     -33.851   7.433   2.463  1.00 20.00     0.035 C 
HETATM    8  N8  UNL     1     -33.835   4.257   4.044  1.00 20.00    -0.197 NA
HETATM    9  N9  UNL     1     -31.740   7.682   1.861  1.00 20.00     0.090 N 
ENDROOT
TORSDOF 0
ENDMDL
MODEL 5
REMARK VINA RESULT:       2.2      1.720      2.835
REMARK  0 active torsions:
REMARK  status: ('A' for Active; 'I' for Inactive)
ROOT
HETATM    1  C1  UNL     1     -34.562   6.469   3.585  1.00 20.00     0.066 C 
HETATM    2  C2  UNL     1     -33.552   6.807   0.780  1.00 20.00     0.038 C 
HETATM    3  C3  UNL     1     -32.952   8.211   0.866  1.00 20.00     0.273 C 
HETATM    4  C4  UNL     1     -32.594   7.988   3.239  1.00 20.00     0.292 C 
HETATM    5  C5  UNL     1     -31.399   6.711   1.704  1.00 20.00     0.278 C 
HETATM    6  C6  UNL     1     -33.134   6.553   3.269  1.00 20.00     0.127 C 
HETATM    7  C7  UNL     1     -32.764   6.060   1.862  1.00 20.00     0.035 C 
HETATM    8  N8  UNL     1     -35.693   6.403   3.835  1.00 20.00    -0.197 NA
HETATM    9  N9  UNL     1     -31.904   8.095   1.918  1.00 20.00     0.090 N 
ENDROOT
TORSDOF 0
ENDMDL
MODEL 6
REMARK VINA RESULT:       2.3      1.754      2.938
REMARK  0 active torsions:
REMARK  status: ('A' for Active; 'I' for Inactive)
ROOT
HETATM    1  C1  UNL     1     -33.689   7.579   4.177  1.00 20.00     0.066 C 
HETATM    2  C2  UNL     1     -31.907   7.550   1.764  1.00 20.00     0.038 C 
HETATM    3  C3  UNL     1     -31.476   6.083   1.752  1.00 20.00     0.273 C 
HETATM    4  C4  UNL     1     -33.471   5.414   2.926  1.00 20.00     0.292 C 
HETATM    5  C5  UNL     1     -33.557   6.230   0.747  1.00 20.00     0.278 C 
HETATM    6  C6  UNL     1     -34.030   6.843   2.957  1.00 20.00     0.127 C 
HETATM    7  C7  UNL     1     -33.432   7.431   1.671  1.00 20.00     0.035 C 
HETATM    8  N8  UNL     1     -33.418   8.162   5.143  1.00 20.00    -0.197 NA
HETATM    9  N9  UNL     1     -32.753   5.330   1.618  1.00 20.00     0.090 N 
ENDROOT
TORSDOF 0
ENDMDL
MODEL 7
REMARK VINA RESULT:       2.7      1.443      3.200
REMARK  0 active torsions:
REMARK  status: ('A' for Active; 'I' for Inactive)
ROOT
HETATM    1  C1  UNL     1     -32.367   7.848   2.296  1.00 20.00     0.066 C 
HETATM    2  C2  UNL     1     -33.808   5.238   2.632  1.00 20.00     0.038 C 
HETATM    3  C3  UNL     1     -33.863   5.142   4.157  1.00 20.00     0.273 C 
HETATM    4  C4  UNL     1     -33.729   7.538   4.382  1.00 20.00     0.292 C 
HETATM    5  C5  UNL     1     -35.599   6.506   3.459  1.00 20.00     0.278 C 
HETATM    6  C6  UNL     1     -33.715   7.762   2.864  1.00 20.00     0.127 C 
HETATM    7  C7  UNL     1     -34.536   6.561   2.373  1.00 20.00     0.035 C 
HETATM    8  N8  UNL     1     -31.300   7.915   1.847  1.00 20.00    -0.197 NA
HETATM    9  N9  UNL     1     -34.621   6.355   4.571  1.00 20.00     0.090 N 
ENDROOT
TORSDOF 0
ENDMDL
MODEL 8
REMARK VINA RESULT:       2.7      2.244      4.226
REMARK  0 active torsions:
REMARK  status: ('A' for Active; 'I' for Inactive)
ROOT
HETATM    1  C1  UNL     1     -32.406   9.028   0.863  1.00 20.00     0.066 C 
HETATM    2  C2  UNL     1     -33.874   6.416   0.702  1.00 20.00     0.038 C 
HETATM    3  C3  UNL     1     -32.701   5.442   0.596  1.00 20.00     0.273 C 
HETATM    4  C4  UNL     1     -31.227   6.984   1.718  1.00 20.00     0.292 C 
HETATM    5  C5  UNL     1     -33.000   5.966   2.831  1.00 20.00     0.278 C 
HETATM    6  C6  UNL     1     -32.338   8.022   1.925  1.00 20.00     0.127 C 
HETATM    7  C7  UNL     1     -33.578   7.122   2.030  1.00 20.00     0.035 C 
HETATM    8  N8  UNL     1     -32.460   9.824   0.021  1.00 20.00    -0.197 NA
HETATM    9  N9  UNL     1     -31.924   5.669   1.846  1.00 20.00     0.090 N 
ENDROOT
TORSDOF 0
ENDMDL
MODEL 9
REMARK VINA RESULT:       3.0      2.352      3.396
REMARK  0 active torsions:
REMARK  status: ('A' for Active; 'I' for Inactive)
ROOT
HETATM    1  C1  UNL     1     -32.980   5.626   1.040  1.00 20.00     0.066 C 
HETATM    2  C2  UNL     1     -31.755   8.290   0.406  1.00 20.00     0.038 C 
HETATM    3  C3  UNL     1     -32.740   9.225   1.108  1.00 20.00     0.273 C 
HETATM    4  C4  UNL     1     -33.381   7.499   2.662  1.00 20.00     0.292 C 
HETATM    5  C5  UNL     1     -31.249   8.432   2.692  1.00 20.00     0.278 C 
HETATM    6  C6  UNL     1     -32.393   6.486   2.070  1.00 20.00     0.127 C 
HETATM    7  C7  UNL     1     -31.275   7.410   1.566  1.00 20.00     0.035 C 
HETATM    8  N8  UNL     1     -33.446   4.946   0.223  1.00 20.00    -0.197 NA
HETATM    9  N9  UNL     1     -32.680   8.812   2.537  1.00 20.00     0.090 N 
ENDROOT
TORSDOF 0
ENDMDL
