MODEL 1
REMARK VINA RESULT:      -0.4      0.000      0.000
REMARK  2 active torsions:
REMARK  status: ('A' for Active; 'I' for Inactive)
REMARK    1  A    between atoms: C4_4  and  C8_8 
REMARK    2  A    between atoms: C5_5  and  C9_9 
ROOT
HETATM    1  C1  UNL     1     -33.423   5.669   2.229  1.00 20.00     0.032 C 
HETATM    2  C2  UNL     1     -33.621   8.110   2.746  1.00 20.00     0.043 C 
HETATM    3  C3  UNL     1     -32.126   5.986   1.499  1.00 20.00     0.169 C 
HETATM    4  C4  UNL     1     -33.691   6.694   3.333  1.00 20.00     0.004 C 
HETATM    5  C5  UNL     1     -32.326   8.353   1.946  1.00 20.00     0.057 C 
HETATM    6  C6  UNL     1     -31.097   8.483   2.857  1.00 20.00     0.046 C 
HETATM    7  O10 UNL     1     -32.133   7.313   0.976  1.00 20.00    -0.381 OA
ENDROOT
BRANCH   5   8
HETATM    8  C9  UNL     1     -32.468   9.654   1.143  1.00 20.00     0.033 C 
HETATM    9  C7  UNL     1     -32.386   9.399  -0.324  1.00 20.00     0.008 C 
ENDBRANCH   5   8
BRANCH   4  10
HETATM   10  C8  UNL     1     -35.043   6.443   3.997  1.00 20.00     0.119 C 
HETATM   11 CL11 UNL     1     -35.151   4.761   4.543  1.00 20.00    -0.130 Cl
ENDBRANCH   4  10
TORSDOF 2
ENDMDL
MODEL 2
REMARK VINA RESULT:       0.5      1.276      2.491
REMARK  2 active torsions:
REMARK  status: ('A' for Active; 'I' for Inactive)
REMARK    1  A    between atoms: C4_4  and  C8_8 
REMARK    2  A    between atoms: C5_5  and  C9_9 
ROOT
HETATM    1  C1  UNL     1     -33.439   7.801   4.746  1.00 20.00     0.032 C 
HETATM    2  C2  UNL     1     -33.512   6.720   2.491  1.00 20.00     0.043 C 
HETATM    3  C3  UNL     1     -32.341   8.710   4.214  1.00 20.00     0.169 C 
HETATM    4  C4  UNL     1     -34.357   7.335   3.614  1.00 20.00     0.004 C 
HETATM    5  C5  UNL     1     -32.363   7.644   2.045  1.00 20.00     0.057 C 
HETATM    6  C6  UNL     1     -32.867   8.851   1.240  1.00 20.00     0.046 C 
HETATM    7  O10 UNL     1     -31.595   8.073   3.179  1.00 20.00    -0.381 OA
ENDROOT
BRANCH   5   8
HETATM    8  C9  UNL     1     -31.393   6.849   1.159  1.00 20.00     0.033 C 
HETATM    9  C7  UNL     1     -31.810   5.421   1.043  1.00 20.00     0.008 C 
ENDBRANCH   5   8
BRANCH   4  10
HETATM   10  C8  UNL     1     -35.395   6.339   4.126  1.00 20.00     0.119 C 
HETATM   11 CL11 UNL     1     -34.678   4.725   4.258  1.00 20.00    -0.130 Cl
ENDBRANCH   4  10
TORSDOF 2
ENDMDL
MODEL 3
REMARK VINA RESULT:       0.5      1.972      3.154
REMARK  2 active torsions:
REMARK  status: ('A' for Active; 'I' for Inactive)
REMARK    1  A    between atoms: C4_4  and  C8_8 
REMARK    2  A    between atoms: C5_5  and  C9_9 
ROOT
HETATM    1  C1  UNL     1     -34.649   5.090   4.488  1.00 20.00     0.032 C 
HETATM    2  C2  UNL     1     -32.700   4.806   2.944  1.00 20.00     0.043 C 
HETATM    3  C3  UNL     1     -34.996   6.360   3.724  1.00 20.00     0.169 C 
HETATM    4  C4  UNL     1     -33.901   4.102   3.590  1.00 20.00     0.004 C 
HETATM    5  C5  UNL     1     -33.092   6.127   2.256  1.00 20.00     0.057 C 
HETATM    6  C6  UNL     1     -33.875   5.895   0.955  1.00 20.00     0.046 C 
HETATM    7  O10 UNL     1     -33.835   6.961   3.157  1.00 20.00    -0.381 OA
ENDROOT
BRANCH   5   8
HETATM    8  C9  UNL     1     -31.817   6.913   1.914  1.00 20.00     0.033 C 
HETATM    9  C7  UNL     1     -32.130   8.322   1.541  1.00 20.00     0.008 C 
ENDBRANCH   5   8
BRANCH   4  10
HETATM   10  C8  UNL     1     -33.455   2.874   4.380  1.00 20.00     0.119 C 
HETATM   11 CL11 UNL     1     -32.527   3.369   5.805  1.00 20.00    -0.130 Cl
ENDBRANCH   4  10
TORSDOF 2
ENDMDL
MODEL 4
REMARK VINA RESULT:       1.0      2.703      4.115
REMARK  2 active torsions:
REMARK  status: ('A' for Active; 'I' for Inactive)
REMARK    1  A    between atoms: C4_4  and  C8_8 
REMARK    2  A    between atoms: C5_5  and  C9_9 
ROOT
HETATM    1  C1  UNL     1     -32.185   6.191   1.401  1.00 20.00     0.032 C 
HETATM    2  C2  UNL     1     -33.088   8.054   2.806  1.00 20.00     0.043 C 
HETATM    3  C3  UNL     1     -33.174   5.264   2.094  1.00 20.00     0.169 C 
HETATM    4  C4  UNL     1     -32.708   7.629   1.382  1.00 20.00     0.004 C 
HETATM    5  C5  UNL     1     -34.024   7.041   3.494  1.00 20.00     0.057 C 
HETATM    6  C6  UNL     1     -35.446   7.081   2.917  1.00 20.00     0.046 C 
HETATM    7  O10 UNL     1     -33.477   5.717   3.411  1.00 20.00    -0.381 OA
ENDROOT
BRANCH   5   8
HETATM    8  C9  UNL     1     -34.104   7.368   4.992  1.00 20.00     0.033 C 
HETATM    9  C7  UNL     1     -33.088   8.388   5.381  1.00 20.00     0.008 C 
ENDBRANCH   5   8
BRANCH   4  10
HETATM   10  C8  UNL     1     -31.673   8.580   0.784  1.00 20.00     0.119 C 
HETATM   11 CL11 UNL     1     -32.483   9.946  -0.001  1.00 20.00    -0.130 Cl
ENDBRANCH   4  10
TORSDOF 2
ENDMDL
MODEL 5
REMARK VINA RESULT:       1.2      1.599      2.910
REMARK  2 active torsions:
REMARK  status: ('A' for Active; 'I' for Inactive)
REMARK    1  A    between atoms: C4_4  and  C8_8 
REMARK    2  A    between atoms: C5_5  and  C9_9 
ROOT
HETATM    1  C1  UNL     1     -33.943   7.434   3.979  1.00 20.00     0.032 C 
HETATM    2  C2  UNL     1     -33.427   5.372   2.659  1.00 20.00     0.043 C 
HETATM    3  C3  UNL     1     -33.238   8.237   2.896  1.00 20.00     0.169 C 
HETATM    4  C4  UNL     1     -34.525   6.140   3.406  1.00 20.00     0.004 C 
HETATM    5  C5  UNL     1     -32.688   6.252   1.632  1.00 20.00     0.057 C 
HETATM    6  C6  UNL     1     -33.553   6.559   0.401  1.00 20.00     0.046 C 
HETATM    7  O10 UNL     1     -32.230   7.465   2.248  1.00 20.00    -0.381 OA
ENDROOT
BRANCH   5   8
HETATM    8  C9  UNL     1     -31.424   5.519   1.160  1.00 20.00     0.033 C 
HETATM    9  C7  UNL     1     -31.763   4.358   0.288  1.00 20.00     0.008 C 
ENDBRANCH   5   8
BRANCH   4  10
HETATM   10  C8  UNL     1     -35.139   5.281   4.509  1.00 20.00     0.119 C 
HETATM   11 CL11 UNL     1     -34.211   3.784   4.704  1.00 20.00    -0.130 Cl
ENDBRANCH   4  10
TORSDOF 2
ENDMDL
MODEL 6
REMARK VINA RESULT:       1.4      1.469      2.193
REMARK  2 active torsions:
REMARK  status: ('A' for Active; 'I' for Inactive)
REMARK    1  A    between atoms: C4_4  and  C8_8 
REMARK    2  A    between atoms: C5_5  and  C9_9 
ROOT
HETATM    1  C1  UNL     1     -33.498   7.601   4.921  1.00 20.00     0.032 C 
HETATM    2  C2  UNL     1     -33.481   6.949   2.505  1.00 20.00     0.043 C 
HETATM    3  C3  UNL     1     -32.511   8.705   4.572  1.00 20.00     0.169 C 
HETATM    4  C4  UNL     1     -34.374   7.253   3.715  1.00 20.00     0.004 C 
HETATM    5  C5  UNL     1     -32.444   8.058   2.245  1.00 20.00     0.057 C 
HETATM    6  C6  UNL     1     -33.085   9.329   1.670  1.00 20.00     0.046 C 
HETATM    7  O10 UNL     1     -31.713   8.353   3.444  1.00 20.00    -0.381 OA
ENDROOT
BRANCH   5   8
HETATM    8  C9  UNL     1     -31.405   7.547   1.236  1.00 20.00     0.033 C 
HETATM    9  C7  UNL     1     -31.219   8.510   0.112  1.00 20.00     0.008 C 
ENDBRANCH   5   8
BRANCH   4  10
HETATM   10  C8  UNL     1     -35.292   6.073   4.028  1.00 20.00     0.119 C 
HETATM   11 CL11 UNL     1     -34.353   4.573   4.101  1.00 20.00    -0.130 Cl
ENDBRANCH   4  10
TORSDOF 2
ENDMDL
MODEL 7
REMARK VINA RESULT:       1.6      2.667      4.481
REMARK  2 active torsions:
REMARK  status: ('A' for Active; 'I' for Inactive)
REMARK    1  A    between atoms: C4_4  and  C8_8 
REMARK    2  A    between atoms: C5_5  and  C9_9 
ROOT
HETATM    1  C1  UNL     1     -31.953   8.842   2.981  1.00 20.00     0.032 C 
HETATM    2  C2  UNL     1     -33.556   7.227   1.938  1.00 20.00     0.043 C 
HETATM    3  C3  UNL     1     -32.289   8.219   4.328  1.00 20.00     0.169 C 
HETATM    4  C4  UNL     1     -32.147   7.830   1.849  1.00 20.00     0.004 C 
HETATM    5  C5  UNL     1     -33.877   6.686   3.345  1.00 20.00     0.057 C 
HETATM    6  C6  UNL     1     -33.115   5.390   3.656  1.00 20.00     0.046 C 
HETATM    7  O10 UNL     1     -33.610   7.685   4.340  1.00 20.00    -0.381 OA
ENDROOT
BRANCH   5   8
HETATM    8  C9  UNL     1     -35.381   6.392   3.438  1.00 20.00     0.033 C 
HETATM    9  C7  UNL     1     -35.667   5.339   4.455  1.00 20.00     0.008 C 
ENDBRANCH   5   8
BRANCH   4  10
HETATM   10  C8  UNL     1     -31.915   8.481   0.487  1.00 20.00     0.119 C 
HETATM   11 CL11 UNL     1     -32.568  10.128   0.480  1.00 20.00    -0.130 Cl
ENDBRANCH   4  10
TORSDOF 2
ENDMDL
MODEL 8
REMARK VINA RESULT:       1.8      1.932      3.687
REMARK  2 active torsions:
REMARK  status: ('A' for Active; 'I' for Inactive)
REMARK    1  A    between atoms: C4_4  and  C8_8 
REMARK    2  A    between atoms: C5_5  and  C9_9 
ROOT
HETATM    1  C1  UNL     1     -31.988   7.523   0.955  1.00 20.00     0.032 C 
HETATM    2  C2  UNL     1     -33.232   6.119   2.612  1.00 20.00     0.043 C 
HETATM    3  C3  UNL     1     -32.398   8.743   1.766  1.00 20.00     0.169 C 
HETATM    4  C4  UNL     1     -31.913   6.279   1.844  1.00 20.00     0.004 C 
HETATM    5  C5  UNL     1     -33.645   7.408   3.347  1.00 20.00     0.057 C 
HETATM    6  C6  UNL     1     -32.764   7.685   4.574  1.00 20.00     0.046 C 
HETATM    7  O10 UNL     1     -33.631   8.525   2.447  1.00 20.00    -0.381 OA
ENDROOT
BRANCH   5   8
HETATM    8  C9  UNL     1     -35.099   7.270   3.822  1.00 20.00     0.033 C 
HETATM    9  C7  UNL     1     -35.416   5.864   4.202  1.00 20.00     0.008 C 
ENDBRANCH   5   8
BRANCH   4  10
HETATM   10  C8  UNL     1     -31.606   5.033   1.016  1.00 20.00     0.119 C 
HETATM   11 CL11 UNL     1     -33.066   4.486   0.175  1.00 20.00    -0.130 Cl
ENDBRANCH   4  10
TORSDOF 2
ENDMDL
MODEL 9
REMARK VINA RESULT:       1.8      1.748      3.314
REMARK  2 active torsions:
REMARK  status: ('A' for Active; 'I' for Inactive)
REMARK    1  A    between atoms: C4_4  and  C8_8 
REMARK    2  A    between atoms: C5_5  and  C9_9 
ROOT
HETATM    1  C1  UNL     1     -32.730   8.313   2.838  1.00 20.00     0.032 C 
HETATM    2  C2  UNL     1     -33.266   5.868   2.805  1.00 20.00     0.043 C 
HETATM    3  C3  UNL     1     -32.081   8.132   1.474  1.00 20.00     0.169 C 
HETATM    4  C4  UNL     1     -33.831   7.272   3.060  1.00 20.00     0.004 C 
HETATM    5  C5  UNL     1     -32.547   5.761   1.447  1.00 20.00     0.057 C 
HETATM    6  C6  UNL     1     -33.529   5.768   0.266  1.00 20.00     0.046 C 
HETATM    7  O10 UNL     1     -31.576   6.809   1.309  1.00 20.00    -0.381 OA
ENDROOT
BRANCH   5   8
HETATM    8  C9  UNL     1     -31.753   4.447   1.401  1.00 20.00     0.033 C 
HETATM    9  C7  UNL     1     -31.326   4.117   0.011  1.00 20.00     0.008 C 
ENDBRANCH   5   8
BRANCH   4  10
HETATM   10  C8  UNL     1     -34.411   7.381   4.468  1.00 20.00     0.119 C 
HETATM   11 CL11 UNL     1     -33.309   8.293   5.513  1.00 20.00    -0.130 Cl
ENDBRANCH   4  10
TORSDOF 2
ENDMDL
