MODEL 1
REMARK VINA RESULT:      -1.3      0.000      0.000
REMARK  2 active torsions:
REMARK  status: ('A' for Active; 'I' for Inactive)
REMARK    1  A    between atoms: C5_5  and  C6_6 
REMARK    2  A    between atoms: C6_6  and  S8_8 
ROOT
HETATM    1  C1  UNL     1     -34.421   6.718   3.772  1.00 20.00     0.027 C 
HETATM    2  C2  UNL     1     -33.400   7.774   3.362  1.00 20.00     0.009 C 
HETATM    3  C3  UNL     1     -33.886   5.318   3.499  1.00 20.00     0.167 C 
HETATM    4  C4  UNL     1     -32.467   6.081   1.761  1.00 20.00     0.172 C 
HETATM    5  C5  UNL     1     -32.921   7.533   1.926  1.00 20.00     0.019 C 
HETATM    6  O7  UNL     1     -33.513   5.180   2.128  1.00 20.00    -0.391 OA
ENDROOT
BRANCH   5   7
HETATM    7  C6  UNL     1     -31.810   8.506   1.546  1.00 20.00     0.077 C 
BRANCH   7   8
HETATM    8  S8  UNL     1     -32.417   9.711   0.338  1.00 20.00    -0.182 SA
HETATM    9  H20 UNL     1     -32.973  10.544   1.229  1.00 20.00     0.101 HD
ENDBRANCH   7   8
ENDBRANCH   5   7
TORSDOF 2
ENDMDL
MODEL 2
REMARK VINA RESULT:      -0.9      2.904      3.999
REMARK  2 active torsions:
REMARK  status: ('A' for Active; 'I' for Inactive)
REMARK    1  A    between atoms: C5_5  and  C6_6 
REMARK    2  A    between atoms: C6_6  and  S8_8 
ROOT
HETATM    1  C1  UNL     1     -32.458   6.422   1.270  1.00 20.00     0.027 C 
HETATM    2  C2  UNL     1     -33.180   5.512   2.260  1.00 20.00     0.009 C 
HETATM    3  C3  UNL     1     -31.863   7.629   1.983  1.00 20.00     0.167 C 
HETATM    4  C4  UNL     1     -33.471   7.533   3.721  1.00 20.00     0.172 C 
HETATM    5  C5  UNL     1     -34.171   6.317   3.109  1.00 20.00     0.019 C 
HETATM    6  O7  UNL     1     -32.871   8.336   2.704  1.00 20.00    -0.391 OA
ENDROOT
BRANCH   5   7
HETATM    7  C6  UNL     1     -34.808   5.445   4.185  1.00 20.00     0.077 C 
BRANCH   7   8
HETATM    8  S8  UNL     1     -33.888   3.896   4.364  1.00 20.00    -0.182 SA
HETATM    9  H20 UNL     1     -33.586   4.052   5.661  1.00 20.00     0.101 HD
ENDBRANCH   7   8
ENDBRANCH   5   7
TORSDOF 2
ENDMDL
MODEL 3
REMARK VINA RESULT:      -0.9      1.247      1.881
REMARK  2 active torsions:
REMARK  status: ('A' for Active; 'I' for Inactive)
REMARK    1  A    between atoms: C5_5  and  C6_6 
REMARK    2  A    between atoms: C6_6  and  S8_8 
ROOT
HETATM    1  C1  UNL     1     -33.669   5.518   2.958  1.00 20.00     0.027 C 
HETATM    2  C2  UNL     1     -32.944   6.134   1.766  1.00 20.00     0.009 C 
HETATM    3  C3  UNL     1     -34.540   6.556   3.654  1.00 20.00     0.167 C 
HETATM    4  C4  UNL     1     -33.176   8.351   2.923  1.00 20.00     0.172 C 
HETATM    5  C5  UNL     1     -32.215   7.417   2.183  1.00 20.00     0.019 C 
HETATM    6  O7  UNL     1     -33.762   7.688   4.044  1.00 20.00    -0.391 OA
ENDROOT
BRANCH   5   7
HETATM    7  C6  UNL     1     -31.589   8.111   0.978  1.00 20.00     0.077 C 
BRANCH   7   8
HETATM    8  S8  UNL     1     -32.506   9.620   0.576  1.00 20.00    -0.182 SA
HETATM    9  H20 UNL     1     -31.556  10.479   0.971  1.00 20.00     0.101 HD
ENDBRANCH   7   8
ENDBRANCH   5   7
TORSDOF 2
ENDMDL
MODEL 4
REMARK VINA RESULT:      -0.7      1.631      1.944
REMARK  2 active torsions:
REMARK  status: ('A' for Active; 'I' for Inactive)
REMARK    1  A    between atoms: C5_5  and  C6_6 
REMARK    2  A    between atoms: C6_6  and  S8_8 
ROOT
HETATM    1  C1  UNL     1     -35.349   6.394   3.925  1.00 20.00     0.027 C 
HETATM    2  C2  UNL     1     -34.101   6.885   3.197  1.00 20.00     0.009 C 
HETATM    3  C3  UNL     1     -35.042   5.140   4.735  1.00 20.00     0.167 C 
HETATM    4  C4  UNL     1     -33.254   4.524   3.307  1.00 20.00     0.172 C 
HETATM    5  C5  UNL     1     -33.456   5.743   2.403  1.00 20.00     0.019 C 
HETATM    6  O7  UNL     1     -34.490   4.124   3.899  1.00 20.00    -0.391 OA
ENDROOT
BRANCH   5   7
HETATM    7  C6  UNL     1     -32.141   6.186   1.771  1.00 20.00     0.077 C 
BRANCH   7   8
HETATM    8  S8  UNL     1     -32.027   7.994   1.762  1.00 20.00    -0.182 SA
HETATM    9  H20 UNL     1     -30.797   8.067   2.290  1.00 20.00     0.101 HD
ENDBRANCH   7   8
ENDBRANCH   5   7
TORSDOF 2
ENDMDL
MODEL 5
REMARK VINA RESULT:      -0.6      2.891      3.751
REMARK  2 active torsions:
REMARK  status: ('A' for Active; 'I' for Inactive)
REMARK    1  A    between atoms: C5_5  and  C6_6 
REMARK    2  A    between atoms: C6_6  and  S8_8 
ROOT
HETATM    1  C1  UNL     1     -32.706   8.302   3.144  1.00 20.00     0.027 C 
HETATM    2  C2  UNL     1     -33.733   7.280   3.623  1.00 20.00     0.009 C 
HETATM    3  C3  UNL     1     -32.349   8.062   1.682  1.00 20.00     0.167 C 
HETATM    4  C4  UNL     1     -32.884   5.757   1.816  1.00 20.00     0.172 C 
HETATM    5  C5  UNL     1     -33.271   5.856   3.294  1.00 20.00     0.019 C 
HETATM    6  O7  UNL     1     -31.887   6.726   1.489  1.00 20.00    -0.391 OA
ENDROOT
BRANCH   5   7
HETATM    7  C6  UNL     1     -34.343   4.833   3.654  1.00 20.00     0.077 C 
BRANCH   7   8
HETATM    8  S8  UNL     1     -33.590   3.386   4.440  1.00 20.00    -0.182 SA
HETATM    9  H20 UNL     1     -34.735   2.721   4.650  1.00 20.00     0.101 HD
ENDBRANCH   7   8
ENDBRANCH   5   7
TORSDOF 2
ENDMDL
MODEL 6
REMARK VINA RESULT:       0.6      2.323      3.283
REMARK  2 active torsions:
REMARK  status: ('A' for Active; 'I' for Inactive)
REMARK    1  A    between atoms: C5_5  and  C6_6 
REMARK    2  A    between atoms: C6_6  and  S8_8 
ROOT
HETATM    1  C1  UNL     1     -32.783   5.471   1.280  1.00 20.00     0.027 C 
HETATM    2  C2  UNL     1     -33.503   5.647   2.613  1.00 20.00     0.009 C 
HETATM    3  C3  UNL     1     -31.595   6.420   1.180  1.00 20.00     0.167 C 
HETATM    4  C4  UNL     1     -32.575   7.979   2.672  1.00 20.00     0.172 C 
HETATM    5  C5  UNL     1     -33.831   7.124   2.860  1.00 20.00     0.019 C 
HETATM    6  O7  UNL     1     -32.011   7.771   1.377  1.00 20.00    -0.391 OA
ENDROOT
BRANCH   5   7
HETATM    7  C6  UNL     1     -34.438   7.330   4.243  1.00 20.00     0.077 C 
BRANCH   7   8
HETATM    8  S8  UNL     1     -33.301   8.270   5.293  1.00 20.00    -0.182 SA
HETATM    9  H20 UNL     1     -32.180   7.669   4.871  1.00 20.00     0.101 HD
ENDBRANCH   7   8
ENDBRANCH   5   7
TORSDOF 2
ENDMDL
MODEL 7
REMARK VINA RESULT:       0.7      2.196      2.692
REMARK  2 active torsions:
REMARK  status: ('A' for Active; 'I' for Inactive)
REMARK    1  A    between atoms: C5_5  and  C6_6 
REMARK    2  A    between atoms: C6_6  and  S8_8 
ROOT
HETATM    1  C1  UNL     1     -34.535   4.909   4.089  1.00 20.00     0.027 C 
HETATM    2  C2  UNL     1     -33.676   5.133   2.848  1.00 20.00     0.009 C 
HETATM    3  C3  UNL     1     -35.464   6.094   4.322  1.00 20.00     0.167 C 
HETATM    4  C4  UNL     1     -34.007   7.596   3.210  1.00 20.00     0.172 C 
HETATM    5  C5  UNL     1     -32.982   6.499   2.912  1.00 20.00     0.019 C 
HETATM    6  O7  UNL     1     -34.719   7.308   4.414  1.00 20.00    -0.391 OA
ENDROOT
BRANCH   5   7
HETATM    7  C6  UNL     1     -32.220   6.790   1.624  1.00 20.00     0.077 C 
BRANCH   7   8
HETATM    8  S8  UNL     1     -31.875   5.249   0.737  1.00 20.00    -0.182 SA
HETATM    9  H20 UNL     1     -33.155   4.904   0.539  1.00 20.00     0.101 HD
ENDBRANCH   7   8
ENDBRANCH   5   7
TORSDOF 2
ENDMDL
MODEL 8
REMARK VINA RESULT:       1.1      2.053      2.253
REMARK  2 active torsions:
REMARK  status: ('A' for Active; 'I' for Inactive)
REMARK    1  A    between atoms: C5_5  and  C6_6 
REMARK    2  A    between atoms: C6_6  and  S8_8 
ROOT
HETATM    1  C1  UNL     1     -33.923   8.187   4.375  1.00 20.00     0.027 C 
HETATM    2  C2  UNL     1     -32.706   7.961   3.484  1.00 20.00     0.009 C 
HETATM    3  C3  UNL     1     -34.639   6.872   4.654  1.00 20.00     0.167 C 
HETATM    4  C4  UNL     1     -33.855   5.894   2.642  1.00 20.00     0.172 C 
HETATM    5  C5  UNL     1     -33.092   7.157   2.237  1.00 20.00     0.019 C 
HETATM    6  O7  UNL     1     -34.998   6.225   3.433  1.00 20.00    -0.391 OA
ENDROOT
BRANCH   5   7
HETATM    7  C6  UNL     1     -31.864   6.816   1.400  1.00 20.00     0.077 C 
BRANCH   7   8
HETATM    8  S8  UNL     1     -31.904   5.073   0.909  1.00 20.00    -0.182 SA
HETATM    9  H20 UNL     1     -33.211   5.033   0.615  1.00 20.00     0.101 HD
ENDBRANCH   7   8
ENDBRANCH   5   7
TORSDOF 2
ENDMDL
MODEL 9
REMARK VINA RESULT:       1.3      2.225      2.838
REMARK  2 active torsions:
REMARK  status: ('A' for Active; 'I' for Inactive)
REMARK    1  A    between atoms: C5_5  and  C6_6 
REMARK    2  A    between atoms: C6_6  and  S8_8 
ROOT
HETATM    1  C1  UNL     1     -34.276   6.437   3.894  1.00 20.00     0.027 C 
HETATM    2  C2  UNL     1     -34.000   5.645   2.619  1.00 20.00     0.009 C 
HETATM    3  C3  UNL     1     -33.963   7.914   3.689  1.00 20.00     0.167 C 
HETATM    4  C4  UNL     1     -32.375   7.454   1.991  1.00 20.00     0.172 C 
HETATM    5  C5  UNL     1     -32.590   5.942   2.095  1.00 20.00     0.019 C 
HETATM    6  O7  UNL     1     -32.617   8.087   3.248  1.00 20.00    -0.391 OA
ENDROOT
BRANCH   5   7
HETATM    7  C6  UNL     1     -32.344   5.255   0.757  1.00 20.00     0.077 C 
BRANCH   7   8
HETATM    8  S8  UNL     1     -33.918   4.909  -0.069  1.00 20.00    -0.182 SA
HETATM    9  H20 UNL     1     -34.678   4.966   1.033  1.00 20.00     0.101 HD
ENDBRANCH   7   8
ENDBRANCH   5   7
TORSDOF 2
ENDMDL
