MODEL 1
REMARK VINA RESULT:      -1.7      0.000      0.000
REMARK  5 active torsions:
REMARK  status: ('A' for Active; 'I' for Inactive)
REMARK    1  A    between atoms: C3_3  and  C7_7 
REMARK    2  A    between atoms: C5_5  and  C6_6 
REMARK    3  A    between atoms: C5_5  and  C7_7 
REMARK    4  A    between atoms: C6_6  and  S9_9 
REMARK    5  A    between atoms: C7_7  and  O8_8 
ROOT
HETATM    1  C7  UNL     1     -33.230   6.765   2.027  1.00 20.00     0.122 C 
ENDROOT
BRANCH   1   2
HETATM    2  C3  UNL     1     -33.725   6.408   3.397  1.00 20.00     0.014 A 
HETATM    3  C1  UNL     1     -34.278   7.473   4.304  1.00 20.00     0.007 A 
HETATM    4  C2  UNL     1     -35.197   6.446   3.703  1.00 20.00     0.007 A 
ENDBRANCH   1   2
BRANCH   1   5
HETATM    5  C5  UNL     1     -32.305   7.990   2.013  1.00 20.00     0.042 C 
BRANCH   5   6
HETATM    6  C6  UNL     1     -31.594   8.280   0.692  1.00 20.00     0.076 C 
BRANCH   6   7
HETATM    7  S9  UNL     1     -32.471   9.494  -0.339  1.00 20.00    -0.173 SA
HETATM    8  C4  UNL     1     -32.770  10.746   0.929  1.00 20.00     0.089 C 
ENDBRANCH   6   7
ENDBRANCH   5   6
ENDBRANCH   1   5
BRANCH   1   9
HETATM    9  O8  UNL     1     -32.504   5.653   1.495  1.00 20.00    -0.395 OA
HETATM   10  H23 UNL     1     -32.974   5.382   0.693  1.00 20.00     0.210 HD
ENDBRANCH   1   9
TORSDOF 5
ENDMDL
MODEL 2
REMARK VINA RESULT:      -1.4      2.208      4.422
REMARK  5 active torsions:
REMARK  status: ('A' for Active; 'I' for Inactive)
REMARK    1  A    between atoms: C3_3  and  C7_7 
REMARK    2  A    between atoms: C5_5  and  C6_6 
REMARK    3  A    between atoms: C5_5  and  C7_7 
REMARK    4  A    between atoms: C6_6  and  S9_9 
REMARK    5  A    between atoms: C7_7  and  O8_8 
ROOT
HETATM    1  C7  UNL     1     -32.220   8.342   1.806  1.00 20.00     0.122 C 
ENDROOT
BRANCH   1   2
HETATM    2  C3  UNL     1     -31.827   9.174   0.622  1.00 20.00     0.014 A 
HETATM    3  C1  UNL     1     -32.763   9.319  -0.546  1.00 20.00     0.007 A 
HETATM    4  C2  UNL     1     -32.508  10.490   0.362  1.00 20.00     0.007 A 
ENDBRANCH   1   2
BRANCH   1   5
HETATM    5  C5  UNL     1     -32.318   6.843   1.492  1.00 20.00     0.042 C 
BRANCH   5   6
HETATM    6  C6  UNL     1     -33.291   6.038   2.353  1.00 20.00     0.076 C 
BRANCH   6   7
HETATM    7  S9  UNL     1     -34.163   7.053   3.582  1.00 20.00    -0.173 SA
HETATM    8  C4  UNL     1     -35.328   5.805   4.173  1.00 20.00     0.089 C 
ENDBRANCH   6   7
ENDBRANCH   5   6
ENDBRANCH   1   5
BRANCH   1   9
HETATM    9  O8  UNL     1     -31.243   8.518   2.837  1.00 20.00    -0.395 OA
HETATM   10  H23 UNL     1     -30.379   8.459   2.404  1.00 20.00     0.210 HD
ENDBRANCH   1   9
TORSDOF 5
ENDMDL
MODEL 3
REMARK VINA RESULT:      -1.1      2.817      3.813
REMARK  5 active torsions:
REMARK  status: ('A' for Active; 'I' for Inactive)
REMARK    1  A    between atoms: C3_3  and  C7_7 
REMARK    2  A    between atoms: C5_5  and  C6_6 
REMARK    3  A    between atoms: C5_5  and  C7_7 
REMARK    4  A    between atoms: C6_6  and  S9_9 
REMARK    5  A    between atoms: C7_7  and  O8_8 
ROOT
HETATM    1  C7  UNL     1     -34.415   5.077   4.402  1.00 20.00     0.122 C 
ENDROOT
BRANCH   1   2
HETATM    2  C3  UNL     1     -33.799   3.781   3.967  1.00 20.00     0.014 A 
HETATM    3  C1  UNL     1     -32.322   3.550   4.137  1.00 20.00     0.007 A 
HETATM    4  C2  UNL     1     -33.304   2.796   4.990  1.00 20.00     0.007 A 
ENDBRANCH   1   2
BRANCH   1   5
HETATM    5  C5  UNL     1     -34.396   6.158   3.312  1.00 20.00     0.042 C 
BRANCH   5   6
HETATM    6  C6  UNL     1     -33.467   7.346   3.562  1.00 20.00     0.076 C 
BRANCH   6   7
HETATM    7  S9  UNL     1     -32.339   7.674   2.176  1.00 20.00    -0.173 SA
HETATM    8  C4  UNL     1     -32.460   6.068   1.355  1.00 20.00     0.089 C 
ENDBRANCH   6   7
ENDBRANCH   5   6
ENDBRANCH   1   5
BRANCH   1   9
HETATM    9  O8  UNL     1     -35.778   4.838   4.768  1.00 20.00    -0.395 OA
HETATM   10  H23 UNL     1     -35.765   4.568   5.698  1.00 20.00     0.210 HD
ENDBRANCH   1   9
TORSDOF 5
ENDMDL
MODEL 4
REMARK VINA RESULT:      -1.0      3.139      4.984
REMARK  5 active torsions:
REMARK  status: ('A' for Active; 'I' for Inactive)
REMARK    1  A    between atoms: C3_3  and  C7_7 
REMARK    2  A    between atoms: C5_5  and  C6_6 
REMARK    3  A    between atoms: C5_5  and  C7_7 
REMARK    4  A    between atoms: C6_6  and  S9_9 
REMARK    5  A    between atoms: C7_7  and  O8_8 
ROOT
HETATM    1  C7  UNL     1     -34.030   7.530   3.604  1.00 20.00     0.122 C 
ENDROOT
BRANCH   1   2
HETATM    2  C3  UNL     1     -32.712   7.229   2.956  1.00 20.00     0.014 A 
HETATM    3  C1  UNL     1     -32.664   6.650   1.569  1.00 20.00     0.007 A 
HETATM    4  C2  UNL     1     -32.224   8.068   1.807  1.00 20.00     0.007 A 
ENDBRANCH   1   2
BRANCH   1   5
HETATM    5  C5  UNL     1     -35.003   6.342   3.588  1.00 20.00     0.042 C 
BRANCH   5   6
HETATM    6  C6  UNL     1     -34.653   5.177   4.513  1.00 20.00     0.076 C 
BRANCH   6   7
HETATM    7  S9  UNL     1     -33.790   3.823   3.661  1.00 20.00    -0.173 SA
HETATM    8  C4  UNL     1     -33.076   3.015   5.111  1.00 20.00     0.089 C 
ENDBRANCH   6   7
ENDBRANCH   5   6
ENDBRANCH   1   5
BRANCH   1   9
HETATM    9  O8  UNL     1     -33.800   7.899   4.967  1.00 20.00    -0.395 OA
HETATM   10  H23 UNL     1     -33.457   7.107   5.408  1.00 20.00     0.210 HD
ENDBRANCH   1   9
TORSDOF 5
ENDMDL
MODEL 5
REMARK VINA RESULT:      -0.9      2.344      4.568
REMARK  5 active torsions:
REMARK  status: ('A' for Active; 'I' for Inactive)
REMARK    1  A    between atoms: C3_3  and  C7_7 
REMARK    2  A    between atoms: C5_5  and  C6_6 
REMARK    3  A    between atoms: C5_5  and  C7_7 
REMARK    4  A    between atoms: C6_6  and  S9_9 
REMARK    5  A    between atoms: C7_7  and  O8_8 
ROOT
HETATM    1  C7  UNL     1     -32.021   8.311   1.822  1.00 20.00     0.122 C 
ENDROOT
BRANCH   1   2
HETATM    2  C3  UNL     1     -32.711   9.029   0.700  1.00 20.00     0.014 A 
HETATM    3  C1  UNL     1     -32.753  10.532   0.676  1.00 20.00     0.007 A 
HETATM    4  C2  UNL     1     -31.909   9.788  -0.321  1.00 20.00     0.007 A 
ENDBRANCH   1   2
BRANCH   1   5
HETATM    5  C5  UNL     1     -32.959   7.944   2.980  1.00 20.00     0.042 C 
BRANCH   5   6
HETATM    6  C6  UNL     1     -33.572   6.544   2.929  1.00 20.00     0.076 C 
BRANCH   6   7
HETATM    7  S9  UNL     1     -35.028   6.364   4.001  1.00 20.00    -0.173 SA
HETATM    8  C4  UNL     1     -34.796   4.634   4.469  1.00 20.00     0.089 C 
ENDBRANCH   6   7
ENDBRANCH   5   6
ENDBRANCH   1   5
BRANCH   1   9
HETATM    9  O8  UNL     1     -31.449   7.103   1.312  1.00 20.00    -0.395 OA
HETATM   10  H23 UNL     1     -31.203   7.286   0.393  1.00 20.00     0.210 HD
ENDBRANCH   1   9
TORSDOF 5
ENDMDL
MODEL 6
REMARK VINA RESULT:      -0.8      1.574      1.850
REMARK  5 active torsions:
REMARK  status: ('A' for Active; 'I' for Inactive)
REMARK    1  A    between atoms: C3_3  and  C7_7 
REMARK    2  A    between atoms: C5_5  and  C6_6 
REMARK    3  A    between atoms: C5_5  and  C7_7 
REMARK    4  A    between atoms: C6_6  and  S9_9 
REMARK    5  A    between atoms: C7_7  and  O8_8 
ROOT
HETATM    1  C7  UNL     1     -33.412   6.708   3.330  1.00 20.00     0.122 C 
ENDROOT
BRANCH   1   2
HETATM    2  C3  UNL     1     -34.444   5.619   3.309  1.00 20.00     0.014 A 
HETATM    3  C1  UNL     1     -34.235   4.364   4.111  1.00 20.00     0.007 A 
HETATM    4  C2  UNL     1     -35.288   5.353   4.525  1.00 20.00     0.007 A 
ENDBRANCH   1   2
BRANCH   1   5
HETATM    5  C5  UNL     1     -32.721   6.917   1.975  1.00 20.00     0.042 C 
BRANCH   5   6
HETATM    6  C6  UNL     1     -31.896   8.196   1.833  1.00 20.00     0.076 C 
BRANCH   6   7
HETATM    7  S9  UNL     1     -31.925   8.880   0.150  1.00 20.00    -0.173 SA
HETATM    8  C4  UNL     1     -32.683  10.476   0.529  1.00 20.00     0.089 C 
ENDBRANCH   6   7
ENDBRANCH   5   6
ENDBRANCH   1   5
BRANCH   1   9
HETATM    9  O8  UNL     1     -34.047   7.936   3.700  1.00 20.00    -0.395 OA
HETATM   10  H23 UNL     1     -34.971   7.716   3.891  1.00 20.00     0.210 HD
ENDBRANCH   1   9
TORSDOF 5
ENDMDL
MODEL 7
REMARK VINA RESULT:      -0.2      1.716      2.065
REMARK  5 active torsions:
REMARK  status: ('A' for Active; 'I' for Inactive)
REMARK    1  A    between atoms: C3_3  and  C7_7 
REMARK    2  A    between atoms: C5_5  and  C6_6 
REMARK    3  A    between atoms: C5_5  and  C7_7 
REMARK    4  A    between atoms: C6_6  and  S9_9 
REMARK    5  A    between atoms: C7_7  and  O8_8 
ROOT
HETATM    1  C7  UNL     1     -33.879   4.929   3.122  1.00 20.00     0.122 C 
ENDROOT
BRANCH   1   2
HETATM    2  C3  UNL     1     -34.491   5.839   4.146  1.00 20.00     0.014 A 
HETATM    3  C1  UNL     1     -34.356   7.330   4.010  1.00 20.00     0.007 A 
HETATM    4  C2  UNL     1     -35.691   6.674   3.795  1.00 20.00     0.007 A 
ENDBRANCH   1   2
BRANCH   1   5
HETATM    5  C5  UNL     1     -32.586   5.483   2.509  1.00 20.00     0.042 C 
BRANCH   5   6
HETATM    6  C6  UNL     1     -32.757   6.585   1.463  1.00 20.00     0.076 C 
BRANCH   6   7
HETATM    7  S9  UNL     1     -31.700   8.031   1.770  1.00 20.00    -0.173 SA
HETATM    8  C4  UNL     1     -32.442   9.157   0.567  1.00 20.00     0.089 C 
ENDBRANCH   6   7
ENDBRANCH   5   6
ENDBRANCH   1   5
BRANCH   1   9
HETATM    9  O8  UNL     1     -33.577   3.676   3.742  1.00 20.00    -0.395 OA
HETATM   10  H23 UNL     1     -32.643   3.499   3.554  1.00 20.00     0.210 HD
ENDBRANCH   1   9
TORSDOF 5
ENDMDL
MODEL 8
REMARK VINA RESULT:      -0.1      2.590      4.420
REMARK  5 active torsions:
REMARK  status: ('A' for Active; 'I' for Inactive)
REMARK    1  A    between atoms: C3_3  and  C7_7 
REMARK    2  A    between atoms: C5_5  and  C6_6 
REMARK    3  A    between atoms: C5_5  and  C7_7 
REMARK    4  A    between atoms: C6_6  and  S9_9 
REMARK    5  A    between atoms: C7_7  and  O8_8 
ROOT
HETATM    1  C7  UNL     1     -32.466   6.220   1.917  1.00 20.00     0.122 C 
ENDROOT
BRANCH   1   2
HETATM    2  C3  UNL     1     -31.727   7.401   1.363  1.00 20.00     0.014 A 
HETATM    3  C1  UNL     1     -32.421   8.727   1.213  1.00 20.00     0.007 A 
HETATM    4  C2  UNL     1     -31.356   8.550   2.259  1.00 20.00     0.007 A 
ENDBRANCH   1   2
BRANCH   1   5
HETATM    5  C5  UNL     1     -33.930   6.526   2.265  1.00 20.00     0.042 C 
BRANCH   5   6
HETATM    6  C6  UNL     1     -34.246   6.691   3.752  1.00 20.00     0.076 C 
BRANCH   6   7
HETATM    7  S9  UNL     1     -35.222   5.317   4.431  1.00 20.00    -0.173 SA
HETATM    8  C4  UNL     1     -33.991   4.007   4.250  1.00 20.00     0.089 C 
ENDBRANCH   6   7
ENDBRANCH   5   6
ENDBRANCH   1   5
BRANCH   1   9
HETATM    9  O8  UNL     1     -32.451   5.170   0.946  1.00 20.00    -0.395 OA
HETATM   10  H23 UNL     1     -32.241   4.357   1.429  1.00 20.00     0.210 HD
ENDBRANCH   1   9
TORSDOF 5
ENDMDL
MODEL 9
REMARK VINA RESULT:      -0.1      2.435      2.967
REMARK  5 active torsions:
REMARK  status: ('A' for Active; 'I' for Inactive)
REMARK    1  A    between atoms: C3_3  and  C7_7 
REMARK    2  A    between atoms: C5_5  and  C6_6 
REMARK    3  A    between atoms: C5_5  and  C7_7 
REMARK    4  A    between atoms: C6_6  and  S9_9 
REMARK    5  A    between atoms: C7_7  and  O8_8 
ROOT
HETATM    1  C7  UNL     1     -33.118   7.494   3.919  1.00 20.00     0.122 C 
ENDROOT
BRANCH   1   2
HETATM    2  C3  UNL     1     -34.561   7.245   4.242  1.00 20.00     0.014 A 
HETATM    3  C1  UNL     1     -35.505   6.769   3.172  1.00 20.00     0.007 A 
HETATM    4  C2  UNL     1     -35.097   5.840   4.282  1.00 20.00     0.007 A 
ENDBRANCH   1   2
BRANCH   1   5
HETATM    5  C5  UNL     1     -32.910   8.235   2.590  1.00 20.00     0.042 C 
BRANCH   5   6
HETATM    6  C6  UNL     1     -31.997   7.548   1.574  1.00 20.00     0.076 C 
BRANCH   6   7
HETATM    7  S9  UNL     1     -32.001   5.737   1.722  1.00 20.00    -0.173 SA
HETATM    8  C4  UNL     1     -33.328   5.381   0.548  1.00 20.00     0.089 C 
ENDBRANCH   6   7
ENDBRANCH   5   6
ENDBRANCH   1   5
BRANCH   1   9
HETATM    9  O8  UNL     1     -32.542   8.283   4.963  1.00 20.00    -0.395 OA
HETATM   10  H23 UNL     1     -33.212   8.938   5.210  1.00 20.00     0.210 HD
ENDBRANCH   1   9
TORSDOF 5
ENDMDL
