MODEL 1
REMARK VINA RESULT:      -1.9      0.000      0.000
REMARK  2 active torsions:
REMARK  status: ('A' for Active; 'I' for Inactive)
REMARK    1  A    between atoms: C1_1  and  C5_5 
REMARK    2  A    between atoms: C6_6  and  C8_8 
ROOT
HETATM    1  C2  UNL     1     -33.153   5.943   1.550  1.00 20.00     0.012 C 
HETATM    2  C3  UNL     1     -31.701   6.394   1.653  1.00 20.00     0.005 C 
HETATM    3  C4  UNL     1     -33.012   8.106   2.701  1.00 20.00     0.016 C 
HETATM    4  C5  UNL     1     -33.931   6.912   2.437  1.00 20.00     0.047 C 
HETATM    5  C6  UNL     1     -31.789   7.911   1.800  1.00 20.00    -0.014 C 
ENDROOT
BRANCH   4   6
HETATM    6  C1  UNL     1     -34.239   6.222   3.753  1.00 20.00     0.235 C 
HETATM    7  O9  UNL     1     -35.375   6.084   4.193  1.00 20.00    -0.306 OA
ENDBRANCH   4   6
BRANCH   5   8
HETATM    8  C8  UNL     1     -31.953   8.616   0.455  1.00 20.00     0.000 C 
HETATM    9  C7  UNL     1     -32.522   9.990   0.607  1.00 20.00     0.005 C 
ENDBRANCH   5   8
TORSDOF 2
ENDMDL
MODEL 2
REMARK VINA RESULT:      -1.0      2.046      3.898
REMARK  2 active torsions:
REMARK  status: ('A' for Active; 'I' for Inactive)
REMARK    1  A    between atoms: C1_1  and  C5_5 
REMARK    2  A    between atoms: C6_6  and  C8_8 
ROOT
HETATM    1  C2  UNL     1     -31.829   6.270   1.500  1.00 20.00     0.012 C 
HETATM    2  C3  UNL     1     -33.280   5.842   1.322  1.00 20.00     0.005 C 
HETATM    3  C4  UNL     1     -33.332   7.899   2.553  1.00 20.00     0.016 C 
HETATM    4  C5  UNL     1     -31.901   7.690   2.054  1.00 20.00     0.047 C 
HETATM    5  C6  UNL     1     -34.018   6.532   2.467  1.00 20.00    -0.014 C 
ENDROOT
BRANCH   4   6
HETATM    6  C1  UNL     1     -31.621   8.665   0.925  1.00 20.00     0.235 C 
HETATM    7  O9  UNL     1     -32.416   9.528   0.566  1.00 20.00    -0.306 OA
ENDBRANCH   4   6
BRANCH   5   8
HETATM    8  C8  UNL     1     -33.909   5.755   3.778  1.00 20.00     0.000 C 
HETATM    9  C7  UNL     1     -35.250   5.482   4.381  1.00 20.00     0.005 C 
ENDBRANCH   5   8
TORSDOF 2
ENDMDL
MODEL 3
REMARK VINA RESULT:      -0.5      1.383      2.243
REMARK  2 active torsions:
REMARK  status: ('A' for Active; 'I' for Inactive)
REMARK    1  A    between atoms: C1_1  and  C5_5 
REMARK    2  A    between atoms: C6_6  and  C8_8 
ROOT
HETATM    1  C2  UNL     1     -33.871   6.870   4.018  1.00 20.00     0.012 C 
HETATM    2  C3  UNL     1     -34.305   7.540   2.721  1.00 20.00     0.005 C 
HETATM    3  C4  UNL     1     -32.961   5.658   2.087  1.00 20.00     0.016 C 
HETATM    4  C5  UNL     1     -33.239   5.549   3.588  1.00 20.00     0.047 C 
HETATM    5  C6  UNL     1     -33.248   7.114   1.706  1.00 20.00    -0.014 C 
ENDROOT
BRANCH   4   6
HETATM    6  C1  UNL     1     -34.240   4.434   3.827  1.00 20.00     0.235 C 
HETATM    7  O9  UNL     1     -33.951   3.373   4.370  1.00 20.00    -0.306 OA
ENDBRANCH   4   6
BRANCH   5   8
HETATM    8  C8  UNL     1     -31.992   7.981   1.778  1.00 20.00     0.000 C 
HETATM    9  C7  UNL     1     -32.042   9.122   0.812  1.00 20.00     0.005 C 
ENDBRANCH   5   8
TORSDOF 2
ENDMDL
MODEL 4
REMARK VINA RESULT:      -0.2      2.384      3.701
REMARK  2 active torsions:
REMARK  status: ('A' for Active; 'I' for Inactive)
REMARK    1  A    between atoms: C1_1  and  C5_5 
REMARK    2  A    between atoms: C6_6  and  C8_8 
ROOT
HETATM    1  C2  UNL     1     -32.645   7.360   1.310  1.00 20.00     0.012 C 
HETATM    2  C3  UNL     1     -32.305   7.876   2.703  1.00 20.00     0.005 C 
HETATM    3  C4  UNL     1     -33.056   5.616   2.987  1.00 20.00     0.016 C 
HETATM    4  C5  UNL     1     -32.874   5.862   1.488  1.00 20.00     0.047 C 
HETATM    5  C6  UNL     1     -33.133   7.000   3.640  1.00 20.00    -0.014 C 
ENDROOT
BRANCH   4   6
HETATM    6  C1  UNL     1     -31.636   5.124   1.012  1.00 20.00     0.235 C 
HETATM    7  O9  UNL     1     -31.653   4.290   0.112  1.00 20.00    -0.306 OA
ENDBRANCH   4   6
BRANCH   5   8
HETATM    8  C8  UNL     1     -34.574   7.492   3.768  1.00 20.00     0.000 C 
HETATM    9  C7  UNL     1     -35.535   6.363   3.970  1.00 20.00     0.005 C 
ENDBRANCH   5   8
TORSDOF 2
ENDMDL
MODEL 5
REMARK VINA RESULT:       0.2      2.403      3.546
REMARK  2 active torsions:
REMARK  status: ('A' for Active; 'I' for Inactive)
REMARK    1  A    between atoms: C1_1  and  C5_5 
REMARK    2  A    between atoms: C6_6  and  C8_8 
ROOT
HETATM    1  C2  UNL     1     -33.961   5.236   3.514  1.00 20.00     0.012 C 
HETATM    2  C3  UNL     1     -35.100   6.220   3.748  1.00 20.00     0.005 C 
HETATM    3  C4  UNL     1     -33.355   7.457   2.664  1.00 20.00     0.016 C 
HETATM    4  C5  UNL     1     -32.980   5.974   2.608  1.00 20.00     0.047 C 
HETATM    5  C6  UNL     1     -34.419   7.586   3.759  1.00 20.00    -0.014 C 
ENDROOT
BRANCH   4   6
HETATM    6  C1  UNL     1     -33.161   5.471   1.188  1.00 20.00     0.235 C 
HETATM    7  O9  UNL     1     -32.309   4.823   0.588  1.00 20.00    -0.306 OA
ENDBRANCH   4   6
BRANCH   5   8
HETATM    8  C8  UNL     1     -33.803   7.916   5.118  1.00 20.00     0.000 C 
HETATM    9  C7  UNL     1     -32.484   8.609   4.982  1.00 20.00     0.005 C 
ENDBRANCH   5   8
TORSDOF 2
ENDMDL
MODEL 6
REMARK VINA RESULT:       0.3      1.330      2.785
REMARK  2 active torsions:
REMARK  status: ('A' for Active; 'I' for Inactive)
REMARK    1  A    between atoms: C1_1  and  C5_5 
REMARK    2  A    between atoms: C6_6  and  C8_8 
ROOT
HETATM    1  C2  UNL     1     -32.588   7.674   2.920  1.00 20.00     0.012 C 
HETATM    2  C3  UNL     1     -32.714   7.481   1.414  1.00 20.00     0.005 C 
HETATM    3  C4  UNL     1     -33.634   5.511   2.424  1.00 20.00     0.016 C 
HETATM    4  C5  UNL     1     -33.399   6.538   3.534  1.00 20.00     0.047 C 
HETATM    5  C6  UNL     1     -32.784   5.967   1.234  1.00 20.00    -0.014 C 
ENDROOT
BRANCH   4   6
HETATM    6  C1  UNL     1     -34.737   7.090   3.989  1.00 20.00     0.235 C 
HETATM    7  O9  UNL     1     -35.792   6.470   3.892  1.00 20.00    -0.306 OA
ENDBRANCH   4   6
BRANCH   5   8
HETATM    8  C8  UNL     1     -31.400   5.319   1.239  1.00 20.00     0.000 C 
HETATM    9  C7  UNL     1     -31.303   4.199   0.253  1.00 20.00     0.005 C 
ENDBRANCH   5   8
TORSDOF 2
ENDMDL
MODEL 7
REMARK VINA RESULT:       0.3      2.082      3.000
REMARK  2 active torsions:
REMARK  status: ('A' for Active; 'I' for Inactive)
REMARK    1  A    between atoms: C1_1  and  C5_5 
REMARK    2  A    between atoms: C6_6  and  C8_8 
ROOT
HETATM    1  C2  UNL     1     -34.709   6.008   3.641  1.00 20.00     0.012 C 
HETATM    2  C3  UNL     1     -33.518   5.105   3.348  1.00 20.00     0.005 C 
HETATM    3  C4  UNL     1     -32.854   7.319   2.711  1.00 20.00     0.016 C 
HETATM    4  C5  UNL     1     -34.179   7.429   3.469  1.00 20.00     0.047 C 
HETATM    5  C6  UNL     1     -32.732   5.855   2.277  1.00 20.00    -0.014 C 
ENDROOT
BRANCH   4   6
HETATM    6  C1  UNL     1     -33.918   8.018   4.843  1.00 20.00     0.235 C 
HETATM    7  O9  UNL     1     -32.802   8.338   5.239  1.00 20.00    -0.306 OA
ENDBRANCH   4   6
BRANCH   5   8
HETATM    8  C8  UNL     1     -33.298   5.627   0.876  1.00 20.00     0.000 C 
HETATM    9  C7  UNL     1     -32.654   4.462   0.194  1.00 20.00     0.005 C 
ENDBRANCH   5   8
TORSDOF 2
ENDMDL
MODEL 8
REMARK VINA RESULT:       0.4      2.355      4.280
REMARK  2 active torsions:
REMARK  status: ('A' for Active; 'I' for Inactive)
REMARK    1  A    between atoms: C1_1  and  C5_5 
REMARK    2  A    between atoms: C6_6  and  C8_8 
ROOT
HETATM    1  C2  UNL     1     -33.333   8.631   2.893  1.00 20.00     0.012 C 
HETATM    2  C3  UNL     1     -33.172   7.796   4.157  1.00 20.00     0.005 C 
HETATM    3  C4  UNL     1     -33.079   6.258   2.320  1.00 20.00     0.016 C 
HETATM    4  C5  UNL     1     -33.018   7.675   1.746  1.00 20.00     0.047 C 
HETATM    5  C6  UNL     1     -33.625   6.398   3.744  1.00 20.00    -0.014 C 
ENDROOT
BRANCH   4   6
HETATM    6  C1  UNL     1     -31.609   7.953   1.258  1.00 20.00     0.235 C 
HETATM    7  O9  UNL     1     -31.338   8.824   0.437  1.00 20.00    -0.306 OA
ENDBRANCH   4   6
BRANCH   5   8
HETATM    8  C8  UNL     1     -35.145   6.245   3.790  1.00 20.00     0.000 C 
HETATM    9  C7  UNL     1     -35.565   5.069   4.613  1.00 20.00     0.005 C 
ENDBRANCH   5   8
TORSDOF 2
ENDMDL
MODEL 9
REMARK VINA RESULT:       0.5      2.973      3.749
REMARK  2 active torsions:
REMARK  status: ('A' for Active; 'I' for Inactive)
REMARK    1  A    between atoms: C1_1  and  C5_5 
REMARK    2  A    between atoms: C6_6  and  C8_8 
ROOT
HETATM    1  C2  UNL     1     -35.315   5.131   4.759  1.00 20.00     0.012 C 
HETATM    2  C3  UNL     1     -35.705   6.027   3.590  1.00 20.00     0.005 C 
HETATM    3  C4  UNL     1     -33.324   5.772   3.477  1.00 20.00     0.016 C 
HETATM    4  C5  UNL     1     -33.850   4.782   4.518  1.00 20.00     0.047 C 
HETATM    5  C6  UNL     1     -34.433   6.810   3.276  1.00 20.00    -0.014 C 
ENDROOT
BRANCH   4   6
HETATM    6  C1  UNL     1     -33.774   3.377   3.949  1.00 20.00     0.235 C 
HETATM    7  O9  UNL     1     -33.194   2.453   4.509  1.00 20.00    -0.306 OA
ENDBRANCH   4   6
BRANCH   5   8
HETATM    8  C8  UNL     1     -34.256   8.019   4.194  1.00 20.00     0.000 C 
HETATM    9  C7  UNL     1     -32.836   8.188   4.630  1.00 20.00     0.005 C 
ENDBRANCH   5   8
TORSDOF 2
ENDMDL
