MODEL 1
REMARK VINA RESULT:      -0.6      0.000      0.000
REMARK  2 active torsions:
REMARK  status: ('A' for Active; 'I' for Inactive)
REMARK    1  A    between atoms: C5_5  and  C6_6 
REMARK    2  A    between atoms: C6_6  and  S8_8 
ROOT
HETATM    1  C1  UNL     1     -33.807   7.571   3.406  1.00 20.00     0.027 C 
HETATM    2  C2  UNL     1     -32.482   8.249   3.068  1.00 20.00     0.009 C 
HETATM    3  C3  UNL     1     -33.717   6.066   3.191  1.00 20.00     0.167 C 
HETATM    4  C4  UNL     1     -31.972   6.277   1.605  1.00 20.00     0.172 C 
HETATM    5  C5  UNL     1     -31.939   7.805   1.704  1.00 20.00     0.019 C 
HETATM    6  O7  UNL     1     -33.279   5.767   1.866  1.00 20.00    -0.391 OA
ENDROOT
BRANCH   5   7
HETATM    7  C6  UNL     1     -32.729   8.444   0.557  1.00 20.00     0.077 C 
BRANCH   7   8
HETATM    8  S8  UNL     1     -32.386  10.219   0.469  1.00 20.00    -0.182 SA
HETATM    9  H20 UNL     1     -32.998  10.429  -0.705  1.00 20.00     0.101 HD
ENDBRANCH   7   8
ENDBRANCH   5   7
TORSDOF 2
ENDMDL
MODEL 2
REMARK VINA RESULT:       0.2      3.037      3.755
REMARK  2 active torsions:
REMARK  status: ('A' for Active; 'I' for Inactive)
REMARK    1  A    between atoms: C5_5  and  C6_6 
REMARK    2  A    between atoms: C6_6  and  S8_8 
ROOT
HETATM    1  C1  UNL     1     -33.213   7.753   3.714  1.00 20.00     0.027 C 
HETATM    2  C2  UNL     1     -34.272   6.681   3.468  1.00 20.00     0.009 C 
HETATM    3  C3  UNL     1     -32.516   8.135   2.415  1.00 20.00     0.167 C 
HETATM    4  C4  UNL     1     -32.992   6.047   1.406  1.00 20.00     0.172 C 
HETATM    5  C5  UNL     1     -33.725   5.511   2.639  1.00 20.00     0.019 C 
HETATM    6  O7  UNL     1     -31.977   6.982   1.769  1.00 20.00    -0.391 OA
ENDROOT
BRANCH   5   7
HETATM    7  C6  UNL     1     -32.803   4.619   3.477  1.00 20.00     0.077 C 
BRANCH   7   8
HETATM    8  S8  UNL     1     -33.781   3.511   4.523  1.00 20.00    -0.182 SA
HETATM    9  H20 UNL     1     -34.426   2.897   3.521  1.00 20.00     0.101 HD
ENDBRANCH   7   8
ENDBRANCH   5   7
TORSDOF 2
ENDMDL
MODEL 3
REMARK VINA RESULT:       0.9      2.121      3.001
REMARK  2 active torsions:
REMARK  status: ('A' for Active; 'I' for Inactive)
REMARK    1  A    between atoms: C5_5  and  C6_6 
REMARK    2  A    between atoms: C6_6  and  S8_8 
ROOT
HETATM    1  C1  UNL     1     -33.545   4.518   3.647  1.00 20.00     0.027 C 
HETATM    2  C2  UNL     1     -33.601   5.320   2.349  1.00 20.00     0.009 C 
HETATM    3  C3  UNL     1     -34.843   4.662   4.430  1.00 20.00     0.167 C 
HETATM    4  C4  UNL     1     -35.352   6.750   3.436  1.00 20.00     0.172 C 
HETATM    5  C5  UNL     1     -34.082   6.758   2.580  1.00 20.00     0.019 C 
HETATM    6  O7  UNL     1     -35.152   6.037   4.656  1.00 20.00    -0.391 OA
ENDROOT
BRANCH   5   7
HETATM    7  C6  UNL     1     -32.989   7.611   3.232  1.00 20.00     0.077 C 
BRANCH   7   8
HETATM    8  S8  UNL     1     -31.815   8.191   1.983  1.00 20.00    -0.182 SA
HETATM    9  H20 UNL     1     -31.997   9.500   2.208  1.00 20.00     0.101 HD
ENDBRANCH   7   8
ENDBRANCH   5   7
TORSDOF 2
ENDMDL
MODEL 4
REMARK VINA RESULT:       1.0      1.795      2.338
REMARK  2 active torsions:
REMARK  status: ('A' for Active; 'I' for Inactive)
REMARK    1  A    between atoms: C5_5  and  C6_6 
REMARK    2  A    between atoms: C6_6  and  S8_8 
ROOT
HETATM    1  C1  UNL     1     -35.509   6.526   3.921  1.00 20.00     0.027 C 
HETATM    2  C2  UNL     1     -34.191   7.288   4.034  1.00 20.00     0.009 C 
HETATM    3  C3  UNL     1     -35.333   5.072   4.337  1.00 20.00     0.167 C 
HETATM    4  C4  UNL     1     -33.023   5.078   3.818  1.00 20.00     0.172 C 
HETATM    5  C5  UNL     1     -33.034   6.540   3.359  1.00 20.00     0.019 C 
HETATM    6  O7  UNL     1     -34.286   4.452   3.592  1.00 20.00    -0.391 OA
ENDROOT
BRANCH   5   7
HETATM    7  C6  UNL     1     -33.128   6.632   1.833  1.00 20.00     0.077 C 
BRANCH   7   8
HETATM    8  S8  UNL     1     -32.008   7.911   1.210  1.00 20.00    -0.182 SA
HETATM    9  H20 UNL     1     -31.100   7.071   0.692  1.00 20.00     0.101 HD
ENDBRANCH   7   8
ENDBRANCH   5   7
TORSDOF 2
ENDMDL
MODEL 5
REMARK VINA RESULT:       1.2      2.599      3.488
REMARK  2 active torsions:
REMARK  status: ('A' for Active; 'I' for Inactive)
REMARK    1  A    between atoms: C5_5  and  C6_6 
REMARK    2  A    between atoms: C6_6  and  S8_8 
ROOT
HETATM    1  C1  UNL     1     -32.798   6.230   1.193  1.00 20.00     0.027 C 
HETATM    2  C2  UNL     1     -32.714   5.883   2.678  1.00 20.00     0.009 C 
HETATM    3  C3  UNL     1     -31.976   7.473   0.880  1.00 20.00     0.167 C 
HETATM    4  C4  UNL     1     -32.145   8.290   3.096  1.00 20.00     0.172 C 
HETATM    5  C5  UNL     1     -32.986   7.100   3.570  1.00 20.00     0.019 C 
HETATM    6  O7  UNL     1     -32.366   8.565   1.713  1.00 20.00    -0.391 OA
ENDROOT
BRANCH   5   7
HETATM    7  C6  UNL     1     -34.476   7.456   3.586  1.00 20.00     0.077 C 
BRANCH   7   8
HETATM    8  S8  UNL     1     -35.460   6.025   4.096  1.00 20.00    -0.182 SA
HETATM    9  H20 UNL     1     -35.227   5.290   2.999  1.00 20.00     0.101 HD
ENDBRANCH   7   8
ENDBRANCH   5   7
TORSDOF 2
ENDMDL
MODEL 6
REMARK VINA RESULT:       1.4      2.339      3.013
REMARK  2 active torsions:
REMARK  status: ('A' for Active; 'I' for Inactive)
REMARK    1  A    between atoms: C5_5  and  C6_6 
REMARK    2  A    between atoms: C6_6  and  S8_8 
ROOT
HETATM    1  C1  UNL     1     -33.064   7.850   4.664  1.00 20.00     0.027 C 
HETATM    2  C2  UNL     1     -34.189   7.440   3.717  1.00 20.00     0.009 C 
HETATM    3  C3  UNL     1     -32.072   8.766   3.961  1.00 20.00     0.167 C 
HETATM    4  C4  UNL     1     -32.619   7.916   1.820  1.00 20.00     0.172 C 
HETATM    5  C5  UNL     1     -33.654   6.932   2.372  1.00 20.00     0.019 C 
HETATM    6  O7  UNL     1     -31.579   8.162   2.766  1.00 20.00    -0.391 OA
ENDROOT
BRANCH   5   7
HETATM    7  C6  UNL     1     -33.055   5.528   2.507  1.00 20.00     0.077 C 
BRANCH   7   8
HETATM    8  S8  UNL     1     -32.147   5.085   1.005  1.00 20.00    -0.182 SA
HETATM    9  H20 UNL     1     -32.312   6.261   0.382  1.00 20.00     0.101 HD
ENDBRANCH   7   8
ENDBRANCH   5   7
TORSDOF 2
ENDMDL
MODEL 7
REMARK VINA RESULT:       1.6      2.510      3.622
REMARK  2 active torsions:
REMARK  status: ('A' for Active; 'I' for Inactive)
REMARK    1  A    between atoms: C5_5  and  C6_6 
REMARK    2  A    between atoms: C6_6  and  S8_8 
ROOT
HETATM    1  C1  UNL     1     -32.233   9.048  -0.400  1.00 20.00     0.027 C 
HETATM    2  C2  UNL     1     -31.302   8.087   0.335  1.00 20.00     0.009 C 
HETATM    3  C3  UNL     1     -32.611  10.225   0.491  1.00 20.00     0.167 C 
HETATM    4  C4  UNL     1     -32.236   8.994   2.479  1.00 20.00     0.172 C 
HETATM    5  C5  UNL     1     -31.833   7.722   1.728  1.00 20.00     0.019 C 
HETATM    6  O7  UNL     1     -33.166   9.771   1.725  1.00 20.00    -0.391 OA
ENDROOT
BRANCH   5   7
HETATM    7  C6  UNL     1     -33.010   6.746   1.635  1.00 20.00     0.077 C 
BRANCH   7   8
HETATM    8  S8  UNL     1     -33.854   6.626   3.233  1.00 20.00    -0.182 SA
HETATM    9  H20 UNL     1     -33.565   5.336   3.454  1.00 20.00     0.101 HD
ENDBRANCH   7   8
ENDBRANCH   5   7
TORSDOF 2
ENDMDL
MODEL 8
REMARK VINA RESULT:       1.7      2.348      3.105
REMARK  2 active torsions:
REMARK  status: ('A' for Active; 'I' for Inactive)
REMARK    1  A    between atoms: C5_5  and  C6_6 
REMARK    2  A    between atoms: C6_6  and  S8_8 
ROOT
HETATM    1  C1  UNL     1     -31.184   7.236   1.888  1.00 20.00     0.027 C 
HETATM    2  C2  UNL     1     -32.362   8.207   1.841  1.00 20.00     0.009 C 
HETATM    3  C3  UNL     1     -31.520   5.942   1.159  1.00 20.00     0.167 C 
HETATM    4  C4  UNL     1     -33.848   6.216   1.494  1.00 20.00     0.172 C 
HETATM    5  C5  UNL     1     -33.678   7.536   2.253  1.00 20.00     0.019 C 
HETATM    6  O7  UNL     1     -32.718   5.363   1.675  1.00 20.00    -0.391 OA
ENDROOT
BRANCH   5   7
HETATM    7  C6  UNL     1     -33.736   7.307   3.766  1.00 20.00     0.077 C 
BRANCH   7   8
HETATM    8  S8  UNL     1     -35.121   6.219   4.186  1.00 20.00    -0.182 SA
HETATM    9  H20 UNL     1     -34.453   5.067   4.035  1.00 20.00     0.101 HD
ENDBRANCH   7   8
ENDBRANCH   5   7
TORSDOF 2
ENDMDL
MODEL 9
REMARK VINA RESULT:       1.7      2.511      2.946
REMARK  2 active torsions:
REMARK  status: ('A' for Active; 'I' for Inactive)
REMARK    1  A    between atoms: C5_5  and  C6_6 
REMARK    2  A    between atoms: C6_6  and  S8_8 
ROOT
HETATM    1  C1  UNL     1     -32.733   8.075   2.391  1.00 20.00     0.027 C 
HETATM    2  C2  UNL     1     -31.907   6.965   1.746  1.00 20.00     0.009 C 
HETATM    3  C3  UNL     1     -33.440   7.568   3.641  1.00 20.00     0.167 C 
HETATM    4  C4  UNL     1     -33.424   5.324   2.887  1.00 20.00     0.172 C 
HETATM    5  C5  UNL     1     -32.715   5.672   1.574  1.00 20.00     0.019 C 
HETATM    6  O7  UNL     1     -34.224   6.412   3.349  1.00 20.00    -0.391 OA
ENDROOT
BRANCH   5   7
HETATM    7  C6  UNL     1     -33.721   5.793   0.426  1.00 20.00     0.077 C 
BRANCH   7   8
HETATM    8  S8  UNL     1     -33.920   4.199  -0.408  1.00 20.00    -0.182 SA
HETATM    9  H20 UNL     1     -34.990   3.799   0.294  1.00 20.00     0.101 HD
ENDBRANCH   7   8
ENDBRANCH   5   7
TORSDOF 2
ENDMDL
