MODEL 1
REMARK VINA RESULT:      -1.9      0.000      0.000
REMARK  3 active torsions:
REMARK  status: ('A' for Active; 'I' for Inactive)
REMARK    1  A    between atoms: C6_6  and  C9_9 
REMARK    2  A    between atoms: C7_7  and  C10_10 
REMARK    3  A    between atoms: C9_9  and  C11_11 
ROOT
HETATM    1  C1  UNL     1     -33.983   7.764   4.116  1.00 20.00     0.001 C 
HETATM    2  C2  UNL     1     -34.666   6.422   3.859  1.00 20.00     0.005 C 
HETATM    3  C3  UNL     1     -33.313   8.411   2.909  1.00 20.00     0.005 C 
HETATM    4  C4  UNL     1     -33.193   5.128   2.197  1.00 20.00     0.005 C 
HETATM    5  C5  UNL     1     -32.916   6.404   1.403  1.00 20.00     0.006 C 
HETATM    6  C6  UNL     1     -33.664   5.279   3.650  1.00 20.00    -0.014 C 
HETATM    7  C7  UNL     1     -32.261   7.547   2.192  1.00 20.00    -0.001 C 
ENDROOT
BRANCH   6   8
HETATM    8  C9  UNL     1     -34.267   3.949   4.121  1.00 20.00     0.004 C 
BRANCH   8   9
HETATM    9  C11 UNL     1     -33.175   2.940   4.448  1.00 20.00    -0.004 C 
HETATM   10  C8  UNL     1     -32.657   3.137   5.864  1.00 20.00     0.005 C 
ENDBRANCH   8   9
ENDBRANCH   6   8
BRANCH   7  11
HETATM   11  C10 UNL     1     -31.468   8.438   1.225  1.00 20.00     0.119 C 
HETATM   12 CL12 UNL     1     -32.531   9.672   0.533  1.00 20.00    -0.130 Cl
ENDBRANCH   7  11
TORSDOF 3
ENDMDL
MODEL 2
REMARK VINA RESULT:      -1.5      2.582      5.503
REMARK  3 active torsions:
REMARK  status: ('A' for Active; 'I' for Inactive)
REMARK    1  A    between atoms: C6_6  and  C9_9 
REMARK    2  A    between atoms: C7_7  and  C10_10 
REMARK    3  A    between atoms: C9_9  and  C11_11 
ROOT
HETATM    1  C1  UNL     1     -32.358   5.344   1.296  1.00 20.00     0.001 C 
HETATM    2  C2  UNL     1     -32.680   6.822   1.081  1.00 20.00     0.005 C 
HETATM    3  C3  UNL     1     -33.320   4.578   2.199  1.00 20.00     0.005 C 
HETATM    4  C4  UNL     1     -33.557   7.740   3.316  1.00 20.00     0.005 C 
HETATM    5  C5  UNL     1     -34.346   6.455   3.568  1.00 20.00     0.006 C 
HETATM    6  C6  UNL     1     -32.390   7.677   2.322  1.00 20.00    -0.014 C 
HETATM    7  C7  UNL     1     -33.516   5.163   3.607  1.00 20.00    -0.001 C 
ENDROOT
BRANCH   6   8
HETATM    8  C9  UNL     1     -32.009   9.104   1.907  1.00 20.00     0.004 C 
BRANCH   8   9
HETATM    9  C11 UNL     1     -32.008   9.250   0.391  1.00 20.00    -0.004 C 
HETATM   10  C8  UNL     1     -32.763  10.498  -0.036  1.00 20.00     0.005 C 
ENDBRANCH   8   9
ENDBRANCH   6   8
BRANCH   7  11
HETATM   11  C10 UNL     1     -34.240   4.125   4.475  1.00 20.00     0.119 C 
HETATM   12 CL12 UNL     1     -33.132   2.809   4.892  1.00 20.00    -0.130 Cl
ENDBRANCH   7  11
TORSDOF 3
ENDMDL
MODEL 3
REMARK VINA RESULT:      -1.5      2.586      5.179
REMARK  3 active torsions:
REMARK  status: ('A' for Active; 'I' for Inactive)
REMARK    1  A    between atoms: C6_6  and  C9_9 
REMARK    2  A    between atoms: C7_7  and  C10_10 
REMARK    3  A    between atoms: C9_9  and  C11_11 
ROOT
HETATM    1  C1  UNL     1     -33.376   8.510   3.990  1.00 20.00     0.001 C 
HETATM    2  C2  UNL     1     -32.192   8.450   3.026  1.00 20.00     0.005 C 
HETATM    3  C3  UNL     1     -33.876   7.168   4.514  1.00 20.00     0.005 C 
HETATM    4  C4  UNL     1     -32.535   6.387   1.532  1.00 20.00     0.005 C 
HETATM    5  C5  UNL     1     -33.043   5.572   2.721  1.00 20.00     0.006 C 
HETATM    6  C6  UNL     1     -32.584   7.916   1.642  1.00 20.00    -0.014 C 
HETATM    7  C7  UNL     1     -34.275   6.143   3.439  1.00 20.00    -0.001 C 
ENDROOT
BRANCH   6   8
HETATM    8  C9  UNL     1     -31.678   8.524   0.562  1.00 20.00     0.004 C 
BRANCH   8   9
HETATM    9  C11 UNL     1     -32.444   9.522  -0.294  1.00 20.00    -0.004 C 
HETATM   10  C8  UNL     1     -32.722  10.802   0.478  1.00 20.00     0.005 C 
ENDBRANCH   8   9
ENDBRANCH   6   8
BRANCH   7  11
HETATM   11  C10 UNL     1     -35.043   4.997   4.113  1.00 20.00     0.119 C 
HETATM   12 CL12 UNL     1     -33.954   3.634   4.410  1.00 20.00    -0.130 Cl
ENDBRANCH   7  11
TORSDOF 3
ENDMDL
MODEL 4
REMARK VINA RESULT:      -1.3      0.966      2.085
REMARK  3 active torsions:
REMARK  status: ('A' for Active; 'I' for Inactive)
REMARK    1  A    between atoms: C6_6  and  C9_9 
REMARK    2  A    between atoms: C7_7  and  C10_10 
REMARK    3  A    between atoms: C9_9  and  C11_11 
ROOT
HETATM    1  C1  UNL     1     -32.338   5.805   1.111  1.00 20.00     0.001 C 
HETATM    2  C2  UNL     1     -32.606   5.311   2.532  1.00 20.00     0.005 C 
HETATM    3  C3  UNL     1     -31.858   7.247   0.987  1.00 20.00     0.005 C 
HETATM    4  C4  UNL     1     -33.655   7.268   3.827  1.00 20.00     0.005 C 
HETATM    5  C5  UNL     1     -32.707   8.261   3.156  1.00 20.00     0.006 C 
HETATM    6  C6  UNL     1     -33.881   5.917   3.136  1.00 20.00    -0.014 C 
HETATM    7  C7  UNL     1     -32.773   8.308   1.622  1.00 20.00    -0.001 C 
ENDROOT
BRANCH   6   8
HETATM    8  C9  UNL     1     -34.508   4.940   4.140  1.00 20.00     0.004 C 
BRANCH   8   9
HETATM    9  C11 UNL     1     -33.879   3.559   4.023  1.00 20.00    -0.004 C 
HETATM   10  C8  UNL     1     -33.116   3.200   5.288  1.00 20.00     0.005 C 
ENDBRANCH   8   9
ENDBRANCH   6   8
BRANCH   7  11
HETATM   11  C10 UNL     1     -32.326   9.695   1.140  1.00 20.00     0.119 C 
HETATM   12 CL12 UNL     1     -32.764   9.912  -0.561  1.00 20.00    -0.130 Cl
ENDBRANCH   7  11
TORSDOF 3
ENDMDL
MODEL 5
REMARK VINA RESULT:       1.0      1.500      2.872
REMARK  3 active torsions:
REMARK  status: ('A' for Active; 'I' for Inactive)
REMARK    1  A    between atoms: C6_6  and  C9_9 
REMARK    2  A    between atoms: C7_7  and  C10_10 
REMARK    3  A    between atoms: C9_9  and  C11_11 
ROOT
HETATM    1  C1  UNL     1     -32.210   5.759   0.895  1.00 20.00     0.001 C 
HETATM    2  C2  UNL     1     -32.443   5.313   2.337  1.00 20.00     0.005 C 
HETATM    3  C3  UNL     1     -31.659   7.170   0.715  1.00 20.00     0.005 C 
HETATM    4  C4  UNL     1     -33.330   7.353   3.626  1.00 20.00     0.005 C 
HETATM    5  C5  UNL     1     -32.360   8.277   2.891  1.00 20.00     0.006 C 
HETATM    6  C6  UNL     1     -33.657   6.000   2.979  1.00 20.00    -0.014 C 
HETATM    7  C7  UNL     1     -32.488   8.293   1.361  1.00 20.00    -0.001 C 
ENDROOT
BRANCH   6   8
HETATM    8  C9  UNL     1     -34.292   5.082   4.031  1.00 20.00     0.004 C 
BRANCH   8   9
HETATM    9  C11 UNL     1     -35.663   5.596   4.447  1.00 20.00    -0.004 C 
HETATM   10  C8  UNL     1     -36.231   6.543   3.401  1.00 20.00     0.005 C 
ENDBRANCH   8   9
ENDBRANCH   6   8
BRANCH   7  11
HETATM   11  C10 UNL     1     -31.989   9.643   0.826  1.00 20.00     0.119 C 
HETATM   12 CL12 UNL     1     -32.839  10.049  -0.672  1.00 20.00    -0.130 Cl
ENDBRANCH   7  11
TORSDOF 3
ENDMDL
