MODEL 1
REMARK VINA RESULT:      -2.2      0.000      0.000
REMARK  4 active torsions:
REMARK  status: ('A' for Active; 'I' for Inactive)
REMARK    1  A    between atoms: C3_3  and  C6_6 
REMARK    2  A    between atoms: C4_4  and  C6_6 
REMARK    3  A    between atoms: C4_4  and  O7_7 
REMARK    4  A    between atoms: C5_5  and  C6_6 
ROOT
HETATM    1  C6  UNL     1     -33.299   7.204   2.201  1.00 20.00     0.023 C 
ENDROOT
BRANCH   1   2
HETATM    2  C3  UNL     1     -33.826   7.403   3.640  1.00 20.00     0.003 C 
HETATM    3  C1  UNL     1     -35.001   6.501   3.992  1.00 20.00     0.005 C 
ENDBRANCH   1   2
BRANCH   1   4
HETATM    4  C4  UNL     1     -31.979   7.967   2.000  1.00 20.00     0.172 C 
BRANCH   4   5
HETATM    5  O7  UNL     1     -31.928   8.509   0.686  1.00 20.00    -0.396 OA
HETATM    6  C2  UNL     1     -32.497   9.810   0.638  1.00 20.00     0.201 C 
ENDBRANCH   4   5
ENDBRANCH   1   4
BRANCH   1   7
HETATM    7  C5  UNL     1     -33.157   5.732   1.780  1.00 20.00     0.121 C 
HETATM    8 CL8  UNL     1     -31.535   5.319   1.174  1.00 20.00    -0.130 Cl
ENDBRANCH   1   7
TORSDOF 4
ENDMDL
MODEL 2
REMARK VINA RESULT:      -2.1      1.782      2.593
REMARK  4 active torsions:
REMARK  status: ('A' for Active; 'I' for Inactive)
REMARK    1  A    between atoms: C3_3  and  C6_6 
REMARK    2  A    between atoms: C4_4  and  C6_6 
REMARK    3  A    between atoms: C4_4  and  O7_7 
REMARK    4  A    between atoms: C5_5  and  C6_6 
ROOT
HETATM    1  C6  UNL     1     -32.735   7.189   2.711  1.00 20.00     0.023 C 
ENDROOT
BRANCH   1   2
HETATM    2  C3  UNL     1     -33.168   6.219   1.589  1.00 20.00     0.003 C 
HETATM    3  C1  UNL     1     -32.108   5.189   1.226  1.00 20.00     0.005 C 
ENDBRANCH   1   2
BRANCH   1   4
HETATM    4  C4  UNL     1     -32.002   8.405   2.120  1.00 20.00     0.172 C 
BRANCH   4   5
HETATM    5  O7  UNL     1     -32.395   8.595   0.766  1.00 20.00    -0.396 OA
HETATM    6  C2  UNL     1     -32.438   9.975   0.426  1.00 20.00     0.201 C 
ENDBRANCH   4   5
ENDBRANCH   1   4
BRANCH   1   7
HETATM    7  C5  UNL     1     -33.880   7.631   3.638  1.00 20.00     0.121 C 
HETATM    8 CL8  UNL     1     -35.108   6.369   3.902  1.00 20.00    -0.130 Cl
ENDBRANCH   1   7
TORSDOF 4
ENDMDL
MODEL 3
REMARK VINA RESULT:      -2.0      2.977      4.143
REMARK  4 active torsions:
REMARK  status: ('A' for Active; 'I' for Inactive)
REMARK    1  A    between atoms: C3_3  and  C6_6 
REMARK    2  A    between atoms: C4_4  and  C6_6 
REMARK    3  A    between atoms: C4_4  and  O7_7 
REMARK    4  A    between atoms: C5_5  and  C6_6 
ROOT
HETATM    1  C6  UNL     1     -33.438   5.795   3.107  1.00 20.00     0.023 C 
ENDROOT
BRANCH   1   2
HETATM    2  C3  UNL     1     -34.562   6.677   3.698  1.00 20.00     0.003 C 
HETATM    3  C1  UNL     1     -34.051   7.865   4.500  1.00 20.00     0.005 C 
ENDBRANCH   1   2
BRANCH   1   4
HETATM    4  C4  UNL     1     -33.855   4.315   3.112  1.00 20.00     0.172 C 
BRANCH   4   5
HETATM    5  O7  UNL     1     -34.102   3.887   4.446  1.00 20.00    -0.396 OA
HETATM    6  C2  UNL     1     -33.154   2.915   4.865  1.00 20.00     0.201 C 
ENDBRANCH   4   5
ENDBRANCH   1   4
BRANCH   1   7
HETATM    7  C5  UNL     1     -32.965   6.231   1.710  1.00 20.00     0.121 C 
HETATM    8 CL8  UNL     1     -31.902   7.659   1.733  1.00 20.00    -0.130 Cl
ENDBRANCH   1   7
TORSDOF 4
ENDMDL
MODEL 4
REMARK VINA RESULT:      -1.9      2.296      3.709
REMARK  4 active torsions:
REMARK  status: ('A' for Active; 'I' for Inactive)
REMARK    1  A    between atoms: C3_3  and  C6_6 
REMARK    2  A    between atoms: C4_4  and  C6_6 
REMARK    3  A    between atoms: C4_4  and  O7_7 
REMARK    4  A    between atoms: C5_5  and  C6_6 
ROOT
HETATM    1  C6  UNL     1     -33.092   7.238   2.135  1.00 20.00     0.023 C 
ENDROOT
BRANCH   1   2
HETATM    2  C3  UNL     1     -33.067   5.771   1.651  1.00 20.00     0.003 C 
HETATM    3  C1  UNL     1     -31.734   5.346   1.050  1.00 20.00     0.005 C 
ENDBRANCH   1   2
BRANCH   1   4
HETATM    4  C4  UNL     1     -33.277   7.300   3.661  1.00 20.00     0.172 C 
BRANCH   4   5
HETATM    5  O7  UNL     1     -34.657   7.443   3.975  1.00 20.00    -0.396 OA
HETATM    6  C2  UNL     1     -35.289   6.180   4.129  1.00 20.00     0.201 C 
ENDBRANCH   4   5
ENDBRANCH   1   4
BRANCH   1   7
HETATM    7  C5  UNL     1     -31.875   8.068   1.692  1.00 20.00     0.121 C 
HETATM    8 CL8  UNL     1     -32.287   9.397   0.581  1.00 20.00    -0.130 Cl
ENDBRANCH   1   7
TORSDOF 4
ENDMDL
MODEL 5
REMARK VINA RESULT:      -1.8      2.072      2.638
REMARK  4 active torsions:
REMARK  status: ('A' for Active; 'I' for Inactive)
REMARK    1  A    between atoms: C3_3  and  C6_6 
REMARK    2  A    between atoms: C4_4  and  C6_6 
REMARK    3  A    between atoms: C4_4  and  O7_7 
REMARK    4  A    between atoms: C5_5  and  C6_6 
ROOT
HETATM    1  C6  UNL     1     -34.482   6.158   3.411  1.00 20.00     0.023 C 
ENDROOT
BRANCH   1   2
HETATM    2  C3  UNL     1     -34.595   7.555   4.062  1.00 20.00     0.003 C 
HETATM    3  C1  UNL     1     -33.373   7.952   4.879  1.00 20.00     0.005 C 
ENDBRANCH   1   2
BRANCH   1   4
HETATM    4  C4  UNL     1     -33.068   5.940   2.845  1.00 20.00     0.172 C 
BRANCH   4   5
HETATM    5  O7  UNL     1     -32.943   6.596   1.589  1.00 20.00    -0.396 OA
HETATM    6  C2  UNL     1     -31.926   7.589   1.620  1.00 20.00     0.201 C 
ENDBRANCH   4   5
ENDBRANCH   1   4
BRANCH   1   7
HETATM    7  C5  UNL     1     -34.893   4.999   4.334  1.00 20.00     0.121 C 
HETATM    8 CL8  UNL     1     -33.765   3.622   4.291  1.00 20.00    -0.130 Cl
ENDBRANCH   1   7
TORSDOF 4
ENDMDL
MODEL 6
REMARK VINA RESULT:      -1.8      2.594      3.138
REMARK  4 active torsions:
REMARK  status: ('A' for Active; 'I' for Inactive)
REMARK    1  A    between atoms: C3_3  and  C6_6 
REMARK    2  A    between atoms: C4_4  and  C6_6 
REMARK    3  A    between atoms: C4_4  and  O7_7 
REMARK    4  A    between atoms: C5_5  and  C6_6 
ROOT
HETATM    1  C6  UNL     1     -33.666   5.649   3.413  1.00 20.00     0.023 C 
ENDROOT
BRANCH   1   2
HETATM    2  C3  UNL     1     -34.205   4.236   3.731  1.00 20.00     0.003 C 
HETATM    3  C1  UNL     1     -33.266   3.401   4.591  1.00 20.00     0.005 C 
ENDBRANCH   1   2
BRANCH   1   4
HETATM    4  C4  UNL     1     -33.321   5.772   1.919  1.00 20.00     0.172 C 
BRANCH   4   5
HETATM    5  O7  UNL     1     -32.000   6.277   1.767  1.00 20.00    -0.396 OA
HETATM    6  C2  UNL     1     -31.994   7.695   1.669  1.00 20.00     0.201 C 
ENDBRANCH   4   5
ENDBRANCH   1   4
BRANCH   1   7
HETATM    7  C5  UNL     1     -34.592   6.792   3.862  1.00 20.00     0.121 C 
HETATM    8 CL8  UNL     1     -33.756   8.065   4.784  1.00 20.00    -0.130 Cl
ENDBRANCH   1   7
TORSDOF 4
ENDMDL
MODEL 7
REMARK VINA RESULT:      -1.6      1.369      1.539
REMARK  4 active torsions:
REMARK  status: ('A' for Active; 'I' for Inactive)
REMARK    1  A    between atoms: C3_3  and  C6_6 
REMARK    2  A    between atoms: C4_4  and  C6_6 
REMARK    3  A    between atoms: C4_4  and  O7_7 
REMARK    4  A    between atoms: C5_5  and  C6_6 
ROOT
HETATM    1  C6  UNL     1     -33.466   7.088   2.522  1.00 20.00     0.023 C 
ENDROOT
BRANCH   1   2
HETATM    2  C3  UNL     1     -34.193   7.402   3.849  1.00 20.00     0.003 C 
HETATM    3  C1  UNL     1     -33.329   8.142   4.861  1.00 20.00     0.005 C 
ENDBRANCH   1   2
BRANCH   1   4
HETATM    4  C4  UNL     1     -32.218   7.973   2.368  1.00 20.00     0.172 C 
BRANCH   4   5
HETATM    5  O7  UNL     1     -31.966   8.217   0.989  1.00 20.00    -0.396 OA
HETATM    6  C2  UNL     1     -32.359   9.530   0.613  1.00 20.00     0.201 C 
ENDBRANCH   4   5
ENDBRANCH   1   4
BRANCH   1   7
HETATM    7  C5  UNL     1     -33.118   5.602   2.332  1.00 20.00     0.121 C 
HETATM    8 CL8  UNL     1     -33.808   4.544   3.587  1.00 20.00    -0.130 Cl
ENDBRANCH   1   7
TORSDOF 4
ENDMDL
MODEL 8
REMARK VINA RESULT:      -1.5      2.182      3.628
REMARK  4 active torsions:
REMARK  status: ('A' for Active; 'I' for Inactive)
REMARK    1  A    between atoms: C3_3  and  C6_6 
REMARK    2  A    between atoms: C4_4  and  C6_6 
REMARK    3  A    between atoms: C4_4  and  O7_7 
REMARK    4  A    between atoms: C5_5  and  C6_6 
ROOT
HETATM    1  C6  UNL     1     -33.257   7.235   2.199  1.00 20.00     0.023 C 
ENDROOT
BRANCH   1   2
HETATM    2  C3  UNL     1     -31.976   8.047   1.900  1.00 20.00     0.003 C 
HETATM    3  C1  UNL     1     -32.163   9.115   0.831  1.00 20.00     0.005 C 
ENDBRANCH   1   2
BRANCH   1   4
HETATM    4  C4  UNL     1     -33.063   5.760   1.806  1.00 20.00     0.172 C 
BRANCH   4   5
HETATM    5  O7  UNL     1     -31.730   5.550   1.356  1.00 20.00    -0.396 OA
HETATM    6  C2  UNL     1     -31.656   4.473   0.432  1.00 20.00     0.201 C 
ENDBRANCH   4   5
ENDBRANCH   1   4
BRANCH   1   7
HETATM    7  C5  UNL     1     -33.758   7.360   3.647  1.00 20.00     0.121 C 
HETATM    8 CL8  UNL     1     -35.208   6.383   3.984  1.00 20.00    -0.130 Cl
ENDBRANCH   1   7
TORSDOF 4
ENDMDL
MODEL 9
REMARK VINA RESULT:      -1.5      3.249      4.677
REMARK  4 active torsions:
REMARK  status: ('A' for Active; 'I' for Inactive)
REMARK    1  A    between atoms: C3_3  and  C6_6 
REMARK    2  A    between atoms: C4_4  and  C6_6 
REMARK    3  A    between atoms: C4_4  and  O7_7 
REMARK    4  A    between atoms: C5_5  and  C6_6 
ROOT
HETATM    1  C6  UNL     1     -34.317   6.051   3.233  1.00 20.00     0.023 C 
ENDROOT
BRANCH   1   2
HETATM    2  C3  UNL     1     -33.068   5.826   2.351  1.00 20.00     0.003 C 
HETATM    3  C1  UNL     1     -32.441   7.114   1.837  1.00 20.00     0.005 C 
ENDBRANCH   1   2
BRANCH   1   4
HETATM    4  C4  UNL     1     -34.349   5.038   4.391  1.00 20.00     0.172 C 
BRANCH   4   5
HETATM    5  O7  UNL     1     -34.056   3.735   3.901  1.00 20.00    -0.396 OA
HETATM    6  C2  UNL     1     -33.202   3.026   4.788  1.00 20.00     0.201 C 
ENDBRANCH   4   5
ENDBRANCH   1   4
BRANCH   1   7
HETATM    7  C5  UNL     1     -34.469   7.490   3.754  1.00 20.00     0.121 C 
HETATM    8 CL8  UNL     1     -33.360   7.883   5.090  1.00 20.00    -0.130 Cl
ENDBRANCH   1   7
TORSDOF 4
ENDMDL
