MODEL 1
REMARK VINA RESULT:      -2.4      0.000      0.000
REMARK  2 active torsions:
REMARK  status: ('A' for Active; 'I' for Inactive)
REMARK    1  A    between atoms: C5_5  and  C7_7 
REMARK    2  A    between atoms: C6_6  and  C8_8 
ROOT
HETATM    1  C1  UNL     1     -32.213   5.591   1.431  1.00 20.00     0.001 C 
HETATM    2  C2  UNL     1     -32.048   7.014   0.902  1.00 20.00     0.005 C 
HETATM    3  C3  UNL     1     -33.530   5.418   2.182  1.00 20.00     0.013 C 
HETATM    4  C4  UNL     1     -33.513   7.875   2.774  1.00 20.00     0.019 C 
HETATM    5  C5  UNL     1     -32.185   8.052   2.023  1.00 20.00    -0.000 C 
HETATM    6  C6  UNL     1     -33.676   6.447   3.311  1.00 20.00     0.094 C 
ENDROOT
BRANCH   6   7
HETATM    7  C8  UNL     1     -35.023   6.286   4.015  1.00 20.00     0.391 C 
HETATM    8  F9  UNL     1     -35.187   5.013   4.406  1.00 20.00    -0.171 F 
HETATM    9  F10 UNL     1     -35.075   7.082   5.093  1.00 20.00    -0.171 F 
HETATM   10  F11 UNL     1     -36.019   6.617   3.182  1.00 20.00    -0.171 F 
ENDBRANCH   6   7
BRANCH   5  11
HETATM   11  C7  UNL     1     -32.067   9.469   1.463  1.00 20.00     0.119 C 
HETATM   12 CL12 UNL     1     -32.508   9.484  -0.253  1.00 20.00    -0.130 Cl
ENDBRANCH   5  11
TORSDOF 2
ENDMDL
MODEL 2
REMARK VINA RESULT:      -1.8      2.590      3.621
REMARK  2 active torsions:
REMARK  status: ('A' for Active; 'I' for Inactive)
REMARK    1  A    between atoms: C5_5  and  C7_7 
REMARK    2  A    between atoms: C6_6  and  C8_8 
ROOT
HETATM    1  C1  UNL     1     -35.345   5.992   4.000  1.00 20.00     0.001 C 
HETATM    2  C2  UNL     1     -34.322   6.819   3.225  1.00 20.00     0.005 C 
HETATM    3  C3  UNL     1     -34.682   4.853   4.770  1.00 20.00     0.013 C 
HETATM    4  C4  UNL     1     -32.810   4.798   3.073  1.00 20.00     0.019 C 
HETATM    5  C5  UNL     1     -33.476   5.941   2.293  1.00 20.00    -0.000 C 
HETATM    6  C6  UNL     1     -33.839   3.963   3.848  1.00 20.00     0.094 C 
ENDROOT
BRANCH   6   7
HETATM    7  C8  UNL     1     -33.147   2.861   4.648  1.00 20.00     0.391 C 
HETATM    8  F9  UNL     1     -31.834   2.850   4.374  1.00 20.00    -0.171 F 
HETATM    9  F10 UNL     1     -33.315   3.074   5.962  1.00 20.00    -0.171 F 
HETATM   10  F11 UNL     1     -33.669   1.667   4.331  1.00 20.00    -0.171 F 
ENDBRANCH   6   7
BRANCH   5  11
HETATM   11  C7  UNL     1     -32.427   6.781   1.566  1.00 20.00     0.119 C 
HETATM   12 CL12 UNL     1     -32.125   8.282   2.458  1.00 20.00    -0.130 Cl
ENDBRANCH   5  11
TORSDOF 2
ENDMDL
MODEL 3
REMARK VINA RESULT:      -1.8      2.592      3.708
REMARK  2 active torsions:
REMARK  status: ('A' for Active; 'I' for Inactive)
REMARK    1  A    between atoms: C5_5  and  C7_7 
REMARK    2  A    between atoms: C6_6  and  C8_8 
ROOT
HETATM    1  C1  UNL     1     -35.350   5.990   4.001  1.00 20.00     0.001 C 
HETATM    2  C2  UNL     1     -34.327   6.818   3.227  1.00 20.00     0.005 C 
HETATM    3  C3  UNL     1     -34.686   4.851   4.771  1.00 20.00     0.013 C 
HETATM    4  C4  UNL     1     -32.814   4.799   3.074  1.00 20.00     0.019 C 
HETATM    5  C5  UNL     1     -33.481   5.941   2.295  1.00 20.00    -0.000 C 
HETATM    6  C6  UNL     1     -33.842   3.962   3.849  1.00 20.00     0.094 C 
ENDROOT
BRANCH   6   7
HETATM    7  C8  UNL     1     -33.149   2.861   4.648  1.00 20.00     0.391 C 
HETATM    8  F9  UNL     1     -33.316   3.073   5.962  1.00 20.00    -0.171 F 
HETATM    9  F10 UNL     1     -33.670   1.666   4.331  1.00 20.00    -0.171 F 
HETATM   10  F11 UNL     1     -31.836   2.849   4.373  1.00 20.00    -0.171 F 
ENDBRANCH   6   7
BRANCH   5  11
HETATM   11  C7  UNL     1     -32.432   6.784   1.569  1.00 20.00     0.119 C 
HETATM   12 CL12 UNL     1     -32.123   8.278   2.468  1.00 20.00    -0.130 Cl
ENDBRANCH   5  11
TORSDOF 2
ENDMDL
MODEL 4
REMARK VINA RESULT:      -1.1      3.610      4.860
REMARK  2 active torsions:
REMARK  status: ('A' for Active; 'I' for Inactive)
REMARK    1  A    between atoms: C5_5  and  C7_7 
REMARK    2  A    between atoms: C6_6  and  C8_8 
ROOT
HETATM    1  C1  UNL     1     -35.021   7.349   4.174  1.00 20.00     0.001 C 
HETATM    2  C2  UNL     1     -35.171   5.833   4.078  1.00 20.00     0.005 C 
HETATM    3  C3  UNL     1     -34.170   7.904   3.035  1.00 20.00     0.013 C 
HETATM    4  C4  UNL     1     -32.957   5.694   2.867  1.00 20.00     0.019 C 
HETATM    5  C5  UNL     1     -33.807   5.133   4.016  1.00 20.00    -0.000 C 
HETATM    6  C6  UNL     1     -32.800   7.218   2.967  1.00 20.00     0.094 C 
ENDROOT
BRANCH   6   7
HETATM    7  C8  UNL     1     -31.987   7.755   1.790  1.00 20.00     0.391 C 
HETATM    8  F9  UNL     1     -31.701   6.759   0.938  1.00 20.00    -0.171 F 
HETATM    9  F10 UNL     1     -32.687   8.696   1.140  1.00 20.00    -0.171 F 
HETATM   10  F11 UNL     1     -30.841   8.293   2.232  1.00 20.00    -0.171 F 
ENDBRANCH   6   7
BRANCH   5  11
HETATM   11  C7  UNL     1     -33.983   3.622   3.869  1.00 20.00     0.119 C 
HETATM   12 CL12 UNL     1     -32.941   2.773   5.022  1.00 20.00    -0.130 Cl
ENDBRANCH   5  11
TORSDOF 2
ENDMDL
MODEL 5
REMARK VINA RESULT:      -1.1      3.617      4.873
REMARK  2 active torsions:
REMARK  status: ('A' for Active; 'I' for Inactive)
REMARK    1  A    between atoms: C5_5  and  C7_7 
REMARK    2  A    between atoms: C6_6  and  C8_8 
ROOT
HETATM    1  C1  UNL     1     -35.020   7.334   4.176  1.00 20.00     0.001 C 
HETATM    2  C2  UNL     1     -35.163   5.817   4.088  1.00 20.00     0.005 C 
HETATM    3  C3  UNL     1     -34.165   7.886   3.039  1.00 20.00     0.013 C 
HETATM    4  C4  UNL     1     -32.941   5.680   2.891  1.00 20.00     0.019 C 
HETATM    5  C5  UNL     1     -33.796   5.123   4.038  1.00 20.00    -0.000 C 
HETATM    6  C6  UNL     1     -32.792   7.205   2.982  1.00 20.00     0.094 C 
ENDROOT
BRANCH   6   7
HETATM    7  C8  UNL     1     -31.974   7.738   1.807  1.00 20.00     0.391 C 
HETATM    8  F9  UNL     1     -30.831   8.281   2.252  1.00 20.00    -0.171 F 
HETATM    9  F10 UNL     1     -31.681   6.739   0.961  1.00 20.00    -0.171 F 
HETATM   10  F11 UNL     1     -32.673   8.674   1.148  1.00 20.00    -0.171 F 
ENDBRANCH   6   7
BRANCH   5  11
HETATM   11  C7  UNL     1     -33.964   3.610   3.900  1.00 20.00     0.119 C 
HETATM   12 CL12 UNL     1     -32.922   2.773   5.063  1.00 20.00    -0.130 Cl
ENDBRANCH   5  11
TORSDOF 2
ENDMDL
MODEL 6
REMARK VINA RESULT:      -1.1      3.614      4.864
REMARK  2 active torsions:
REMARK  status: ('A' for Active; 'I' for Inactive)
REMARK    1  A    between atoms: C5_5  and  C7_7 
REMARK    2  A    between atoms: C6_6  and  C8_8 
ROOT
HETATM    1  C1  UNL     1     -35.024   7.343   4.164  1.00 20.00     0.001 C 
HETATM    2  C2  UNL     1     -35.175   5.826   4.076  1.00 20.00     0.005 C 
HETATM    3  C3  UNL     1     -34.170   7.891   3.024  1.00 20.00     0.013 C 
HETATM    4  C4  UNL     1     -32.958   5.679   2.870  1.00 20.00     0.019 C 
HETATM    5  C5  UNL     1     -33.811   5.125   4.020  1.00 20.00    -0.000 C 
HETATM    6  C6  UNL     1     -32.800   7.203   2.962  1.00 20.00     0.094 C 
ENDROOT
BRANCH   6   7
HETATM    7  C8  UNL     1     -31.984   7.733   1.784  1.00 20.00     0.391 C 
HETATM    8  F9  UNL     1     -32.686   8.666   1.123  1.00 20.00    -0.171 F 
HETATM    9  F10 UNL     1     -30.842   8.280   2.226  1.00 20.00    -0.171 F 
HETATM   10  F11 UNL     1     -31.689   6.732   0.942  1.00 20.00    -0.171 F 
ENDBRANCH   6   7
BRANCH   5  11
HETATM   11  C7  UNL     1     -33.988   3.614   3.882  1.00 20.00     0.119 C 
HETATM   12 CL12 UNL     1     -32.947   2.770   5.040  1.00 20.00    -0.130 Cl
ENDBRANCH   5  11
TORSDOF 2
ENDMDL
MODEL 7
REMARK VINA RESULT:      -0.9      1.756      2.825
REMARK  2 active torsions:
REMARK  status: ('A' for Active; 'I' for Inactive)
REMARK    1  A    between atoms: C5_5  and  C7_7 
REMARK    2  A    between atoms: C6_6  and  C8_8 
ROOT
HETATM    1  C1  UNL     1     -32.171   8.256   2.237  1.00 20.00     0.001 C 
HETATM    2  C2  UNL     1     -31.474   7.051   1.611  1.00 20.00     0.005 C 
HETATM    3  C3  UNL     1     -33.137   7.837   3.342  1.00 20.00     0.013 C 
HETATM    4  C4  UNL     1     -33.452   5.598   2.214  1.00 20.00     0.019 C 
HETATM    5  C5  UNL     1     -32.485   6.018   1.098  1.00 20.00    -0.000 C 
HETATM    6  C6  UNL     1     -34.158   6.809   2.840  1.00 20.00     0.094 C 
ENDROOT
BRANCH   6   7
HETATM    7  C8  UNL     1     -35.081   6.369   3.975  1.00 20.00     0.391 C 
HETATM    8  F9  UNL     1     -36.362   6.462   3.586  1.00 20.00    -0.171 F 
HETATM    9  F10 UNL     1     -34.820   5.097   4.311  1.00 20.00    -0.171 F 
HETATM   10  F11 UNL     1     -34.894   7.150   5.048  1.00 20.00    -0.171 F 
ENDBRANCH   6   7
BRANCH   5  11
HETATM   11  C7  UNL     1     -31.765   4.799   0.522  1.00 20.00     0.119 C 
HETATM   12 CL12 UNL     1     -32.882   3.840  -0.463  1.00 20.00    -0.130 Cl
ENDBRANCH   5  11
TORSDOF 2
ENDMDL
MODEL 8
REMARK VINA RESULT:      -0.5      3.572      4.504
REMARK  2 active torsions:
REMARK  status: ('A' for Active; 'I' for Inactive)
REMARK    1  A    between atoms: C5_5  and  C7_7 
REMARK    2  A    between atoms: C6_6  and  C8_8 
ROOT
HETATM    1  C1  UNL     1     -32.712   5.116   1.485  1.00 20.00     0.001 C 
HETATM    2  C2  UNL     1     -33.460   5.154   2.816  1.00 20.00     0.005 C 
HETATM    3  C3  UNL     1     -31.860   6.365   1.282  1.00 20.00     0.013 C 
HETATM    4  C4  UNL     1     -33.443   7.680   2.750  1.00 20.00     0.019 C 
HETATM    5  C5  UNL     1     -34.305   6.426   2.952  1.00 20.00    -0.000 C 
HETATM    6  C6  UNL     1     -32.695   7.646   1.409  1.00 20.00     0.094 C 
ENDROOT
BRANCH   6   7
HETATM    7  C8  UNL     1     -31.812   8.882   1.251  1.00 20.00     0.391 C 
HETATM    8  F9  UNL     1     -32.567   9.949   0.946  1.00 20.00    -0.171 F 
HETATM    9  F10 UNL     1     -31.156   9.127   2.395  1.00 20.00    -0.171 F 
HETATM   10  F11 UNL     1     -30.919   8.687   0.271  1.00 20.00    -0.171 F 
ENDBRANCH   6   7
BRANCH   5  11
HETATM   11  C7  UNL     1     -35.003   6.466   4.311  1.00 20.00     0.119 C 
HETATM   12 CL12 UNL     1     -35.447   4.827   4.816  1.00 20.00    -0.130 Cl
ENDBRANCH   5  11
TORSDOF 2
ENDMDL
MODEL 9
REMARK VINA RESULT:      -0.3      3.467      4.435
REMARK  2 active torsions:
REMARK  status: ('A' for Active; 'I' for Inactive)
REMARK    1  A    between atoms: C5_5  and  C7_7 
REMARK    2  A    between atoms: C6_6  and  C8_8 
ROOT
HETATM    1  C1  UNL     1     -32.577   5.458   1.463  1.00 20.00     0.001 C 
HETATM    2  C2  UNL     1     -33.084   5.674   2.887  1.00 20.00     0.005 C 
HETATM    3  C3  UNL     1     -31.911   6.714   0.906  1.00 20.00     0.013 C 
HETATM    4  C4  UNL     1     -33.348   8.143   2.416  1.00 20.00     0.019 C 
HETATM    5  C5  UNL     1     -34.024   6.883   2.975  1.00 20.00    -0.000 C 
HETATM    6  C6  UNL     1     -32.843   7.929   0.982  1.00 20.00     0.094 C 
ENDROOT
BRANCH   6   7
HETATM    7  C8  UNL     1     -32.138   9.182   0.466  1.00 20.00     0.391 C 
HETATM    8  F9  UNL     1     -30.847   8.912   0.216  1.00 20.00    -0.171 F 
HETATM    9  F10 UNL     1     -32.721   9.604  -0.666  1.00 20.00    -0.171 F 
HETATM   10  F11 UNL     1     -32.208  10.159   1.382  1.00 20.00    -0.171 F 
ENDBRANCH   6   7
BRANCH   5  11
HETATM   11  C7  UNL     1     -34.478   7.108   4.416  1.00 20.00     0.119 C 
HETATM   12 CL12 UNL     1     -33.363   8.211   5.240  1.00 20.00    -0.130 Cl
ENDBRANCH   5  11
TORSDOF 2
ENDMDL
