MODEL 1
REMARK VINA RESULT:      -0.2      0.000      0.000
REMARK  1 active torsions:
REMARK  status: ('A' for Active; 'I' for Inactive)
REMARK    1  A    between atoms: C1_1  and  C7_7 
ROOT
HETATM    1  C2  UNL     1     -32.661   5.599   1.533  1.00 20.00     0.001 C 
HETATM    2  C3  UNL     1     -33.270   5.376   2.914  1.00 20.00     0.011 C 
HETATM    3  C4  UNL     1     -33.922   7.671   3.792  1.00 20.00     0.012 C 
HETATM    4  C5  UNL     1     -32.785   6.980   0.890  1.00 20.00     0.008 C 
HETATM    5  C6  UNL     1     -33.527   8.643   2.682  1.00 20.00     0.009 C 
HETATM    6  C7  UNL     1     -34.416   6.309   3.299  1.00 20.00     0.047 C 
HETATM    7  C8  UNL     1     -32.388   8.220   1.725  1.00 20.00    -0.048 C 
HETATM    8  C9  UNL     1     -32.182   9.393   0.734  1.00 20.00     0.015 C 
HETATM    9  C10 UNL     1     -31.061   8.018   2.475  1.00 20.00     0.015 C 
ENDROOT
BRANCH   6  10
HETATM   10  C1  UNL     1     -35.186   5.659   4.412  1.00 20.00     0.235 C 
HETATM   11  O11 UNL     1     -35.170   4.452   4.630  1.00 20.00    -0.306 OA
ENDBRANCH   6  10
TORSDOF 1
ENDMDL
MODEL 2
REMARK VINA RESULT:       0.6      1.115      2.325
REMARK  1 active torsions:
REMARK  status: ('A' for Active; 'I' for Inactive)
REMARK    1  A    between atoms: C1_1  and  C7_7 
ROOT
HETATM    1  C2  UNL     1     -33.637   8.073   3.965  1.00 20.00     0.001 C 
HETATM    2  C3  UNL     1     -34.375   6.754   3.755  1.00 20.00     0.011 C 
HETATM    3  C4  UNL     1     -33.132   5.520   1.913  1.00 20.00     0.012 C 
HETATM    4  C5  UNL     1     -32.280   8.271   3.292  1.00 20.00     0.008 C 
HETATM    5  C6  UNL     1     -31.978   6.445   1.530  1.00 20.00     0.009 C 
HETATM    6  C7  UNL     1     -33.506   5.551   3.396  1.00 20.00     0.047 C 
HETATM    7  C8  UNL     1     -32.155   7.961   1.781  1.00 20.00    -0.048 C 
HETATM    8  C9  UNL     1     -30.860   8.648   1.278  1.00 20.00     0.015 C 
HETATM    9  C10 UNL     1     -33.325   8.538   0.969  1.00 20.00     0.015 C 
ENDROOT
BRANCH   6  10
HETATM   10  C1  UNL     1     -34.289   4.308   3.707  1.00 20.00     0.235 C 
HETATM   11  O11 UNL     1     -33.889   3.429   4.465  1.00 20.00    -0.306 OA
ENDBRANCH   6  10
TORSDOF 1
ENDMDL
MODEL 3
REMARK VINA RESULT:       1.4      2.276      4.180
REMARK  1 active torsions:
REMARK  status: ('A' for Active; 'I' for Inactive)
REMARK    1  A    between atoms: C1_1  and  C7_7 
ROOT
HETATM    1  C2  UNL     1     -33.378   5.315   1.639  1.00 20.00     0.001 C 
HETATM    2  C3  UNL     1     -32.920   6.694   1.174  1.00 20.00     0.011 C 
HETATM    3  C4  UNL     1     -33.385   8.292   3.095  1.00 20.00     0.012 C 
HETATM    4  C5  UNL     1     -33.746   5.120   3.110  1.00 20.00     0.008 C 
HETATM    5  C6  UNL     1     -33.993   7.422   4.193  1.00 20.00     0.009 C 
HETATM    6  C7  UNL     1     -32.318   7.596   2.248  1.00 20.00     0.047 C 
HETATM    7  C8  UNL     1     -34.722   6.126   3.764  1.00 20.00    -0.048 C 
HETATM    8  C9  UNL     1     -35.256   5.467   5.062  1.00 20.00     0.015 C 
HETATM    9  C10 UNL     1     -35.936   6.426   2.871  1.00 20.00     0.015 C 
ENDROOT
BRANCH   6  10
HETATM   10  C1  UNL     1     -31.503   8.653   1.559  1.00 20.00     0.235 C 
HETATM   11  O11 UNL     1     -31.925   9.332   0.628  1.00 20.00    -0.306 OA
ENDBRANCH   6  10
TORSDOF 1
ENDMDL
MODEL 4
REMARK VINA RESULT:       1.6      2.456      4.472
REMARK  1 active torsions:
REMARK  status: ('A' for Active; 'I' for Inactive)
REMARK    1  A    between atoms: C1_1  and  C7_7 
ROOT
HETATM    1  C2  UNL     1     -32.833   8.186   4.414  1.00 20.00     0.001 C 
HETATM    2  C3  UNL     1     -31.915   8.229   3.196  1.00 20.00     0.011 C 
HETATM    3  C4  UNL     1     -32.953   6.693   1.458  1.00 20.00     0.012 C 
HETATM    4  C5  UNL     1     -34.197   7.510   4.283  1.00 20.00     0.008 C 
HETATM    5  C6  UNL     1     -34.221   6.153   2.117  1.00 20.00     0.009 C 
HETATM    6  C7  UNL     1     -32.603   8.133   1.837  1.00 20.00     0.047 C 
HETATM    7  C8  UNL     1     -34.261   6.094   3.662  1.00 20.00    -0.048 C 
HETATM    8  C9  UNL     1     -35.634   5.486   4.048  1.00 20.00     0.015 C 
HETATM    9  C10 UNL     1     -33.175   5.162   4.223  1.00 20.00     0.015 C 
ENDROOT
BRANCH   6  10
HETATM   10  C1  UNL     1     -31.657   8.673   0.802  1.00 20.00     0.235 C 
HETATM   11  O11 UNL     1     -31.953   9.567   0.017  1.00 20.00    -0.306 OA
ENDBRANCH   6  10
TORSDOF 1
ENDMDL
MODEL 5
REMARK VINA RESULT:       2.4      1.688      3.207
REMARK  1 active torsions:
REMARK  status: ('A' for Active; 'I' for Inactive)
REMARK    1  A    between atoms: C1_1  and  C7_7 
ROOT
HETATM    1  C2  UNL     1     -32.047   8.176   1.589  1.00 20.00     0.001 C 
HETATM    2  C3  UNL     1     -33.118   8.461   2.638  1.00 20.00     0.011 C 
HETATM    3  C4  UNL     1     -34.056   6.205   3.339  1.00 20.00     0.012 C 
HETATM    4  C5  UNL     1     -31.598   6.732   1.370  1.00 20.00     0.008 C 
HETATM    5  C6  UNL     1     -33.278   5.182   2.514  1.00 20.00     0.009 C 
HETATM    6  C7  UNL     1     -33.245   7.432   3.759  1.00 20.00     0.047 C 
HETATM    7  C8  UNL     1     -32.682   5.647   1.164  1.00 20.00    -0.048 C 
HETATM    8  C9  UNL     1     -31.982   4.413   0.539  1.00 20.00     0.015 C 
HETATM    9  C10 UNL     1     -33.778   6.096   0.185  1.00 20.00     0.015 C 
ENDROOT
BRANCH   6  10
HETATM   10  C1  UNL     1     -33.953   8.090   4.909  1.00 20.00     0.235 C 
HETATM   11  O11 UNL     1     -33.372   8.546   5.889  1.00 20.00    -0.306 OA
ENDBRANCH   6  10
TORSDOF 1
ENDMDL
MODEL 6
REMARK VINA RESULT:       2.5      1.054      2.225
REMARK  1 active torsions:
REMARK  status: ('A' for Active; 'I' for Inactive)
REMARK    1  A    between atoms: C1_1  and  C7_7 
ROOT
HETATM    1  C2  UNL     1     -32.286   8.711   4.216  1.00 20.00     0.001 C 
HETATM    2  C3  UNL     1     -33.658   8.075   4.420  1.00 20.00     0.011 C 
HETATM    3  C4  UNL     1     -34.129   6.697   2.336  1.00 20.00     0.012 C 
HETATM    4  C5  UNL     1     -31.425   8.241   3.043  1.00 20.00     0.008 C 
HETATM    5  C6  UNL     1     -32.897   6.883   1.454  1.00 20.00     0.009 C 
HETATM    6  C7  UNL     1     -33.840   6.675   3.838  1.00 20.00     0.047 C 
HETATM    7  C8  UNL     1     -32.068   8.177   1.637  1.00 20.00    -0.048 C 
HETATM    8  C9  UNL     1     -30.911   8.113   0.607  1.00 20.00     0.015 C 
HETATM    9  C10 UNL     1     -32.896   9.432   1.317  1.00 20.00     0.015 C 
ENDROOT
BRANCH   6  10
HETATM   10  C1  UNL     1     -35.009   6.036   4.532  1.00 20.00     0.235 C 
HETATM   11  O11 UNL     1     -35.478   4.951   4.206  1.00 20.00    -0.306 OA
ENDBRANCH   6  10
TORSDOF 1
ENDMDL
