MODEL 1
REMARK VINA RESULT:      -0.5      0.000      0.000
REMARK  1 active torsions:
REMARK  status: ('A' for Active; 'I' for Inactive)
REMARK    1  A    between atoms: C6_6  and  C10_10 
ROOT
HETATM    1  C1  UNL     1     -32.722   5.691   1.164  1.00 20.00     0.001 C 
HETATM    2  C2  UNL     1     -31.559   6.562   1.627  1.00 20.00     0.005 C 
HETATM    3  C3  UNL     1     -32.949   8.396   2.855  1.00 20.00     0.006 C 
HETATM    4  C4  UNL     1     -34.084   5.952   1.803  1.00 20.00     0.008 C 
HETATM    5  C5  UNL     1     -33.230   7.289   3.873  1.00 20.00     0.009 C 
HETATM    6  C6  UNL     1     -31.849   8.059   1.827  1.00 20.00    -0.001 C 
HETATM    7  C7  UNL     1     -34.127   6.134   3.342  1.00 20.00    -0.048 C 
HETATM    8  C8  UNL     1     -35.595   6.442   3.721  1.00 20.00     0.015 C 
HETATM    9  C9  UNL     1     -33.728   4.823   4.045  1.00 20.00     0.015 C 
ENDROOT
BRANCH   6  10
HETATM   10  C10 UNL     1     -32.124   8.763   0.495  1.00 20.00     0.119 C 
HETATM   11 CL11 UNL     1     -32.696  10.410   0.795  1.00 20.00    -0.130 Cl
ENDBRANCH   6  10
TORSDOF 1
ENDMDL
MODEL 2
REMARK VINA RESULT:       1.9      2.560      4.151
REMARK  1 active torsions:
REMARK  status: ('A' for Active; 'I' for Inactive)
REMARK    1  A    between atoms: C6_6  and  C10_10 
ROOT
HETATM    1  C1  UNL     1     -32.086   5.781   0.992  1.00 20.00     0.001 C 
HETATM    2  C2  UNL     1     -33.546   5.438   1.271  1.00 20.00     0.005 C 
HETATM    3  C3  UNL     1     -33.732   6.543   3.626  1.00 20.00     0.006 C 
HETATM    4  C4  UNL     1     -31.433   6.825   1.893  1.00 20.00     0.008 C 
HETATM    5  C5  UNL     1     -33.627   7.858   2.852  1.00 20.00     0.009 C 
HETATM    6  C6  UNL     1     -33.956   5.295   2.746  1.00 20.00    -0.001 C 
HETATM    7  C7  UNL     1     -32.241   8.114   2.194  1.00 20.00    -0.048 C 
HETATM    8  C8  UNL     1     -31.390   8.966   3.165  1.00 20.00     0.015 C 
HETATM    9  C9  UNL     1     -32.439   8.932   0.904  1.00 20.00     0.015 C 
ENDROOT
BRANCH   6  10
HETATM   10  C10 UNL     1     -33.320   4.061   3.393  1.00 20.00     0.119 C 
HETATM   11 CL11 UNL     1     -34.047   3.774   4.979  1.00 20.00    -0.130 Cl
ENDBRANCH   6  10
TORSDOF 1
ENDMDL
MODEL 3
REMARK VINA RESULT:       2.3      1.849      3.488
REMARK  1 active torsions:
REMARK  status: ('A' for Active; 'I' for Inactive)
REMARK    1  A    between atoms: C6_6  and  C10_10 
ROOT
HETATM    1  C1  UNL     1     -34.503   5.336   3.614  1.00 20.00     0.001 C 
HETATM    2  C2  UNL     1     -35.008   6.770   3.500  1.00 20.00     0.005 C 
HETATM    3  C3  UNL     1     -32.752   7.895   2.829  1.00 20.00     0.006 C 
HETATM    4  C4  UNL     1     -33.130   5.034   3.020  1.00 20.00     0.008 C 
HETATM    5  C5  UNL     1     -32.946   7.150   1.508  1.00 20.00     0.009 C 
HETATM    6  C6  UNL     1     -33.986   7.889   3.757  1.00 20.00    -0.001 C 
HETATM    7  C7  UNL     1     -32.820   5.602   1.612  1.00 20.00    -0.048 C 
HETATM    8  C8  UNL     1     -31.362   5.208   1.274  1.00 20.00     0.015 C 
HETATM    9  C9  UNL     1     -33.737   4.950   0.560  1.00 20.00     0.015 C 
ENDROOT
BRANCH   6  10
HETATM   10  C10 UNL     1     -33.553   7.933   5.225  1.00 20.00     0.119 C 
HETATM   11 CL11 UNL     1     -32.055   8.860   5.382  1.00 20.00    -0.130 Cl
ENDBRANCH   6  10
TORSDOF 1
ENDMDL
