MODEL 1
REMARK VINA RESULT:      -2.1      0.000      0.000
REMARK  2 active torsions:
REMARK  status: ('A' for Active; 'I' for Inactive)
REMARK    1  A    between atoms: C1_1  and  C7_7 
REMARK    2  A    between atoms: C8_8  and  C10_10 
ROOT
HETATM    1  C2  UNL     1     -34.134   7.682   4.057  1.00 20.00     0.001 C 
HETATM    2  C3  UNL     1     -33.718   8.176   2.674  1.00 20.00     0.011 C 
HETATM    3  C4  UNL     1     -32.428   6.249   1.547  1.00 20.00     0.012 C 
HETATM    4  C5  UNL     1     -34.593   6.228   4.124  1.00 20.00     0.004 C 
HETATM    5  C6  UNL     1     -33.452   5.245   2.073  1.00 20.00     0.005 C 
HETATM    6  C7  UNL     1     -32.365   7.613   2.238  1.00 20.00     0.047 C 
HETATM    7  C8  UNL     1     -33.586   5.189   3.603  1.00 20.00    -0.015 C 
ENDROOT
BRANCH   6   8
HETATM    8  C1  UNL     1     -31.711   8.580   1.295  1.00 20.00     0.235 C 
HETATM    9  O11 UNL     1     -32.331   9.415   0.645  1.00 20.00    -0.306 OA
ENDBRANCH   6   8
BRANCH   7  10
HETATM   10  C10 UNL     1     -34.065   3.791   4.018  1.00 20.00     0.000 C 
HETATM   11  C9  UNL     1     -33.015   3.059   4.780  1.00 20.00     0.005 C 
ENDBRANCH   7  10
TORSDOF 2
ENDMDL
MODEL 2
REMARK VINA RESULT:      -1.4      1.047      2.263
REMARK  2 active torsions:
REMARK  status: ('A' for Active; 'I' for Inactive)
REMARK    1  A    between atoms: C1_1  and  C7_7 
REMARK    2  A    between atoms: C8_8  and  C10_10 
ROOT
HETATM    1  C2  UNL     1     -32.561   5.705   1.382  1.00 20.00     0.001 C 
HETATM    2  C3  UNL     1     -31.756   7.000   1.449  1.00 20.00     0.011 C 
HETATM    3  C4  UNL     1     -33.169   8.694   2.783  1.00 20.00     0.012 C 
HETATM    4  C5  UNL     1     -33.312   5.333   2.658  1.00 20.00     0.004 C 
HETATM    5  C6  UNL     1     -33.545   7.603   3.784  1.00 20.00     0.005 C 
HETATM    6  C7  UNL     1     -32.648   8.242   1.418  1.00 20.00     0.047 C 
HETATM    7  C8  UNL     1     -34.289   6.397   3.188  1.00 20.00    -0.015 C 
ENDROOT
BRANCH   6   8
HETATM    8  C1  UNL     1     -31.881   9.383   0.814  1.00 20.00     0.235 C 
HETATM    9  O11 UNL     1     -32.371  10.186   0.028  1.00 20.00    -0.306 OA
ENDBRANCH   6   8
BRANCH   7  10
HETATM   10  C10 UNL     1     -35.169   5.759   4.272  1.00 20.00     0.000 C 
HETATM   11  C9  UNL     1     -34.689   4.394   4.629  1.00 20.00     0.005 C 
ENDBRANCH   7  10
TORSDOF 2
ENDMDL
MODEL 3
REMARK VINA RESULT:      -0.8      2.427      4.606
REMARK  2 active torsions:
REMARK  status: ('A' for Active; 'I' for Inactive)
REMARK    1  A    between atoms: C1_1  and  C7_7 
REMARK    2  A    between atoms: C8_8  and  C10_10 
ROOT
HETATM    1  C2  UNL     1     -33.289   8.418   4.136  1.00 20.00     0.001 C 
HETATM    2  C3  UNL     1     -33.438   6.937   4.473  1.00 20.00     0.011 C 
HETATM    3  C4  UNL     1     -33.447   5.654   2.237  1.00 20.00     0.012 C 
HETATM    4  C5  UNL     1     -32.326   8.737   2.995  1.00 20.00     0.004 C 
HETATM    5  C6  UNL     1     -32.311   6.535   1.718  1.00 20.00     0.005 C 
HETATM    6  C7  UNL     1     -34.255   6.180   3.424  1.00 20.00     0.047 C 
HETATM    7  C8  UNL     1     -32.626   8.039   1.657  1.00 20.00    -0.015 C 
ENDROOT
BRANCH   6   8
HETATM    8  C1  UNL     1     -34.931   5.011   4.079  1.00 20.00     0.235 C 
HETATM    9  O11 UNL     1     -34.353   3.966   4.360  1.00 20.00    -0.306 OA
ENDBRANCH   6   8
BRANCH   7  10
HETATM   10  C10 UNL     1     -31.771   8.690   0.561  1.00 20.00     0.000 C 
HETATM   11  C9  UNL     1     -32.431   9.907   0.008  1.00 20.00     0.005 C 
ENDBRANCH   7  10
TORSDOF 2
ENDMDL
MODEL 4
REMARK VINA RESULT:      -0.7      2.384      4.939
REMARK  2 active torsions:
REMARK  status: ('A' for Active; 'I' for Inactive)
REMARK    1  A    between atoms: C1_1  and  C7_7 
REMARK    2  A    between atoms: C8_8  and  C10_10 
ROOT
HETATM    1  C2  UNL     1     -32.090   5.523   1.359  1.00 20.00     0.001 C 
HETATM    2  C3  UNL     1     -33.370   5.010   2.015  1.00 20.00     0.011 C 
HETATM    3  C4  UNL     1     -34.145   6.826   3.672  1.00 20.00     0.012 C 
HETATM    4  C5  UNL     1     -32.078   7.012   1.021  1.00 20.00     0.004 C 
HETATM    5  C6  UNL     1     -33.816   7.911   2.648  1.00 20.00     0.005 C 
HETATM    6  C7  UNL     1     -33.496   5.455   3.472  1.00 20.00     0.047 C 
HETATM    7  C8  UNL     1     -32.346   7.963   2.199  1.00 20.00    -0.015 C 
ENDROOT
BRANCH   6   8
HETATM    8  C1  UNL     1     -34.309   4.444   4.226  1.00 20.00     0.235 C 
HETATM    9  O11 UNL     1     -33.923   3.303   4.459  1.00 20.00    -0.306 OA
ENDBRANCH   6   8
BRANCH   7  10
HETATM   10  C10 UNL     1     -32.001   9.394   1.763  1.00 20.00     0.000 C 
HETATM   11  C9  UNL     1     -32.392   9.641   0.347  1.00 20.00     0.005 C 
ENDBRANCH   7  10
TORSDOF 2
ENDMDL
