MODEL 1
REMARK VINA RESULT:      -2.2      0.000      0.000
REMARK  2 active torsions:
REMARK  status: ('A' for Active; 'I' for Inactive)
REMARK    1  A    between atoms: C4_4  and  C7_7 
REMARK    2  A    between atoms: C5_5  and  C8_8 
ROOT
HETATM    1  C1  UNL     1     -32.302   6.406   1.172  1.00 20.00     0.005 C 
HETATM    2  C2  UNL     1     -33.113   5.853   2.332  1.00 20.00     0.006 C 
HETATM    3  C3  UNL     1     -32.969   8.267   2.586  1.00 20.00     0.010 C 
HETATM    4  C4  UNL     1     -31.819   7.754   1.706  1.00 20.00    -0.014 C 
HETATM    5  C5  UNL     1     -33.908   7.070   2.804  1.00 20.00    -0.000 C 
ENDROOT
BRANCH   4   6
HETATM    6  C7  UNL     1     -31.426   8.723   0.604  1.00 20.00     0.000 C 
HETATM    7  C6  UNL     1     -32.488   9.748   0.355  1.00 20.00     0.005 C 
ENDBRANCH   4   6
BRANCH   5   8
HETATM    8  C8  UNL     1     -34.396   6.941   4.238  1.00 20.00     0.119 C 
HETATM    9 CL9  UNL     1     -35.473   5.539   4.399  1.00 20.00    -0.130 Cl
ENDBRANCH   5   8
TORSDOF 2
ENDMDL
MODEL 2
REMARK VINA RESULT:      -2.2      2.271      4.097
REMARK  2 active torsions:
REMARK  status: ('A' for Active; 'I' for Inactive)
REMARK    1  A    between atoms: C4_4  and  C7_7 
REMARK    2  A    between atoms: C5_5  and  C8_8 
ROOT
HETATM    1  C1  UNL     1     -33.098   5.835   2.299  1.00 20.00     0.005 C 
HETATM    2  C2  UNL     1     -32.252   6.395   1.168  1.00 20.00     0.006 C 
HETATM    3  C3  UNL     1     -32.986   8.249   2.559  1.00 20.00     0.010 C 
HETATM    4  C4  UNL     1     -33.922   7.045   2.738  1.00 20.00    -0.014 C 
HETATM    5  C5  UNL     1     -31.803   7.749   1.715  1.00 20.00    -0.000 C 
ENDROOT
BRANCH   4   6
HETATM    6  C7  UNL     1     -34.468   6.911   4.150  1.00 20.00     0.000 C 
HETATM    7  C6  UNL     1     -35.341   5.706   4.301  1.00 20.00     0.005 C 
ENDBRANCH   4   6
BRANCH   5   8
HETATM    8  C8  UNL     1     -31.387   8.722   0.625  1.00 20.00     0.119 C 
HETATM    9 CL9  UNL     1     -32.571  10.038   0.489  1.00 20.00    -0.130 Cl
ENDBRANCH   5   8
TORSDOF 2
ENDMDL
MODEL 3
REMARK VINA RESULT:      -2.1      2.626      4.633
REMARK  2 active torsions:
REMARK  status: ('A' for Active; 'I' for Inactive)
REMARK    1  A    between atoms: C4_4  and  C7_7 
REMARK    2  A    between atoms: C5_5  and  C8_8 
ROOT
HETATM    1  C1  UNL     1     -34.552   6.564   3.939  1.00 20.00     0.005 C 
HETATM    2  C2  UNL     1     -33.796   7.748   3.359  1.00 20.00     0.006 C 
HETATM    3  C3  UNL     1     -32.792   5.708   2.497  1.00 20.00     0.010 C 
HETATM    4  C4  UNL     1     -33.548   5.419   3.803  1.00 20.00    -0.014 C 
HETATM    5  C5  UNL     1     -33.136   7.156   2.114  1.00 20.00    -0.000 C 
ENDROOT
BRANCH   4   6
HETATM    6  C7  UNL     1     -34.203   4.049   3.829  1.00 20.00     0.000 C 
HETATM    7  C6  UNL     1     -33.385   3.052   4.588  1.00 20.00     0.005 C 
ENDBRANCH   4   6
BRANCH   5   8
HETATM    8  C8  UNL     1     -31.933   7.956   1.642  1.00 20.00     0.119 C 
HETATM    9 CL9  UNL     1     -32.458   9.332   0.652  1.00 20.00    -0.130 Cl
ENDBRANCH   5   8
TORSDOF 2
ENDMDL
MODEL 4
REMARK VINA RESULT:      -2.1      1.604      2.302
REMARK  2 active torsions:
REMARK  status: ('A' for Active; 'I' for Inactive)
REMARK    1  A    between atoms: C4_4  and  C7_7 
REMARK    2  A    between atoms: C5_5  and  C8_8 
ROOT
HETATM    1  C1  UNL     1     -33.697   7.836   3.369  1.00 20.00     0.005 C 
HETATM    2  C2  UNL     1     -34.471   6.669   3.958  1.00 20.00     0.006 C 
HETATM    3  C3  UNL     1     -32.810   5.782   2.420  1.00 20.00     0.010 C 
HETATM    4  C4  UNL     1     -33.122   7.247   2.081  1.00 20.00    -0.014 C 
HETATM    5  C5  UNL     1     -33.522   5.490   3.751  1.00 20.00    -0.000 C 
ENDROOT
BRANCH   4   6
HETATM    6  C7  UNL     1     -31.916   8.014   1.564  1.00 20.00     0.000 C 
HETATM    7  C6  UNL     1     -32.317   9.199   0.743  1.00 20.00     0.005 C 
ENDBRANCH   4   6
BRANCH   5   8
HETATM    8  C8  UNL     1     -34.231   4.146   3.772  1.00 20.00     0.119 C 
HETATM    9 CL9  UNL     1     -33.265   2.953   4.663  1.00 20.00    -0.130 Cl
ENDBRANCH   5   8
TORSDOF 2
ENDMDL
MODEL 5
REMARK VINA RESULT:      -1.0      2.556      4.451
REMARK  2 active torsions:
REMARK  status: ('A' for Active; 'I' for Inactive)
REMARK    1  A    between atoms: C4_4  and  C7_7 
REMARK    2  A    between atoms: C5_5  and  C8_8 
ROOT
HETATM    1  C1  UNL     1     -33.883   7.293   3.943  1.00 20.00     0.005 C 
HETATM    2  C2  UNL     1     -33.039   8.327   3.217  1.00 20.00     0.006 C 
HETATM    3  C3  UNL     1     -32.939   6.247   1.962  1.00 20.00     0.010 C 
HETATM    4  C4  UNL     1     -33.320   5.970   3.424  1.00 20.00    -0.014 C 
HETATM    5  C5  UNL     1     -32.970   7.774   1.794  1.00 20.00    -0.000 C 
ENDROOT
BRANCH   4   6
HETATM    6  C7  UNL     1     -34.287   4.809   3.584  1.00 20.00     0.000 C 
HETATM    7  C6  UNL     1     -35.418   5.146   4.504  1.00 20.00     0.005 C 
ENDBRANCH   4   6
BRANCH   5   8
HETATM    8  C8  UNL     1     -31.791   8.317   1.003  1.00 20.00     0.119 C 
HETATM    9 CL9  UNL     1     -32.273   9.760   0.089  1.00 20.00    -0.130 Cl
ENDBRANCH   5   8
TORSDOF 2
ENDMDL
MODEL 6
REMARK VINA RESULT:      -1.0      1.394      1.683
REMARK  2 active torsions:
REMARK  status: ('A' for Active; 'I' for Inactive)
REMARK    1  A    between atoms: C4_4  and  C7_7 
REMARK    2  A    between atoms: C5_5  and  C8_8 
ROOT
HETATM    1  C1  UNL     1     -32.742   6.423   1.638  1.00 20.00     0.005 C 
HETATM    2  C2  UNL     1     -33.134   5.215   2.472  1.00 20.00     0.006 C 
HETATM    3  C3  UNL     1     -34.022   7.205   3.552  1.00 20.00     0.010 C 
HETATM    4  C4  UNL     1     -32.842   7.574   2.639  1.00 20.00    -0.014 C 
HETATM    5  C5  UNL     1     -34.332   5.726   3.272  1.00 20.00    -0.000 C 
ENDROOT
BRANCH   4   6
HETATM    6  C7  UNL     1     -33.000   8.930   1.972  1.00 20.00     0.000 C 
HETATM    7  C6  UNL     1     -31.938   9.176   0.947  1.00 20.00     0.005 C 
ENDBRANCH   4   6
BRANCH   5   8
HETATM    8  C8  UNL     1     -34.593   4.917   4.533  1.00 20.00     0.119 C 
HETATM    9 CL9  UNL     1     -33.753   3.356   4.449  1.00 20.00    -0.130 Cl
ENDBRANCH   5   8
TORSDOF 2
ENDMDL
MODEL 7
REMARK VINA RESULT:      -0.7      2.221      3.936
REMARK  2 active torsions:
REMARK  status: ('A' for Active; 'I' for Inactive)
REMARK    1  A    between atoms: C4_4  and  C7_7 
REMARK    2  A    between atoms: C5_5  and  C8_8 
ROOT
HETATM    1  C1  UNL     1     -32.638   8.083   2.472  1.00 20.00     0.005 C 
HETATM    2  C2  UNL     1     -31.804   7.296   1.474  1.00 20.00     0.006 C 
HETATM    3  C3  UNL     1     -33.416   5.780   2.482  1.00 20.00     0.010 C 
HETATM    4  C4  UNL     1     -33.182   6.993   3.395  1.00 20.00    -0.014 C 
HETATM    5  C5  UNL     1     -32.690   6.091   1.164  1.00 20.00    -0.000 C 
ENDROOT
BRANCH   4   6
HETATM    6  C7  UNL     1     -34.425   7.423   4.155  1.00 20.00     0.000 C 
HETATM    7  C6  UNL     1     -35.500   6.384   4.103  1.00 20.00     0.005 C 
ENDBRANCH   4   6
BRANCH   5   8
HETATM    8  C8  UNL     1     -31.912   4.908   0.612  1.00 20.00     0.119 C 
HETATM    9 CL9  UNL     1     -32.954   3.914  -0.427  1.00 20.00    -0.130 Cl
ENDBRANCH   5   8
TORSDOF 2
ENDMDL
MODEL 8
REMARK VINA RESULT:      -0.6      1.128      2.626
REMARK  2 active torsions:
REMARK  status: ('A' for Active; 'I' for Inactive)
REMARK    1  A    between atoms: C4_4  and  C7_7 
REMARK    2  A    between atoms: C5_5  and  C8_8 
ROOT
HETATM    1  C1  UNL     1     -31.815   7.587   1.629  1.00 20.00     0.005 C 
HETATM    2  C2  UNL     1     -32.741   8.319   2.586  1.00 20.00     0.006 C 
HETATM    3  C3  UNL     1     -33.294   5.952   2.654  1.00 20.00     0.010 C 
HETATM    4  C4  UNL     1     -32.579   6.296   1.339  1.00 20.00    -0.014 C 
HETATM    5  C5  UNL     1     -33.202   7.211   3.531  1.00 20.00    -0.000 C 
ENDROOT
BRANCH   4   6
HETATM    6  C7  UNL     1     -31.684   5.177   0.831  1.00 20.00     0.000 C 
HETATM    7  C6  UNL     1     -32.442   4.184   0.009  1.00 20.00     0.005 C 
ENDBRANCH   4   6
BRANCH   5   8
HETATM    8  C8  UNL     1     -34.501   7.543   4.246  1.00 20.00     0.119 C 
HETATM    9 CL9  UNL     1     -35.610   6.157   4.186  1.00 20.00    -0.130 Cl
ENDBRANCH   5   8
TORSDOF 2
ENDMDL
MODEL 9
REMARK VINA RESULT:      -0.6      0.981      1.758
REMARK  2 active torsions:
REMARK  status: ('A' for Active; 'I' for Inactive)
REMARK    1  A    between atoms: C4_4  and  C7_7 
REMARK    2  A    between atoms: C5_5  and  C8_8 
ROOT
HETATM    1  C1  UNL     1     -32.339   8.472   3.536  1.00 20.00     0.005 C 
HETATM    2  C2  UNL     1     -33.532   7.985   4.341  1.00 20.00     0.006 C 
HETATM    3  C3  UNL     1     -33.535   6.830   2.201  1.00 20.00     0.010 C 
HETATM    4  C4  UNL     1     -32.739   8.141   2.099  1.00 20.00    -0.014 C 
HETATM    5  C5  UNL     1     -33.856   6.640   3.692  1.00 20.00    -0.000 C 
ENDROOT
BRANCH   4   6
HETATM    6  C7  UNL     1     -31.551   8.051   1.157  1.00 20.00     0.000 C 
HETATM    7  C6  UNL     1     -31.607   9.094   0.086  1.00 20.00     0.005 C 
ENDBRANCH   4   6
BRANCH   5   8
HETATM    8  C8  UNL     1     -35.284   6.186   3.947  1.00 20.00     0.119 C 
HETATM    9 CL9  UNL     1     -35.294   4.593   4.730  1.00 20.00    -0.130 Cl
ENDBRANCH   5   8
TORSDOF 2
ENDMDL
