MODEL 1
REMARK VINA RESULT:      -0.9      0.000      0.000
REMARK  4 active torsions:
REMARK  status: ('A' for Active; 'I' for Inactive)
REMARK    1  A    between atoms: C5_5  and  C7_7 
REMARK    2  A    between atoms: C5_5  and  C8_8 
REMARK    3  A    between atoms: C6_6  and  C7_7 
REMARK    4  A    between atoms: C8_8  and  O9_9 
ROOT
HETATM    1  C5  UNL     1     -33.617   8.020   2.511  1.00 20.00     0.042 C 
ENDROOT
BRANCH   1   2
HETATM    2  C7  UNL     1     -33.835   7.182   3.795  1.00 20.00    -0.002 C 
HETATM    3  C1  UNL     1     -33.673   8.089   5.024  1.00 20.00     0.011 C 
BRANCH   2   4
HETATM    4  C6  UNL     1     -35.155   6.401   3.865  1.00 20.00     0.119 C 
HETATM    5 CL10 UNL     1     -34.966   4.727   4.441  1.00 20.00    -0.130 Cl
ENDBRANCH   2   4
ENDBRANCH   1   2
BRANCH   1   6
HETATM    6  C8  UNL     1     -32.298   7.807   1.731  1.00 20.00     0.053 C 
HETATM    7  C2  UNL     1     -31.139   8.452   2.501  1.00 20.00     0.045 C 
HETATM    8  C3  UNL     1     -31.989   6.330   1.486  1.00 20.00     0.045 C 
BRANCH   6   9
HETATM    9  O9  UNL     1     -32.366   8.451   0.459  1.00 20.00    -0.386 OA
HETATM   10  C4  UNL     1     -32.411   9.863   0.598  1.00 20.00     0.202 C 
ENDBRANCH   6   9
ENDBRANCH   1   6
TORSDOF 4
ENDMDL
MODEL 2
REMARK VINA RESULT:      -0.7      2.726      4.536
REMARK  4 active torsions:
REMARK  status: ('A' for Active; 'I' for Inactive)
REMARK    1  A    between atoms: C5_5  and  C7_7 
REMARK    2  A    between atoms: C5_5  and  C8_8 
REMARK    3  A    between atoms: C6_6  and  C7_7 
REMARK    4  A    between atoms: C8_8  and  O9_9 
ROOT
HETATM    1  C5  UNL     1     -33.708   6.935   2.232  1.00 20.00     0.042 C 
ENDROOT
BRANCH   1   2
HETATM    2  C7  UNL     1     -32.222   6.666   1.884  1.00 20.00    -0.002 C 
HETATM    3  C1  UNL     1     -32.133   5.455   0.945  1.00 20.00     0.011 C 
BRANCH   2   4
HETATM    4  C6  UNL     1     -31.446   7.860   1.308  1.00 20.00     0.119 C 
HETATM    5 CL10 UNL     1     -32.488   9.212   0.800  1.00 20.00    -0.130 Cl
ENDBRANCH   2   4
ENDBRANCH   1   2
BRANCH   1   6
HETATM    6  C8  UNL     1     -34.180   6.600   3.665  1.00 20.00     0.053 C 
HETATM    7  C2  UNL     1     -33.854   7.772   4.599  1.00 20.00     0.045 C 
HETATM    8  C3  UNL     1     -35.676   6.291   3.737  1.00 20.00     0.045 C 
BRANCH   6   9
HETATM    9  O9  UNL     1     -33.480   5.460   4.163  1.00 20.00    -0.386 OA
HETATM   10  C4  UNL     1     -34.265   4.283   4.052  1.00 20.00     0.202 C 
ENDBRANCH   6   9
ENDBRANCH   1   6
TORSDOF 4
ENDMDL
MODEL 3
REMARK VINA RESULT:      -0.4      0.887      1.874
REMARK  4 active torsions:
REMARK  status: ('A' for Active; 'I' for Inactive)
REMARK    1  A    between atoms: C5_5  and  C7_7 
REMARK    2  A    between atoms: C5_5  and  C8_8 
REMARK    3  A    between atoms: C6_6  and  C7_7 
REMARK    4  A    between atoms: C8_8  and  O9_9 
ROOT
HETATM    1  C5  UNL     1     -33.647   7.699   2.463  1.00 20.00     0.042 C 
ENDROOT
BRANCH   1   2
HETATM    2  C7  UNL     1     -33.816   7.076   3.871  1.00 20.00    -0.002 C 
HETATM    3  C1  UNL     1     -33.891   8.199   4.915  1.00 20.00     0.011 C 
BRANCH   2   4
HETATM    4  C6  UNL     1     -34.993   6.103   4.031  1.00 20.00     0.119 C 
HETATM    5 CL10 UNL     1     -34.496   4.406   4.241  1.00 20.00    -0.130 Cl
ENDBRANCH   2   4
ENDBRANCH   1   2
BRANCH   1   6
HETATM    6  C8  UNL     1     -32.206   7.910   1.941  1.00 20.00     0.053 C 
HETATM    7  C2  UNL     1     -32.236   8.829   0.713  1.00 20.00     0.045 C 
HETATM    8  C3  UNL     1     -31.276   8.503   3.000  1.00 20.00     0.045 C 
BRANCH   6   9
HETATM    9  O9  UNL     1     -31.645   6.667   1.520  1.00 20.00    -0.386 OA
HETATM   10  C4  UNL     1     -32.658   5.731   1.184  1.00 20.00     0.202 C 
ENDBRANCH   6   9
ENDBRANCH   1   6
TORSDOF 4
ENDMDL
MODEL 4
REMARK VINA RESULT:      -0.4      1.232      1.485
REMARK  4 active torsions:
REMARK  status: ('A' for Active; 'I' for Inactive)
REMARK    1  A    between atoms: C5_5  and  C7_7 
REMARK    2  A    between atoms: C5_5  and  C8_8 
REMARK    3  A    between atoms: C6_6  and  C7_7 
REMARK    4  A    between atoms: C8_8  and  O9_9 
ROOT
HETATM    1  C5  UNL     1     -33.792   7.326   2.274  1.00 20.00     0.042 C 
ENDROOT
BRANCH   1   2
HETATM    2  C7  UNL     1     -33.879   6.319   3.448  1.00 20.00    -0.002 C 
HETATM    3  C1  UNL     1     -35.300   6.341   4.029  1.00 20.00     0.011 C 
BRANCH   2   4
HETATM    4  C6  UNL     1     -33.444   4.882   3.127  1.00 20.00     0.119 C 
HETATM    5 CL10 UNL     1     -33.849   3.710   4.404  1.00 20.00    -0.130 Cl
ENDBRANCH   2   4
ENDBRANCH   1   2
BRANCH   1   6
HETATM    6  C8  UNL     1     -32.484   8.136   2.120  1.00 20.00     0.053 C 
HETATM    7  C2  UNL     1     -31.912   8.453   3.507  1.00 20.00     0.045 C 
HETATM    8  C3  UNL     1     -31.430   7.404   1.288  1.00 20.00     0.045 C 
BRANCH   6   9
HETATM    9  O9  UNL     1     -32.748   9.385   1.481  1.00 20.00    -0.386 OA
HETATM   10  C4  UNL     1     -32.083   9.475   0.230  1.00 20.00     0.202 C 
ENDBRANCH   6   9
ENDBRANCH   1   6
TORSDOF 4
ENDMDL
MODEL 5
REMARK VINA RESULT:      -0.3      1.794      2.491
REMARK  4 active torsions:
REMARK  status: ('A' for Active; 'I' for Inactive)
REMARK    1  A    between atoms: C5_5  and  C7_7 
REMARK    2  A    between atoms: C5_5  and  C8_8 
REMARK    3  A    between atoms: C6_6  and  C7_7 
REMARK    4  A    between atoms: C8_8  and  O9_9 
ROOT
HETATM    1  C5  UNL     1     -33.210   5.776   3.050  1.00 20.00     0.042 C 
ENDROOT
BRANCH   1   2
HETATM    2  C7  UNL     1     -34.547   6.438   3.466  1.00 20.00    -0.002 C 
HETATM    3  C1  UNL     1     -35.333   5.472   4.364  1.00 20.00     0.011 C 
BRANCH   2   4
HETATM    4  C6  UNL     1     -34.429   7.820   4.125  1.00 20.00     0.119 C 
HETATM    5 CL10 UNL     1     -32.867   8.095   4.935  1.00 20.00    -0.130 Cl
ENDBRANCH   2   4
ENDBRANCH   1   2
BRANCH   1   6
HETATM    6  C8  UNL     1     -32.608   6.174   1.682  1.00 20.00     0.053 C 
HETATM    7  C2  UNL     1     -31.794   5.001   1.121  1.00 20.00     0.045 C 
HETATM    8  C3  UNL     1     -33.672   6.590   0.667  1.00 20.00     0.045 C 
BRANCH   6   9
HETATM    9  O9  UNL     1     -31.708   7.271   1.839  1.00 20.00    -0.386 OA
HETATM   10  C4  UNL     1     -32.224   8.451   1.241  1.00 20.00     0.202 C 
ENDBRANCH   6   9
ENDBRANCH   1   6
TORSDOF 4
ENDMDL
MODEL 6
REMARK VINA RESULT:      -0.2      1.828      2.644
REMARK  4 active torsions:
REMARK  status: ('A' for Active; 'I' for Inactive)
REMARK    1  A    between atoms: C5_5  and  C7_7 
REMARK    2  A    between atoms: C5_5  and  C8_8 
REMARK    3  A    between atoms: C6_6  and  C7_7 
REMARK    4  A    between atoms: C8_8  and  O9_9 
ROOT
HETATM    1  C5  UNL     1     -32.835   5.821   2.906  1.00 20.00     0.042 C 
ENDROOT
BRANCH   1   2
HETATM    2  C7  UNL     1     -34.194   5.212   3.332  1.00 20.00    -0.002 C 
HETATM    3  C1  UNL     1     -33.943   3.961   4.186  1.00 20.00     0.011 C 
BRANCH   2   4
HETATM    4  C6  UNL     1     -35.160   6.172   4.043  1.00 20.00     0.119 C 
HETATM    5 CL10 UNL     1     -34.443   7.757   4.423  1.00 20.00    -0.130 Cl
ENDBRANCH   2   4
ENDBRANCH   1   2
BRANCH   1   6
HETATM    6  C8  UNL     1     -32.497   5.835   1.397  1.00 20.00     0.053 C 
HETATM    7  C2  UNL     1     -31.529   4.690   1.078  1.00 20.00     0.045 C 
HETATM    8  C3  UNL     1     -33.739   5.715   0.513  1.00 20.00     0.045 C 
BRANCH   6   9
HETATM    9  O9  UNL     1     -31.836   7.052   1.049  1.00 20.00    -0.386 OA
HETATM   10  C4  UNL     1     -32.078   8.064   2.014  1.00 20.00     0.202 C 
ENDBRANCH   6   9
ENDBRANCH   1   6
TORSDOF 4
ENDMDL
MODEL 7
REMARK VINA RESULT:      -0.1      2.649      4.296
REMARK  4 active torsions:
REMARK  status: ('A' for Active; 'I' for Inactive)
REMARK    1  A    between atoms: C5_5  and  C7_7 
REMARK    2  A    between atoms: C5_5  and  C8_8 
REMARK    3  A    between atoms: C6_6  and  C7_7 
REMARK    4  A    between atoms: C8_8  and  O9_9 
ROOT
HETATM    1  C5  UNL     1     -33.722   6.379   2.136  1.00 20.00     0.042 C 
ENDROOT
BRANCH   1   2
HETATM    2  C7  UNL     1     -32.207   6.224   1.851  1.00 20.00    -0.002 C 
HETATM    3  C1  UNL     1     -32.005   5.180   0.744  1.00 20.00     0.011 C 
BRANCH   2   4
HETATM    4  C6  UNL     1     -31.456   7.522   1.520  1.00 20.00     0.119 C 
HETATM    5 CL10 UNL     1     -32.525   8.872   1.068  1.00 20.00    -0.130 Cl
ENDBRANCH   2   4
ENDBRANCH   1   2
BRANCH   1   6
HETATM    6  C8  UNL     1     -34.220   6.057   3.564  1.00 20.00     0.053 C 
HETATM    7  C2  UNL     1     -35.693   6.463   3.697  1.00 20.00     0.045 C 
HETATM    8  C3  UNL     1     -34.062   4.580   3.926  1.00 20.00     0.045 C 
BRANCH   6   9
HETATM    9  O9  UNL     1     -33.488   6.817   4.526  1.00 20.00    -0.386 OA
HETATM   10  C4  UNL     1     -33.835   8.192   4.469  1.00 20.00     0.202 C 
ENDBRANCH   6   9
ENDBRANCH   1   6
TORSDOF 4
ENDMDL
MODEL 8
REMARK VINA RESULT:       0.2      2.060      3.116
REMARK  4 active torsions:
REMARK  status: ('A' for Active; 'I' for Inactive)
REMARK    1  A    between atoms: C5_5  and  C7_7 
REMARK    2  A    between atoms: C5_5  and  C8_8 
REMARK    3  A    between atoms: C6_6  and  C7_7 
REMARK    4  A    between atoms: C8_8  and  O9_9 
ROOT
HETATM    1  C5  UNL     1     -33.193   5.777   3.075  1.00 20.00     0.042 C 
ENDROOT
BRANCH   1   2
HETATM    2  C7  UNL     1     -34.544   6.429   3.462  1.00 20.00    -0.002 C 
HETATM    3  C1  UNL     1     -35.321   5.475   4.381  1.00 20.00     0.011 C 
BRANCH   2   4
HETATM    4  C6  UNL     1     -34.452   7.830   4.084  1.00 20.00     0.119 C 
HETATM    5 CL10 UNL     1     -33.014   8.068   5.106  1.00 20.00    -0.130 Cl
ENDBRANCH   2   4
ENDBRANCH   1   2
BRANCH   1   6
HETATM    6  C8  UNL     1     -32.583   6.153   1.705  1.00 20.00     0.053 C 
HETATM    7  C2  UNL     1     -33.628   5.938   0.603  1.00 20.00     0.045 C 
HETATM    8  C3  UNL     1     -32.081   7.596   1.658  1.00 20.00     0.045 C 
BRANCH   6   9
HETATM    9  O9  UNL     1     -31.477   5.302   1.405  1.00 20.00    -0.386 OA
HETATM   10  C4  UNL     1     -31.789   4.402   0.353  1.00 20.00     0.202 C 
ENDBRANCH   6   9
ENDBRANCH   1   6
TORSDOF 4
ENDMDL
MODEL 9
REMARK VINA RESULT:       0.2      1.804      2.449
REMARK  4 active torsions:
REMARK  status: ('A' for Active; 'I' for Inactive)
REMARK    1  A    between atoms: C5_5  and  C7_7 
REMARK    2  A    between atoms: C5_5  and  C8_8 
REMARK    3  A    between atoms: C6_6  and  C7_7 
REMARK    4  A    between atoms: C8_8  and  O9_9 
ROOT
HETATM    1  C5  UNL     1     -33.814   5.063   2.375  1.00 20.00     0.042 C 
ENDROOT
BRANCH   1   2
HETATM    2  C7  UNL     1     -34.120   5.384   3.860  1.00 20.00    -0.002 C 
HETATM    3  C1  UNL     1     -35.299   6.365   3.933  1.00 20.00     0.011 C 
BRANCH   2   4
HETATM    4  C6  UNL     1     -34.366   4.169   4.767  1.00 20.00     0.119 C 
HETATM    5 CL10 UNL     1     -33.064   2.956   4.707  1.00 20.00    -0.130 Cl
ENDBRANCH   2   4
ENDBRANCH   1   2
BRANCH   1   6
HETATM    6  C8  UNL     1     -32.889   6.035   1.608  1.00 20.00     0.053 C 
HETATM    7  C2  UNL     1     -31.524   5.372   1.383  1.00 20.00     0.045 C 
HETATM    8  C3  UNL     1     -33.473   6.470   0.264  1.00 20.00     0.045 C 
BRANCH   6   9
HETATM    9  O9  UNL     1     -32.660   7.214   2.380  1.00 20.00    -0.386 OA
HETATM   10  C4  UNL     1     -31.856   8.146   1.674  1.00 20.00     0.202 C 
ENDBRANCH   6   9
ENDBRANCH   1   6
TORSDOF 4
ENDMDL
