MODEL 1
REMARK VINA RESULT:       0.9      0.000      0.000
REMARK  2 active torsions:
REMARK  status: ('A' for Active; 'I' for Inactive)
REMARK    1  A    between atoms: C1_1  and  C7_7 
REMARK    2  A    between atoms: C8_8  and  C12_12 
ROOT
HETATM    1  C2  UNL     1     -32.830   5.470   1.476  1.00 20.00     0.001 C 
HETATM    2  C3  UNL     1     -33.217   5.343   2.947  1.00 20.00     0.011 C 
HETATM    3  C4  UNL     1     -34.066   7.656   3.703  1.00 20.00     0.012 C 
HETATM    4  C5  UNL     1     -32.137   6.773   1.090  1.00 20.00     0.005 C 
HETATM    5  C6  UNL     1     -32.929   8.333   2.937  1.00 20.00     0.006 C 
HETATM    6  C7  UNL     1     -34.416   6.221   3.312  1.00 20.00     0.047 C 
HETATM    7  C8  UNL     1     -32.906   8.061   1.426  1.00 20.00    -0.007 C 
ENDROOT
BRANCH   7   8
HETATM    8  C12 UNL     1     -32.229   9.239   0.711  1.00 20.00    -0.048 C 
HETATM    9  C9  UNL     1     -30.708   9.029   0.706  1.00 20.00     0.015 C 
HETATM   10  C10 UNL     1     -32.562  10.546   1.447  1.00 20.00     0.015 C 
HETATM   11  C11 UNL     1     -32.738   9.323  -0.735  1.00 20.00     0.015 C 
ENDBRANCH   7   8
BRANCH   6  12
HETATM   12  C1  UNL     1     -35.153   5.593   4.460  1.00 20.00     0.235 C 
HETATM   13  O13 UNL     1     -35.134   4.389   4.698  1.00 20.00    -0.306 OA
ENDBRANCH   6  12
TORSDOF 2
ENDMDL
MODEL 2
REMARK VINA RESULT:       2.0      1.095      2.089
REMARK  2 active torsions:
REMARK  status: ('A' for Active; 'I' for Inactive)
REMARK    1  A    between atoms: C1_1  and  C7_7 
REMARK    2  A    between atoms: C8_8  and  C12_12 
ROOT
HETATM    1  C2  UNL     1     -34.237   7.561   4.146  1.00 20.00     0.001 C 
HETATM    2  C3  UNL     1     -34.684   6.121   3.904  1.00 20.00     0.011 C 
HETATM    3  C4  UNL     1     -33.114   5.138   2.113  1.00 20.00     0.012 C 
HETATM    4  C5  UNL     1     -33.815   8.334   2.901  1.00 20.00     0.005 C 
HETATM    5  C6  UNL     1     -33.189   6.442   1.319  1.00 20.00     0.006 C 
HETATM    6  C7  UNL     1     -33.510   5.192   3.588  1.00 20.00     0.047 C 
HETATM    7  C8  UNL     1     -32.696   7.691   2.065  1.00 20.00    -0.007 C 
ENDROOT
BRANCH   7   8
HETATM    8  C12 UNL     1     -32.190   8.720   1.046  1.00 20.00    -0.048 C 
HETATM    9  C9  UNL     1     -30.657   8.667   0.980  1.00 20.00     0.015 C 
HETATM   10  C10 UNL     1     -32.634  10.127   1.474  1.00 20.00     0.015 C 
HETATM   11  C11 UNL     1     -32.772   8.401  -0.339  1.00 20.00     0.015 C 
ENDBRANCH   7   8
BRANCH   6  12
HETATM   12  C1  UNL     1     -33.854   3.799   4.028  1.00 20.00     0.235 C 
HETATM   13  O13 UNL     1     -33.139   3.126   4.764  1.00 20.00    -0.306 OA
ENDBRANCH   6  12
TORSDOF 2
ENDMDL
MODEL 3
REMARK VINA RESULT:       2.0      1.093      2.388
REMARK  2 active torsions:
REMARK  status: ('A' for Active; 'I' for Inactive)
REMARK    1  A    between atoms: C1_1  and  C7_7 
REMARK    2  A    between atoms: C8_8  and  C12_12 
ROOT
HETATM    1  C2  UNL     1     -34.255   7.558   4.134  1.00 20.00     0.001 C 
HETATM    2  C3  UNL     1     -34.692   6.114   3.892  1.00 20.00     0.011 C 
HETATM    3  C4  UNL     1     -33.100   5.134   2.119  1.00 20.00     0.012 C 
HETATM    4  C5  UNL     1     -33.825   8.329   2.890  1.00 20.00     0.005 C 
HETATM    5  C6  UNL     1     -33.175   6.435   1.320  1.00 20.00     0.006 C 
HETATM    6  C7  UNL     1     -33.511   5.191   3.590  1.00 20.00     0.047 C 
HETATM    7  C8  UNL     1     -32.694   7.688   2.067  1.00 20.00    -0.007 C 
ENDROOT
BRANCH   7   8
HETATM    8  C12 UNL     1     -32.184   8.717   1.049  1.00 20.00    -0.048 C 
HETATM    9  C9  UNL     1     -32.781   8.413  -0.333  1.00 20.00     0.015 C 
HETATM   10  C10 UNL     1     -30.652   8.645   0.970  1.00 20.00     0.015 C 
HETATM   11  C11 UNL     1     -32.606  10.127   1.489  1.00 20.00     0.015 C 
ENDBRANCH   7   8
BRANCH   6  12
HETATM   12  C1  UNL     1     -33.852   3.797   4.032  1.00 20.00     0.235 C 
HETATM   13  O13 UNL     1     -33.148   3.136   4.790  1.00 20.00    -0.306 OA
ENDBRANCH   6  12
TORSDOF 2
ENDMDL
MODEL 4
REMARK VINA RESULT:       3.6      2.457      5.160
REMARK  2 active torsions:
REMARK  status: ('A' for Active; 'I' for Inactive)
REMARK    1  A    between atoms: C1_1  and  C7_7 
REMARK    2  A    between atoms: C8_8  and  C12_12 
ROOT
HETATM    1  C2  UNL     1     -31.984   5.405   1.104  1.00 20.00     0.001 C 
HETATM    2  C3  UNL     1     -32.484   6.829   0.867  1.00 20.00     0.011 C 
HETATM    3  C4  UNL     1     -33.355   7.706   3.128  1.00 20.00     0.012 C 
HETATM    4  C5  UNL     1     -32.835   4.561   2.047  1.00 20.00     0.005 C 
HETATM    5  C6  UNL     1     -34.020   6.358   3.404  1.00 20.00     0.006 C 
HETATM    6  C7  UNL     1     -32.248   7.738   2.074  1.00 20.00     0.047 C 
HETATM    7  C8  UNL     1     -33.066   5.155   3.447  1.00 20.00    -0.007 C 
ENDROOT
BRANCH   7   8
HETATM    8  C12 UNL     1     -33.665   4.067   4.350  1.00 20.00    -0.048 C 
HETATM    9  C9  UNL     1     -35.065   4.497   4.811  1.00 20.00     0.015 C 
HETATM   10  C10 UNL     1     -32.763   3.864   5.576  1.00 20.00     0.015 C 
HETATM   11  C11 UNL     1     -33.767   2.749   3.567  1.00 20.00     0.015 C 
ENDBRANCH   7   8
BRANCH   6  12
HETATM   12  C1  UNL     1     -32.098   9.154   1.600  1.00 20.00     0.235 C 
HETATM   13  O13 UNL     1     -32.424   9.531   0.479  1.00 20.00    -0.306 OA
ENDBRANCH   6  12
TORSDOF 2
ENDMDL
