MODEL 1
REMARK VINA RESULT:      -2.8      0.000      0.000
REMARK  2 active torsions:
REMARK  status: ('A' for Active; 'I' for Inactive)
REMARK    1  A    between atoms: C5_5  and  C6_6 
REMARK    2  A    between atoms: C6_6  and  C7_7 
ROOT
HETATM    1  C1  UNL     1     -32.520   9.871   0.127  1.00 20.00     0.012 C 
HETATM    2  C2  UNL     1     -32.311   9.036   0.964  1.00 20.00    -0.117 C 
HETATM    3  C5  UNL     1     -32.047   8.012   1.989  1.00 20.00     0.098 C 
ENDROOT
BRANCH   3   4
HETATM    4  C6  UNL     1     -33.186   6.973   2.077  1.00 20.00     0.006 C 
HETATM    5  C3  UNL     1     -32.758   5.651   1.419  1.00 20.00     0.012 C 
BRANCH   4   6
HETATM    6  C7  UNL     1     -33.663   6.705   3.522  1.00 20.00     0.058 C 
HETATM    7  C4  UNL     1     -35.146   6.401   3.685  1.00 20.00     0.022 C 
HETATM    8 BR8  UNL     1     -33.219   8.246   4.663  1.00 20.00    -0.091 Br
ENDBRANCH   4   6
ENDBRANCH   3   4
TORSDOF 2
ENDMDL
MODEL 2
REMARK VINA RESULT:      -2.7      1.427      1.485
REMARK  2 active torsions:
REMARK  status: ('A' for Active; 'I' for Inactive)
REMARK    1  A    between atoms: C5_5  and  C6_6 
REMARK    2  A    between atoms: C6_6  and  C7_7 
ROOT
HETATM    1  C1  UNL     1     -32.420   9.849   0.236  1.00 20.00     0.012 C 
HETATM    2  C2  UNL     1     -32.273   8.955   1.025  1.00 20.00    -0.117 C 
HETATM    3  C5  UNL     1     -32.086   7.861   1.992  1.00 20.00     0.098 C 
ENDROOT
BRANCH   3   4
HETATM    4  C6  UNL     1     -33.112   6.724   1.787  1.00 20.00     0.006 C 
HETATM    5  C3  UNL     1     -32.391   5.390   1.536  1.00 20.00     0.012 C 
BRANCH   4   6
HETATM    6  C7  UNL     1     -34.100   6.569   2.964  1.00 20.00     0.058 C 
HETATM    7  C4  UNL     1     -33.934   7.562   4.106  1.00 20.00     0.022 C 
HETATM    8 BR8  UNL     1     -33.968   4.749   3.704  1.00 20.00    -0.091 Br
ENDBRANCH   4   6
ENDBRANCH   3   4
TORSDOF 2
ENDMDL
MODEL 3
REMARK VINA RESULT:      -1.9      2.063      2.668
REMARK  2 active torsions:
REMARK  status: ('A' for Active; 'I' for Inactive)
REMARK    1  A    between atoms: C5_5  and  C6_6 
REMARK    2  A    between atoms: C6_6  and  C7_7 
ROOT
HETATM    1  C1  UNL     1     -31.693   8.340   1.366  1.00 20.00     0.012 C 
HETATM    2  C2  UNL     1     -32.316   7.342   1.611  1.00 20.00    -0.117 C 
HETATM    3  C5  UNL     1     -33.081   6.119   1.905  1.00 20.00     0.098 C 
ENDROOT
BRANCH   3   4
HETATM    4  C6  UNL     1     -33.471   6.023   3.396  1.00 20.00     0.006 C 
HETATM    5  C3  UNL     1     -34.141   7.326   3.860  1.00 20.00     0.012 C 
BRANCH   4   6
HETATM    6  C7  UNL     1     -34.389   4.823   3.715  1.00 20.00     0.058 C 
HETATM    7  C4  UNL     1     -35.534   5.101   4.679  1.00 20.00     0.022 C 
HETATM    8 BR8  UNL     1     -33.317   3.342   4.443  1.00 20.00    -0.091 Br
ENDBRANCH   4   6
ENDBRANCH   3   4
TORSDOF 2
ENDMDL
MODEL 4
REMARK VINA RESULT:      -1.8      1.987      4.263
REMARK  2 active torsions:
REMARK  status: ('A' for Active; 'I' for Inactive)
REMARK    1  A    between atoms: C5_5  and  C6_6 
REMARK    2  A    between atoms: C6_6  and  C7_7 
ROOT
HETATM    1  C1  UNL     1     -33.159   2.876   4.792  1.00 20.00     0.012 C 
HETATM    2  C2  UNL     1     -33.588   3.794   4.147  1.00 20.00    -0.117 C 
HETATM    3  C5  UNL     1     -34.120   4.915   3.355  1.00 20.00     0.098 C 
ENDROOT
BRANCH   3   4
HETATM    4  C6  UNL     1     -33.005   5.675   2.604  1.00 20.00     0.006 C 
HETATM    5  C3  UNL     1     -32.819   5.097   1.192  1.00 20.00     0.012 C 
BRANCH   4   6
HETATM    6  C7  UNL     1     -33.253   7.198   2.514  1.00 20.00     0.058 C 
HETATM    7  C4  UNL     1     -32.065   8.038   2.068  1.00 20.00     0.022 C 
HETATM    8 BR8  UNL     1     -33.867   7.874   4.258  1.00 20.00    -0.091 Br
ENDBRANCH   4   6
ENDBRANCH   3   4
TORSDOF 2
ENDMDL
MODEL 5
REMARK VINA RESULT:      -1.7      2.091      4.469
REMARK  2 active torsions:
REMARK  status: ('A' for Active; 'I' for Inactive)
REMARK    1  A    between atoms: C5_5  and  C6_6 
REMARK    2  A    between atoms: C6_6  and  C7_7 
ROOT
HETATM    1  C1  UNL     1     -33.833   3.848   4.447  1.00 20.00     0.012 C 
HETATM    2  C2  UNL     1     -34.404   4.854   4.121  1.00 20.00    -0.117 C 
HETATM    3  C5  UNL     1     -35.109   6.082   3.719  1.00 20.00     0.098 C 
ENDROOT
BRANCH   3   4
HETATM    4  C6  UNL     1     -34.133   7.252   3.461  1.00 20.00     0.006 C 
HETATM    5  C3  UNL     1     -33.726   7.912   4.788  1.00 20.00     0.012 C 
BRANCH   4   6
HETATM    6  C7  UNL     1     -32.869   6.836   2.677  1.00 20.00     0.058 C 
HETATM    7  C4  UNL     1     -32.018   7.976   2.136  1.00 20.00     0.022 C 
HETATM    8 BR8  UNL     1     -33.376   5.676   1.170  1.00 20.00    -0.091 Br
ENDBRANCH   4   6
ENDBRANCH   3   4
TORSDOF 2
ENDMDL
MODEL 6
REMARK VINA RESULT:      -1.6      2.360      4.286
REMARK  2 active torsions:
REMARK  status: ('A' for Active; 'I' for Inactive)
REMARK    1  A    between atoms: C5_5  and  C6_6 
REMARK    2  A    between atoms: C6_6  and  C7_7 
ROOT
HETATM    1  C1  UNL     1     -33.194   2.734   4.890  1.00 20.00     0.012 C 
HETATM    2  C2  UNL     1     -33.611   3.667   4.260  1.00 20.00    -0.117 C 
HETATM    3  C5  UNL     1     -34.130   4.807   3.485  1.00 20.00     0.098 C 
ENDROOT
BRANCH   3   4
HETATM    4  C6  UNL     1     -32.995   5.623   2.827  1.00 20.00     0.006 C 
HETATM    5  C3  UNL     1     -33.112   5.565   1.295  1.00 20.00     0.012 C 
BRANCH   4   6
HETATM    6  C7  UNL     1     -32.951   7.097   3.289  1.00 20.00     0.058 C 
HETATM    7  C4  UNL     1     -34.265   7.671   3.801  1.00 20.00     0.022 C 
HETATM    8 BR8  UNL     1     -32.312   8.235   1.817  1.00 20.00    -0.091 Br
ENDBRANCH   4   6
ENDBRANCH   3   4
TORSDOF 2
ENDMDL
MODEL 7
REMARK VINA RESULT:      -1.2      1.623      3.076
REMARK  2 active torsions:
REMARK  status: ('A' for Active; 'I' for Inactive)
REMARK    1  A    between atoms: C5_5  and  C6_6 
REMARK    2  A    between atoms: C6_6  and  C7_7 
ROOT
HETATM    1  C1  UNL     1     -31.344   4.527   0.508  1.00 20.00     0.012 C 
HETATM    2  C2  UNL     1     -32.224   5.148   1.039  1.00 20.00    -0.117 C 
HETATM    3  C5  UNL     1     -33.308   5.908   1.685  1.00 20.00     0.098 C 
ENDROOT
BRANCH   3   4
HETATM    4  C6  UNL     1     -32.764   6.996   2.637  1.00 20.00     0.006 C 
HETATM    5  C3  UNL     1     -32.117   8.137   1.835  1.00 20.00     0.012 C 
BRANCH   4   6
HETATM    6  C7  UNL     1     -33.838   7.573   3.587  1.00 20.00     0.058 C 
HETATM    7  C4  UNL     1     -33.324   8.139   4.903  1.00 20.00     0.022 C 
HETATM    8 BR8  UNL     1     -35.177   6.188   3.992  1.00 20.00    -0.091 Br
ENDBRANCH   4   6
ENDBRANCH   3   4
TORSDOF 2
ENDMDL
MODEL 8
REMARK VINA RESULT:      -1.1      1.555      2.175
REMARK  2 active torsions:
REMARK  status: ('A' for Active; 'I' for Inactive)
REMARK    1  A    between atoms: C5_5  and  C6_6 
REMARK    2  A    between atoms: C6_6  and  C7_7 
ROOT
HETATM    1  C1  UNL     1     -32.675  10.626   0.369  1.00 20.00     0.012 C 
HETATM    2  C2  UNL     1     -32.303   9.486   0.438  1.00 20.00    -0.117 C 
HETATM    3  C5  UNL     1     -31.851   8.087   0.515  1.00 20.00     0.098 C 
ENDROOT
BRANCH   3   4
HETATM    4  C6  UNL     1     -31.838   7.561   1.968  1.00 20.00     0.006 C 
HETATM    5  C3  UNL     1     -32.357   8.639   2.932  1.00 20.00     0.012 C 
BRANCH   4   6
HETATM    6  C7  UNL     1     -32.650   6.260   2.157  1.00 20.00     0.058 C 
HETATM    7  C4  UNL     1     -33.162   5.606   0.881  1.00 20.00     0.022 C 
HETATM    8 BR8  UNL     1     -34.189   6.603   3.335  1.00 20.00    -0.091 Br
ENDBRANCH   4   6
ENDBRANCH   3   4
TORSDOF 2
ENDMDL
MODEL 9
REMARK VINA RESULT:      -1.1      1.896      2.458
REMARK  2 active torsions:
REMARK  status: ('A' for Active; 'I' for Inactive)
REMARK    1  A    between atoms: C5_5  and  C6_6 
REMARK    2  A    between atoms: C6_6  and  C7_7 
ROOT
HETATM    1  C1  UNL     1     -32.931  10.652   0.291  1.00 20.00     0.012 C 
HETATM    2  C2  UNL     1     -32.267   9.662   0.437  1.00 20.00    -0.117 C 
HETATM    3  C5  UNL     1     -31.452   8.448   0.609  1.00 20.00     0.098 C 
ENDROOT
BRANCH   3   4
HETATM    4  C6  UNL     1     -31.788   7.705   1.921  1.00 20.00     0.006 C 
HETATM    5  C3  UNL     1     -32.023   8.710   3.060  1.00 20.00     0.012 C 
BRANCH   4   6
HETATM    6  C7  UNL     1     -33.006   6.763   1.799  1.00 20.00     0.058 C 
HETATM    7  C4  UNL     1     -33.800   6.535   3.078  1.00 20.00     0.022 C 
HETATM    8 BR8  UNL     1     -32.424   5.012   1.114  1.00 20.00    -0.091 Br
ENDBRANCH   4   6
ENDBRANCH   3   4
TORSDOF 2
ENDMDL
