MODEL 1
REMARK VINA RESULT:      -2.5      0.000      0.000
REMARK  3 active torsions:
REMARK  status: ('A' for Active; 'I' for Inactive)
REMARK    1  A    between atoms: C3_3  and  N7_7 
REMARK    2  A    between atoms: C5_5  and  C6_6 
REMARK    3  A    between atoms: C5_5  and  N7_7 
ROOT
HETATM    1  N7  UNL     1     -31.831   8.085   2.084  1.00 20.00     0.093 N 
HETATM    2  H20 UNL     1     -31.818   8.772   2.838  1.00 20.00     0.316 HD
ENDROOT
BRANCH   1   3
HETATM    3  C3  UNL     1     -33.133   7.436   2.052  1.00 20.00     0.223 C 
HETATM    4  C1  UNL     1     -32.940   5.915   1.864  1.00 20.00     0.055 C 
HETATM    5  C4  UNL     1     -34.024   5.735   2.960  1.00 20.00     0.086 C 
HETATM    6  C2  UNL     1     -33.582   7.121   3.498  1.00 20.00     0.055 C 
HETATM    7 CL10 UNL     1     -33.926   4.322   4.043  1.00 20.00    -0.125 Cl
ENDBRANCH   1   3
BRANCH   1   8
HETATM    8  C5  UNL     1     -31.553   8.755   0.821  1.00 20.00     0.340 C 
BRANCH   8   9
HETATM    9  C6  UNL     1     -32.671   9.716   0.471  1.00 20.00     0.381 C 
HETATM   10  F8  UNL     1     -32.964   9.622  -0.851  1.00 20.00    -0.213 F 
HETATM   11  F9  UNL     1     -32.243  10.987   0.680  1.00 20.00    -0.213 F 
ENDBRANCH   8   9
ENDBRANCH   1   8
TORSDOF 3
ENDMDL
MODEL 2
REMARK VINA RESULT:      -2.2      1.140      1.746
REMARK  3 active torsions:
REMARK  status: ('A' for Active; 'I' for Inactive)
REMARK    1  A    between atoms: C3_3  and  N7_7 
REMARK    2  A    between atoms: C5_5  and  C6_6 
REMARK    3  A    between atoms: C5_5  and  N7_7 
ROOT
HETATM    1  N7  UNL     1     -31.824   7.928   1.035  1.00 20.00     0.093 N 
HETATM    2  H20 UNL     1     -30.857   8.253   1.033  1.00 20.00     0.316 HD
ENDROOT
BRANCH   1   3
HETATM    3  C3  UNL     1     -32.019   7.017   2.153  1.00 20.00     0.223 C 
HETATM    4  C1  UNL     1     -32.897   7.704   3.223  1.00 20.00     0.055 C 
HETATM    5  C4  UNL     1     -33.661   6.357   3.327  1.00 20.00     0.086 C 
HETATM    6  C2  UNL     1     -33.230   6.102   1.859  1.00 20.00     0.055 C 
HETATM    7 CL10 UNL     1     -35.401   6.383   3.720  1.00 20.00    -0.125 Cl
ENDBRANCH   1   3
BRANCH   1   8
HETATM    8  C5  UNL     1     -32.715   9.075   1.137  1.00 20.00     0.340 C 
BRANCH   8   9
HETATM    9  C6  UNL     1     -32.345  10.129   0.114  1.00 20.00     0.381 C 
HETATM   10  F8  UNL     1     -32.315  11.352   0.700  1.00 20.00    -0.213 F 
HETATM   11  F9  UNL     1     -33.311  10.181  -0.838  1.00 20.00    -0.213 F 
ENDBRANCH   8   9
ENDBRANCH   1   8
TORSDOF 3
ENDMDL
MODEL 3
REMARK VINA RESULT:      -2.2      0.475      1.028
REMARK  3 active torsions:
REMARK  status: ('A' for Active; 'I' for Inactive)
REMARK    1  A    between atoms: C3_3  and  N7_7 
REMARK    2  A    between atoms: C5_5  and  C6_6 
REMARK    3  A    between atoms: C5_5  and  N7_7 
ROOT
HETATM    1  N7  UNL     1     -32.224   8.219   2.235  1.00 20.00     0.093 N 
HETATM    2  H20 UNL     1     -32.413   9.126   2.663  1.00 20.00     0.316 HD
ENDROOT
BRANCH   1   3
HETATM    3  C3  UNL     1     -33.448   7.432   2.222  1.00 20.00     0.223 C 
HETATM    4  C1  UNL     1     -33.096   5.945   1.992  1.00 20.00     0.055 C 
HETATM    5  C4  UNL     1     -34.122   5.625   3.112  1.00 20.00     0.086 C 
HETATM    6  C2  UNL     1     -33.818   7.040   3.671  1.00 20.00     0.055 C 
HETATM    7 CL10 UNL     1     -33.841   4.208   4.158  1.00 20.00    -0.125 Cl
ENDBRANCH   1   3
BRANCH   1   8
HETATM    8  C5  UNL     1     -31.722   8.421   0.884  1.00 20.00     0.340 C 
BRANCH   8   9
HETATM    9  C6  UNL     1     -32.208   9.744   0.328  1.00 20.00     0.381 C 
HETATM   10  F8  UNL     1     -33.033  10.346   1.221  1.00 20.00    -0.213 F 
HETATM   11  F9  UNL     1     -32.951   9.510  -0.785  1.00 20.00    -0.213 F 
ENDBRANCH   8   9
ENDBRANCH   1   8
TORSDOF 3
ENDMDL
MODEL 4
REMARK VINA RESULT:      -2.1      4.845      5.919
REMARK  3 active torsions:
REMARK  status: ('A' for Active; 'I' for Inactive)
REMARK    1  A    between atoms: C3_3  and  N7_7 
REMARK    2  A    between atoms: C5_5  and  C6_6 
REMARK    3  A    between atoms: C5_5  and  N7_7 
ROOT
HETATM    1  N7  UNL     1     -34.548   5.066   4.394  1.00 20.00     0.093 N 
HETATM    2  H20 UNL     1     -34.118   5.415   5.251  1.00 20.00     0.316 HD
ENDROOT
BRANCH   1   3
HETATM    3  C3  UNL     1     -34.640   6.151   3.429  1.00 20.00     0.223 C 
HETATM    4  C1  UNL     1     -33.865   7.376   3.964  1.00 20.00     0.055 C 
HETATM    5  C4  UNL     1     -33.294   7.525   2.529  1.00 20.00     0.086 C 
HETATM    6  C2  UNL     1     -33.517   5.997   2.379  1.00 20.00     0.055 C 
HETATM    7 CL10 UNL     1     -31.647   8.177   2.321  1.00 20.00    -0.125 Cl
ENDBRANCH   1   3
BRANCH   1   8
HETATM    8  C5  UNL     1     -33.747   3.970   3.868  1.00 20.00     0.340 C 
BRANCH   8   9
HETATM    9  C6  UNL     1     -33.438   2.965   4.959  1.00 20.00     0.381 C 
HETATM   10  F8  UNL     1     -32.228   3.238   5.510  1.00 20.00    -0.213 F 
HETATM   11  F9  UNL     1     -33.340   1.728   4.408  1.00 20.00    -0.213 F 
ENDBRANCH   8   9
ENDBRANCH   1   8
TORSDOF 3
ENDMDL
MODEL 5
REMARK VINA RESULT:      -2.1      3.958      4.781
REMARK  3 active torsions:
REMARK  status: ('A' for Active; 'I' for Inactive)
REMARK    1  A    between atoms: C3_3  and  N7_7 
REMARK    2  A    between atoms: C5_5  and  C6_6 
REMARK    3  A    between atoms: C5_5  and  N7_7 
ROOT
HETATM    1  N7  UNL     1     -33.423   6.152   2.558  1.00 20.00     0.093 N 
HETATM    2  H20 UNL     1     -34.133   5.998   1.842  1.00 20.00     0.316 HD
ENDROOT
BRANCH   1   3
HETATM    3  C3  UNL     1     -32.280   6.826   1.962  1.00 20.00     0.223 C 
HETATM    4  C1  UNL     1     -32.682   7.385   0.579  1.00 20.00     0.055 C 
HETATM    5  C4  UNL     1     -31.927   8.679   0.986  1.00 20.00     0.086 C 
HETATM    6  C2  UNL     1     -32.237   8.291   2.455  1.00 20.00     0.055 C 
HETATM    7 CL10 UNL     1     -32.513  10.247   0.369  1.00 20.00    -0.125 Cl
ENDBRANCH   1   3
BRANCH   1   8
HETATM    8  C5  UNL     1     -33.994   6.949   3.635  1.00 20.00     0.340 C 
BRANCH   8   9
HETATM    9  C6  UNL     1     -35.230   6.278   4.196  1.00 20.00     0.381 C 
HETATM   10  F8  UNL     1     -35.045   4.935   4.246  1.00 20.00    -0.213 F 
HETATM   11  F9  UNL     1     -36.272   6.492   3.352  1.00 20.00    -0.213 F 
ENDBRANCH   8   9
ENDBRANCH   1   8
TORSDOF 3
ENDMDL
MODEL 6
REMARK VINA RESULT:      -1.6      3.889      4.757
REMARK  3 active torsions:
REMARK  status: ('A' for Active; 'I' for Inactive)
REMARK    1  A    between atoms: C3_3  and  N7_7 
REMARK    2  A    between atoms: C5_5  and  C6_6 
REMARK    3  A    between atoms: C5_5  and  N7_7 
ROOT
HETATM    1  N7  UNL     1     -33.232   6.035   1.985  1.00 20.00     0.093 N 
HETATM    2  H20 UNL     1     -34.048   6.430   1.515  1.00 20.00     0.316 HD
ENDROOT
BRANCH   1   3
HETATM    3  C3  UNL     1     -32.115   6.959   1.862  1.00 20.00     0.223 C 
HETATM    4  C1  UNL     1     -32.100   7.556   0.437  1.00 20.00     0.055 C 
HETATM    5  C4  UNL     1     -31.823   8.925   1.113  1.00 20.00     0.086 C 
HETATM    6  C2  UNL     1     -32.553   8.357   2.358  1.00 20.00     0.055 C 
HETATM    7 CL10 UNL     1     -32.456  10.406   0.347  1.00 20.00    -0.125 Cl
ENDBRANCH   1   3
BRANCH   1   8
HETATM    8  C5  UNL     1     -33.556   5.792   3.384  1.00 20.00     0.340 C 
BRANCH   8   9
HETATM    9  C6  UNL     1     -34.887   6.422   3.739  1.00 20.00     0.381 C 
HETATM   10  F8  UNL     1     -34.693   7.472   4.576  1.00 20.00    -0.213 F 
HETATM   11  F9  UNL     1     -35.636   5.519   4.422  1.00 20.00    -0.213 F 
ENDBRANCH   8   9
ENDBRANCH   1   8
TORSDOF 3
ENDMDL
MODEL 7
REMARK VINA RESULT:      -1.6      4.487      5.406
REMARK  3 active torsions:
REMARK  status: ('A' for Active; 'I' for Inactive)
REMARK    1  A    between atoms: C3_3  and  N7_7 
REMARK    2  A    between atoms: C5_5  and  C6_6 
REMARK    3  A    between atoms: C5_5  and  N7_7 
ROOT
HETATM    1  N7  UNL     1     -34.788   6.125   3.587  1.00 20.00     0.093 N 
HETATM    2  H20 UNL     1     -35.186   6.922   4.084  1.00 20.00     0.316 HD
ENDROOT
BRANCH   1   3
HETATM    3  C3  UNL     1     -33.379   6.380   3.326  1.00 20.00     0.223 C 
HETATM    4  C1  UNL     1     -33.146   6.438   1.800  1.00 20.00     0.055 C 
HETATM    5  C4  UNL     1     -32.260   7.681   2.076  1.00 20.00     0.086 C 
HETATM    6  C2  UNL     1     -33.124   7.904   3.344  1.00 20.00     0.055 C 
HETATM    7 CL10 UNL     1     -32.184   8.974   0.848  1.00 20.00    -0.125 Cl
ENDBRANCH   1   3
BRANCH   1   8
HETATM    8  C5  UNL     1     -34.958   4.924   4.393  1.00 20.00     0.340 C 
BRANCH   8   9
HETATM    9  C6  UNL     1     -33.735   4.037   4.290  1.00 20.00     0.381 C 
HETATM   10  F8  UNL     1     -33.942   3.070   3.361  1.00 20.00    -0.213 F 
HETATM   11  F9  UNL     1     -33.550   3.399   5.474  1.00 20.00    -0.213 F 
ENDBRANCH   8   9
ENDBRANCH   1   8
TORSDOF 3
ENDMDL
MODEL 8
REMARK VINA RESULT:      -1.4      1.929      2.383
REMARK  3 active torsions:
REMARK  status: ('A' for Active; 'I' for Inactive)
REMARK    1  A    between atoms: C3_3  and  N7_7 
REMARK    2  A    between atoms: C5_5  and  C6_6 
REMARK    3  A    between atoms: C5_5  and  N7_7 
ROOT
HETATM    1  N7  UNL     1     -34.027   7.512   3.688  1.00 20.00     0.093 N 
HETATM    2  H20 UNL     1     -34.631   8.216   3.263  1.00 20.00     0.316 HD
ENDROOT
BRANCH   1   3
HETATM    3  C3  UNL     1     -34.430   6.193   3.224  1.00 20.00     0.223 C 
HETATM    4  C1  UNL     1     -33.190   5.275   3.156  1.00 20.00     0.055 C 
HETATM    5  C4  UNL     1     -34.077   4.183   3.812  1.00 20.00     0.086 C 
HETATM    6  C2  UNL     1     -34.894   5.347   4.432  1.00 20.00     0.055 C 
HETATM    7 CL10 UNL     1     -33.314   2.993   4.900  1.00 20.00    -0.125 Cl
ENDBRANCH   1   3
BRANCH   1   8
HETATM    8  C5  UNL     1     -32.643   7.788   3.330  1.00 20.00     0.340 C 
BRANCH   8   9
HETATM    9  C6  UNL     1     -32.494   7.898   1.827  1.00 20.00     0.381 C 
HETATM   10  F8  UNL     1     -31.319   7.343   1.437  1.00 20.00    -0.213 F 
HETATM   11  F9  UNL     1     -32.432   9.210   1.482  1.00 20.00    -0.213 F 
ENDBRANCH   8   9
ENDBRANCH   1   8
TORSDOF 3
ENDMDL
MODEL 9
REMARK VINA RESULT:      -1.3      4.241      5.113
REMARK  3 active torsions:
REMARK  status: ('A' for Active; 'I' for Inactive)
REMARK    1  A    between atoms: C3_3  and  N7_7 
REMARK    2  A    between atoms: C5_5  and  C6_6 
REMARK    3  A    between atoms: C5_5  and  N7_7 
ROOT
HETATM    1  N7  UNL     1     -34.065   7.446   3.938  1.00 20.00     0.093 N 
HETATM    2  H20 UNL     1     -33.867   7.476   4.939  1.00 20.00     0.316 HD
ENDROOT
BRANCH   1   3
HETATM    3  C3  UNL     1     -32.815   7.296   3.209  1.00 20.00     0.223 C 
HETATM    4  C1  UNL     1     -33.118   7.169   1.699  1.00 20.00     0.055 C 
HETATM    5  C4  UNL     1     -31.937   8.151   1.474  1.00 20.00     0.086 C 
HETATM    6  C2  UNL     1     -32.236   8.695   2.896  1.00 20.00     0.055 C 
HETATM    7 CL10 UNL     1     -32.004   9.276   0.092  1.00 20.00    -0.125 Cl
ENDBRANCH   1   3
BRANCH   1   8
HETATM    8  C5  UNL     1     -34.965   6.336   3.661  1.00 20.00     0.340 C 
BRANCH   8   9
HETATM    9  C6  UNL     1     -34.558   5.110   4.452  1.00 20.00     0.381 C 
HETATM   10  F8  UNL     1     -33.979   4.199   3.629  1.00 20.00    -0.213 F 
HETATM   11  F9  UNL     1     -35.671   4.519   4.958  1.00 20.00    -0.213 F 
ENDBRANCH   8   9
ENDBRANCH   1   8
TORSDOF 3
ENDMDL
