MODEL 1
REMARK VINA RESULT:      -1.2      0.000      0.000
REMARK  0 active torsions:
REMARK  status: ('A' for Active; 'I' for Inactive)
ROOT
HETATM    1  C1  UNL     1     -33.839   6.608   3.207  1.00 20.00    -0.085 C 
HETATM    2  C2  UNL     1     -34.979   6.448   3.890  1.00 20.00     0.014 C 
HETATM    3  C3  UNL     1     -32.928   7.801   3.336  1.00 20.00     0.034 C 
HETATM    4  C4  UNL     1     -32.205   8.103   2.009  1.00 20.00     0.009 C 
HETATM    5  C5  UNL     1     -33.436   6.228   0.744  1.00 20.00     0.013 C 
HETATM    6  C6  UNL     1     -31.881   5.522   1.982  1.00 20.00     0.013 C 
HETATM    7  C7  UNL     1     -33.433   5.600   2.174  1.00 20.00     0.014 C 
HETATM    8  C8  UNL     1     -32.056   6.833   1.154  1.00 20.00    -0.013 C 
ENDROOT
TORSDOF 0
ENDMDL
MODEL 2
REMARK VINA RESULT:      -1.0      1.451      2.953
REMARK  0 active torsions:
REMARK  status: ('A' for Active; 'I' for Inactive)
ROOT
HETATM    1  C1  UNL     1     -33.998   4.979   3.640  1.00 20.00    -0.085 C 
HETATM    2  C2  UNL     1     -33.820   3.805   4.257  1.00 20.00     0.014 C 
HETATM    3  C3  UNL     1     -33.285   5.396   2.380  1.00 20.00     0.034 C 
HETATM    4  C4  UNL     1     -33.065   6.920   2.336  1.00 20.00     0.009 C 
HETATM    5  C5  UNL     1     -34.087   7.281   4.673  1.00 20.00     0.013 C 
HETATM    6  C6  UNL     1     -35.530   6.965   3.167  1.00 20.00     0.013 C 
HETATM    7  C7  UNL     1     -34.896   6.017   4.241  1.00 20.00     0.014 C 
HETATM    8  C8  UNL     1     -34.134   7.661   3.159  1.00 20.00    -0.013 C 
ENDROOT
TORSDOF 0
ENDMDL
MODEL 3
REMARK VINA RESULT:      -0.9      0.790      2.268
REMARK  0 active torsions:
REMARK  status: ('A' for Active; 'I' for Inactive)
ROOT
HETATM    1  C1  UNL     1     -33.757   6.883   2.919  1.00 20.00    -0.085 C 
HETATM    2  C2  UNL     1     -34.599   6.704   3.943  1.00 20.00     0.014 C 
HETATM    3  C3  UNL     1     -33.357   5.805   1.945  1.00 20.00     0.034 C 
HETATM    4  C4  UNL     1     -31.922   6.018   1.428  1.00 20.00     0.009 C 
HETATM    5  C5  UNL     1     -31.532   8.076   2.926  1.00 20.00     0.013 C 
HETATM    6  C6  UNL     1     -32.716   8.488   1.229  1.00 20.00     0.013 C 
HETATM    7  C7  UNL     1     -33.076   8.204   2.727  1.00 20.00     0.014 C 
HETATM    8  C8  UNL     1     -31.528   7.505   1.473  1.00 20.00    -0.013 C 
ENDROOT
TORSDOF 0
ENDMDL
MODEL 4
REMARK VINA RESULT:      -0.9      1.206      3.449
REMARK  0 active torsions:
REMARK  status: ('A' for Active; 'I' for Inactive)
ROOT
HETATM    1  C1  UNL     1     -33.311   5.844   2.560  1.00 20.00    -0.085 C 
HETATM    2  C2  UNL     1     -32.667   5.759   1.390  1.00 20.00     0.014 C 
HETATM    3  C3  UNL     1     -33.479   4.699   3.525  1.00 20.00     0.034 C 
HETATM    4  C4  UNL     1     -34.801   4.812   4.307  1.00 20.00     0.009 C 
HETATM    5  C5  UNL     1     -35.546   6.920   3.029  1.00 20.00     0.013 C 
HETATM    6  C6  UNL     1     -34.087   7.306   4.502  1.00 20.00     0.013 C 
HETATM    7  C7  UNL     1     -33.999   7.117   2.949  1.00 20.00     0.014 C 
HETATM    8  C8  UNL     1     -35.257   6.277   4.422  1.00 20.00    -0.013 C 
ENDROOT
TORSDOF 0
ENDMDL
MODEL 5
REMARK VINA RESULT:      -0.5      1.015      2.892
REMARK  0 active torsions:
REMARK  status: ('A' for Active; 'I' for Inactive)
ROOT
HETATM    1  C1  UNL     1     -32.985   6.350   2.097  1.00 20.00    -0.085 C 
HETATM    2  C2  UNL     1     -32.228   5.653   1.242  1.00 20.00     0.014 C 
HETATM    3  C3  UNL     1     -32.651   7.730   2.602  1.00 20.00     0.034 C 
HETATM    4  C4  UNL     1     -33.182   7.950   4.031  1.00 20.00     0.009 C 
HETATM    5  C5  UNL     1     -34.073   5.542   4.227  1.00 20.00     0.013 C 
HETATM    6  C6  UNL     1     -35.304   6.799   3.063  1.00 20.00     0.013 C 
HETATM    7  C7  UNL     1     -34.219   5.735   2.684  1.00 20.00     0.014 C 
HETATM    8  C8  UNL     1     -34.408   7.065   4.313  1.00 20.00    -0.013 C 
ENDROOT
TORSDOF 0
ENDMDL
MODEL 6
REMARK VINA RESULT:      -0.2      1.035      2.613
REMARK  0 active torsions:
REMARK  status: ('A' for Active; 'I' for Inactive)
ROOT
HETATM    1  C1  UNL     1     -32.679   6.078   1.673  1.00 20.00    -0.085 C 
HETATM    2  C2  UNL     1     -32.715   5.109   0.751  1.00 20.00     0.014 C 
HETATM    3  C3  UNL     1     -33.492   6.079   2.941  1.00 20.00     0.034 C 
HETATM    4  C4  UNL     1     -33.854   7.512   3.376  1.00 20.00     0.009 C 
HETATM    5  C5  UNL     1     -32.751   8.575   1.306  1.00 20.00     0.013 C 
HETATM    6  C6  UNL     1     -31.364   7.968   2.775  1.00 20.00     0.013 C 
HETATM    7  C7  UNL     1     -31.851   7.306   1.441  1.00 20.00     0.014 C 
HETATM    8  C8  UNL     1     -32.818   8.528   2.865  1.00 20.00    -0.013 C 
ENDROOT
TORSDOF 0
ENDMDL
MODEL 7
REMARK VINA RESULT:      -0.2      0.931      3.148
REMARK  0 active torsions:
REMARK  status: ('A' for Active; 'I' for Inactive)
ROOT
HETATM    1  C1  UNL     1     -32.525   7.701   2.038  1.00 20.00    -0.085 C 
HETATM    2  C2  UNL     1     -32.019   8.564   1.149  1.00 20.00     0.014 C 
HETATM    3  C3  UNL     1     -32.469   6.202   1.898  1.00 20.00     0.034 C 
HETATM    4  C4  UNL     1     -33.693   5.531   2.549  1.00 20.00     0.009 C 
HETATM    5  C5  UNL     1     -34.778   7.781   3.174  1.00 20.00     0.013 C 
HETATM    6  C6  UNL     1     -33.196   7.230   4.455  1.00 20.00     0.013 C 
HETATM    7  C7  UNL     1     -33.277   8.206   3.233  1.00 20.00     0.014 C 
HETATM    8  C8  UNL     1     -34.266   6.397   3.684  1.00 20.00    -0.013 C 
ENDROOT
TORSDOF 0
ENDMDL
MODEL 8
REMARK VINA RESULT:       0.2      0.955      2.201
REMARK  0 active torsions:
REMARK  status: ('A' for Active; 'I' for Inactive)
ROOT
HETATM    1  C1  UNL     1     -33.703   7.255   3.467  1.00 20.00    -0.085 C 
HETATM    2  C2  UNL     1     -33.831   8.111   4.488  1.00 20.00     0.014 C 
HETATM    3  C3  UNL     1     -34.143   5.814   3.503  1.00 20.00     0.034 C 
HETATM    4  C4  UNL     1     -33.246   4.929   2.617  1.00 20.00     0.009 C 
HETATM    5  C5  UNL     1     -31.687   6.882   1.994  1.00 20.00     0.013 C 
HETATM    6  C6  UNL     1     -33.517   6.905   0.946  1.00 20.00     0.013 C 
HETATM    7  C7  UNL     1     -33.011   7.682   2.208  1.00 20.00     0.014 C 
HETATM    8  C8  UNL     1     -32.618   5.743   1.471  1.00 20.00    -0.013 C 
ENDROOT
TORSDOF 0
ENDMDL
MODEL 9
REMARK VINA RESULT:       0.3      1.546      2.937
REMARK  0 active torsions:
REMARK  status: ('A' for Active; 'I' for Inactive)
ROOT
HETATM    1  C1  UNL     1     -33.987   4.711   4.081  1.00 20.00    -0.085 C 
HETATM    2  C2  UNL     1     -33.628   3.426   4.179  1.00 20.00     0.014 C 
HETATM    3  C3  UNL     1     -35.317   5.261   4.527  1.00 20.00     0.034 C 
HETATM    4  C4  UNL     1     -35.753   6.456   3.657  1.00 20.00     0.009 C 
HETATM    5  C5  UNL     1     -33.707   6.257   2.104  1.00 20.00     0.013 C 
HETATM    6  C6  UNL     1     -33.266   7.157   3.960  1.00 20.00     0.013 C 
HETATM    7  C7  UNL     1     -33.075   5.699   3.419  1.00 20.00     0.014 C 
HETATM    8  C8  UNL     1     -34.536   7.179   3.054  1.00 20.00    -0.013 C 
ENDROOT
TORSDOF 0
ENDMDL
