MODEL 1
REMARK VINA RESULT:      -1.6      0.000      0.000
REMARK  4 active torsions:
REMARK  status: ('A' for Active; 'I' for Inactive)
REMARK    1  A    between atoms: C5_5  and  C7_7 
REMARK    2  A    between atoms: C5_5  and  C8_8 
REMARK    3  A    between atoms: C6_6  and  C8_8 
REMARK    4  A    between atoms: C6_6  and  C9_9 
ROOT
HETATM    1  C3  UNL     1     -31.939   5.502   0.965  1.00 20.00     0.010 C 
HETATM    2  C8  UNL     1     -32.837   6.566   1.602  1.00 20.00    -0.017 C 
ENDROOT
BRANCH   2   3
HETATM    3  C5  UNL     1     -32.124   7.939   1.684  1.00 20.00     0.008 C 
BRANCH   3   4
HETATM    4  C7  UNL     1     -32.288   8.869   0.464  1.00 20.00    -0.023 C 
HETATM    5  C1  UNL     1     -31.016   8.962  -0.379  1.00 20.00     0.009 C 
HETATM    6  C2  UNL     1     -32.696  10.269   0.939  1.00 20.00     0.009 C 
ENDBRANCH   3   4
ENDBRANCH   2   3
BRANCH   2   7
HETATM    7  C6  UNL     1     -33.282   6.159   3.029  1.00 20.00     0.024 C 
BRANCH   7   8
HETATM    8  C9  UNL     1     -34.418   6.988   3.650  1.00 20.00     0.078 C 
HETATM    9  C4  UNL     1     -35.497   6.080   4.231  1.00 20.00     0.026 C 
HETATM   10 CL10 UNL     1     -33.805   8.055   4.946  1.00 20.00    -0.125 Cl
ENDBRANCH   7   8
ENDBRANCH   2   7
TORSDOF 4
ENDMDL
MODEL 2
REMARK VINA RESULT:      -1.3      2.195      4.438
REMARK  4 active torsions:
REMARK  status: ('A' for Active; 'I' for Inactive)
REMARK    1  A    between atoms: C5_5  and  C7_7 
REMARK    2  A    between atoms: C5_5  and  C8_8 
REMARK    3  A    between atoms: C6_6  and  C8_8 
REMARK    4  A    between atoms: C6_6  and  C9_9 
ROOT
HETATM    1  C3  UNL     1     -32.012   5.885   1.052  1.00 20.00     0.010 C 
HETATM    2  C8  UNL     1     -32.161   7.058   2.024  1.00 20.00    -0.017 C 
ENDROOT
BRANCH   2   3
HETATM    3  C5  UNL     1     -33.636   7.265   2.446  1.00 20.00     0.008 C 
BRANCH   3   4
HETATM    4  C7  UNL     1     -34.008   6.819   3.876  1.00 20.00    -0.023 C 
HETATM    5  C1  UNL     1     -35.437   6.283   3.970  1.00 20.00     0.009 C 
HETATM    6  C2  UNL     1     -33.834   7.997   4.841  1.00 20.00     0.009 C 
ENDBRANCH   3   4
ENDBRANCH   2   3
BRANCH   2   7
HETATM    7  C6  UNL     1     -31.637   8.380   1.408  1.00 20.00     0.024 C 
BRANCH   7   8
HETATM    8  C9  UNL     1     -32.665   9.226   0.638  1.00 20.00     0.078 C 
HETATM    9  C4  UNL     1     -32.654  10.670   1.125  1.00 20.00     0.026 C 
HETATM   10 CL10 UNL     1     -32.328   9.208  -1.118  1.00 20.00    -0.125 Cl
ENDBRANCH   7   8
ENDBRANCH   2   7
TORSDOF 4
ENDMDL
MODEL 3
REMARK VINA RESULT:      -1.2      2.026      4.232
REMARK  4 active torsions:
REMARK  status: ('A' for Active; 'I' for Inactive)
REMARK    1  A    between atoms: C5_5  and  C7_7 
REMARK    2  A    between atoms: C5_5  and  C8_8 
REMARK    3  A    between atoms: C6_6  and  C8_8 
REMARK    4  A    between atoms: C6_6  and  C9_9 
ROOT
HETATM    1  C3  UNL     1     -32.046   4.601   0.683  1.00 20.00     0.010 C 
HETATM    2  C8  UNL     1     -32.224   5.729   1.704  1.00 20.00    -0.017 C 
ENDROOT
BRANCH   2   3
HETATM    3  C5  UNL     1     -33.700   5.867   2.151  1.00 20.00     0.008 C 
BRANCH   3   4
HETATM    4  C7  UNL     1     -33.985   5.643   3.651  1.00 20.00    -0.023 C 
HETATM    5  C1  UNL     1     -34.025   4.162   4.027  1.00 20.00     0.009 C 
HETATM    6  C2  UNL     1     -35.315   6.306   4.024  1.00 20.00     0.009 C 
ENDBRANCH   3   4
ENDBRANCH   2   3
BRANCH   2   7
HETATM    7  C6  UNL     1     -31.755   7.092   1.135  1.00 20.00     0.024 C 
BRANCH   7   8
HETATM    8  C9  UNL     1     -32.413   8.344   1.739  1.00 20.00     0.078 C 
HETATM    9  C4  UNL     1     -31.708   8.761   3.025  1.00 20.00     0.026 C 
HETATM   10 CL10 UNL     1     -32.372   9.713   0.590  1.00 20.00    -0.125 Cl
ENDBRANCH   7   8
ENDBRANCH   2   7
TORSDOF 4
ENDMDL
MODEL 4
REMARK VINA RESULT:      -0.9      1.280      1.776
REMARK  4 active torsions:
REMARK  status: ('A' for Active; 'I' for Inactive)
REMARK    1  A    between atoms: C5_5  and  C7_7 
REMARK    2  A    between atoms: C5_5  and  C8_8 
REMARK    3  A    between atoms: C6_6  and  C8_8 
REMARK    4  A    between atoms: C6_6  and  C9_9 
ROOT
HETATM    1  C3  UNL     1     -32.045   5.754   1.705  1.00 20.00     0.010 C 
HETATM    2  C8  UNL     1     -32.759   7.073   1.398  1.00 20.00    -0.017 C 
ENDROOT
BRANCH   2   3
HETATM    3  C5  UNL     1     -31.829   8.291   1.625  1.00 20.00     0.008 C 
BRANCH   3   4
HETATM    4  C7  UNL     1     -31.930   9.432   0.592  1.00 20.00    -0.023 C 
HETATM    5  C1  UNL     1     -32.796  10.592   1.081  1.00 20.00     0.009 C 
HETATM    6  C2  UNL     1     -32.496   8.884  -0.723  1.00 20.00     0.009 C 
ENDBRANCH   3   4
ENDBRANCH   2   3
BRANCH   2   7
HETATM    7  C6  UNL     1     -34.026   7.254   2.271  1.00 20.00     0.024 C 
BRANCH   7   8
HETATM    8  C9  UNL     1     -33.929   6.754   3.722  1.00 20.00     0.078 C 
HETATM    9  C4  UNL     1     -33.731   7.920   4.685  1.00 20.00     0.026 C 
HETATM   10 CL10 UNL     1     -35.402   5.859   4.196  1.00 20.00    -0.125 Cl
ENDBRANCH   7   8
ENDBRANCH   2   7
TORSDOF 4
ENDMDL
MODEL 5
REMARK VINA RESULT:      -0.9      2.301      4.920
REMARK  4 active torsions:
REMARK  status: ('A' for Active; 'I' for Inactive)
REMARK    1  A    between atoms: C5_5  and  C7_7 
REMARK    2  A    between atoms: C5_5  and  C8_8 
REMARK    3  A    between atoms: C6_6  and  C8_8 
REMARK    4  A    between atoms: C6_6  and  C9_9 
ROOT
HETATM    1  C3  UNL     1     -32.987   8.207   4.284  1.00 20.00     0.010 C 
HETATM    2  C8  UNL     1     -33.210   7.776   2.832  1.00 20.00    -0.017 C 
ENDROOT
BRANCH   2   3
HETATM    3  C5  UNL     1     -33.490   6.257   2.724  1.00 20.00     0.008 C 
BRANCH   3   4
HETATM    4  C7  UNL     1     -34.113   5.585   3.965  1.00 20.00    -0.023 C 
HETATM    5  C1  UNL     1     -33.960   4.065   3.950  1.00 20.00     0.009 C 
HETATM    6  C2  UNL     1     -35.598   5.953   4.056  1.00 20.00     0.009 C 
ENDBRANCH   3   4
ENDBRANCH   2   3
BRANCH   2   7
HETATM    7  C6  UNL     1     -31.987   8.114   1.942  1.00 20.00     0.024 C 
BRANCH   7   8
HETATM    8  C9  UNL     1     -32.290   8.819   0.610  1.00 20.00     0.078 C 
HETATM    9  C4  UNL     1     -32.700  10.269   0.844  1.00 20.00     0.026 C 
HETATM   10 CL10 UNL     1     -30.868   8.790  -0.473  1.00 20.00    -0.125 Cl
ENDBRANCH   7   8
ENDBRANCH   2   7
TORSDOF 4
ENDMDL
MODEL 6
REMARK VINA RESULT:      -0.8      1.819      2.210
REMARK  4 active torsions:
REMARK  status: ('A' for Active; 'I' for Inactive)
REMARK    1  A    between atoms: C5_5  and  C7_7 
REMARK    2  A    between atoms: C5_5  and  C8_8 
REMARK    3  A    between atoms: C6_6  and  C8_8 
REMARK    4  A    between atoms: C6_6  and  C9_9 
ROOT
HETATM    1  C3  UNL     1     -31.870   5.266   1.078  1.00 20.00     0.010 C 
HETATM    2  C8  UNL     1     -33.112   5.758   1.824  1.00 20.00    -0.017 C 
ENDROOT
BRANCH   2   3
HETATM    3  C5  UNL     1     -33.250   7.298   1.750  1.00 20.00     0.008 C 
BRANCH   3   4
HETATM    4  C7  UNL     1     -31.951   8.091   1.501  1.00 20.00    -0.023 C 
HETATM    5  C1  UNL     1     -31.283   8.547   2.799  1.00 20.00     0.009 C 
HETATM    6  C2  UNL     1     -32.254   9.310   0.622  1.00 20.00     0.009 C 
ENDBRANCH   3   4
ENDBRANCH   2   3
BRANCH   2   7
HETATM    7  C6  UNL     1     -33.085   5.340   3.316  1.00 20.00     0.024 C 
BRANCH   7   8
HETATM    8  C9  UNL     1     -34.109   4.275   3.743  1.00 20.00     0.078 C 
HETATM    9  C4  UNL     1     -33.451   3.205   4.608  1.00 20.00     0.026 C 
HETATM   10 CL10 UNL     1     -35.457   5.007   4.660  1.00 20.00    -0.125 Cl
ENDBRANCH   7   8
ENDBRANCH   2   7
TORSDOF 4
ENDMDL
MODEL 7
REMARK VINA RESULT:      -0.7      2.198      5.135
REMARK  4 active torsions:
REMARK  status: ('A' for Active; 'I' for Inactive)
REMARK    1  A    between atoms: C5_5  and  C7_7 
REMARK    2  A    between atoms: C5_5  and  C8_8 
REMARK    3  A    between atoms: C6_6  and  C8_8 
REMARK    4  A    between atoms: C6_6  and  C9_9 
ROOT
HETATM    1  C3  UNL     1     -33.843   7.633   3.991  1.00 20.00     0.010 C 
HETATM    2  C8  UNL     1     -33.883   6.588   2.872  1.00 20.00    -0.017 C 
ENDROOT
BRANCH   2   3
HETATM    3  C5  UNL     1     -33.223   5.257   3.310  1.00 20.00     0.008 C 
BRANCH   3   4
HETATM    4  C7  UNL     1     -34.167   4.186   3.894  1.00 20.00    -0.023 C 
HETATM    5  C1  UNL     1     -35.289   4.789   4.739  1.00 20.00     0.009 C 
HETATM    6  C2  UNL     1     -33.357   3.198   4.742  1.00 20.00     0.009 C 
ENDBRANCH   3   4
ENDBRANCH   2   3
BRANCH   2   7
HETATM    7  C6  UNL     1     -33.166   7.093   1.594  1.00 20.00     0.024 C 
BRANCH   7   8
HETATM    8  C9  UNL     1     -32.310   8.361   1.750  1.00 20.00     0.078 C 
HETATM    9  C4  UNL     1     -30.831   8.007   1.853  1.00 20.00     0.026 C 
HETATM   10 CL10 UNL     1     -32.542   9.470   0.366  1.00 20.00    -0.125 Cl
ENDBRANCH   7   8
ENDBRANCH   2   7
TORSDOF 4
ENDMDL
MODEL 8
REMARK VINA RESULT:      -0.7      1.859      4.688
REMARK  4 active torsions:
REMARK  status: ('A' for Active; 'I' for Inactive)
REMARK    1  A    between atoms: C5_5  and  C7_7 
REMARK    2  A    between atoms: C5_5  and  C8_8 
REMARK    3  A    between atoms: C6_6  and  C8_8 
REMARK    4  A    between atoms: C6_6  and  C9_9 
ROOT
HETATM    1  C3  UNL     1     -32.411   8.269   3.888  1.00 20.00     0.010 C 
HETATM    2  C8  UNL     1     -32.936   7.870   2.506  1.00 20.00    -0.017 C 
ENDROOT
BRANCH   2   3
HETATM    3  C5  UNL     1     -33.421   6.399   2.482  1.00 20.00     0.008 C 
BRANCH   3   4
HETATM    4  C7  UNL     1     -34.048   5.864   3.785  1.00 20.00    -0.023 C 
HETATM    5  C1  UNL     1     -34.017   4.338   3.868  1.00 20.00     0.009 C 
HETATM    6  C2  UNL     1     -35.495   6.357   3.898  1.00 20.00     0.009 C 
ENDBRANCH   3   4
ENDBRANCH   2   3
BRANCH   2   7
HETATM    7  C6  UNL     1     -31.854   8.047   1.411  1.00 20.00     0.024 C 
BRANCH   7   8
HETATM    8  C9  UNL     1     -31.915   9.351   0.599  1.00 20.00     0.078 C 
HETATM    9  C4  UNL     1     -32.448   9.091  -0.806  1.00 20.00     0.026 C 
HETATM   10 CL10 UNL     1     -32.963  10.560   1.397  1.00 20.00    -0.125 Cl
ENDBRANCH   7   8
ENDBRANCH   2   7
TORSDOF 4
ENDMDL
MODEL 9
REMARK VINA RESULT:      -0.6      1.597      2.176
REMARK  4 active torsions:
REMARK  status: ('A' for Active; 'I' for Inactive)
REMARK    1  A    between atoms: C5_5  and  C7_7 
REMARK    2  A    between atoms: C5_5  and  C8_8 
REMARK    3  A    between atoms: C6_6  and  C8_8 
REMARK    4  A    between atoms: C6_6  and  C9_9 
ROOT
HETATM    1  C3  UNL     1     -32.325   8.126   3.414  1.00 20.00     0.010 C 
HETATM    2  C8  UNL     1     -32.379   7.288   2.133  1.00 20.00    -0.017 C 
ENDROOT
BRANCH   2   3
HETATM    3  C5  UNL     1     -32.819   8.137   0.915  1.00 20.00     0.008 C 
BRANCH   3   4
HETATM    4  C7  UNL     1     -31.956   9.375   0.596  1.00 20.00    -0.023 C 
HETATM    5  C1  UNL     1     -32.792  10.574   0.147  1.00 20.00     0.009 C 
HETATM    6  C2  UNL     1     -30.936   9.022  -0.492  1.00 20.00     0.009 C 
ENDBRANCH   3   4
ENDBRANCH   2   3
BRANCH   2   7
HETATM    7  C6  UNL     1     -33.353   6.091   2.274  1.00 20.00     0.024 C 
BRANCH   7   8
HETATM    8  C9  UNL     1     -33.913   5.832   3.683  1.00 20.00     0.078 C 
HETATM    9  C4  UNL     1     -35.321   6.401   3.820  1.00 20.00     0.026 C 
HETATM   10 CL10 UNL     1     -33.962   4.083   4.046  1.00 20.00    -0.125 Cl
ENDBRANCH   7   8
ENDBRANCH   2   7
TORSDOF 4
ENDMDL
