MODEL 1
REMARK VINA RESULT:      -1.9      0.000      0.000
REMARK  4 active torsions:
REMARK  status: ('A' for Active; 'I' for Inactive)
REMARK    1  A    between atoms: C2_2  and  C8_8 
REMARK    2  A    between atoms: C5_5  and  C9_9 
REMARK    3  A    between atoms: C8_8  and  N10_10 
REMARK    4  A    between atoms: C9_9  and  N10_10 
ROOT
HETATM    1  C1  UNL     1     -33.904   3.938   4.351  1.00 20.00    -0.109 C 
HETATM    2  C2  UNL     1     -34.406   5.010   4.146  1.00 20.00    -0.077 C 
HETATM    3  C7  UNL     1     -33.293   2.633   4.601  1.00 20.00     0.112 C 
ENDROOT
BRANCH   2   4
HETATM    4  C8  UNL     1     -35.013   6.320   3.900  1.00 20.00     0.362 C 
BRANCH   4   5
HETATM    5  N10 UNL     1     -33.986   7.329   3.616  1.00 20.00     0.094 N 
HETATM    6  H25 UNL     1     -33.513   7.556   4.502  1.00 20.00     0.317 HD
BRANCH   5   7
HETATM    7  C9  UNL     1     -33.044   6.873   2.644  1.00 20.00     0.275 C 
BRANCH   7   8
HETATM    8  C5  UNL     1     -32.235   8.037   2.112  1.00 20.00     0.018 C 
HETATM    9  C3  UNL     1     -31.828   7.978   0.614  1.00 20.00     0.041 C 
HETATM   10  C6  UNL     1     -32.035   9.511   0.579  1.00 20.00     0.161 C 
HETATM   11  C4  UNL     1     -33.021   9.330   1.758  1.00 20.00     0.041 C 
HETATM   12  O11 UNL     1     -32.650   9.963  -0.596  1.00 20.00    -0.235 OA
ENDBRANCH   7   8
ENDBRANCH   5   7
ENDBRANCH   4   5
ENDBRANCH   2   4
TORSDOF 4
ENDMDL
MODEL 2
REMARK VINA RESULT:      -1.5      1.137      1.395
REMARK  4 active torsions:
REMARK  status: ('A' for Active; 'I' for Inactive)
REMARK    1  A    between atoms: C2_2  and  C8_8 
REMARK    2  A    between atoms: C5_5  and  C9_9 
REMARK    3  A    between atoms: C8_8  and  N10_10 
REMARK    4  A    between atoms: C9_9  and  N10_10 
ROOT
HETATM    1  C1  UNL     1     -33.805   3.637   4.503  1.00 20.00    -0.109 C 
HETATM    2  C2  UNL     1     -34.608   4.528   4.445  1.00 20.00    -0.077 C 
HETATM    3  C7  UNL     1     -32.827   2.552   4.572  1.00 20.00     0.112 C 
ENDROOT
BRANCH   2   4
HETATM    4  C8  UNL     1     -35.591   5.613   4.383  1.00 20.00     0.362 C 
BRANCH   4   5
HETATM    5  N10 UNL     1     -35.133   6.684   3.491  1.00 20.00     0.094 N 
HETATM    6  H25 UNL     1     -35.948   7.268   3.254  1.00 20.00     0.317 HD
BRANCH   5   7
HETATM    7  C9  UNL     1     -34.103   7.473   4.088  1.00 20.00     0.275 C 
BRANCH   7   8
HETATM    8  C5  UNL     1     -32.825   7.362   3.284  1.00 20.00     0.018 C 
HETATM    9  C3  UNL     1     -32.977   7.040   1.772  1.00 20.00     0.041 C 
HETATM   10  C6  UNL     1     -31.768   7.975   1.532  1.00 20.00     0.161 C 
HETATM   11  C4  UNL     1     -32.160   8.696   2.845  1.00 20.00     0.041 C 
HETATM   12  O11 UNL     1     -31.903   8.780   0.393  1.00 20.00    -0.235 OA
ENDBRANCH   7   8
ENDBRANCH   5   7
ENDBRANCH   4   5
ENDBRANCH   2   4
TORSDOF 4
ENDMDL
MODEL 3
REMARK VINA RESULT:      -1.1      2.839      5.725
REMARK  4 active torsions:
REMARK  status: ('A' for Active; 'I' for Inactive)
REMARK    1  A    between atoms: C2_2  and  C8_8 
REMARK    2  A    between atoms: C5_5  and  C9_9 
REMARK    3  A    between atoms: C8_8  and  N10_10 
REMARK    4  A    between atoms: C9_9  and  N10_10 
ROOT
HETATM    1  C1  UNL     1     -32.366   9.498   0.541  1.00 20.00    -0.109 C 
HETATM    2  C2  UNL     1     -32.354   8.542   1.268  1.00 20.00    -0.077 C 
HETATM    3  C7  UNL     1     -32.381  10.662  -0.344  1.00 20.00     0.112 C 
ENDROOT
BRANCH   2   4
HETATM    4  C8  UNL     1     -32.347   7.375   2.154  1.00 20.00     0.362 C 
BRANCH   4   5
HETATM    5  N10 UNL     1     -32.768   7.742   3.510  1.00 20.00     0.094 N 
HETATM    6  H25 UNL     1     -32.616   8.754   3.625  1.00 20.00     0.317 HD
BRANCH   5   7
HETATM    7  C9  UNL     1     -34.135   7.407   3.754  1.00 20.00     0.275 C 
BRANCH   7   8
HETATM    8  C5  UNL     1     -34.392   5.959   3.394  1.00 20.00     0.018 C 
HETATM    9  C3  UNL     1     -33.154   5.022   3.344  1.00 20.00     0.041 C 
HETATM   10  C6  UNL     1     -34.070   3.913   3.916  1.00 20.00     0.161 C 
HETATM   11  C4  UNL     1     -34.931   5.044   4.528  1.00 20.00     0.041 C 
HETATM   12  O11 UNL     1     -33.440   3.111   4.877  1.00 20.00    -0.235 OA
ENDBRANCH   7   8
ENDBRANCH   5   7
ENDBRANCH   4   5
ENDBRANCH   2   4
TORSDOF 4
ENDMDL
MODEL 4
REMARK VINA RESULT:      -1.0      2.858      5.766
REMARK  4 active torsions:
REMARK  status: ('A' for Active; 'I' for Inactive)
REMARK    1  A    between atoms: C2_2  and  C8_8 
REMARK    2  A    between atoms: C5_5  and  C9_9 
REMARK    3  A    between atoms: C8_8  and  N10_10 
REMARK    4  A    between atoms: C9_9  and  N10_10 
ROOT
HETATM    1  C1  UNL     1     -32.387   9.606   0.319  1.00 20.00    -0.109 C 
HETATM    2  C2  UNL     1     -32.015   8.712   1.030  1.00 20.00    -0.077 C 
HETATM    3  C7  UNL     1     -32.840  10.694  -0.547  1.00 20.00     0.112 C 
ENDROOT
BRANCH   2   4
HETATM    4  C8  UNL     1     -31.554   7.624   1.897  1.00 20.00     0.362 C 
BRANCH   4   5
HETATM    5  N10 UNL     1     -31.799   6.318   1.274  1.00 20.00     0.094 N 
HETATM    6  H25 UNL     1     -31.088   5.662   1.626  1.00 20.00     0.317 HD
BRANCH   5   7
HETATM    7  C9  UNL     1     -33.114   5.833   1.549  1.00 20.00     0.275 C 
BRANCH   7   8
HETATM    8  C5  UNL     1     -33.362   5.809   3.043  1.00 20.00     0.018 C 
HETATM    9  C3  UNL     1     -34.701   6.424   3.537  1.00 20.00     0.041 C 
HETATM   10  C6  UNL     1     -34.724   5.310   4.610  1.00 20.00     0.161 C 
HETATM   11  C4  UNL     1     -33.856   4.465   3.646  1.00 20.00     0.041 C 
HETATM   12  O11 UNL     1     -35.999   4.771   4.827  1.00 20.00    -0.235 OA
ENDBRANCH   7   8
ENDBRANCH   5   7
ENDBRANCH   4   5
ENDBRANCH   2   4
TORSDOF 4
ENDMDL
MODEL 5
REMARK VINA RESULT:      -0.4      1.857      2.293
REMARK  4 active torsions:
REMARK  status: ('A' for Active; 'I' for Inactive)
REMARK    1  A    between atoms: C2_2  and  C8_8 
REMARK    2  A    between atoms: C5_5  and  C9_9 
REMARK    3  A    between atoms: C8_8  and  N10_10 
REMARK    4  A    between atoms: C9_9  and  N10_10 
ROOT
HETATM    1  C1  UNL     1     -34.441   5.976   3.351  1.00 20.00    -0.109 C 
HETATM    2  C2  UNL     1     -33.628   5.822   2.481  1.00 20.00    -0.077 C 
HETATM    3  C7  UNL     1     -35.431   6.165   4.412  1.00 20.00     0.112 C 
ENDROOT
BRANCH   2   4
HETATM    4  C8  UNL     1     -32.633   5.628   1.424  1.00 20.00     0.362 C 
BRANCH   4   5
HETATM    5  N10 UNL     1     -31.573   6.640   1.509  1.00 20.00     0.094 N 
HETATM    6  H25 UNL     1     -31.305   6.899   0.549  1.00 20.00     0.317 HD
BRANCH   5   7
HETATM    7  C9  UNL     1     -31.992   7.791   2.244  1.00 20.00     0.275 C 
BRANCH   7   8
HETATM    8  C5  UNL     1     -31.731   9.049   1.442  1.00 20.00     0.018 C 
HETATM    9  C3  UNL     1     -31.710   8.898  -0.104  1.00 20.00     0.041 C 
HETATM   10  C6  UNL     1     -32.373  10.294  -0.170  1.00 20.00     0.161 C 
HETATM   11  C4  UNL     1     -32.934  10.012   1.245  1.00 20.00     0.041 C 
HETATM   12  O11 UNL     1     -33.367  10.393  -1.153  1.00 20.00    -0.235 OA
ENDBRANCH   7   8
ENDBRANCH   5   7
ENDBRANCH   4   5
ENDBRANCH   2   4
TORSDOF 4
ENDMDL
MODEL 6
REMARK VINA RESULT:      -0.1      2.252      2.523
REMARK  4 active torsions:
REMARK  status: ('A' for Active; 'I' for Inactive)
REMARK    1  A    between atoms: C2_2  and  C8_8 
REMARK    2  A    between atoms: C5_5  and  C9_9 
REMARK    3  A    between atoms: C8_8  and  N10_10 
REMARK    4  A    between atoms: C9_9  and  N10_10 
ROOT
HETATM    1  C1  UNL     1     -33.900   3.745   4.494  1.00 20.00    -0.109 C 
HETATM    2  C2  UNL     1     -34.627   4.700   4.520  1.00 20.00    -0.077 C 
HETATM    3  C7  UNL     1     -33.013   2.582   4.461  1.00 20.00     0.112 C 
ENDROOT
BRANCH   2   4
HETATM    4  C8  UNL     1     -35.520   5.862   4.549  1.00 20.00     0.362 C 
BRANCH   4   5
HETATM    5  N10 UNL     1     -35.240   6.765   3.427  1.00 20.00     0.094 N 
HETATM    6  H25 UNL     1     -35.896   7.557   3.488  1.00 20.00     0.317 HD
BRANCH   5   7
HETATM    7  C9  UNL     1     -33.889   7.227   3.437  1.00 20.00     0.275 C 
BRANCH   7   8
HETATM    8  C5  UNL     1     -33.257   7.029   2.075  1.00 20.00     0.018 C 
HETATM    9  C3  UNL     1     -31.714   6.845   2.042  1.00 20.00     0.041 C 
HETATM   10  C6  UNL     1     -31.938   5.845   0.883  1.00 20.00     0.161 C 
HETATM   11  C4  UNL     1     -33.353   5.604   1.462  1.00 20.00     0.041 C 
HETATM   12  O11 UNL     1     -31.109   4.717   0.951  1.00 20.00    -0.235 OA
ENDBRANCH   7   8
ENDBRANCH   5   7
ENDBRANCH   4   5
ENDBRANCH   2   4
TORSDOF 4
ENDMDL
MODEL 7
REMARK VINA RESULT:       0.2      2.863      5.214
REMARK  4 active torsions:
REMARK  status: ('A' for Active; 'I' for Inactive)
REMARK    1  A    between atoms: C2_2  and  C8_8 
REMARK    2  A    between atoms: C5_5  and  C9_9 
REMARK    3  A    between atoms: C8_8  and  N10_10 
REMARK    4  A    between atoms: C9_9  and  N10_10 
ROOT
HETATM    1  C1  UNL     1     -32.093   8.281   2.057  1.00 20.00    -0.109 C 
HETATM    2  C2  UNL     1     -32.400   8.311   3.217  1.00 20.00    -0.077 C 
HETATM    3  C7  UNL     1     -31.720   8.246   0.643  1.00 20.00     0.112 C 
ENDROOT
BRANCH   2   4
HETATM    4  C8  UNL     1     -32.775   8.339   4.634  1.00 20.00     0.362 C 
BRANCH   4   5
HETATM    5  N10 UNL     1     -33.946   7.491   4.883  1.00 20.00     0.094 N 
HETATM    6  H25 UNL     1     -34.555   7.982   5.553  1.00 20.00     0.317 HD
BRANCH   5   7
HETATM    7  C9  UNL     1     -34.656   7.194   3.680  1.00 20.00     0.275 C 
BRANCH   7   8
HETATM    8  C5  UNL     1     -34.767   5.695   3.493  1.00 20.00     0.018 C 
HETATM    9  C3  UNL     1     -33.444   4.926   3.221  1.00 20.00     0.041 C 
HETATM   10  C6  UNL     1     -34.033   3.773   4.068  1.00 20.00     0.161 C 
HETATM   11  C4  UNL     1     -34.897   4.839   4.784  1.00 20.00     0.041 C 
HETATM   12  O11 UNL     1     -33.092   3.163   4.909  1.00 20.00    -0.235 OA
ENDBRANCH   7   8
ENDBRANCH   5   7
ENDBRANCH   4   5
ENDBRANCH   2   4
TORSDOF 4
ENDMDL
MODEL 8
REMARK VINA RESULT:       0.4      1.861      2.505
REMARK  4 active torsions:
REMARK  status: ('A' for Active; 'I' for Inactive)
REMARK    1  A    between atoms: C2_2  and  C8_8 
REMARK    2  A    between atoms: C5_5  and  C9_9 
REMARK    3  A    between atoms: C8_8  and  N10_10 
REMARK    4  A    between atoms: C9_9  and  N10_10 
ROOT
HETATM    1  C1  UNL     1     -33.905   7.506   4.419  1.00 20.00    -0.109 C 
HETATM    2  C2  UNL     1     -33.837   6.703   3.530  1.00 20.00    -0.077 C 
HETATM    3  C7  UNL     1     -33.988   8.485   5.503  1.00 20.00     0.112 C 
ENDROOT
BRANCH   2   4
HETATM    4  C8  UNL     1     -33.756   5.727   2.439  1.00 20.00     0.362 C 
BRANCH   4   5
HETATM    5  N10 UNL     1     -32.995   6.268   1.307  1.00 20.00     0.094 N 
HETATM    6  H25 UNL     1     -33.554   7.021   0.882  1.00 20.00     0.317 HD
BRANCH   5   7
HETATM    7  C9  UNL     1     -31.714   6.756   1.710  1.00 20.00     0.275 C 
BRANCH   7   8
HETATM    8  C5  UNL     1     -31.600   8.237   1.412  1.00 20.00     0.018 C 
HETATM    9  C3  UNL     1     -31.328   8.633  -0.065  1.00 20.00     0.041 C 
HETATM   10  C6  UNL     1     -32.243   9.857   0.178  1.00 20.00     0.161 C 
HETATM   11  C4  UNL     1     -32.931   9.028   1.289  1.00 20.00     0.041 C 
HETATM   12  O11 UNL     1     -33.085  10.146  -0.904  1.00 20.00    -0.235 OA
ENDBRANCH   7   8
ENDBRANCH   5   7
ENDBRANCH   4   5
ENDBRANCH   2   4
TORSDOF 4
ENDMDL
MODEL 9
REMARK VINA RESULT:       0.5      1.828      2.236
REMARK  4 active torsions:
REMARK  status: ('A' for Active; 'I' for Inactive)
REMARK    1  A    between atoms: C2_2  and  C8_8 
REMARK    2  A    between atoms: C5_5  and  C9_9 
REMARK    3  A    between atoms: C8_8  and  N10_10 
REMARK    4  A    between atoms: C9_9  and  N10_10 
ROOT
HETATM    1  C1  UNL     1     -32.411   5.128   1.223  1.00 20.00    -0.109 C 
HETATM    2  C2  UNL     1     -33.058   5.766   2.007  1.00 20.00    -0.077 C 
HETATM    3  C7  UNL     1     -31.623   4.348   0.268  1.00 20.00     0.112 C 
ENDROOT
BRANCH   2   4
HETATM    4  C8  UNL     1     -33.844   6.544   2.969  1.00 20.00     0.362 C 
BRANCH   4   5
HETATM    5  N10 UNL     1     -33.367   7.930   3.037  1.00 20.00     0.094 N 
HETATM    6  H25 UNL     1     -33.590   8.295   3.973  1.00 20.00     0.317 HD
BRANCH   5   7
HETATM    7  C9  UNL     1     -31.966   8.026   2.778  1.00 20.00     0.275 C 
BRANCH   7   8
HETATM    8  C5  UNL     1     -31.694   9.117   1.763  1.00 20.00     0.018 C 
HETATM    9  C3  UNL     1     -31.613   8.680   0.274  1.00 20.00     0.041 C 
HETATM   10  C6  UNL     1     -32.293  10.025  -0.075  1.00 20.00     0.161 C 
HETATM   11  C4  UNL     1     -32.902  10.001   1.348  1.00 20.00     0.041 C 
HETATM   12  O11 UNL     1     -33.251   9.917  -1.092  1.00 20.00    -0.235 OA
ENDBRANCH   7   8
ENDBRANCH   5   7
ENDBRANCH   4   5
ENDBRANCH   2   4
TORSDOF 4
ENDMDL
