MODEL 1
REMARK VINA RESULT:      -0.3      0.000      0.000
REMARK  3 active torsions:
REMARK  status: ('A' for Active; 'I' for Inactive)
REMARK    1  A    between atoms: C6_6  and  C8_8 
REMARK    2  A    between atoms: C6_6  and  C9_9 
REMARK    3  A    between atoms: C7_7  and  C9_9 
ROOT
HETATM    1  C4  UNL     1     -31.676   5.363   1.490  1.00 20.00     0.015 C 
HETATM    2  C5  UNL     1     -33.709   6.535   0.684  1.00 20.00     0.015 C 
HETATM    3  C9  UNL     1     -32.589   6.589   1.747  1.00 20.00    -0.043 C 
ENDROOT
BRANCH   3   4
HETATM    4  C6  UNL     1     -33.192   6.396   3.182  1.00 20.00     0.029 C 
BRANCH   4   5
HETATM    5  C8  UNL     1     -34.387   5.441   3.365  1.00 20.00     0.079 C 
HETATM    6  C3  UNL     1     -35.490   6.114   4.181  1.00 20.00     0.026 C 
HETATM    7 CL10 UNL     1     -33.921   3.937   4.210  1.00 20.00    -0.125 Cl
ENDBRANCH   4   5
ENDBRANCH   3   4
BRANCH   3   8
HETATM    8  C7  UNL     1     -31.787   7.937   1.609  1.00 20.00    -0.015 C 
HETATM    9  C1  UNL     1     -32.398   8.926   0.605  1.00 20.00     0.010 C 
HETATM   10  C2  UNL     1     -31.571   8.676   2.939  1.00 20.00     0.010 C 
ENDBRANCH   3   8
TORSDOF 3
ENDMDL
MODEL 2
REMARK VINA RESULT:      -0.3      1.731      2.421
REMARK  3 active torsions:
REMARK  status: ('A' for Active; 'I' for Inactive)
REMARK    1  A    between atoms: C6_6  and  C8_8 
REMARK    2  A    between atoms: C6_6  and  C9_9 
REMARK    3  A    between atoms: C7_7  and  C9_9 
ROOT
HETATM    1  C4  UNL     1     -31.208   8.430   2.727  1.00 20.00     0.015 C 
HETATM    2  C5  UNL     1     -31.961   6.527   1.323  1.00 20.00     0.015 C 
HETATM    3  C9  UNL     1     -32.311   7.974   1.739  1.00 20.00    -0.043 C 
ENDROOT
BRANCH   3   4
HETATM    4  C6  UNL     1     -33.659   7.999   2.541  1.00 20.00     0.029 C 
BRANCH   4   5
HETATM    5  C8  UNL     1     -33.775   7.156   3.826  1.00 20.00     0.079 C 
HETATM    6  C3  UNL     1     -35.137   6.465   3.891  1.00 20.00     0.026 C 
HETATM    7 CL10 UNL     1     -33.594   8.150   5.300  1.00 20.00    -0.125 Cl
ENDBRANCH   4   5
ENDBRANCH   3   4
BRANCH   3   8
HETATM    8  C7  UNL     1     -32.355   8.899   0.464  1.00 20.00    -0.015 C 
HETATM    9  C1  UNL     1     -32.741  10.355   0.765  1.00 20.00     0.010 C 
HETATM   10  C2  UNL     1     -31.050   8.906  -0.349  1.00 20.00     0.010 C 
ENDBRANCH   3   8
TORSDOF 3
ENDMDL
MODEL 3
REMARK VINA RESULT:      -0.1      2.643      4.362
REMARK  3 active torsions:
REMARK  status: ('A' for Active; 'I' for Inactive)
REMARK    1  A    between atoms: C6_6  and  C8_8 
REMARK    2  A    between atoms: C6_6  and  C9_9 
REMARK    3  A    between atoms: C7_7  and  C9_9 
ROOT
HETATM    1  C4  UNL     1     -32.531   6.124   1.812  1.00 20.00     0.015 C 
HETATM    2  C5  UNL     1     -31.425   8.020   2.970  1.00 20.00     0.015 C 
HETATM    3  C9  UNL     1     -32.765   7.557   2.354  1.00 20.00    -0.043 C 
ENDROOT
BRANCH   3   4
HETATM    4  C6  UNL     1     -33.129   8.444   1.112  1.00 20.00     0.029 C 
BRANCH   4   5
HETATM    5  C8  UNL     1     -32.110   9.491   0.622  1.00 20.00     0.079 C 
HETATM    6  C3  UNL     1     -32.819  10.613  -0.135  1.00 20.00     0.026 C 
HETATM    7 CL10 UNL     1     -30.889   8.779  -0.472  1.00 20.00    -0.125 Cl
ENDBRANCH   4   5
ENDBRANCH   3   4
BRANCH   3   8
HETATM    8  C7  UNL     1     -33.892   7.574   3.455  1.00 20.00    -0.015 C 
HETATM    9  C1  UNL     1     -34.578   6.217   3.665  1.00 20.00     0.010 C 
HETATM   10  C2  UNL     1     -33.422   8.093   4.823  1.00 20.00     0.010 C 
ENDBRANCH   3   8
TORSDOF 3
ENDMDL
MODEL 4
REMARK VINA RESULT:      -0.1      1.012      1.012
REMARK  3 active torsions:
REMARK  status: ('A' for Active; 'I' for Inactive)
REMARK    1  A    between atoms: C6_6  and  C8_8 
REMARK    2  A    between atoms: C6_6  and  C9_9 
REMARK    3  A    between atoms: C7_7  and  C9_9 
ROOT
HETATM    1  C4  UNL     1     -31.785   5.157   1.113  1.00 20.00     0.015 C 
HETATM    2  C5  UNL     1     -33.835   6.460   0.605  1.00 20.00     0.015 C 
HETATM    3  C9  UNL     1     -32.633   6.371   1.572  1.00 20.00    -0.043 C 
ENDROOT
BRANCH   3   4
HETATM    4  C6  UNL     1     -33.126   6.041   3.024  1.00 20.00     0.029 C 
BRANCH   4   5
HETATM    5  C8  UNL     1     -34.511   6.546   3.472  1.00 20.00     0.079 C 
HETATM    6  C3  UNL     1     -34.369   7.790   4.348  1.00 20.00     0.026 C 
HETATM    7 CL10 UNL     1     -35.403   5.314   4.411  1.00 20.00    -0.125 Cl
ENDBRANCH   4   5
ENDBRANCH   3   4
BRANCH   3   8
HETATM    8  C7  UNL     1     -31.800   7.706   1.510  1.00 20.00    -0.015 C 
HETATM    9  C1  UNL     1     -32.484   8.832   0.722  1.00 20.00     0.010 C 
HETATM   10  C2  UNL     1     -31.401   8.259   2.888  1.00 20.00     0.010 C 
ENDBRANCH   3   8
TORSDOF 3
ENDMDL
MODEL 5
REMARK VINA RESULT:      -0.0      2.502      4.321
REMARK  3 active torsions:
REMARK  status: ('A' for Active; 'I' for Inactive)
REMARK    1  A    between atoms: C6_6  and  C8_8 
REMARK    2  A    between atoms: C6_6  and  C9_9 
REMARK    3  A    between atoms: C7_7  and  C9_9 
ROOT
HETATM    1  C4  UNL     1     -33.663   6.428   0.418  1.00 20.00     0.015 C 
HETATM    2  C5  UNL     1     -31.950   5.403   1.891  1.00 20.00     0.015 C 
HETATM    3  C9  UNL     1     -32.980   6.551   1.804  1.00 20.00    -0.043 C 
ENDROOT
BRANCH   3   4
HETATM    4  C6  UNL     1     -32.249   7.940   1.813  1.00 20.00     0.029 C 
BRANCH   4   5
HETATM    5  C8  UNL     1     -32.348   8.840   0.566  1.00 20.00     0.079 C 
HETATM    6  C3  UNL     1     -30.999   8.912  -0.150  1.00 20.00     0.026 C 
HETATM    7 CL10 UNL     1     -32.838  10.508   0.980  1.00 20.00    -0.125 Cl
ENDBRANCH   4   5
ENDBRANCH   3   4
BRANCH   3   8
HETATM    8  C7  UNL     1     -34.029   6.417   2.971  1.00 20.00    -0.015 C 
HETATM    9  C1  UNL     1     -33.983   5.065   3.697  1.00 20.00     0.010 C 
HETATM   10  C2  UNL     1     -33.936   7.531   4.026  1.00 20.00     0.010 C 
ENDBRANCH   3   8
TORSDOF 3
ENDMDL
MODEL 6
REMARK VINA RESULT:       0.3      2.435      4.108
REMARK  3 active torsions:
REMARK  status: ('A' for Active; 'I' for Inactive)
REMARK    1  A    between atoms: C6_6  and  C8_8 
REMARK    2  A    between atoms: C6_6  and  C9_9 
REMARK    3  A    between atoms: C7_7  and  C9_9 
ROOT
HETATM    1  C4  UNL     1     -33.863   5.036   0.820  1.00 20.00     0.015 C 
HETATM    2  C5  UNL     1     -31.572   5.397   1.702  1.00 20.00     0.015 C 
HETATM    3  C9  UNL     1     -33.038   5.868   1.834  1.00 20.00    -0.043 C 
ENDROOT
BRANCH   3   4
HETATM    4  C6  UNL     1     -33.171   7.366   1.386  1.00 20.00     0.029 C 
BRANCH   4   5
HETATM    5  C8  UNL     1     -31.912   8.255   1.382  1.00 20.00     0.079 C 
HETATM    6  C3  UNL     1     -31.585   8.726   2.798  1.00 20.00     0.026 C 
HETATM    7 CL10 UNL     1     -32.118   9.704   0.356  1.00 20.00    -0.125 Cl
ENDBRANCH   4   5
ENDBRANCH   3   4
BRANCH   3   8
HETATM    8  C7  UNL     1     -33.542   5.636   3.308  1.00 20.00    -0.015 C 
HETATM    9  C1  UNL     1     -34.728   6.525   3.708  1.00 20.00     0.010 C 
HETATM   10  C2  UNL     1     -33.909   4.176   3.621  1.00 20.00     0.010 C 
ENDBRANCH   3   8
TORSDOF 3
ENDMDL
MODEL 7
REMARK VINA RESULT:       0.4      1.218      2.468
REMARK  3 active torsions:
REMARK  status: ('A' for Active; 'I' for Inactive)
REMARK    1  A    between atoms: C6_6  and  C8_8 
REMARK    2  A    between atoms: C6_6  and  C9_9 
REMARK    3  A    between atoms: C7_7  and  C9_9 
ROOT
HETATM    1  C4  UNL     1     -35.251   6.663   3.186  1.00 20.00     0.015 C 
HETATM    2  C5  UNL     1     -33.391   7.980   4.168  1.00 20.00     0.015 C 
HETATM    3  C9  UNL     1     -33.706   6.776   3.252  1.00 20.00    -0.043 C 
ENDROOT
BRANCH   3   4
HETATM    4  C6  UNL     1     -33.195   5.445   3.907  1.00 20.00     0.029 C 
BRANCH   4   5
HETATM    5  C8  UNL     1     -34.168   4.257   4.033  1.00 20.00     0.079 C 
HETATM    6  C3  UNL     1     -35.338   4.618   4.947  1.00 20.00     0.026 C 
HETATM    7 CL10 UNL     1     -33.372   2.806   4.710  1.00 20.00    -0.125 Cl
ENDBRANCH   4   5
ENDBRANCH   3   4
BRANCH   3   8
HETATM    8  C7  UNL     1     -33.090   7.017   1.823  1.00 20.00    -0.015 C 
HETATM    9  C1  UNL     1     -31.982   8.080   1.794  1.00 20.00     0.010 C 
HETATM   10  C2  UNL     1     -32.552   5.744   1.151  1.00 20.00     0.010 C 
ENDBRANCH   3   8
TORSDOF 3
ENDMDL
MODEL 8
REMARK VINA RESULT:       0.5      2.046      4.194
REMARK  3 active torsions:
REMARK  status: ('A' for Active; 'I' for Inactive)
REMARK    1  A    between atoms: C6_6  and  C8_8 
REMARK    2  A    between atoms: C6_6  and  C9_9 
REMARK    3  A    between atoms: C7_7  and  C9_9 
ROOT
HETATM    1  C4  UNL     1     -33.237   7.662   4.520  1.00 20.00     0.015 C 
HETATM    2  C5  UNL     1     -35.388   6.713   3.724  1.00 20.00     0.015 C 
HETATM    3  C9  UNL     1     -33.888   6.844   3.376  1.00 20.00    -0.043 C 
ENDROOT
BRANCH   3   4
HETATM    4  C6  UNL     1     -33.705   7.692   2.069  1.00 20.00     0.029 C 
BRANCH   4   5
HETATM    5  C8  UNL     1     -32.435   8.551   1.912  1.00 20.00     0.079 C 
HETATM    6  C3  UNL     1     -32.583   9.514   0.734  1.00 20.00     0.026 C 
HETATM    7 CL10 UNL     1     -30.980   7.553   1.624  1.00 20.00    -0.125 Cl
ENDBRANCH   4   5
ENDBRANCH   3   4
BRANCH   3   8
HETATM    8  C7  UNL     1     -33.241   5.413   3.258  1.00 20.00    -0.015 C 
HETATM    9  C1  UNL     1     -34.051   4.304   3.946  1.00 20.00     0.010 C 
HETATM   10  C2  UNL     1     -32.956   4.972   1.813  1.00 20.00     0.010 C 
ENDBRANCH   3   8
TORSDOF 3
ENDMDL
MODEL 9
REMARK VINA RESULT:       0.6      1.783      4.271
REMARK  3 active torsions:
REMARK  status: ('A' for Active; 'I' for Inactive)
REMARK    1  A    between atoms: C6_6  and  C8_8 
REMARK    2  A    between atoms: C6_6  and  C9_9 
REMARK    3  A    between atoms: C7_7  and  C9_9 
ROOT
HETATM    1  C4  UNL     1     -33.767   7.741   4.187  1.00 20.00     0.015 C 
HETATM    2  C5  UNL     1     -35.919   6.876   3.304  1.00 20.00     0.015 C 
HETATM    3  C9  UNL     1     -34.424   6.527   3.481  1.00 20.00    -0.043 C 
ENDROOT
BRANCH   3   4
HETATM    4  C6  UNL     1     -33.725   6.401   2.082  1.00 20.00     0.029 C 
BRANCH   4   5
HETATM    5  C8  UNL     1     -32.198   6.585   1.995  1.00 20.00     0.079 C 
HETATM    6  C3  UNL     1     -31.856   7.919   1.333  1.00 20.00     0.026 C 
HETATM    7 CL10 UNL     1     -31.418   5.287   1.045  1.00 20.00    -0.125 Cl
ENDBRANCH   4   5
ENDBRANCH   3   4
BRANCH   3   8
HETATM    8  C7  UNL     1     -34.281   5.218   4.344  1.00 20.00    -0.015 C 
HETATM    9  C1  UNL     1     -35.583   4.777   5.028  1.00 20.00     0.010 C 
HETATM   10  C2  UNL     1     -33.715   4.017   3.570  1.00 20.00     0.010 C 
ENDBRANCH   3   8
TORSDOF 3
ENDMDL
