MODEL 1
REMARK VINA RESULT:       0.4      0.000      0.000
REMARK  2 active torsions:
REMARK  status: ('A' for Active; 'I' for Inactive)
REMARK    1  A    between atoms: C8_8  and  C9_9 
REMARK    2  A    between atoms: C9_9  and  O11_11 
ROOT
HETATM    1  C1  UNL     1     -31.399   8.545   0.180  1.00 20.00     0.003 C 
HETATM    2  C2  UNL     1     -32.359   9.676   0.551  1.00 20.00     0.003 C 
HETATM    3  C3  UNL     1     -31.668   7.417   1.175  1.00 20.00     0.038 C 
HETATM    4  C4  UNL     1     -33.146   9.190   1.767  1.00 20.00     0.038 C 
HETATM    5  C9  UNL     1     -32.248   8.127   2.396  1.00 20.00     0.063 C 
ENDROOT
BRANCH   5   6
HETATM    6  C8  UNL     1     -32.994   7.197   3.339  1.00 20.00     0.046 C 
HETATM    7  C5  UNL     1     -33.555   5.959   2.674  1.00 20.00     0.036 C 
HETATM    8  C6  UNL     1     -34.603   5.522   3.676  1.00 20.00     0.168 C 
HETATM    9  O10 UNL     1     -35.102   6.714   4.302  1.00 20.00    -0.391 OA
HETATM   10  C7  UNL     1     -34.247   7.809   3.939  1.00 20.00     0.175 C 
ENDBRANCH   5   6
BRANCH   5  11
HETATM   11  O11 UNL     1     -31.202   8.776   3.118  1.00 20.00    -0.389 OA
HETATM   12  H27 UNL     1     -31.439   8.718   4.056  1.00 20.00     0.210 HD
ENDBRANCH   5  11
TORSDOF 2
ENDMDL
MODEL 2
REMARK VINA RESULT:       0.7      1.629      2.135
REMARK  2 active torsions:
REMARK  status: ('A' for Active; 'I' for Inactive)
REMARK    1  A    between atoms: C8_8  and  C9_9 
REMARK    2  A    between atoms: C9_9  and  O11_11 
ROOT
HETATM    1  C1  UNL     1     -32.006   8.388   0.593  1.00 20.00     0.003 C 
HETATM    2  C2  UNL     1     -31.407   8.588   1.986  1.00 20.00     0.003 C 
HETATM    3  C3  UNL     1     -33.159   7.402   0.764  1.00 20.00     0.038 C 
HETATM    4  C4  UNL     1     -32.211   7.695   2.930  1.00 20.00     0.038 C 
HETATM    5  C9  UNL     1     -32.795   6.616   2.021  1.00 20.00     0.063 C 
ENDROOT
BRANCH   5   6
HETATM    6  C8  UNL     1     -33.976   5.886   2.641  1.00 20.00     0.046 C 
HETATM    7  C5  UNL     1     -34.688   6.668   3.724  1.00 20.00     0.036 C 
HETATM    8  C6  UNL     1     -35.432   5.570   4.455  1.00 20.00     0.168 C 
HETATM    9  O10 UNL     1     -34.630   4.384   4.350  1.00 20.00    -0.391 OA
HETATM   10  C7  UNL     1     -33.589   4.622   3.390  1.00 20.00     0.175 C 
ENDBRANCH   5   6
BRANCH   5  11
HETATM   11  O11 UNL     1     -31.774   5.668   1.717  1.00 20.00    -0.389 OA
HETATM   12  H27 UNL     1     -30.939   6.161   1.693  1.00 20.00     0.210 HD
ENDBRANCH   5  11
TORSDOF 2
ENDMDL
MODEL 3
REMARK VINA RESULT:       0.7      0.855      1.312
REMARK  2 active torsions:
REMARK  status: ('A' for Active; 'I' for Inactive)
REMARK    1  A    between atoms: C8_8  and  C9_9 
REMARK    2  A    between atoms: C9_9  and  O11_11 
ROOT
HETATM    1  C1  UNL     1     -31.029   8.487   0.363  1.00 20.00     0.003 C 
HETATM    2  C2  UNL     1     -31.969   9.682   0.535  1.00 20.00     0.003 C 
HETATM    3  C3  UNL     1     -31.722   7.302   1.031  1.00 20.00     0.038 C 
HETATM    4  C4  UNL     1     -33.175   9.168   1.321  1.00 20.00     0.038 C 
HETATM    5  C9  UNL     1     -32.647   7.943   2.063  1.00 20.00     0.063 C 
ENDROOT
BRANCH   5   6
HETATM    6  C8  UNL     1     -33.750   7.015   2.547  1.00 20.00     0.046 C 
HETATM    7  C5  UNL     1     -34.301   7.367   3.912  1.00 20.00     0.036 C 
HETATM    8  C6  UNL     1     -34.964   6.068   4.318  1.00 20.00     0.168 C 
HETATM    9  O10 UNL     1     -34.205   5.008   3.717  1.00 20.00    -0.391 OA
HETATM   10  C7  UNL     1     -33.293   5.584   2.768  1.00 20.00     0.175 C 
ENDBRANCH   5   6
BRANCH   5  11
HETATM   11  O11 UNL     1     -31.884   8.379   3.187  1.00 20.00    -0.389 OA
HETATM   12  H27 UNL     1     -32.289   7.973   3.969  1.00 20.00     0.210 HD
ENDBRANCH   5  11
TORSDOF 2
ENDMDL
MODEL 4
REMARK VINA RESULT:       0.8      1.246      4.203
REMARK  2 active torsions:
REMARK  status: ('A' for Active; 'I' for Inactive)
REMARK    1  A    between atoms: C8_8  and  C9_9 
REMARK    2  A    between atoms: C9_9  and  O11_11 
ROOT
HETATM    1  C1  UNL     1     -35.312   6.545   3.948  1.00 20.00     0.003 C 
HETATM    2  C2  UNL     1     -34.313   5.406   3.740  1.00 20.00     0.003 C 
HETATM    3  C3  UNL     1     -34.674   7.787   3.329  1.00 20.00     0.038 C 
HETATM    4  C4  UNL     1     -33.108   6.018   3.027  1.00 20.00     0.038 C 
HETATM    5  C9  UNL     1     -33.175   7.502   3.379  1.00 20.00     0.063 C 
ENDROOT
BRANCH   5   6
HETATM    6  C8  UNL     1     -32.360   8.377   2.440  1.00 20.00     0.046 C 
HETATM    7  C5  UNL     1     -33.188   9.330   1.606  1.00 20.00     0.036 C 
HETATM    8  C6  UNL     1     -32.227   9.671   0.487  1.00 20.00     0.168 C 
HETATM    9  O10 UNL     1     -31.403   8.515   0.279  1.00 20.00    -0.391 OA
HETATM   10  C7  UNL     1     -31.624   7.599   1.363  1.00 20.00     0.175 C 
ENDBRANCH   5   6
BRANCH   5  11
HETATM   11  O11 UNL     1     -32.695   7.681   4.711  1.00 20.00    -0.389 OA
HETATM   12  H27 UNL     1     -31.729   7.622   4.665  1.00 20.00     0.210 HD
ENDBRANCH   5  11
TORSDOF 2
ENDMDL
MODEL 5
REMARK VINA RESULT:       0.9      1.722      4.257
REMARK  2 active torsions:
REMARK  status: ('A' for Active; 'I' for Inactive)
REMARK    1  A    between atoms: C8_8  and  C9_9 
REMARK    2  A    between atoms: C9_9  and  O11_11 
ROOT
HETATM    1  C1  UNL     1     -33.902   6.719   3.440  1.00 20.00     0.003 C 
HETATM    2  C2  UNL     1     -33.152   5.702   2.578  1.00 20.00     0.003 C 
HETATM    3  C3  UNL     1     -33.651   8.084   2.802  1.00 20.00     0.038 C 
HETATM    4  C4  UNL     1     -32.462   6.504   1.474  1.00 20.00     0.038 C 
HETATM    5  C9  UNL     1     -32.331   7.910   2.054  1.00 20.00     0.063 C 
ENDROOT
BRANCH   5   6
HETATM    6  C8  UNL     1     -32.091   8.974   0.995  1.00 20.00     0.046 C 
HETATM    7  C5  UNL     1     -32.763  10.298   1.283  1.00 20.00     0.036 C 
HETATM    8  C6  UNL     1     -32.774  10.941  -0.088  1.00 20.00     0.168 C 
HETATM    9  O10 UNL     1     -32.885   9.876  -1.045  1.00 20.00    -0.391 OA
HETATM   10  C7  UNL     1     -32.678   8.629  -0.363  1.00 20.00     0.175 C 
ENDBRANCH   5   6
BRANCH   5  11
HETATM   11  O11 UNL     1     -31.246   7.926   2.981  1.00 20.00    -0.389 OA
HETATM   12  H27 UNL     1     -31.490   7.324   3.700  1.00 20.00     0.210 HD
ENDBRANCH   5  11
TORSDOF 2
ENDMDL
MODEL 6
REMARK VINA RESULT:       1.1      1.343      4.322
REMARK  2 active torsions:
REMARK  status: ('A' for Active; 'I' for Inactive)
REMARK    1  A    between atoms: C8_8  and  C9_9 
REMARK    2  A    between atoms: C9_9  and  O11_11 
ROOT
HETATM    1  C1  UNL     1     -35.616   5.358   4.513  1.00 20.00     0.003 C 
HETATM    2  C2  UNL     1     -34.385   4.451   4.452  1.00 20.00     0.003 C 
HETATM    3  C3  UNL     1     -35.335   6.519   3.561  1.00 20.00     0.038 C 
HETATM    4  C4  UNL     1     -33.408   5.120   3.485  1.00 20.00     0.038 C 
HETATM    5  C9  UNL     1     -33.811   6.592   3.500  1.00 20.00     0.063 C 
ENDROOT
BRANCH   5   6
HETATM    6  C8  UNL     1     -33.290   7.367   2.301  1.00 20.00     0.046 C 
HETATM    7  C5  UNL     1     -32.372   6.570   1.400  1.00 20.00     0.036 C 
HETATM    8  C6  UNL     1     -31.657   7.669   0.642  1.00 20.00     0.168 C 
HETATM    9  O10 UNL     1     -31.564   8.793   1.530  1.00 20.00    -0.391 OA
HETATM   10  C7  UNL     1     -32.400   8.541   2.671  1.00 20.00     0.175 C 
ENDBRANCH   5   6
BRANCH   5  11
HETATM   11  O11 UNL     1     -33.310   7.194   4.693  1.00 20.00    -0.389 OA
HETATM   12  H27 UNL     1     -33.497   8.143   4.621  1.00 20.00     0.210 HD
ENDBRANCH   5  11
TORSDOF 2
ENDMDL
MODEL 7
REMARK VINA RESULT:       1.4      1.627      2.088
REMARK  2 active torsions:
REMARK  status: ('A' for Active; 'I' for Inactive)
REMARK    1  A    between atoms: C8_8  and  C9_9 
REMARK    2  A    between atoms: C9_9  and  O11_11 
ROOT
HETATM    1  C1  UNL     1     -31.586   8.793   2.223  1.00 20.00     0.003 C 
HETATM    2  C2  UNL     1     -32.013   7.898   1.058  1.00 20.00     0.003 C 
HETATM    3  C3  UNL     1     -32.126   8.130   3.488  1.00 20.00     0.038 C 
HETATM    4  C4  UNL     1     -32.812   6.749   1.672  1.00 20.00     0.038 C 
HETATM    5  C9  UNL     1     -33.316   7.308   3.000  1.00 20.00     0.063 C 
ENDROOT
BRANCH   5   6
HETATM    6  C8  UNL     1     -33.747   6.226   3.978  1.00 20.00     0.046 C 
HETATM    7  C5  UNL     1     -33.380   4.822   3.551  1.00 20.00     0.036 C 
HETATM    8  C6  UNL     1     -34.320   3.989   4.397  1.00 20.00     0.168 C 
HETATM    9  O10 UNL     1     -35.511   4.768   4.584  1.00 20.00    -0.391 OA
HETATM   10  C7  UNL     1     -35.253   6.108   4.134  1.00 20.00     0.175 C 
ENDBRANCH   5   6
BRANCH   5  11
HETATM   11  O11 UNL     1     -34.425   8.169   2.746  1.00 20.00    -0.389 OA
HETATM   12  H27 UNL     1     -34.054   9.016   2.456  1.00 20.00     0.210 HD
ENDBRANCH   5  11
TORSDOF 2
ENDMDL
MODEL 8
REMARK VINA RESULT:       1.5      1.589      2.051
REMARK  2 active torsions:
REMARK  status: ('A' for Active; 'I' for Inactive)
REMARK    1  A    between atoms: C8_8  and  C9_9 
REMARK    2  A    between atoms: C9_9  and  O11_11 
ROOT
HETATM    1  C1  UNL     1     -32.362   8.992   1.019  1.00 20.00     0.003 C 
HETATM    2  C2  UNL     1     -31.239   7.958   0.912  1.00 20.00     0.003 C 
HETATM    3  C3  UNL     1     -33.309   8.479   2.102  1.00 20.00     0.038 C 
HETATM    4  C4  UNL     1     -31.574   6.857   1.917  1.00 20.00     0.038 C 
HETATM    5  C9  UNL     1     -33.084   6.969   2.110  1.00 20.00     0.063 C 
ENDROOT
BRANCH   5   6
HETATM    6  C8  UNL     1     -33.577   6.290   3.378  1.00 20.00     0.046 C 
HETATM    7  C5  UNL     1     -33.581   4.778   3.310  1.00 20.00     0.036 C 
HETATM    8  C6  UNL     1     -34.533   4.424   4.432  1.00 20.00     0.168 C 
HETATM    9  O10 UNL     1     -35.493   5.488   4.514  1.00 20.00    -0.391 OA
HETATM   10  C7  UNL     1     -35.033   6.578   3.700  1.00 20.00     0.175 C 
ENDBRANCH   5   6
BRANCH   5  11
HETATM   11  O11 UNL     1     -33.736   6.378   0.986  1.00 20.00    -0.389 OA
HETATM   12  H27 UNL     1     -34.100   5.534   1.292  1.00 20.00     0.210 HD
ENDBRANCH   5  11
TORSDOF 2
ENDMDL
MODEL 9
REMARK VINA RESULT:       1.5      1.521      4.213
REMARK  2 active torsions:
REMARK  status: ('A' for Active; 'I' for Inactive)
REMARK    1  A    between atoms: C8_8  and  C9_9 
REMARK    2  A    between atoms: C9_9  and  O11_11 
ROOT
HETATM    1  C1  UNL     1     -34.098   6.477   3.780  1.00 20.00     0.003 C 
HETATM    2  C2  UNL     1     -33.302   5.482   2.934  1.00 20.00     0.003 C 
HETATM    3  C3  UNL     1     -34.098   7.791   3.002  1.00 20.00     0.038 C 
HETATM    4  C4  UNL     1     -32.837   6.248   1.696  1.00 20.00     0.038 C 
HETATM    5  C9  UNL     1     -32.844   7.710   2.133  1.00 20.00     0.063 C 
ENDROOT
BRANCH   5   6
HETATM    6  C8  UNL     1     -32.854   8.683   0.965  1.00 20.00     0.046 C 
HETATM    7  C5  UNL     1     -31.575   8.692   0.155  1.00 20.00     0.036 C 
HETATM    8  C6  UNL     1     -31.676  10.021  -0.563  1.00 20.00     0.168 C 
HETATM    9  O10 UNL     1     -32.391  10.911   0.308  1.00 20.00    -0.391 OA
HETATM   10  C7  UNL     1     -32.953  10.140   1.382  1.00 20.00     0.175 C 
ENDBRANCH   5   6
BRANCH   5  11
HETATM   11  O11 UNL     1     -31.688   7.958   2.932  1.00 20.00    -0.389 OA
HETATM   12  H27 UNL     1     -31.533   8.914   2.902  1.00 20.00     0.210 HD
ENDBRANCH   5  11
TORSDOF 2
ENDMDL
