MODEL 1
REMARK VINA RESULT:       0.6      0.000      0.000
REMARK  3 active torsions:
REMARK  status: ('A' for Active; 'I' for Inactive)
REMARK    1  A    between atoms: C5_5  and  S11_11 
REMARK    2  A    between atoms: C7_7  and  C8_8 
REMARK    3  A    between atoms: C8_8  and  S11_11 
ROOT
HETATM    1  C1  UNL     1     -32.365   6.154   1.638  1.00 20.00     0.080 C 
HETATM    2  C2  UNL     1     -33.413   8.421   1.122  1.00 20.00     0.071 C 
HETATM    3  C3  UNL     1     -31.490   8.511   2.068  1.00 20.00     0.071 C 
HETATM    4  C4  UNL     1     -32.036   8.988   0.699  1.00 20.00     0.165 C 
HETATM    5  C5  UNL     1     -32.658   7.489   2.110  1.00 20.00     0.101 C 
HETATM    6  N9  UNL     1     -32.130   5.083   1.261  1.00 20.00    -0.196 NA
HETATM    7  O10 UNL     1     -32.029  10.382   0.551  1.00 20.00    -0.235 OA
ENDROOT
BRANCH   5   8
HETATM    8  S11 UNL     1     -33.462   7.424   3.749  1.00 20.00    -0.144 SA
BRANCH   8   9
HETATM    9  C8  UNL     1     -34.759   6.234   3.344  1.00 20.00     0.075 C 
BRANCH   9  10
HETATM   10  C7  UNL     1     -34.898   5.198   4.453  1.00 20.00     0.006 C 
HETATM   11  C6  UNL     1     -33.993   4.001   4.199  1.00 20.00     0.006 C 
ENDBRANCH   9  10
ENDBRANCH   8   9
ENDBRANCH   5   8
TORSDOF 3
ENDMDL
MODEL 2
REMARK VINA RESULT:       1.2      3.078      5.024
REMARK  3 active torsions:
REMARK  status: ('A' for Active; 'I' for Inactive)
REMARK    1  A    between atoms: C5_5  and  S11_11 
REMARK    2  A    between atoms: C7_7  and  C8_8 
REMARK    3  A    between atoms: C8_8  and  S11_11 
ROOT
HETATM    1  C1  UNL     1     -32.934   7.831   4.057  1.00 20.00     0.080 C 
HETATM    2  C2  UNL     1     -35.186   6.810   3.436  1.00 20.00     0.071 C 
HETATM    3  C3  UNL     1     -33.668   5.391   3.967  1.00 20.00     0.071 C 
HETATM    4  C4  UNL     1     -35.049   5.760   4.565  1.00 20.00     0.165 C 
HETATM    5  C5  UNL     1     -33.637   6.803   3.323  1.00 20.00     0.101 C 
HETATM    6  N9  UNL     1     -32.369   8.657   4.645  1.00 20.00    -0.196 NA
HETATM    7  O10 UNL     1     -35.988   4.724   4.480  1.00 20.00    -0.235 OA
ENDROOT
BRANCH   5   8
HETATM    8  S11 UNL     1     -33.071   6.759   1.586  1.00 20.00    -0.144 SA
BRANCH   8   9
HETATM    9  C8  UNL     1     -31.946   8.171   1.654  1.00 20.00     0.075 C 
BRANCH   9  10
HETATM   10  C7  UNL     1     -31.909   8.889   0.310  1.00 20.00     0.006 C 
HETATM   11  C6  UNL     1     -32.624  10.229   0.386  1.00 20.00     0.006 C 
ENDBRANCH   9  10
ENDBRANCH   8   9
ENDBRANCH   5   8
TORSDOF 3
ENDMDL
MODEL 3
REMARK VINA RESULT:       1.2      1.904      2.325
REMARK  3 active torsions:
REMARK  status: ('A' for Active; 'I' for Inactive)
REMARK    1  A    between atoms: C5_5  and  S11_11 
REMARK    2  A    between atoms: C7_7  and  C8_8 
REMARK    3  A    between atoms: C8_8  and  S11_11 
ROOT
HETATM    1  C1  UNL     1     -33.602   7.469   3.446  1.00 20.00     0.080 C 
HETATM    2  C2  UNL     1     -31.491   7.823   2.060  1.00 20.00     0.071 C 
HETATM    3  C3  UNL     1     -33.317   7.817   0.935  1.00 20.00     0.071 C 
HETATM    4  C4  UNL     1     -32.213   8.876   1.185  1.00 20.00     0.165 C 
HETATM    5  C5  UNL     1     -32.866   7.126   2.250  1.00 20.00     0.101 C 
HETATM    6  N9  UNL     1     -34.193   7.743   4.405  1.00 20.00    -0.196 NA
HETATM    7  O10 UNL     1     -31.502   9.221   0.028  1.00 20.00    -0.235 OA
ENDROOT
BRANCH   5   8
HETATM    8  S11 UNL     1     -32.750   5.311   2.072  1.00 20.00    -0.144 SA
BRANCH   8   9
HETATM    9  C8  UNL     1     -33.685   4.854   3.547  1.00 20.00     0.075 C 
BRANCH   9  10
HETATM   10  C7  UNL     1     -33.590   3.353   3.797  1.00 20.00     0.006 C 
HETATM   11  C6  UNL     1     -32.968   3.063   5.154  1.00 20.00     0.006 C 
ENDBRANCH   9  10
ENDBRANCH   8   9
ENDBRANCH   5   8
TORSDOF 3
ENDMDL
MODEL 4
REMARK VINA RESULT:       1.3      2.581      4.728
REMARK  3 active torsions:
REMARK  status: ('A' for Active; 'I' for Inactive)
REMARK    1  A    between atoms: C5_5  and  S11_11 
REMARK    2  A    between atoms: C7_7  and  C8_8 
REMARK    3  A    between atoms: C8_8  and  S11_11 
ROOT
HETATM    1  C1  UNL     1     -33.112   5.800   1.619  1.00 20.00     0.080 C 
HETATM    2  C2  UNL     1     -33.449   5.350   4.106  1.00 20.00     0.071 C 
HETATM    3  C3  UNL     1     -35.035   6.445   3.165  1.00 20.00     0.071 C 
HETATM    4  C4  UNL     1     -34.955   5.071   3.876  1.00 20.00     0.165 C 
HETATM    5  C5  UNL     1     -33.509   6.331   2.904  1.00 20.00     0.101 C 
HETATM    6  N9  UNL     1     -32.793   5.375   0.588  1.00 20.00    -0.196 NA
HETATM    7  O10 UNL     1     -35.699   5.013   5.062  1.00 20.00    -0.235 OA
ENDROOT
BRANCH   5   8
HETATM    8  S11 UNL     1     -32.630   7.896   3.246  1.00 20.00    -0.144 SA
BRANCH   8   9
HETATM    9  C8  UNL     1     -32.048   8.229   1.569  1.00 20.00     0.075 C 
BRANCH   9  10
HETATM   10  C7  UNL     1     -32.360   9.667   1.171  1.00 20.00     0.006 C 
HETATM   11  C6  UNL     1     -32.606   9.779  -0.326  1.00 20.00     0.006 C 
ENDBRANCH   9  10
ENDBRANCH   8   9
ENDBRANCH   5   8
TORSDOF 3
ENDMDL
MODEL 5
REMARK VINA RESULT:       1.4      1.831      2.132
REMARK  3 active torsions:
REMARK  status: ('A' for Active; 'I' for Inactive)
REMARK    1  A    between atoms: C5_5  and  S11_11 
REMARK    2  A    between atoms: C7_7  and  C8_8 
REMARK    3  A    between atoms: C8_8  and  S11_11 
ROOT
HETATM    1  C1  UNL     1     -32.796   8.000   3.893  1.00 20.00     0.080 C 
HETATM    2  C2  UNL     1     -31.418   7.644   1.778  1.00 20.00     0.071 C 
HETATM    3  C3  UNL     1     -33.355   8.507   1.457  1.00 20.00     0.071 C 
HETATM    4  C4  UNL     1     -31.907   8.996   1.203  1.00 20.00     0.165 C 
HETATM    5  C5  UNL     1     -32.777   7.538   2.523  1.00 20.00     0.101 C 
HETATM    6  N9  UNL     1     -32.812   8.369   4.993  1.00 20.00    -0.196 NA
HETATM    7  O10 UNL     1     -31.607   9.165  -0.156  1.00 20.00    -0.235 OA
ENDROOT
BRANCH   5   8
HETATM    8  S11 UNL     1     -33.501   5.865   2.403  1.00 20.00    -0.144 SA
BRANCH   8   9
HETATM    9  C8  UNL     1     -34.783   6.057   3.662  1.00 20.00     0.075 C 
BRANCH   9  10
HETATM   10  C7  UNL     1     -34.924   4.778   4.479  1.00 20.00     0.006 C 
HETATM   11  C6  UNL     1     -33.781   3.816   4.192  1.00 20.00     0.006 C 
ENDBRANCH   9  10
ENDBRANCH   8   9
ENDBRANCH   5   8
TORSDOF 3
ENDMDL
MODEL 6
REMARK VINA RESULT:       1.6      2.940      4.563
REMARK  3 active torsions:
REMARK  status: ('A' for Active; 'I' for Inactive)
REMARK    1  A    between atoms: C5_5  and  S11_11 
REMARK    2  A    between atoms: C7_7  and  C8_8 
REMARK    3  A    between atoms: C8_8  and  S11_11 
ROOT
HETATM    1  C1  UNL     1     -33.485   7.180   3.099  1.00 20.00     0.080 C 
HETATM    2  C2  UNL     1     -33.457   6.487   0.645  1.00 20.00     0.071 C 
HETATM    3  C3  UNL     1     -31.951   5.562   1.861  1.00 20.00     0.071 C 
HETATM    4  C4  UNL     1     -33.148   5.021   1.038  1.00 20.00     0.165 C 
HETATM    5  C5  UNL     1     -32.687   6.927   1.920  1.00 20.00     0.101 C 
HETATM    6  N9  UNL     1     -34.125   7.384   4.045  1.00 20.00    -0.196 NA
HETATM    7  O10 UNL     1     -32.762   4.223  -0.047  1.00 20.00    -0.235 OA
ENDROOT
BRANCH   5   8
HETATM    8  S11 UNL     1     -31.564   8.332   1.597  1.00 20.00    -0.144 SA
BRANCH   8   9
HETATM    9  C8  UNL     1     -32.793   9.655   1.662  1.00 20.00     0.075 C 
BRANCH   9  10
HETATM   10  C7  UNL     1     -32.641  10.584   0.464  1.00 20.00     0.006 C 
HETATM   11  C6  UNL     1     -32.615   9.798  -0.839  1.00 20.00     0.006 C 
ENDBRANCH   9  10
ENDBRANCH   8   9
ENDBRANCH   5   8
TORSDOF 3
ENDMDL
MODEL 7
REMARK VINA RESULT:       1.8      3.199      5.131
REMARK  3 active torsions:
REMARK  status: ('A' for Active; 'I' for Inactive)
REMARK    1  A    between atoms: C5_5  and  S11_11 
REMARK    2  A    between atoms: C7_7  and  C8_8 
REMARK    3  A    between atoms: C8_8  and  S11_11 
ROOT
HETATM    1  C1  UNL     1     -33.599   7.479   4.176  1.00 20.00     0.080 C 
HETATM    2  C2  UNL     1     -34.928   5.412   3.495  1.00 20.00     0.071 C 
HETATM    3  C3  UNL     1     -32.814   5.102   3.687  1.00 20.00     0.071 C 
HETATM    4  C4  UNL     1     -34.054   4.520   4.410  1.00 20.00     0.165 C 
HETATM    5  C5  UNL     1     -33.687   6.327   3.306  1.00 20.00     0.101 C 
HETATM    6  N9  UNL     1     -33.528   8.403   4.873  1.00 20.00    -0.196 NA
HETATM    7  O10 UNL     1     -34.235   3.148   4.188  1.00 20.00    -0.235 OA
ENDROOT
BRANCH   5   8
HETATM    8  S11 UNL     1     -33.457   6.826   1.563  1.00 20.00    -0.144 SA
BRANCH   8   9
HETATM    9  C8  UNL     1     -32.166   8.062   1.825  1.00 20.00     0.075 C 
BRANCH   9  10
HETATM   10  C7  UNL     1     -31.807   8.745   0.510  1.00 20.00     0.006 C 
HETATM   11  C6  UNL     1     -32.555  10.061   0.355  1.00 20.00     0.006 C 
ENDBRANCH   9  10
ENDBRANCH   8   9
ENDBRANCH   5   8
TORSDOF 3
ENDMDL
MODEL 8
REMARK VINA RESULT:       2.0      2.391      2.906
REMARK  3 active torsions:
REMARK  status: ('A' for Active; 'I' for Inactive)
REMARK    1  A    between atoms: C5_5  and  S11_11 
REMARK    2  A    between atoms: C7_7  and  C8_8 
REMARK    3  A    between atoms: C8_8  and  S11_11 
ROOT
HETATM    1  C1  UNL     1     -32.567   8.702   1.296  1.00 20.00     0.080 C 
HETATM    2  C2  UNL     1     -31.421   6.543   2.022  1.00 20.00     0.071 C 
HETATM    3  C3  UNL     1     -33.376   6.286   1.180  1.00 20.00     0.071 C 
HETATM    4  C4  UNL     1     -31.960   5.807   0.772  1.00 20.00     0.165 C 
HETATM    5  C5  UNL     1     -32.694   7.431   1.974  1.00 20.00     0.101 C 
HETATM    6  N9  UNL     1     -32.466   9.721   0.752  1.00 20.00    -0.196 NA
HETATM    7  O10 UNL     1     -31.804   4.416   0.833  1.00 20.00    -0.235 OA
ENDROOT
BRANCH   5   8
HETATM    8  S11 UNL     1     -33.436   7.664   3.628  1.00 20.00    -0.144 SA
BRANCH   8   9
HETATM    9  C8  UNL     1     -34.957   6.729   3.354  1.00 20.00     0.075 C 
BRANCH   9  10
HETATM   10  C7  UNL     1     -35.118   5.648   4.417  1.00 20.00     0.006 C 
HETATM   11  C6  UNL     1     -34.259   4.434   4.098  1.00 20.00     0.006 C 
ENDBRANCH   9  10
ENDBRANCH   8   9
ENDBRANCH   5   8
TORSDOF 3
ENDMDL
MODEL 9
REMARK VINA RESULT:       2.3      2.299      4.303
REMARK  3 active torsions:
REMARK  status: ('A' for Active; 'I' for Inactive)
REMARK    1  A    between atoms: C5_5  and  S11_11 
REMARK    2  A    between atoms: C7_7  and  C8_8 
REMARK    3  A    between atoms: C8_8  and  S11_11 
ROOT
HETATM    1  C1  UNL     1     -33.756   4.734   3.659  1.00 20.00     0.080 C 
HETATM    2  C2  UNL     1     -32.925   7.094   4.147  1.00 20.00     0.071 C 
HETATM    3  C3  UNL     1     -34.838   6.994   3.182  1.00 20.00     0.071 C 
HETATM    4  C4  UNL     1     -34.353   7.540   4.548  1.00 20.00     0.165 C 
HETATM    5  C5  UNL     1     -33.581   6.083   3.169  1.00 20.00     0.101 C 
HETATM    6  N9  UNL     1     -33.897   3.651   4.052  1.00 20.00    -0.196 NA
HETATM    7  O10 UNL     1     -34.489   8.929   4.672  1.00 20.00    -0.235 OA
ENDROOT
BRANCH   5   8
HETATM    8  S11 UNL     1     -32.756   6.066   1.538  1.00 20.00    -0.144 SA
BRANCH   8   9
HETATM    9  C8  UNL     1     -31.909   7.656   1.670  1.00 20.00     0.075 C 
BRANCH   9  10
HETATM   10  C7  UNL     1     -31.998   8.418   0.353  1.00 20.00     0.006 C 
HETATM   11  C6  UNL     1     -32.472   9.846   0.578  1.00 20.00     0.006 C 
ENDBRANCH   9  10
ENDBRANCH   8   9
ENDBRANCH   5   8
TORSDOF 3
ENDMDL
