MODEL 1
REMARK VINA RESULT:      -1.6      0.000      0.000
REMARK  5 active torsions:
REMARK  status: ('A' for Active; 'I' for Inactive)
REMARK    1  A    between atoms: C2_2  and  C7_7 
REMARK    2  A    between atoms: C2_2  and  C8_8 
REMARK    3  A    between atoms: C3_3  and  C7_7 
REMARK    4  A    between atoms: C3_3  and  C10_10 
REMARK    5  A    between atoms: C9_9  and  C10_10 
ROOT
HETATM    1  C3  UNL     1     -32.597   6.660   1.766  1.00 20.00     0.134 C 
HETATM    2  O11 UNL     1     -32.025   5.572   1.694  1.00 20.00    -0.297 OA
ENDROOT
BRANCH   1   3
HETATM    3  C7  UNL     1     -34.071   6.786   2.133  1.00 20.00     0.111 C 
BRANCH   3   4
HETATM    4  C2  UNL     1     -34.289   6.671   3.622  1.00 20.00    -0.083 C 
HETATM    5  C1  UNL     1     -33.918   7.674   4.435  1.00 20.00     0.014 C 
BRANCH   4   6
HETATM    6  C8  UNL     1     -34.911   5.369   4.087  1.00 20.00     0.029 C 
HETATM    7  C4  UNL     1     -33.998   4.149   4.155  1.00 20.00     0.010 C 
ENDBRANCH   4   6
ENDBRANCH   3   4
ENDBRANCH   1   3
BRANCH   1   8
HETATM    8  C10 UNL     1     -31.865   7.971   1.482  1.00 20.00     0.051 C 
HETATM    9  C6  UNL     1     -31.079   8.361   2.732  1.00 20.00     0.018 C 
BRANCH   8  10
HETATM   10  C9  UNL     1     -32.831   9.093   1.077  1.00 20.00     0.007 C 
HETATM   11  C5  UNL     1     -32.352   9.862  -0.148  1.00 20.00     0.006 C 
ENDBRANCH   8  10
ENDBRANCH   1   8
TORSDOF 5
ENDMDL
MODEL 2
REMARK VINA RESULT:      -1.4      1.357      4.926
REMARK  5 active torsions:
REMARK  status: ('A' for Active; 'I' for Inactive)
REMARK    1  A    between atoms: C2_2  and  C7_7 
REMARK    2  A    between atoms: C2_2  and  C8_8 
REMARK    3  A    between atoms: C3_3  and  C7_7 
REMARK    4  A    between atoms: C3_3  and  C10_10 
REMARK    5  A    between atoms: C9_9  and  C10_10 
ROOT
HETATM    1  C3  UNL     1     -33.741   6.658   3.014  1.00 20.00     0.134 C 
HETATM    2  O11 UNL     1     -34.047   7.643   3.687  1.00 20.00    -0.297 OA
ENDROOT
BRANCH   1   3
HETATM    3  C7  UNL     1     -32.826   6.750   1.799  1.00 20.00     0.111 C 
BRANCH   3   4
HETATM    4  C2  UNL     1     -32.045   8.042   1.782  1.00 20.00    -0.083 C 
HETATM    5  C1  UNL     1     -31.443   8.478   2.900  1.00 20.00     0.014 C 
BRANCH   4   6
HETATM    6  C8  UNL     1     -32.034   8.773   0.454  1.00 20.00     0.029 C 
HETATM    7  C4  UNL     1     -32.605  10.188   0.435  1.00 20.00     0.010 C 
ENDBRANCH   4   6
ENDBRANCH   3   4
ENDBRANCH   1   3
BRANCH   1   8
HETATM    8  C10 UNL     1     -34.269   5.263   3.350  1.00 20.00     0.051 C 
HETATM    9  C6  UNL     1     -35.262   5.392   4.503  1.00 20.00     0.018 C 
BRANCH   8  10
HETATM   10  C9  UNL     1     -33.138   4.292   3.714  1.00 20.00     0.007 C 
HETATM   11  C5  UNL     1     -33.598   3.187   4.657  1.00 20.00     0.006 C 
ENDBRANCH   8  10
ENDBRANCH   1   8
TORSDOF 5
ENDMDL
MODEL 3
REMARK VINA RESULT:      -1.4      1.572      4.834
REMARK  5 active torsions:
REMARK  status: ('A' for Active; 'I' for Inactive)
REMARK    1  A    between atoms: C2_2  and  C7_7 
REMARK    2  A    between atoms: C2_2  and  C8_8 
REMARK    3  A    between atoms: C3_3  and  C7_7 
REMARK    4  A    between atoms: C3_3  and  C10_10 
REMARK    5  A    between atoms: C9_9  and  C10_10 
ROOT
HETATM    1  C3  UNL     1     -33.473   7.600   3.845  1.00 20.00     0.134 C 
HETATM    2  O11 UNL     1     -33.976   8.245   4.766  1.00 20.00    -0.297 OA
ENDROOT
BRANCH   1   3
HETATM    3  C7  UNL     1     -32.127   7.964   3.230  1.00 20.00     0.111 C 
BRANCH   3   4
HETATM    4  C2  UNL     1     -32.223   8.135   1.733  1.00 20.00    -0.083 C 
HETATM    5  C1  UNL     1     -31.820   7.148   0.917  1.00 20.00     0.014 C 
BRANCH   4   6
HETATM    6  C8  UNL     1     -32.765   9.472   1.269  1.00 20.00     0.029 C 
HETATM    7  C4  UNL     1     -32.430   9.900  -0.156  1.00 20.00     0.010 C 
ENDBRANCH   4   6
ENDBRANCH   3   4
ENDBRANCH   1   3
BRANCH   1   8
HETATM    8  C10 UNL     1     -34.176   6.383   3.242  1.00 20.00     0.051 C 
HETATM    9  C6  UNL     1     -35.520   6.210   3.946  1.00 20.00     0.018 C 
BRANCH   8  10
HETATM   10  C9  UNL     1     -33.329   5.109   3.369  1.00 20.00     0.007 C 
HETATM   11  C5  UNL     1     -34.015   4.032   4.201  1.00 20.00     0.006 C 
ENDBRANCH   8  10
ENDBRANCH   1   8
TORSDOF 5
ENDMDL
MODEL 4
REMARK VINA RESULT:      -1.3      0.885      4.747
REMARK  5 active torsions:
REMARK  status: ('A' for Active; 'I' for Inactive)
REMARK    1  A    between atoms: C2_2  and  C7_7 
REMARK    2  A    between atoms: C2_2  and  C8_8 
REMARK    3  A    between atoms: C3_3  and  C7_7 
REMARK    4  A    between atoms: C3_3  and  C10_10 
REMARK    5  A    between atoms: C9_9  and  C10_10 
ROOT
HETATM    1  C3  UNL     1     -32.808   6.735   2.160  1.00 20.00     0.134 C 
HETATM    2  O11 UNL     1     -32.505   5.810   1.405  1.00 20.00    -0.297 OA
ENDROOT
BRANCH   1   3
HETATM    3  C7  UNL     1     -31.963   7.997   2.286  1.00 20.00     0.111 C 
BRANCH   3   4
HETATM    4  C2  UNL     1     -31.892   8.757   0.983  1.00 20.00    -0.083 C 
HETATM    5  C1  UNL     1     -31.067   8.343   0.008  1.00 20.00     0.014 C 
BRANCH   4   6
HETATM    6  C8  UNL     1     -32.778   9.984   0.901  1.00 20.00     0.029 C 
HETATM    7  C4  UNL     1     -32.994  10.593  -0.480  1.00 20.00     0.010 C 
ENDBRANCH   4   6
ENDBRANCH   3   4
ENDBRANCH   1   3
BRANCH   1   8
HETATM    8  C10 UNL     1     -34.059   6.678   3.036  1.00 20.00     0.051 C 
HETATM    9  C6  UNL     1     -33.923   7.730   4.134  1.00 20.00     0.018 C 
BRANCH   8  10
HETATM   10  C9  UNL     1     -34.272   5.284   3.644  1.00 20.00     0.007 C 
HETATM   11  C5  UNL     1     -35.447   5.243   4.613  1.00 20.00     0.006 C 
ENDBRANCH   8  10
ENDBRANCH   1   8
TORSDOF 5
ENDMDL
MODEL 5
REMARK VINA RESULT:      -1.3      0.831      4.304
REMARK  5 active torsions:
REMARK  status: ('A' for Active; 'I' for Inactive)
REMARK    1  A    between atoms: C2_2  and  C7_7 
REMARK    2  A    between atoms: C2_2  and  C8_8 
REMARK    3  A    between atoms: C3_3  and  C7_7 
REMARK    4  A    between atoms: C3_3  and  C10_10 
REMARK    5  A    between atoms: C9_9  and  C10_10 
ROOT
HETATM    1  C3  UNL     1     -32.941   5.903   1.977  1.00 20.00     0.134 C 
HETATM    2  O11 UNL     1     -32.279   5.028   1.417  1.00 20.00    -0.297 OA
ENDROOT
BRANCH   1   3
HETATM    3  C7  UNL     1     -33.281   7.228   1.305  1.00 20.00     0.111 C 
BRANCH   3   4
HETATM    4  C2  UNL     1     -32.128   8.201   1.372  1.00 20.00    -0.083 C 
HETATM    5  C1  UNL     1     -31.336   8.231   2.456  1.00 20.00     0.014 C 
BRANCH   4   6
HETATM    6  C8  UNL     1     -31.980   9.112   0.170  1.00 20.00     0.029 C 
HETATM    7  C4  UNL     1     -32.668  10.471   0.239  1.00 20.00     0.010 C 
ENDBRANCH   4   6
ENDBRANCH   3   4
ENDBRANCH   1   3
BRANCH   1   8
HETATM    8  C10 UNL     1     -33.464   5.723   3.402  1.00 20.00     0.051 C 
HETATM    9  C6  UNL     1     -33.938   4.280   3.559  1.00 20.00     0.018 C 
BRANCH   8  10
HETATM   10  C9  UNL     1     -34.599   6.704   3.727  1.00 20.00     0.007 C 
HETATM   11  C5  UNL     1     -34.152   7.827   4.654  1.00 20.00     0.006 C 
ENDBRANCH   8  10
ENDBRANCH   1   8
TORSDOF 5
ENDMDL
MODEL 6
REMARK VINA RESULT:      -1.3      1.321      2.073
REMARK  5 active torsions:
REMARK  status: ('A' for Active; 'I' for Inactive)
REMARK    1  A    between atoms: C2_2  and  C7_7 
REMARK    2  A    between atoms: C2_2  and  C8_8 
REMARK    3  A    between atoms: C3_3  and  C7_7 
REMARK    4  A    between atoms: C3_3  and  C10_10 
REMARK    5  A    between atoms: C9_9  and  C10_10 
ROOT
HETATM    1  C3  UNL     1     -33.491   7.118   3.158  1.00 20.00     0.134 C 
HETATM    2  O11 UNL     1     -32.935   7.604   4.144  1.00 20.00    -0.297 OA
ENDROOT
BRANCH   1   3
HETATM    3  C7  UNL     1     -34.832   6.398   3.247  1.00 20.00     0.111 C 
BRANCH   3   4
HETATM    4  C2  UNL     1     -34.747   5.164   4.113  1.00 20.00    -0.083 C 
HETATM    5  C1  UNL     1     -35.573   5.021   5.162  1.00 20.00     0.014 C 
BRANCH   4   6
HETATM    6  C8  UNL     1     -33.675   4.168   3.716  1.00 20.00     0.029 C 
HETATM    7  C4  UNL     1     -33.343   3.069   4.721  1.00 20.00     0.010 C 
ENDBRANCH   4   6
ENDBRANCH   3   4
ENDBRANCH   1   3
BRANCH   1   8
HETATM    8  C10 UNL     1     -32.865   7.197   1.765  1.00 20.00     0.051 C 
HETATM    9  C6  UNL     1     -32.183   5.863   1.472  1.00 20.00     0.018 C 
BRANCH   8  10
HETATM   10  C9  UNL     1     -31.865   8.355   1.649  1.00 20.00     0.007 C 
HETATM   11  C5  UNL     1     -32.286   9.388   0.611  1.00 20.00     0.006 C 
ENDBRANCH   8  10
ENDBRANCH   1   8
TORSDOF 5
ENDMDL
MODEL 7
REMARK VINA RESULT:      -1.1      0.577      1.627
REMARK  5 active torsions:
REMARK  status: ('A' for Active; 'I' for Inactive)
REMARK    1  A    between atoms: C2_2  and  C7_7 
REMARK    2  A    between atoms: C2_2  and  C8_8 
REMARK    3  A    between atoms: C3_3  and  C7_7 
REMARK    4  A    between atoms: C3_3  and  C10_10 
REMARK    5  A    between atoms: C9_9  and  C10_10 
ROOT
HETATM    1  C3  UNL     1     -32.312   6.513   1.577  1.00 20.00     0.134 C 
HETATM    2  O11 UNL     1     -31.585   5.523   1.493  1.00 20.00    -0.297 OA
ENDROOT
BRANCH   1   3
HETATM    3  C7  UNL     1     -33.812   6.408   1.830  1.00 20.00     0.111 C 
BRANCH   3   4
HETATM    4  C2  UNL     1     -34.115   6.102   3.277  1.00 20.00    -0.083 C 
HETATM    5  C1  UNL     1     -33.961   4.853   3.746  1.00 20.00     0.014 C 
BRANCH   4   6
HETATM    6  C8  UNL     1     -34.611   7.277   4.096  1.00 20.00     0.029 C 
HETATM    7  C4  UNL     1     -33.581   8.014   4.946  1.00 20.00     0.010 C 
ENDBRANCH   4   6
ENDBRANCH   3   4
ENDBRANCH   1   3
BRANCH   1   8
HETATM    8  C10 UNL     1     -31.758   7.929   1.422  1.00 20.00     0.051 C 
HETATM    9  C6  UNL     1     -31.124   8.342   2.748  1.00 20.00     0.018 C 
BRANCH   8  10
HETATM   10  C9  UNL     1     -32.845   8.930   1.005  1.00 20.00     0.007 C 
HETATM   11  C5  UNL     1     -32.354   9.923  -0.040  1.00 20.00     0.006 C 
ENDBRANCH   8  10
ENDBRANCH   1   8
TORSDOF 5
ENDMDL
MODEL 8
REMARK VINA RESULT:      -1.1      1.582      2.644
REMARK  5 active torsions:
REMARK  status: ('A' for Active; 'I' for Inactive)
REMARK    1  A    between atoms: C2_2  and  C7_7 
REMARK    2  A    between atoms: C2_2  and  C8_8 
REMARK    3  A    between atoms: C3_3  and  C7_7 
REMARK    4  A    between atoms: C3_3  and  C10_10 
REMARK    5  A    between atoms: C9_9  and  C10_10 
ROOT
HETATM    1  C3  UNL     1     -33.410   7.096   3.322  1.00 20.00     0.134 C 
HETATM    2  O11 UNL     1     -33.273   7.811   4.316  1.00 20.00    -0.297 OA
ENDROOT
BRANCH   1   3
HETATM    3  C7  UNL     1     -34.640   6.222   3.106  1.00 20.00     0.111 C 
BRANCH   3   4
HETATM    4  C2  UNL     1     -34.670   5.051   4.059  1.00 20.00    -0.083 C 
HETATM    5  C1  UNL     1     -35.517   5.054   5.100  1.00 20.00     0.014 C 
BRANCH   4   6
HETATM    6  C8  UNL     1     -33.680   3.944   3.753  1.00 20.00     0.029 C 
HETATM    7  C4  UNL     1     -33.228   3.075   4.922  1.00 20.00     0.010 C 
ENDBRANCH   4   6
ENDBRANCH   3   4
ENDBRANCH   1   3
BRANCH   1   8
HETATM    8  C10 UNL     1     -32.341   7.027   2.231  1.00 20.00     0.051 C 
HETATM    9  C6  UNL     1     -32.167   8.426   1.643  1.00 20.00     0.018 C 
BRANCH   8  10
HETATM   10  C9  UNL     1     -32.704   6.018   1.133  1.00 20.00     0.007 C 
HETATM   11  C5  UNL     1     -31.664   4.914   0.988  1.00 20.00     0.006 C 
ENDBRANCH   8  10
ENDBRANCH   1   8
TORSDOF 5
ENDMDL
MODEL 9
REMARK VINA RESULT:      -1.0      1.211      1.408
REMARK  5 active torsions:
REMARK  status: ('A' for Active; 'I' for Inactive)
REMARK    1  A    between atoms: C2_2  and  C7_7 
REMARK    2  A    between atoms: C2_2  and  C8_8 
REMARK    3  A    between atoms: C3_3  and  C7_7 
REMARK    4  A    between atoms: C3_3  and  C10_10 
REMARK    5  A    between atoms: C9_9  and  C10_10 
ROOT
HETATM    1  C3  UNL     1     -32.297   7.813   2.213  1.00 20.00     0.134 C 
HETATM    2  O11 UNL     1     -31.578   8.260   3.107  1.00 20.00    -0.297 OA
ENDROOT
BRANCH   1   3
HETATM    3  C7  UNL     1     -33.141   6.556   2.393  1.00 20.00     0.111 C 
BRANCH   3   4
HETATM    4  C2  UNL     1     -34.087   6.681   3.563  1.00 20.00    -0.083 C 
HETATM    5  C1  UNL     1     -34.237   7.863   4.183  1.00 20.00     0.014 C 
BRANCH   4   6
HETATM    6  C8  UNL     1     -34.791   5.400   3.965  1.00 20.00     0.029 C 
HETATM    7  C4  UNL     1     -33.941   4.135   4.041  1.00 20.00     0.010 C 
ENDBRANCH   4   6
ENDBRANCH   3   4
ENDBRANCH   1   3
BRANCH   1   8
HETATM    8  C10 UNL     1     -32.387   8.488   0.844  1.00 20.00     0.051 C 
HETATM    9  C6  UNL     1     -31.051   8.301   0.129  1.00 20.00     0.018 C 
BRANCH   8  10
HETATM   10  C9  UNL     1     -32.736   9.978   0.960  1.00 20.00     0.007 C 
HETATM   11  C5  UNL     1     -32.880  10.652  -0.399  1.00 20.00     0.006 C 
ENDBRANCH   8  10
ENDBRANCH   1   8
TORSDOF 5
ENDMDL
