MODEL 1
REMARK VINA RESULT:       1.4      0.000      0.000
REMARK  2 active torsions:
REMARK  status: ('A' for Active; 'I' for Inactive)
REMARK    1  A    between atoms: C5_5  and  O9_9 
REMARK    2  A    between atoms: C7_7  and  O9_9 
ROOT
HETATM    1  C1  UNL     1     -35.020   6.225   3.606  1.00 20.00     0.098 C 
HETATM    2  C2  UNL     1     -33.708   5.832   1.547  1.00 20.00     0.065 C 
HETATM    3  C3  UNL     1     -32.291   5.997   1.016  1.00 20.00     0.078 C 
HETATM    4  C4  UNL     1     -32.900   7.442   3.204  1.00 20.00     0.127 C 
HETATM    5  C5  UNL     1     -33.665   6.127   3.047  1.00 20.00     0.157 C 
HETATM    6  N8  UNL     1     -36.091   6.302   4.047  1.00 20.00    -0.194 NA
HETATM    7  S10 UNL     1     -31.619   7.423   1.909  1.00 20.00    -0.165 SA
ENDROOT
BRANCH   5   8
HETATM    8  O9  UNL     1     -32.964   5.074   3.707  1.00 20.00    -0.365 OA
BRANCH   8   9
HETATM    9  C7  UNL     1     -33.829   3.992   4.016  1.00 20.00     0.165 C 
HETATM   10  C6  UNL     1     -33.052   2.941   4.780  1.00 20.00     0.033 C 
ENDBRANCH   8   9
ENDBRANCH   5   8
TORSDOF 2
ENDMDL
MODEL 2
REMARK VINA RESULT:       1.7      2.937      4.470
REMARK  2 active torsions:
REMARK  status: ('A' for Active; 'I' for Inactive)
REMARK    1  A    between atoms: C5_5  and  O9_9 
REMARK    2  A    between atoms: C7_7  and  O9_9 
ROOT
HETATM    1  C1  UNL     1     -32.153   6.077   1.547  1.00 20.00     0.098 C 
HETATM    2  C2  UNL     1     -34.074   6.546   3.032  1.00 20.00     0.065 C 
HETATM    3  C3  UNL     1     -34.566   7.607   4.006  1.00 20.00     0.078 C 
HETATM    4  C4  UNL     1     -31.936   7.664   3.436  1.00 20.00     0.127 C 
HETATM    5  C5  UNL     1     -32.838   7.112   2.333  1.00 20.00     0.157 C 
HETATM    6  N8  UNL     1     -31.612   5.259   0.926  1.00 20.00    -0.194 NA
HETATM    7  S10 UNL     1     -33.060   8.338   4.701  1.00 20.00    -0.165 SA
ENDROOT
BRANCH   5   8
HETATM    8  O9  UNL     1     -33.242   8.168   1.460  1.00 20.00    -0.365 OA
BRANCH   8   9
HETATM    9  C7  UNL     1     -32.126   8.915   1.001  1.00 20.00     0.165 C 
HETATM   10  C6  UNL     1     -32.595   9.920  -0.029  1.00 20.00     0.033 C 
ENDBRANCH   8   9
ENDBRANCH   5   8
TORSDOF 2
ENDMDL
MODEL 3
REMARK VINA RESULT:       2.3      3.181      3.899
REMARK  2 active torsions:
REMARK  status: ('A' for Active; 'I' for Inactive)
REMARK    1  A    between atoms: C5_5  and  O9_9 
REMARK    2  A    between atoms: C7_7  and  O9_9 
ROOT
HETATM    1  C1  UNL     1     -32.374   8.858   1.028  1.00 20.00     0.098 C 
HETATM    2  C2  UNL     1     -32.201   8.683   3.490  1.00 20.00     0.065 C 
HETATM    3  C3  UNL     1     -32.705   7.819   4.637  1.00 20.00     0.078 C 
HETATM    4  C4  UNL     1     -34.088   7.637   2.335  1.00 20.00     0.127 C 
HETATM    5  C5  UNL     1     -32.607   7.988   2.189  1.00 20.00     0.157 C 
HETATM    6  N8  UNL     1     -32.190   9.545   0.112  1.00 20.00    -0.194 NA
HETATM    7  S10 UNL     1     -34.323   7.212   4.090  1.00 20.00    -0.165 SA
ENDROOT
BRANCH   5   8
HETATM    8  O9  UNL     1     -31.836   6.796   2.040  1.00 20.00    -0.365 OA
BRANCH   8   9
HETATM    9  C7  UNL     1     -32.601   5.755   1.453  1.00 20.00     0.165 C 
HETATM   10  C6  UNL     1     -31.668   4.792   0.750  1.00 20.00     0.033 C 
ENDBRANCH   8   9
ENDBRANCH   5   8
TORSDOF 2
ENDMDL
MODEL 4
REMARK VINA RESULT:       2.5      2.037      2.603
REMARK  2 active torsions:
REMARK  status: ('A' for Active; 'I' for Inactive)
REMARK    1  A    between atoms: C5_5  and  O9_9 
REMARK    2  A    between atoms: C7_7  and  O9_9 
ROOT
HETATM    1  C1  UNL     1     -33.512   5.368   1.155  1.00 20.00     0.098 C 
HETATM    2  C2  UNL     1     -32.525   7.180   2.521  1.00 20.00     0.065 C 
HETATM    3  C3  UNL     1     -32.686   7.831   3.886  1.00 20.00     0.078 C 
HETATM    4  C4  UNL     1     -34.783   6.380   3.025  1.00 20.00     0.127 C 
HETATM    5  C5  UNL     1     -33.415   5.935   2.507  1.00 20.00     0.157 C 
HETATM    6  N8  UNL     1     -33.588   4.921   0.087  1.00 20.00    -0.194 NA
HETATM    7  S10 UNL     1     -34.442   7.644   4.291  1.00 20.00    -0.165 SA
ENDROOT
BRANCH   5   8
HETATM    8  O9  UNL     1     -32.856   4.957   3.383  1.00 20.00    -0.365 OA
BRANCH   8   9
HETATM    9  C7  UNL     1     -33.859   4.097   3.904  1.00 20.00     0.165 C 
HETATM   10  C6  UNL     1     -33.197   2.997   4.706  1.00 20.00     0.033 C 
ENDBRANCH   8   9
ENDBRANCH   5   8
TORSDOF 2
ENDMDL
MODEL 5
REMARK VINA RESULT:       2.6      2.906      3.498
REMARK  2 active torsions:
REMARK  status: ('A' for Active; 'I' for Inactive)
REMARK    1  A    between atoms: C5_5  and  O9_9 
REMARK    2  A    between atoms: C7_7  and  O9_9 
ROOT
HETATM    1  C1  UNL     1     -32.504   9.056   1.125  1.00 20.00     0.098 C 
HETATM    2  C2  UNL     1     -33.499   6.792   1.045  1.00 20.00     0.065 C 
HETATM    3  C3  UNL     1     -33.208   5.372   1.508  1.00 20.00     0.078 C 
HETATM    4  C4  UNL     1     -31.098   7.042   1.443  1.00 20.00     0.127 C 
HETATM    5  C5  UNL     1     -32.454   7.701   1.693  1.00 20.00     0.157 C 
HETATM    6  N8  UNL     1     -32.545  10.125   0.676  1.00 20.00    -0.194 NA
HETATM    7  S10 UNL     1     -31.400   5.248   1.527  1.00 20.00    -0.165 SA
ENDROOT
BRANCH   5   8
HETATM    8  O9  UNL     1     -32.709   7.775   3.096  1.00 20.00    -0.365 OA
BRANCH   8   9
HETATM    9  C7  UNL     1     -34.080   8.032   3.359  1.00 20.00     0.165 C 
HETATM   10  C6  UNL     1     -34.613   6.964   4.289  1.00 20.00     0.033 C 
ENDBRANCH   8   9
ENDBRANCH   5   8
TORSDOF 2
ENDMDL
MODEL 6
REMARK VINA RESULT:       2.6      2.070      3.253
REMARK  2 active torsions:
REMARK  status: ('A' for Active; 'I' for Inactive)
REMARK    1  A    between atoms: C5_5  and  O9_9 
REMARK    2  A    between atoms: C7_7  and  O9_9 
ROOT
HETATM    1  C1  UNL     1     -33.511   3.876   4.271  1.00 20.00     0.098 C 
HETATM    2  C2  UNL     1     -35.402   5.456   4.058  1.00 20.00     0.065 C 
HETATM    3  C3  UNL     1     -35.682   6.891   3.635  1.00 20.00     0.078 C 
HETATM    4  C4  UNL     1     -33.119   6.321   4.228  1.00 20.00     0.127 C 
HETATM    5  C5  UNL     1     -33.948   5.154   3.693  1.00 20.00     0.157 C 
HETATM    6  N8  UNL     1     -33.166   2.866   4.728  1.00 20.00    -0.194 NA
HETATM    7  S10 UNL     1     -34.164   7.799   4.028  1.00 20.00    -0.165 SA
ENDROOT
BRANCH   5   8
HETATM    8  O9  UNL     1     -33.832   5.085   2.271  1.00 20.00    -0.365 OA
BRANCH   8   9
HETATM    9  C7  UNL     1     -32.706   5.816   1.809  1.00 20.00     0.165 C 
HETATM   10  C6  UNL     1     -31.943   4.970   0.813  1.00 20.00     0.033 C 
ENDBRANCH   8   9
ENDBRANCH   5   8
TORSDOF 2
ENDMDL
MODEL 7
REMARK VINA RESULT:       2.7      2.639      3.429
REMARK  2 active torsions:
REMARK  status: ('A' for Active; 'I' for Inactive)
REMARK    1  A    between atoms: C5_5  and  O9_9 
REMARK    2  A    between atoms: C7_7  and  O9_9 
ROOT
HETATM    1  C1  UNL     1     -32.468   5.980   1.515  1.00 20.00     0.098 C 
HETATM    2  C2  UNL     1     -31.523   8.144   2.251  1.00 20.00     0.065 C 
HETATM    3  C3  UNL     1     -31.748   9.638   2.070  1.00 20.00     0.078 C 
HETATM    4  C4  UNL     1     -32.877   8.048   0.215  1.00 20.00     0.127 C 
HETATM    5  C5  UNL     1     -32.707   7.427   1.601  1.00 20.00     0.157 C 
HETATM    6  N8  UNL     1     -32.279   4.837   1.448  1.00 20.00    -0.194 NA
HETATM    7  S10 UNL     1     -32.450   9.808   0.408  1.00 20.00    -0.165 SA
ENDROOT
BRANCH   5   8
HETATM    8  O9  UNL     1     -33.877   7.660   2.386  1.00 20.00    -0.365 OA
BRANCH   8   9
HETATM    9  C7  UNL     1     -33.782   7.031   3.655  1.00 20.00     0.165 C 
HETATM   10  C6  UNL     1     -35.105   6.373   3.981  1.00 20.00     0.033 C 
ENDBRANCH   8   9
ENDBRANCH   5   8
TORSDOF 2
ENDMDL
MODEL 8
REMARK VINA RESULT:       2.8      2.669      3.650
REMARK  2 active torsions:
REMARK  status: ('A' for Active; 'I' for Inactive)
REMARK    1  A    between atoms: C5_5  and  O9_9 
REMARK    2  A    between atoms: C7_7  and  O9_9 
ROOT
HETATM    1  C1  UNL     1     -32.342   7.288   2.150  1.00 20.00     0.098 C 
HETATM    2  C2  UNL     1     -32.874   5.176   3.322  1.00 20.00     0.065 C 
HETATM    3  C3  UNL     1     -34.075   4.404   3.849  1.00 20.00     0.078 C 
HETATM    4  C4  UNL     1     -34.480   7.022   3.372  1.00 20.00     0.127 C 
HETATM    5  C5  UNL     1     -33.415   6.350   2.505  1.00 20.00     0.157 C 
HETATM    6  N8  UNL     1     -31.493   8.028   1.870  1.00 20.00    -0.194 NA
HETATM    7  S10 UNL     1     -35.291   5.673   4.288  1.00 20.00    -0.165 SA
ENDROOT
BRANCH   5   8
HETATM    8  O9  UNL     1     -34.008   5.846   1.308  1.00 20.00    -0.365 OA
BRANCH   8   9
HETATM    9  C7  UNL     1     -33.059   5.152   0.513  1.00 20.00     0.165 C 
HETATM   10  C6  UNL     1     -33.789   4.192  -0.402  1.00 20.00     0.033 C 
ENDBRANCH   8   9
ENDBRANCH   5   8
TORSDOF 2
ENDMDL
MODEL 9
REMARK VINA RESULT:       3.1      3.057      4.519
REMARK  2 active torsions:
REMARK  status: ('A' for Active; 'I' for Inactive)
REMARK    1  A    between atoms: C5_5  and  O9_9 
REMARK    2  A    between atoms: C7_7  and  O9_9 
ROOT
HETATM    1  C1  UNL     1     -31.811   8.575   3.344  1.00 20.00     0.098 C 
HETATM    2  C2  UNL     1     -31.545   6.631   1.838  1.00 20.00     0.065 C 
HETATM    3  C3  UNL     1     -32.389   5.605   1.095  1.00 20.00     0.078 C 
HETATM    4  C4  UNL     1     -33.615   6.893   3.117  1.00 20.00     0.127 C 
HETATM    5  C5  UNL     1     -32.504   7.674   2.414  1.00 20.00     0.157 C 
HETATM    6  N8  UNL     1     -31.263   9.287   4.078  1.00 20.00    -0.194 NA
HETATM    7  S10 UNL     1     -33.872   5.394   2.115  1.00 20.00    -0.165 SA
ENDROOT
BRANCH   5   8
HETATM    8  O9  UNL     1     -33.052   8.442   1.342  1.00 20.00    -0.365 OA
BRANCH   8   9
HETATM    9  C7  UNL     1     -32.039   9.151   0.645  1.00 20.00     0.165 C 
HETATM   10  C6  UNL     1     -32.672  10.302  -0.108  1.00 20.00     0.033 C 
ENDBRANCH   8   9
ENDBRANCH   5   8
TORSDOF 2
ENDMDL
