MODEL 1
REMARK VINA RESULT:      -1.8      0.000      0.000
REMARK  5 active torsions:
REMARK  status: ('A' for Active; 'I' for Inactive)
REMARK    1  A    between atoms: C3_3  and  C6_6 
REMARK    2  A    between atoms: C3_3  and  C7_7 
REMARK    3  A    between atoms: C6_6  and  C10_10 
REMARK    4  A    between atoms: C8_8  and  C9_9 
REMARK    5  A    between atoms: C9_9  and  C10_10 
ROOT
HETATM    1  C6  UNL     1     -32.966   5.679   3.003  1.00 20.00     0.015 C 
ENDROOT
BRANCH   1   2
HETATM    2  C3  UNL     1     -34.254   5.978   3.756  1.00 20.00    -0.027 A 
HETATM    3  C1  UNL     1     -34.391   7.330   4.417  1.00 20.00     0.011 A 
HETATM    4  C2  UNL     1     -35.185   7.020   3.181  1.00 20.00     0.011 A 
BRANCH   2   5
HETATM    5  C7  UNL     1     -34.865   4.791   4.447  1.00 20.00     0.124 C 
HETATM    6 CL11 UNL     1     -33.744   3.407   4.440  1.00 20.00    -0.130 Cl
ENDBRANCH   2   5
ENDBRANCH   1   2
BRANCH   1   7
HETATM    7  C10 UNL     1     -32.899   6.326   1.608  1.00 20.00    -0.018 C 
HETATM    8  C5  UNL     1     -32.675   5.245   0.545  1.00 20.00     0.010 C 
BRANCH   7   9
HETATM    9  C9  UNL     1     -31.864   7.464   1.478  1.00 20.00     0.004 C 
BRANCH   9  10
HETATM   10  C8  UNL     1     -32.445   8.880   1.502  1.00 20.00    -0.004 C 
HETATM   11  C4  UNL     1     -32.358   9.535   0.131  1.00 20.00     0.005 C 
ENDBRANCH   9  10
ENDBRANCH   7   9
ENDBRANCH   1   7
TORSDOF 5
ENDMDL
MODEL 2
REMARK VINA RESULT:      -1.7      2.448      4.932
REMARK  5 active torsions:
REMARK  status: ('A' for Active; 'I' for Inactive)
REMARK    1  A    between atoms: C3_3  and  C6_6 
REMARK    2  A    between atoms: C3_3  and  C7_7 
REMARK    3  A    between atoms: C6_6  and  C10_10 
REMARK    4  A    between atoms: C8_8  and  C9_9 
REMARK    5  A    between atoms: C9_9  and  C10_10 
ROOT
HETATM    1  C6  UNL     1     -33.241   6.822   3.406  1.00 20.00     0.015 C 
ENDROOT
BRANCH   1   2
HETATM    2  C3  UNL     1     -32.521   6.873   2.067  1.00 20.00    -0.027 A 
HETATM    3  C1  UNL     1     -31.998   5.576   1.494  1.00 20.00     0.011 A 
HETATM    4  C2  UNL     1     -33.195   6.236   0.874  1.00 20.00     0.011 A 
BRANCH   2   5
HETATM    5  C7  UNL     1     -31.714   8.121   1.837  1.00 20.00     0.124 C 
HETATM    6 CL11 UNL     1     -32.524   9.192   0.668  1.00 20.00    -0.130 Cl
ENDBRANCH   2   5
ENDBRANCH   1   2
BRANCH   1   7
HETATM    7  C10 UNL     1     -34.495   5.929   3.401  1.00 20.00    -0.018 C 
HETATM    8  C5  UNL     1     -35.747   6.793   3.587  1.00 20.00     0.010 C 
BRANCH   7   9
HETATM    9  C9  UNL     1     -34.459   4.767   4.416  1.00 20.00     0.004 C 
BRANCH   9  10
HETATM   10  C8  UNL     1     -33.668   3.535   3.969  1.00 20.00    -0.004 C 
HETATM   11  C4  UNL     1     -32.918   2.907   5.135  1.00 20.00     0.005 C 
ENDBRANCH   9  10
ENDBRANCH   7   9
ENDBRANCH   1   7
TORSDOF 5
ENDMDL
MODEL 3
REMARK VINA RESULT:      -1.5      1.761      4.548
REMARK  5 active torsions:
REMARK  status: ('A' for Active; 'I' for Inactive)
REMARK    1  A    between atoms: C3_3  and  C6_6 
REMARK    2  A    between atoms: C3_3  and  C7_7 
REMARK    3  A    between atoms: C6_6  and  C10_10 
REMARK    4  A    between atoms: C8_8  and  C9_9 
REMARK    5  A    between atoms: C9_9  and  C10_10 
ROOT
HETATM    1  C6  UNL     1     -33.327   6.943   3.390  1.00 20.00     0.015 C 
ENDROOT
BRANCH   1   2
HETATM    2  C3  UNL     1     -32.664   7.075   2.027  1.00 20.00    -0.027 A 
HETATM    3  C1  UNL     1     -32.606   8.447   1.396  1.00 20.00     0.011 A 
HETATM    4  C2  UNL     1     -31.354   7.824   1.944  1.00 20.00     0.011 A 
BRANCH   2   5
HETATM    5  C7  UNL     1     -32.857   5.890   1.120  1.00 20.00     0.124 C 
HETATM    6 CL11 UNL     1     -31.431   4.824   1.160  1.00 20.00    -0.130 Cl
ENDBRANCH   2   5
ENDBRANCH   1   2
BRANCH   1   7
HETATM    7  C10 UNL     1     -34.522   5.973   3.406  1.00 20.00    -0.018 C 
HETATM    8  C5  UNL     1     -35.823   6.758   3.606  1.00 20.00     0.010 C 
BRANCH   7   9
HETATM    9  C9  UNL     1     -34.398   4.821   4.425  1.00 20.00     0.004 C 
BRANCH   9  10
HETATM   10  C8  UNL     1     -33.634   3.591   3.929  1.00 20.00    -0.004 C 
HETATM   11  C4  UNL     1     -32.940   2.872   5.078  1.00 20.00     0.005 C 
ENDBRANCH   9  10
ENDBRANCH   7   9
ENDBRANCH   1   7
TORSDOF 5
ENDMDL
MODEL 4
REMARK VINA RESULT:      -1.2      2.641      5.011
REMARK  5 active torsions:
REMARK  status: ('A' for Active; 'I' for Inactive)
REMARK    1  A    between atoms: C3_3  and  C6_6 
REMARK    2  A    between atoms: C3_3  and  C7_7 
REMARK    3  A    between atoms: C6_6  and  C10_10 
REMARK    4  A    between atoms: C8_8  and  C9_9 
REMARK    5  A    between atoms: C9_9  and  C10_10 
ROOT
HETATM    1  C6  UNL     1     -33.195   7.578   3.345  1.00 20.00     0.015 C 
ENDROOT
BRANCH   1   2
HETATM    2  C3  UNL     1     -32.489   8.042   2.079  1.00 20.00    -0.027 A 
HETATM    3  C1  UNL     1     -31.079   7.558   1.835  1.00 20.00     0.011 A 
HETATM    4  C2  UNL     1     -32.208   7.016   1.007  1.00 20.00     0.011 A 
BRANCH   2   5
HETATM    5  C7  UNL     1     -32.841   9.439   1.643  1.00 20.00     0.124 C 
HETATM    6 CL11 UNL     1     -32.507   9.663  -0.092  1.00 20.00    -0.130 Cl
ENDBRANCH   2   5
ENDBRANCH   1   2
BRANCH   1   7
HETATM    7  C10 UNL     1     -34.096   6.348   3.136  1.00 20.00    -0.018 C 
HETATM    8  C5  UNL     1     -35.344   6.464   4.018  1.00 20.00     0.010 C 
BRANCH   7   9
HETATM    9  C9  UNL     1     -33.388   4.992   3.341  1.00 20.00     0.004 C 
BRANCH   9  10
HETATM   10  C8  UNL     1     -34.089   4.029   4.301  1.00 20.00    -0.004 C 
HETATM   11  C4  UNL     1     -33.150   2.919   4.754  1.00 20.00     0.005 C 
ENDBRANCH   9  10
ENDBRANCH   7   9
ENDBRANCH   1   7
TORSDOF 5
ENDMDL
MODEL 5
REMARK VINA RESULT:      -1.1      1.633      2.039
REMARK  5 active torsions:
REMARK  status: ('A' for Active; 'I' for Inactive)
REMARK    1  A    between atoms: C3_3  and  C6_6 
REMARK    2  A    between atoms: C3_3  and  C7_7 
REMARK    3  A    between atoms: C6_6  and  C10_10 
REMARK    4  A    between atoms: C8_8  and  C9_9 
REMARK    5  A    between atoms: C9_9  and  C10_10 
ROOT
HETATM    1  C6  UNL     1     -33.170   6.121   3.149  1.00 20.00     0.015 C 
ENDROOT
BRANCH   1   2
HETATM    2  C3  UNL     1     -34.426   6.703   3.780  1.00 20.00    -0.027 A 
HETATM    3  C1  UNL     1     -35.759   6.356   3.156  1.00 20.00     0.011 A 
HETATM    4  C2  UNL     1     -35.374   5.755   4.477  1.00 20.00     0.011 A 
BRANCH   2   5
HETATM    5  C7  UNL     1     -34.256   8.081   4.358  1.00 20.00     0.124 C 
HETATM    6 CL11 UNL     1     -32.612   8.296   5.008  1.00 20.00    -0.130 Cl
ENDBRANCH   2   5
ENDBRANCH   1   2
BRANCH   1   7
HETATM    7  C10 UNL     1     -32.922   6.600   1.707  1.00 20.00    -0.018 C 
HETATM    8  C5  UNL     1     -32.520   5.411   0.828  1.00 20.00     0.010 C 
BRANCH   7   9
HETATM    9  C9  UNL     1     -31.910   7.759   1.582  1.00 20.00     0.004 C 
BRANCH   9  10
HETATM   10  C8  UNL     1     -32.527   9.142   1.359  1.00 20.00    -0.004 C 
HETATM   11  C4  UNL     1     -32.316   9.615  -0.073  1.00 20.00     0.005 C 
ENDBRANCH   9  10
ENDBRANCH   7   9
ENDBRANCH   1   7
TORSDOF 5
ENDMDL
MODEL 6
REMARK VINA RESULT:      -0.9      1.652      2.943
REMARK  5 active torsions:
REMARK  status: ('A' for Active; 'I' for Inactive)
REMARK    1  A    between atoms: C3_3  and  C6_6 
REMARK    2  A    between atoms: C3_3  and  C7_7 
REMARK    3  A    between atoms: C6_6  and  C10_10 
REMARK    4  A    between atoms: C8_8  and  C9_9 
REMARK    5  A    between atoms: C9_9  and  C10_10 
ROOT
HETATM    1  C6  UNL     1     -33.093   7.401   1.797  1.00 20.00     0.015 C 
ENDROOT
BRANCH   1   2
HETATM    2  C3  UNL     1     -33.120   5.883   1.892  1.00 20.00    -0.027 A 
HETATM    3  C1  UNL     1     -33.283   5.095   0.613  1.00 20.00     0.011 A 
HETATM    4  C2  UNL     1     -31.955   5.115   1.312  1.00 20.00     0.011 A 
BRANCH   2   5
HETATM    5  C7  UNL     1     -33.767   5.345   3.139  1.00 20.00     0.124 C 
HETATM    6 CL11 UNL     1     -34.867   6.551   3.852  1.00 20.00    -0.130 Cl
ENDBRANCH   2   5
ENDBRANCH   1   2
BRANCH   1   7
HETATM    7  C10 UNL     1     -31.675   7.999   1.832  1.00 20.00    -0.018 C 
HETATM    8  C5  UNL     1     -31.467   8.759   3.147  1.00 20.00     0.010 C 
BRANCH   7   9
HETATM    9  C9  UNL     1     -31.319   8.876   0.614  1.00 20.00     0.004 C 
BRANCH   9  10
HETATM   10  C8  UNL     1     -32.512   9.504  -0.109  1.00 20.00    -0.004 C 
HETATM   11  C4  UNL     1     -32.827  10.887   0.443  1.00 20.00     0.005 C 
ENDBRANCH   9  10
ENDBRANCH   7   9
ENDBRANCH   1   7
TORSDOF 5
ENDMDL
MODEL 7
REMARK VINA RESULT:      -0.8      1.243      1.877
REMARK  5 active torsions:
REMARK  status: ('A' for Active; 'I' for Inactive)
REMARK    1  A    between atoms: C3_3  and  C6_6 
REMARK    2  A    between atoms: C3_3  and  C7_7 
REMARK    3  A    between atoms: C6_6  and  C10_10 
REMARK    4  A    between atoms: C8_8  and  C9_9 
REMARK    5  A    between atoms: C9_9  and  C10_10 
ROOT
HETATM    1  C6  UNL     1     -33.478   7.374   1.968  1.00 20.00     0.015 C 
ENDROOT
BRANCH   1   2
HETATM    2  C3  UNL     1     -33.848   6.538   3.184  1.00 20.00    -0.027 A 
HETATM    3  C1  UNL     1     -34.218   7.262   4.458  1.00 20.00     0.011 A 
HETATM    4  C2  UNL     1     -35.283   6.570   3.657  1.00 20.00     0.011 A 
BRANCH   2   5
HETATM    5  C7  UNL     1     -33.095   5.241   3.305  1.00 20.00     0.124 C 
HETATM    6 CL11 UNL     1     -34.081   4.011   4.133  1.00 20.00    -0.130 Cl
ENDBRANCH   2   5
ENDBRANCH   1   2
BRANCH   1   7
HETATM    7  C10 UNL     1     -31.986   7.750   1.907  1.00 20.00    -0.018 C 
HETATM    8  C5  UNL     1     -31.610   8.579   3.139  1.00 20.00     0.010 C 
BRANCH   7   9
HETATM    9  C9  UNL     1     -31.556   8.455   0.603  1.00 20.00     0.004 C 
BRANCH   9  10
HETATM   10  C8  UNL     1     -32.646   9.286  -0.079  1.00 20.00    -0.004 C 
HETATM   11  C4  UNL     1     -32.592  10.740   0.369  1.00 20.00     0.005 C 
ENDBRANCH   9  10
ENDBRANCH   7   9
ENDBRANCH   1   7
TORSDOF 5
ENDMDL
MODEL 8
REMARK VINA RESULT:      -0.7      2.418      4.788
REMARK  5 active torsions:
REMARK  status: ('A' for Active; 'I' for Inactive)
REMARK    1  A    between atoms: C3_3  and  C6_6 
REMARK    2  A    between atoms: C3_3  and  C7_7 
REMARK    3  A    between atoms: C6_6  and  C10_10 
REMARK    4  A    between atoms: C8_8  and  C9_9 
REMARK    5  A    between atoms: C9_9  and  C10_10 
ROOT
HETATM    1  C6  UNL     1     -32.548   7.237   3.286  1.00 20.00     0.015 C 
ENDROOT
BRANCH   1   2
HETATM    2  C3  UNL     1     -32.302   7.049   1.796  1.00 20.00    -0.027 A 
HETATM    3  C1  UNL     1     -32.048   5.648   1.290  1.00 20.00     0.011 A 
HETATM    4  C2  UNL     1     -33.354   6.324   0.989  1.00 20.00     0.011 A 
BRANCH   2   5
HETATM    5  C7  UNL     1     -31.564   8.182   1.136  1.00 20.00     0.124 C 
HETATM    6 CL11 UNL     1     -32.685   9.489   0.682  1.00 20.00    -0.130 Cl
ENDBRANCH   2   5
ENDBRANCH   1   2
BRANCH   1   7
HETATM    7  C10 UNL     1     -34.013   7.552   3.636  1.00 20.00    -0.018 C 
HETATM    8  C5  UNL     1     -34.095   8.117   5.059  1.00 20.00     0.010 C 
BRANCH   7   9
HETATM    9  C9  UNL     1     -34.987   6.370   3.445  1.00 20.00     0.004 C 
BRANCH   9  10
HETATM   10  C8  UNL     1     -34.921   5.289   4.527  1.00 20.00    -0.004 C 
HETATM   11  C4  UNL     1     -34.069   4.110   4.079  1.00 20.00     0.005 C 
ENDBRANCH   9  10
ENDBRANCH   7   9
ENDBRANCH   1   7
TORSDOF 5
ENDMDL
MODEL 9
REMARK VINA RESULT:      -0.2      1.357      2.717
REMARK  5 active torsions:
REMARK  status: ('A' for Active; 'I' for Inactive)
REMARK    1  A    between atoms: C3_3  and  C6_6 
REMARK    2  A    between atoms: C3_3  and  C7_7 
REMARK    3  A    between atoms: C6_6  and  C10_10 
REMARK    4  A    between atoms: C8_8  and  C9_9 
REMARK    5  A    between atoms: C9_9  and  C10_10 
ROOT
HETATM    1  C6  UNL     1     -33.814   7.009   2.769  1.00 20.00     0.015 C 
ENDROOT
BRANCH   1   2
HETATM    2  C3  UNL     1     -33.368   5.607   2.382  1.00 20.00    -0.027 A 
HETATM    3  C1  UNL     1     -33.327   5.256   0.913  1.00 20.00     0.011 A 
HETATM    4  C2  UNL     1     -32.045   5.455   1.668  1.00 20.00     0.011 A 
BRANCH   2   5
HETATM    5  C7  UNL     1     -33.773   4.531   3.353  1.00 20.00     0.124 C 
HETATM    6 CL11 UNL     1     -35.094   5.093   4.406  1.00 20.00    -0.130 Cl
ENDBRANCH   2   5
ENDBRANCH   1   2
BRANCH   1   7
HETATM    7  C10 UNL     1     -32.657   7.930   3.197  1.00 20.00    -0.018 C 
HETATM    8  C5  UNL     1     -32.836   8.339   4.664  1.00 20.00     0.010 C 
BRANCH   7   9
HETATM    9  C9  UNL     1     -32.450   9.163   2.292  1.00 20.00     0.004 C 
BRANCH   9  10
HETATM   10  C8  UNL     1     -32.063   8.850   0.845  1.00 20.00    -0.004 C 
HETATM   11  C4  UNL     1     -32.527   9.950  -0.101  1.00 20.00     0.005 C 
ENDBRANCH   9  10
ENDBRANCH   7   9
ENDBRANCH   1   7
TORSDOF 5
ENDMDL
