MODEL 1
REMARK VINA RESULT:      -2.3      0.000      0.000
REMARK  5 active torsions:
REMARK  status: ('A' for Active; 'I' for Inactive)
REMARK    1  A    between atoms: C2_2  and  C5_5 
REMARK    2  A    between atoms: C2_2  and  C6_6 
REMARK    3  A    between atoms: C6_6  and  C7_7 
REMARK    4  A    between atoms: C7_7  and  C9_9 
REMARK    5  A    between atoms: C8_8  and  C9_9 
ROOT
HETATM    1  C6  UNL     1     -32.163   6.454   1.662  1.00 20.00     0.033 C 
ENDROOT
BRANCH   1   2
HETATM    2  C2  UNL     1     -31.892   7.948   1.642  1.00 20.00    -0.090 C 
HETATM    3  C1  UNL     1     -31.517   8.669   2.712  1.00 20.00     0.014 C 
BRANCH   2   4
HETATM    4  C5  UNL     1     -32.100   8.633   0.307  1.00 20.00     0.029 C 
HETATM    5  C3  UNL     1     -32.510  10.092   0.450  1.00 20.00     0.010 C 
ENDBRANCH   2   4
ENDBRANCH   1   2
BRANCH   1   6
HETATM    6  C7  UNL     1     -33.584   6.010   2.047  1.00 20.00     0.009 C 
BRANCH   6   7
HETATM    7  C9  UNL     1     -33.838   6.035   3.569  1.00 20.00    -0.004 C 
HETATM    8  C4  UNL     1     -34.550   7.314   4.020  1.00 20.00     0.011 C 
BRANCH   7   9
HETATM    9  C8  UNL     1     -34.591   4.778   4.039  1.00 20.00     0.119 C 
HETATM   10 CL10 UNL     1     -33.524   3.402   4.411  1.00 20.00    -0.130 Cl
ENDBRANCH   7   9
ENDBRANCH   6   7
ENDBRANCH   1   6
TORSDOF 5
ENDMDL
MODEL 2
REMARK VINA RESULT:      -2.1      2.632      4.935
REMARK  5 active torsions:
REMARK  status: ('A' for Active; 'I' for Inactive)
REMARK    1  A    between atoms: C2_2  and  C5_5 
REMARK    2  A    between atoms: C2_2  and  C6_6 
REMARK    3  A    between atoms: C6_6  and  C7_7 
REMARK    4  A    between atoms: C7_7  and  C9_9 
REMARK    5  A    between atoms: C8_8  and  C9_9 
ROOT
HETATM    1  C6  UNL     1     -33.687   5.976   2.126  1.00 20.00     0.033 C 
ENDROOT
BRANCH   1   2
HETATM    2  C2  UNL     1     -34.261   6.207   3.513  1.00 20.00    -0.090 C 
HETATM    3  C1  UNL     1     -34.306   7.400   4.131  1.00 20.00     0.014 C 
BRANCH   2   4
HETATM    4  C5  UNL     1     -34.780   4.972   4.221  1.00 20.00     0.029 C 
HETATM    5  C3  UNL     1     -33.784   3.822   4.209  1.00 20.00     0.010 C 
ENDBRANCH   2   4
ENDBRANCH   1   2
BRANCH   1   6
HETATM    6  C7  UNL     1     -32.277   6.527   1.857  1.00 20.00     0.009 C 
BRANCH   6   7
HETATM    7  C9  UNL     1     -32.220   8.070   1.838  1.00 20.00    -0.004 C 
HETATM    8  C4  UNL     1     -31.289   8.632   2.916  1.00 20.00     0.011 C 
BRANCH   7   9
HETATM    9  C8  UNL     1     -31.852   8.607   0.443  1.00 20.00     0.119 C 
HETATM   10 CL10 UNL     1     -32.579  10.190   0.071  1.00 20.00    -0.130 Cl
ENDBRANCH   7   9
ENDBRANCH   6   7
ENDBRANCH   1   6
TORSDOF 5
ENDMDL
MODEL 3
REMARK VINA RESULT:      -1.9      2.659      4.667
REMARK  5 active torsions:
REMARK  status: ('A' for Active; 'I' for Inactive)
REMARK    1  A    between atoms: C2_2  and  C5_5 
REMARK    2  A    between atoms: C2_2  and  C6_6 
REMARK    3  A    between atoms: C6_6  and  C7_7 
REMARK    4  A    between atoms: C7_7  and  C9_9 
REMARK    5  A    between atoms: C8_8  and  C9_9 
ROOT
HETATM    1  C6  UNL     1     -33.424   5.781   1.794  1.00 20.00     0.033 C 
ENDROOT
BRANCH   1   2
HETATM    2  C2  UNL     1     -33.983   5.471   3.170  1.00 20.00    -0.090 C 
HETATM    3  C1  UNL     1     -33.721   4.351   3.866  1.00 20.00     0.014 C 
BRANCH   2   4
HETATM    4  C5  UNL     1     -34.920   6.513   3.746  1.00 20.00     0.029 C 
HETATM    5  C3  UNL     1     -34.194   7.575   4.558  1.00 20.00     0.010 C 
ENDBRANCH   2   4
ENDBRANCH   1   2
BRANCH   1   6
HETATM    6  C7  UNL     1     -32.056   6.484   1.741  1.00 20.00     0.009 C 
BRANCH   6   7
HETATM    7  C9  UNL     1     -32.161   8.023   1.794  1.00 20.00    -0.004 C 
HETATM    8  C4  UNL     1     -31.279   8.629   2.891  1.00 20.00     0.011 C 
BRANCH   7   9
HETATM    9  C8  UNL     1     -31.867   8.658   0.423  1.00 20.00     0.119 C 
HETATM   10 CL10 UNL     1     -32.553  10.290   0.230  1.00 20.00    -0.130 Cl
ENDBRANCH   7   9
ENDBRANCH   6   7
ENDBRANCH   1   6
TORSDOF 5
ENDMDL
MODEL 4
REMARK VINA RESULT:      -1.9      1.044      1.210
REMARK  5 active torsions:
REMARK  status: ('A' for Active; 'I' for Inactive)
REMARK    1  A    between atoms: C2_2  and  C5_5 
REMARK    2  A    between atoms: C2_2  and  C6_6 
REMARK    3  A    between atoms: C6_6  and  C7_7 
REMARK    4  A    between atoms: C7_7  and  C9_9 
REMARK    5  A    between atoms: C8_8  and  C9_9 
ROOT
HETATM    1  C6  UNL     1     -33.065   7.665   2.716  1.00 20.00     0.033 C 
ENDROOT
BRANCH   1   2
HETATM    2  C2  UNL     1     -32.282   8.302   1.582  1.00 20.00    -0.090 C 
HETATM    3  C1  UNL     1     -31.255   7.716   0.941  1.00 20.00     0.014 C 
BRANCH   2   4
HETATM    4  C5  UNL     1     -32.705   9.705   1.201  1.00 20.00     0.029 C 
HETATM    5  C3  UNL     1     -32.553   9.984  -0.287  1.00 20.00     0.010 C 
ENDBRANCH   2   4
ENDBRANCH   1   2
BRANCH   1   6
HETATM    6  C7  UNL     1     -33.276   6.143   2.647  1.00 20.00     0.009 C 
BRANCH   6   7
HETATM    7  C9  UNL     1     -34.023   5.576   3.873  1.00 20.00    -0.004 C 
HETATM    8  C4  UNL     1     -35.388   6.239   4.081  1.00 20.00     0.011 C 
BRANCH   7   9
HETATM    9  C8  UNL     1     -34.149   4.044   3.802  1.00 20.00     0.119 C 
HETATM   10 CL10 UNL     1     -33.070   3.184   4.928  1.00 20.00    -0.130 Cl
ENDBRANCH   7   9
ENDBRANCH   6   7
ENDBRANCH   1   6
TORSDOF 5
ENDMDL
MODEL 5
REMARK VINA RESULT:      -1.9      2.703      5.084
REMARK  5 active torsions:
REMARK  status: ('A' for Active; 'I' for Inactive)
REMARK    1  A    between atoms: C2_2  and  C5_5 
REMARK    2  A    between atoms: C2_2  and  C6_6 
REMARK    3  A    between atoms: C6_6  and  C7_7 
REMARK    4  A    between atoms: C7_7  and  C9_9 
REMARK    5  A    between atoms: C8_8  and  C9_9 
ROOT
HETATM    1  C6  UNL     1     -33.402   7.389   3.742  1.00 20.00     0.033 C 
ENDROOT
BRANCH   1   2
HETATM    2  C2  UNL     1     -34.350   6.203   3.723  1.00 20.00    -0.090 C 
HETATM    3  C1  UNL     1     -35.658   6.266   4.023  1.00 20.00     0.014 C 
BRANCH   2   4
HETATM    4  C5  UNL     1     -33.724   4.872   3.361  1.00 20.00     0.029 C 
HETATM    5  C3  UNL     1     -33.898   3.822   4.448  1.00 20.00     0.010 C 
ENDBRANCH   2   4
ENDBRANCH   1   2
BRANCH   1   6
HETATM    6  C7  UNL     1     -33.211   8.148   2.418  1.00 20.00     0.009 C 
BRANCH   6   7
HETATM    7  C9  UNL     1     -31.898   7.783   1.692  1.00 20.00    -0.004 C 
HETATM    8  C4  UNL     1     -31.910   6.350   1.151  1.00 20.00     0.011 C 
BRANCH   7   9
HETATM    9  C8  UNL     1     -31.561   8.798   0.585  1.00 20.00     0.119 C 
HETATM   10 CL10 UNL     1     -32.690  10.173   0.508  1.00 20.00    -0.130 Cl
ENDBRANCH   7   9
ENDBRANCH   6   7
ENDBRANCH   1   6
TORSDOF 5
ENDMDL
MODEL 6
REMARK VINA RESULT:      -1.8      1.519      1.868
REMARK  5 active torsions:
REMARK  status: ('A' for Active; 'I' for Inactive)
REMARK    1  A    between atoms: C2_2  and  C5_5 
REMARK    2  A    between atoms: C2_2  and  C6_6 
REMARK    3  A    between atoms: C6_6  and  C7_7 
REMARK    4  A    between atoms: C7_7  and  C9_9 
REMARK    5  A    between atoms: C8_8  and  C9_9 
ROOT
HETATM    1  C6  UNL     1     -32.928   6.806   1.491  1.00 20.00     0.033 C 
ENDROOT
BRANCH   1   2
HETATM    2  C2  UNL     1     -32.068   8.056   1.533  1.00 20.00    -0.090 C 
HETATM    3  C1  UNL     1     -31.411   8.495   2.620  1.00 20.00     0.014 C 
BRANCH   2   4
HETATM    4  C5  UNL     1     -31.998   8.845   0.242  1.00 20.00     0.029 C 
HETATM    5  C3  UNL     1     -32.627  10.226   0.359  1.00 20.00     0.010 C 
ENDBRANCH   2   4
ENDBRANCH   1   2
BRANCH   1   6
HETATM    6  C7  UNL     1     -32.825   5.851   2.693  1.00 20.00     0.009 C 
BRANCH   6   7
HETATM    7  C9  UNL     1     -34.199   5.388   3.222  1.00 20.00    -0.004 C 
HETATM    8  C4  UNL     1     -34.083   4.205   4.188  1.00 20.00     0.011 C 
BRANCH   7   9
HETATM    9  C8  UNL     1     -34.985   6.552   3.852  1.00 20.00     0.119 C 
HETATM   10 CL10 UNL     1     -33.957   7.732   4.701  1.00 20.00    -0.130 Cl
ENDBRANCH   7   9
ENDBRANCH   6   7
ENDBRANCH   1   6
TORSDOF 5
ENDMDL
MODEL 7
REMARK VINA RESULT:      -1.4      2.757      5.262
REMARK  5 active torsions:
REMARK  status: ('A' for Active; 'I' for Inactive)
REMARK    1  A    between atoms: C2_2  and  C5_5 
REMARK    2  A    between atoms: C2_2  and  C6_6 
REMARK    3  A    between atoms: C6_6  and  C7_7 
REMARK    4  A    between atoms: C7_7  and  C9_9 
REMARK    5  A    between atoms: C8_8  and  C9_9 
ROOT
HETATM    1  C6  UNL     1     -33.478   5.919   2.724  1.00 20.00     0.033 C 
ENDROOT
BRANCH   1   2
HETATM    2  C2  UNL     1     -34.258   5.058   3.702  1.00 20.00    -0.090 C 
HETATM    3  C1  UNL     1     -35.273   5.499   4.464  1.00 20.00     0.014 C 
BRANCH   2   4
HETATM    4  C5  UNL     1     -33.806   3.617   3.810  1.00 20.00     0.029 C 
HETATM    5  C3  UNL     1     -33.083   3.321   5.116  1.00 20.00     0.010 C 
ENDBRANCH   2   4
ENDBRANCH   1   2
BRANCH   1   6
HETATM    6  C7  UNL     1     -33.363   7.416   3.055  1.00 20.00     0.009 C 
BRANCH   6   7
HETATM    7  C9  UNL     1     -32.265   8.136   2.241  1.00 20.00    -0.004 C 
HETATM    8  C4  UNL     1     -31.635   7.227   1.182  1.00 20.00     0.011 C 
BRANCH   7   9
HETATM    9  C8  UNL     1     -32.787   9.445   1.620  1.00 20.00     0.119 C 
HETATM   10 CL10 UNL     1     -32.312   9.667  -0.082  1.00 20.00    -0.130 Cl
ENDBRANCH   7   9
ENDBRANCH   6   7
ENDBRANCH   1   6
TORSDOF 5
ENDMDL
MODEL 8
REMARK VINA RESULT:      -1.2      1.094      2.202
REMARK  5 active torsions:
REMARK  status: ('A' for Active; 'I' for Inactive)
REMARK    1  A    between atoms: C2_2  and  C5_5 
REMARK    2  A    between atoms: C2_2  and  C6_6 
REMARK    3  A    between atoms: C6_6  and  C7_7 
REMARK    4  A    between atoms: C7_7  and  C9_9 
REMARK    5  A    between atoms: C8_8  and  C9_9 
ROOT
HETATM    1  C6  UNL     1     -33.260   7.941   3.075  1.00 20.00     0.033 C 
ENDROOT
BRANCH   1   2
HETATM    2  C2  UNL     1     -32.359   7.675   1.882  1.00 20.00    -0.090 C 
HETATM    3  C1  UNL     1     -31.920   8.620   1.032  1.00 20.00     0.014 C 
BRANCH   2   4
HETATM    4  C5  UNL     1     -31.978   6.227   1.660  1.00 20.00     0.029 C 
HETATM    5  C3  UNL     1     -32.988   5.474   0.806  1.00 20.00     0.010 C 
ENDBRANCH   2   4
ENDBRANCH   1   2
BRANCH   1   6
HETATM    6  C7  UNL     1     -33.506   6.765   4.035  1.00 20.00     0.009 C 
BRANCH   6   7
HETATM    7  C9  UNL     1     -35.003   6.434   4.220  1.00 20.00    -0.004 C 
HETATM    8  C4  UNL     1     -35.852   6.892   3.030  1.00 20.00     0.011 C 
BRANCH   7   9
HETATM    9  C8  UNL     1     -35.219   4.940   4.522  1.00 20.00     0.119 C 
HETATM   10 CL10 UNL     1     -33.826   3.915   4.096  1.00 20.00    -0.130 Cl
ENDBRANCH   7   9
ENDBRANCH   6   7
ENDBRANCH   1   6
TORSDOF 5
ENDMDL
MODEL 9
REMARK VINA RESULT:      -1.2      0.989      1.861
REMARK  5 active torsions:
REMARK  status: ('A' for Active; 'I' for Inactive)
REMARK    1  A    between atoms: C2_2  and  C5_5 
REMARK    2  A    between atoms: C2_2  and  C6_6 
REMARK    3  A    between atoms: C6_6  and  C7_7 
REMARK    4  A    between atoms: C7_7  and  C9_9 
REMARK    5  A    between atoms: C8_8  and  C9_9 
ROOT
HETATM    1  C6  UNL     1     -31.785   8.031   2.282  1.00 20.00     0.033 C 
ENDROOT
BRANCH   1   2
HETATM    2  C2  UNL     1     -31.857   8.797   0.973  1.00 20.00    -0.090 C 
HETATM    3  C1  UNL     1     -31.171   8.475  -0.137  1.00 20.00     0.014 C 
BRANCH   2   4
HETATM    4  C5  UNL     1     -32.756  10.015   0.977  1.00 20.00     0.029 C 
HETATM    5  C3  UNL     1     -32.970  10.596  -0.413  1.00 20.00     0.010 C 
ENDBRANCH   2   4
ENDBRANCH   1   2
BRANCH   1   6
HETATM    6  C7  UNL     1     -33.106   7.833   3.045  1.00 20.00     0.009 C 
BRANCH   6   7
HETATM    7  C9  UNL     1     -33.870   6.560   2.620  1.00 20.00    -0.004 C 
HETATM    8  C4  UNL     1     -32.986   5.585   1.837  1.00 20.00     0.011 C 
BRANCH   7   9
HETATM    9  C8  UNL     1     -34.537   5.871   3.824  1.00 20.00     0.119 C 
HETATM   10 CL10 UNL     1     -34.037   4.176   4.045  1.00 20.00    -0.130 Cl
ENDBRANCH   7   9
ENDBRANCH   6   7
ENDBRANCH   1   6
TORSDOF 5
ENDMDL
