MODEL 1
REMARK VINA RESULT:      -2.3      0.000      0.000
REMARK  4 active torsions:
REMARK  status: ('A' for Active; 'I' for Inactive)
REMARK    1  A    between atoms: C2_2  and  C7_7 
REMARK    2  A    between atoms: C2_2  and  C8_8 
REMARK    3  A    between atoms: C3_3  and  C9_9 
REMARK    4  A    between atoms: C8_8  and  C9_9 
ROOT
HETATM    1  C8  UNL     1     -33.751   6.117   2.114  1.00 20.00     0.045 C 
ENDROOT
BRANCH   1   2
HETATM    2  C2  UNL     1     -32.346   6.268   1.561  1.00 20.00    -0.089 C 
HETATM    3  C1  UNL     1     -31.745   5.247   0.928  1.00 20.00     0.014 C 
BRANCH   2   4
HETATM    4  C7  UNL     1     -31.638   7.593   1.734  1.00 20.00     0.029 C 
HETATM    5  C5  UNL     1     -32.348   8.746   1.040  1.00 20.00     0.010 C 
ENDBRANCH   2   4
ENDBRANCH   1   2
BRANCH   1   6
HETATM    6  C9  UNL     1     -33.831   6.137   3.651  1.00 20.00     0.055 C 
HETATM    7  C6  UNL     1     -34.615   7.353   4.138  1.00 20.00     0.018 C 
BRANCH   6   8
HETATM    8  C3  UNL     1     -34.499   4.879   4.197  1.00 20.00     0.127 C 
HETATM    9  C4  UNL     1     -33.667   3.622   4.210  1.00 20.00     0.091 C 
HETATM   10  O10 UNL     1     -35.647   4.884   4.642  1.00 20.00    -0.298 OA
ENDBRANCH   6   8
ENDBRANCH   1   6
TORSDOF 4
ENDMDL
MODEL 2
REMARK VINA RESULT:      -1.8      1.797      2.834
REMARK  4 active torsions:
REMARK  status: ('A' for Active; 'I' for Inactive)
REMARK    1  A    between atoms: C2_2  and  C7_7 
REMARK    2  A    between atoms: C2_2  and  C8_8 
REMARK    3  A    between atoms: C3_3  and  C9_9 
REMARK    4  A    between atoms: C8_8  and  C9_9 
ROOT
HETATM    1  C8  UNL     1     -32.082   7.997   2.281  1.00 20.00     0.045 C 
ENDROOT
BRANCH   1   2
HETATM    2  C2  UNL     1     -31.924   8.832   1.025  1.00 20.00    -0.089 C 
HETATM    3  C1  UNL     1     -31.101   8.439   0.039  1.00 20.00     0.014 C 
BRANCH   2   4
HETATM    4  C7  UNL     1     -32.715  10.115   0.904  1.00 20.00     0.029 C 
HETATM    5  C5  UNL     1     -32.976  10.524  -0.538  1.00 20.00     0.010 C 
ENDBRANCH   2   4
ENDBRANCH   1   2
BRANCH   1   6
HETATM    6  C9  UNL     1     -33.367   7.151   2.321  1.00 20.00     0.055 C 
HETATM    7  C6  UNL     1     -33.071   5.697   1.962  1.00 20.00     0.018 C 
BRANCH   6   8
HETATM    8  C3  UNL     1     -34.023   7.186   3.698  1.00 20.00     0.127 C 
HETATM    9  C4  UNL     1     -35.183   6.250   3.919  1.00 20.00     0.091 C 
HETATM   10  O10 UNL     1     -33.612   7.912   4.603  1.00 20.00    -0.298 OA
ENDBRANCH   6   8
ENDBRANCH   1   6
TORSDOF 4
ENDMDL
MODEL 3
REMARK VINA RESULT:      -1.8      1.171      1.394
REMARK  4 active torsions:
REMARK  status: ('A' for Active; 'I' for Inactive)
REMARK    1  A    between atoms: C2_2  and  C7_7 
REMARK    2  A    between atoms: C2_2  and  C8_8 
REMARK    3  A    between atoms: C3_3  and  C9_9 
REMARK    4  A    between atoms: C8_8  and  C9_9 
ROOT
HETATM    1  C8  UNL     1     -33.464   7.922   2.518  1.00 20.00     0.045 C 
ENDROOT
BRANCH   1   2
HETATM    2  C2  UNL     1     -32.323   7.517   1.604  1.00 20.00    -0.089 C 
HETATM    3  C1  UNL     1     -31.998   6.223   1.444  1.00 20.00     0.014 C 
BRANCH   2   4
HETATM    4  C7  UNL     1     -31.561   8.599   0.873  1.00 20.00     0.029 C 
HETATM    5  C5  UNL     1     -32.451   9.731   0.383  1.00 20.00     0.010 C 
ENDBRANCH   2   4
ENDBRANCH   1   2
BRANCH   1   6
HETATM    6  C9  UNL     1     -33.532   7.128   3.835  1.00 20.00     0.055 C 
HETATM    7  C6  UNL     1     -33.719   8.065   5.025  1.00 20.00     0.018 C 
BRANCH   6   8
HETATM    8  C3  UNL     1     -34.677   6.120   3.827  1.00 20.00     0.127 C 
HETATM    9  C4  UNL     1     -34.309   4.675   4.042  1.00 20.00     0.091 C 
HETATM   10  O10 UNL     1     -35.852   6.462   3.690  1.00 20.00    -0.298 OA
ENDBRANCH   6   8
ENDBRANCH   1   6
TORSDOF 4
ENDMDL
MODEL 4
REMARK VINA RESULT:      -1.7      1.398      2.855
REMARK  4 active torsions:
REMARK  status: ('A' for Active; 'I' for Inactive)
REMARK    1  A    between atoms: C2_2  and  C7_7 
REMARK    2  A    between atoms: C2_2  and  C8_8 
REMARK    3  A    between atoms: C3_3  and  C9_9 
REMARK    4  A    between atoms: C8_8  and  C9_9 
ROOT
HETATM    1  C8  UNL     1     -32.076   7.883   2.159  1.00 20.00     0.045 C 
ENDROOT
BRANCH   1   2
HETATM    2  C2  UNL     1     -31.927   8.804   0.963  1.00 20.00    -0.089 C 
HETATM    3  C1  UNL     1     -31.079   8.502  -0.034  1.00 20.00     0.014 C 
BRANCH   2   4
HETATM    4  C7  UNL     1     -32.758  10.067   0.913  1.00 20.00     0.029 C 
HETATM    5  C5  UNL     1     -32.982  10.581  -0.501  1.00 20.00     0.010 C 
ENDBRANCH   2   4
ENDBRANCH   1   2
BRANCH   1   6
HETATM    6  C9  UNL     1     -33.121   6.769   1.973  1.00 20.00     0.055 C 
HETATM    7  C6  UNL     1     -32.467   5.493   1.448  1.00 20.00     0.018 C 
BRANCH   6   8
HETATM    8  C3  UNL     1     -33.837   6.443   3.281  1.00 20.00     0.127 C 
HETATM    9  C4  UNL     1     -34.194   7.610   4.165  1.00 20.00     0.091 C 
HETATM   10  O10 UNL     1     -34.144   5.293   3.594  1.00 20.00    -0.298 OA
ENDBRANCH   6   8
ENDBRANCH   1   6
TORSDOF 4
ENDMDL
MODEL 5
REMARK VINA RESULT:      -1.7      1.966      4.633
REMARK  4 active torsions:
REMARK  status: ('A' for Active; 'I' for Inactive)
REMARK    1  A    between atoms: C2_2  and  C7_7 
REMARK    2  A    between atoms: C2_2  and  C8_8 
REMARK    3  A    between atoms: C3_3  and  C9_9 
REMARK    4  A    between atoms: C8_8  and  C9_9 
ROOT
HETATM    1  C8  UNL     1     -33.934   6.476   2.262  1.00 20.00     0.045 C 
ENDROOT
BRANCH   1   2
HETATM    2  C2  UNL     1     -34.396   6.476   3.707  1.00 20.00    -0.089 C 
HETATM    3  C1  UNL     1     -34.289   7.581   4.461  1.00 20.00     0.014 C 
BRANCH   2   4
HETATM    4  C7  UNL     1     -34.984   5.205   4.279  1.00 20.00     0.029 C 
HETATM    5  C5  UNL     1     -34.018   4.030   4.243  1.00 20.00     0.010 C 
ENDBRANCH   2   4
ENDBRANCH   1   2
BRANCH   1   6
HETATM    6  C9  UNL     1     -32.406   6.512   2.086  1.00 20.00     0.055 C 
HETATM    7  C6  UNL     1     -31.979   5.686   0.876  1.00 20.00     0.018 C 
BRANCH   6   8
HETATM    8  C3  UNL     1     -31.892   7.938   1.905  1.00 20.00     0.127 C 
HETATM    9  C4  UNL     1     -32.268   8.634   0.622  1.00 20.00     0.091 C 
HETATM   10  O10 UNL     1     -31.234   8.514   2.771  1.00 20.00    -0.298 OA
ENDBRANCH   6   8
ENDBRANCH   1   6
TORSDOF 4
ENDMDL
MODEL 6
REMARK VINA RESULT:      -1.6      2.577      5.002
REMARK  4 active torsions:
REMARK  status: ('A' for Active; 'I' for Inactive)
REMARK    1  A    between atoms: C2_2  and  C7_7 
REMARK    2  A    between atoms: C2_2  and  C8_8 
REMARK    3  A    between atoms: C3_3  and  C9_9 
REMARK    4  A    between atoms: C8_8  and  C9_9 
ROOT
HETATM    1  C8  UNL     1     -33.772   7.955   2.444  1.00 20.00     0.045 C 
ENDROOT
BRANCH   1   2
HETATM    2  C2  UNL     1     -34.064   7.438   3.840  1.00 20.00    -0.089 C 
HETATM    3  C1  UNL     1     -33.438   7.958   4.908  1.00 20.00     0.014 C 
BRANCH   2   4
HETATM    4  C7  UNL     1     -35.077   6.328   4.005  1.00 20.00     0.029 C 
HETATM    5  C5  UNL     1     -34.449   4.942   4.025  1.00 20.00     0.010 C 
ENDBRANCH   2   4
ENDBRANCH   1   2
BRANCH   1   6
HETATM    6  C9  UNL     1     -32.299   7.827   2.017  1.00 20.00     0.055 C 
HETATM    7  C6  UNL     1     -31.996   6.413   1.529  1.00 20.00     0.018 C 
BRANCH   6   8
HETATM    8  C3  UNL     1     -31.948   8.809   0.904  1.00 20.00     0.127 C 
HETATM    9  C4  UNL     1     -32.760  10.077   0.838  1.00 20.00     0.091 C 
HETATM   10  O10 UNL     1     -31.026   8.605   0.114  1.00 20.00    -0.298 OA
ENDBRANCH   6   8
ENDBRANCH   1   6
TORSDOF 4
ENDMDL
MODEL 7
REMARK VINA RESULT:      -1.5      1.154      1.641
REMARK  4 active torsions:
REMARK  status: ('A' for Active; 'I' for Inactive)
REMARK    1  A    between atoms: C2_2  and  C7_7 
REMARK    2  A    between atoms: C2_2  and  C8_8 
REMARK    3  A    between atoms: C3_3  and  C9_9 
REMARK    4  A    between atoms: C8_8  and  C9_9 
ROOT
HETATM    1  C8  UNL     1     -33.121   6.886   2.066  1.00 20.00     0.045 C 
ENDROOT
BRANCH   1   2
HETATM    2  C2  UNL     1     -32.142   7.991   1.721  1.00 20.00    -0.089 C 
HETATM    3  C1  UNL     1     -31.185   8.358   2.589  1.00 20.00     0.014 C 
BRANCH   2   4
HETATM    4  C7  UNL     1     -32.261   8.670   0.374  1.00 20.00     0.029 C 
HETATM    5  C5  UNL     1     -32.511  10.167   0.478  1.00 20.00     0.010 C 
ENDBRANCH   2   4
ENDBRANCH   1   2
BRANCH   1   6
HETATM    6  C9  UNL     1     -33.466   6.792   3.563  1.00 20.00     0.055 C 
HETATM    7  C6  UNL     1     -34.026   8.117   4.076  1.00 20.00     0.018 C 
BRANCH   6   8
HETATM    8  C3  UNL     1     -34.490   5.695   3.838  1.00 20.00     0.127 C 
HETATM    9  C4  UNL     1     -33.974   4.279   3.862  1.00 20.00     0.091 C 
HETATM   10  O10 UNL     1     -35.674   5.943   4.067  1.00 20.00    -0.298 OA
ENDBRANCH   6   8
ENDBRANCH   1   6
TORSDOF 4
ENDMDL
MODEL 8
REMARK VINA RESULT:      -1.4      2.243      4.572
REMARK  4 active torsions:
REMARK  status: ('A' for Active; 'I' for Inactive)
REMARK    1  A    between atoms: C2_2  and  C7_7 
REMARK    2  A    between atoms: C2_2  and  C8_8 
REMARK    3  A    between atoms: C3_3  and  C9_9 
REMARK    4  A    between atoms: C8_8  and  C9_9 
ROOT
HETATM    1  C8  UNL     1     -33.413   6.092   2.964  1.00 20.00     0.045 C 
ENDROOT
BRANCH   1   2
HETATM    2  C2  UNL     1     -34.611   5.694   3.805  1.00 20.00    -0.089 C 
HETATM    3  C1  UNL     1     -35.707   6.469   3.850  1.00 20.00     0.014 C 
BRANCH   2   4
HETATM    4  C7  UNL     1     -34.547   4.403   4.591  1.00 20.00     0.029 C 
HETATM    5  C5  UNL     1     -33.451   3.463   4.110  1.00 20.00     0.010 C 
ENDBRANCH   2   4
ENDBRANCH   1   2
BRANCH   1   6
HETATM    6  C9  UNL     1     -33.201   7.612   2.845  1.00 20.00     0.055 C 
HETATM    7  C6  UNL     1     -32.732   8.201   4.173  1.00 20.00     0.018 C 
BRANCH   6   8
HETATM    8  C3  UNL     1     -32.172   7.956   1.772  1.00 20.00     0.127 C 
HETATM    9  C4  UNL     1     -32.414   9.215   0.980  1.00 20.00     0.091 C 
HETATM   10  O10 UNL     1     -31.170   7.267   1.578  1.00 20.00    -0.298 OA
ENDBRANCH   6   8
ENDBRANCH   1   6
TORSDOF 4
ENDMDL
MODEL 9
REMARK VINA RESULT:      -1.2      1.146      2.013
REMARK  4 active torsions:
REMARK  status: ('A' for Active; 'I' for Inactive)
REMARK    1  A    between atoms: C2_2  and  C7_7 
REMARK    2  A    between atoms: C2_2  and  C8_8 
REMARK    3  A    between atoms: C3_3  and  C9_9 
REMARK    4  A    between atoms: C8_8  and  C9_9 
ROOT
HETATM    1  C8  UNL     1     -33.516   7.890   2.537  1.00 20.00     0.045 C 
ENDROOT
BRANCH   1   2
HETATM    2  C2  UNL     1     -32.296   7.578   1.692  1.00 20.00    -0.089 C 
HETATM    3  C1  UNL     1     -31.652   8.554   1.031  1.00 20.00     0.014 C 
BRANCH   2   4
HETATM    4  C7  UNL     1     -31.815   6.146   1.613  1.00 20.00     0.029 C 
HETATM    5  C5  UNL     1     -32.738   5.249   0.801  1.00 20.00     0.010 C 
ENDBRANCH   2   4
ENDBRANCH   1   2
BRANCH   1   6
HETATM    6  C9  UNL     1     -33.585   7.107   3.861  1.00 20.00     0.055 C 
HETATM    7  C6  UNL     1     -33.755   8.056   5.045  1.00 20.00     0.018 C 
BRANCH   6   8
HETATM    8  C3  UNL     1     -34.742   6.112   3.868  1.00 20.00     0.127 C 
HETATM    9  C4  UNL     1     -34.396   4.674   4.157  1.00 20.00     0.091 C 
HETATM   10  O10 UNL     1     -35.909   6.459   3.684  1.00 20.00    -0.298 OA
ENDBRANCH   6   8
ENDBRANCH   1   6
TORSDOF 4
ENDMDL
