MODEL 1
REMARK VINA RESULT:       0.4      0.000      0.000
REMARK  1 active torsions:
REMARK  status: ('A' for Active; 'I' for Inactive)
REMARK    1  A    between atoms: C6_6  and  O9_9 
ROOT
HETATM    1  C1  UNL     1     -32.362   8.821   1.058  1.00 20.00     0.098 C 
HETATM    2  C2  UNL     1     -32.865   7.858   4.621  1.00 20.00     0.004 C 
HETATM    3  C3  UNL     1     -34.105   7.262   3.955  1.00 20.00     0.004 C 
HETATM    4  C4  UNL     1     -32.138   8.645   3.533  1.00 20.00     0.053 C 
HETATM    5  C5  UNL     1     -34.043   7.673   2.484  1.00 20.00     0.053 C 
HETATM    6  C6  UNL     1     -32.567   7.971   2.231  1.00 20.00     0.148 C 
HETATM    7  N8  UNL     1     -32.200   9.495   0.127  1.00 20.00    -0.194 NA
ENDROOT
BRANCH   6   8
HETATM    8  O9  UNL     1     -31.869   6.739   2.067  1.00 20.00    -0.370 OA
HETATM    9  C7  UNL     1     -32.624   5.806   1.304  1.00 20.00     0.204 C 
ENDBRANCH   6   8
TORSDOF 1
ENDMDL
MODEL 2
REMARK VINA RESULT:       0.5      2.958      3.840
REMARK  1 active torsions:
REMARK  status: ('A' for Active; 'I' for Inactive)
REMARK    1  A    between atoms: C6_6  and  O9_9 
ROOT
HETATM    1  C1  UNL     1     -33.755   4.733   3.733  1.00 20.00     0.098 C 
HETATM    2  C2  UNL     1     -32.463   8.099   2.797  1.00 20.00     0.004 C 
HETATM    3  C3  UNL     1     -32.364   7.344   1.471  1.00 20.00     0.004 C 
HETATM    4  C4  UNL     1     -32.903   7.071   3.837  1.00 20.00     0.053 C 
HETATM    5  C5  UNL     1     -32.798   5.907   1.762  1.00 20.00     0.053 C 
HETATM    6  C6  UNL     1     -33.646   6.011   3.027  1.00 20.00     0.148 C 
HETATM    7  N8  UNL     1     -33.843   3.720   4.291  1.00 20.00    -0.194 NA
ENDROOT
BRANCH   6   8
HETATM    8  O9  UNL     1     -34.943   6.486   2.676  1.00 20.00    -0.370 OA
HETATM    9  C7  UNL     1     -35.805   6.539   3.806  1.00 20.00     0.204 C 
ENDBRANCH   6   8
TORSDOF 1
ENDMDL
MODEL 3
REMARK VINA RESULT:       0.5      1.735      2.808
REMARK  1 active torsions:
REMARK  status: ('A' for Active; 'I' for Inactive)
REMARK    1  A    between atoms: C6_6  and  O9_9 
ROOT
HETATM    1  C1  UNL     1     -32.732   7.669   2.253  1.00 20.00     0.098 C 
HETATM    2  C2  UNL     1     -35.454   5.960   4.138  1.00 20.00     0.004 C 
HETATM    3  C3  UNL     1     -34.436   4.832   3.962  1.00 20.00     0.004 C 
HETATM    4  C4  UNL     1     -34.908   7.149   3.350  1.00 20.00     0.053 C 
HETATM    5  C5  UNL     1     -33.299   5.408   3.119  1.00 20.00     0.053 C 
HETATM    6  C6  UNL     1     -33.399   6.918   3.319  1.00 20.00     0.148 C 
HETATM    7  N8  UNL     1     -32.203   8.263   1.409  1.00 20.00    -0.194 NA
ENDROOT
BRANCH   6   8
HETATM    8  O9  UNL     1     -32.828   7.255   4.581  1.00 20.00    -0.370 OA
HETATM    9  C7  UNL     1     -33.311   8.505   5.057  1.00 20.00     0.204 C 
ENDBRANCH   6   8
TORSDOF 1
ENDMDL
MODEL 4
REMARK VINA RESULT:       0.5      1.037      2.227
REMARK  1 active torsions:
REMARK  status: ('A' for Active; 'I' for Inactive)
REMARK    1  A    between atoms: C6_6  and  O9_9 
ROOT
HETATM    1  C1  UNL     1     -32.425   9.051   0.920  1.00 20.00     0.098 C 
HETATM    2  C2  UNL     1     -33.670   6.267   3.059  1.00 20.00     0.004 C 
HETATM    3  C3  UNL     1     -32.761   5.527   2.076  1.00 20.00     0.004 C 
HETATM    4  C4  UNL     1     -33.710   7.718   2.587  1.00 20.00     0.053 C 
HETATM    5  C5  UNL     1     -32.254   6.577   1.087  1.00 20.00     0.053 C 
HETATM    6  C6  UNL     1     -32.397   7.904   1.829  1.00 20.00     0.148 C 
HETATM    7  N8  UNL     1     -32.446   9.960   0.199  1.00 20.00    -0.194 NA
ENDROOT
BRANCH   6   8
HETATM    8  O9  UNL     1     -31.317   8.037   2.749  1.00 20.00    -0.370 OA
HETATM    9  C7  UNL     1     -31.626   8.958   3.788  1.00 20.00     0.204 C 
ENDBRANCH   6   8
TORSDOF 1
ENDMDL
MODEL 5
REMARK VINA RESULT:       0.5      1.870      2.385
REMARK  1 active torsions:
REMARK  status: ('A' for Active; 'I' for Inactive)
REMARK    1  A    between atoms: C6_6  and  O9_9 
ROOT
HETATM    1  C1  UNL     1     -32.403   7.399   2.402  1.00 20.00     0.098 C 
HETATM    2  C2  UNL     1     -34.317   4.643   4.021  1.00 20.00     0.004 C 
HETATM    3  C3  UNL     1     -35.295   5.814   4.132  1.00 20.00     0.004 C 
HETATM    4  C4  UNL     1     -33.029   5.222   3.439  1.00 20.00     0.053 C 
HETATM    5  C5  UNL     1     -34.570   7.034   3.564  1.00 20.00     0.053 C 
HETATM    6  C6  UNL     1     -33.489   6.451   2.657  1.00 20.00     0.148 C 
HETATM    7  N8  UNL     1     -31.543   8.151   2.199  1.00 20.00    -0.194 NA
ENDROOT
BRANCH   6   8
HETATM    8  O9  UNL     1     -34.085   6.051   1.426  1.00 20.00    -0.370 OA
HETATM    9  C7  UNL     1     -33.167   5.335   0.609  1.00 20.00     0.204 C 
ENDBRANCH   6   8
TORSDOF 1
ENDMDL
MODEL 6
REMARK VINA RESULT:       0.8      3.120      3.883
REMARK  1 active torsions:
REMARK  status: ('A' for Active; 'I' for Inactive)
REMARK    1  A    between atoms: C6_6  and  O9_9 
ROOT
HETATM    1  C1  UNL     1     -33.795   4.232   3.992  1.00 20.00     0.098 C 
HETATM    2  C2  UNL     1     -35.229   7.654   3.664  1.00 20.00     0.004 C 
HETATM    3  C3  UNL     1     -33.742   7.953   3.855  1.00 20.00     0.004 C 
HETATM    4  C4  UNL     1     -35.384   6.145   3.838  1.00 20.00     0.053 C 
HETATM    5  C5  UNL     1     -33.060   6.604   4.085  1.00 20.00     0.053 C 
HETATM    6  C6  UNL     1     -34.012   5.582   3.470  1.00 20.00     0.148 C 
HETATM    7  N8  UNL     1     -33.623   3.161   4.406  1.00 20.00    -0.194 NA
ENDROOT
BRANCH   6   8
HETATM    8  O9  UNL     1     -33.846   5.589   2.055  1.00 20.00    -0.370 OA
HETATM    9  C7  UNL     1     -32.472   5.600   1.689  1.00 20.00     0.204 C 
ENDBRANCH   6   8
TORSDOF 1
ENDMDL
MODEL 7
REMARK VINA RESULT:       0.9      2.379      3.574
REMARK  1 active torsions:
REMARK  status: ('A' for Active; 'I' for Inactive)
REMARK    1  A    between atoms: C6_6  and  O9_9 
ROOT
HETATM    1  C1  UNL     1     -34.581   6.665   3.599  1.00 20.00     0.098 C 
HETATM    2  C2  UNL     1     -31.661   7.254   1.361  1.00 20.00     0.004 C 
HETATM    3  C3  UNL     1     -32.311   8.637   1.402  1.00 20.00     0.004 C 
HETATM    4  C4  UNL     1     -32.597   6.324   2.131  1.00 20.00     0.053 C 
HETATM    5  C5  UNL     1     -33.583   8.490   2.238  1.00 20.00     0.053 C 
HETATM    6  C6  UNL     1     -33.337   7.250   3.094  1.00 20.00     0.148 C 
HETATM    7  N8  UNL     1     -35.566   6.202   4.000  1.00 20.00    -0.194 NA
ENDROOT
BRANCH   6   8
HETATM    8  O9  UNL     1     -32.488   7.601   4.183  1.00 20.00    -0.370 OA
HETATM    9  C7  UNL     1     -33.181   8.363   5.164  1.00 20.00     0.204 C 
ENDBRANCH   6   8
TORSDOF 1
ENDMDL
MODEL 8
REMARK VINA RESULT:       1.1      1.762      2.597
REMARK  1 active torsions:
REMARK  status: ('A' for Active; 'I' for Inactive)
REMARK    1  A    between atoms: C6_6  and  O9_9 
ROOT
HETATM    1  C1  UNL     1     -32.234   6.083   1.685  1.00 20.00     0.098 C 
HETATM    2  C2  UNL     1     -34.544   7.558   4.208  1.00 20.00     0.004 C 
HETATM    3  C3  UNL     1     -33.221   8.243   4.553  1.00 20.00     0.004 C 
HETATM    4  C4  UNL     1     -34.220   6.539   3.118  1.00 20.00     0.053 C 
HETATM    5  C5  UNL     1     -32.170   7.643   3.620  1.00 20.00     0.053 C 
HETATM    6  C6  UNL     1     -32.971   7.098   2.440  1.00 20.00     0.148 C 
HETATM    7  N8  UNL     1     -31.649   5.279   1.087  1.00 20.00    -0.194 NA
ENDROOT
BRANCH   6   8
HETATM    8  O9  UNL     1     -33.324   8.181   1.583  1.00 20.00    -0.370 OA
HETATM    9  C7  UNL     1     -32.173   8.840   1.070  1.00 20.00     0.204 C 
ENDBRANCH   6   8
TORSDOF 1
ENDMDL
MODEL 9
REMARK VINA RESULT:       1.2      2.232      2.619
REMARK  1 active torsions:
REMARK  status: ('A' for Active; 'I' for Inactive)
REMARK    1  A    between atoms: C6_6  and  O9_9 
ROOT
HETATM    1  C1  UNL     1     -33.325   5.524   1.436  1.00 20.00     0.098 C 
HETATM    2  C2  UNL     1     -33.346   7.974   4.241  1.00 20.00     0.004 C 
HETATM    3  C3  UNL     1     -34.759   7.395   4.318  1.00 20.00     0.004 C 
HETATM    4  C4  UNL     1     -32.707   7.365   2.995  1.00 20.00     0.053 C 
HETATM    5  C5  UNL     1     -34.889   6.424   3.145  1.00 20.00     0.053 C 
HETATM    6  C6  UNL     1     -33.452   6.047   2.797  1.00 20.00     0.148 C 
HETATM    7  N8  UNL     1     -33.225   5.108   0.357  1.00 20.00    -0.194 NA
ENDROOT
BRANCH   6   8
HETATM    8  O9  UNL     1     -32.989   5.079   3.735  1.00 20.00    -0.370 OA
HETATM    9  C7  UNL     1     -33.961   4.067   3.967  1.00 20.00     0.204 C 
ENDBRANCH   6   8
TORSDOF 1
ENDMDL
