MODEL 1
REMARK VINA RESULT:      -2.0      0.000      0.000
REMARK  4 active torsions:
REMARK  status: ('A' for Active; 'I' for Inactive)
REMARK    1  A    between atoms: C2_2  and  C9_9 
REMARK    2  A    between atoms: C2_2  and  C10_10 
REMARK    3  A    between atoms: C3_3  and  C5_5 
REMARK    4  A    between atoms: C3_3  and  C9_9 
ROOT
HETATM    1  C3  UNL     1     -32.755   6.335   1.741  1.00 20.00     0.135 C 
HETATM    2  O11 UNL     1     -32.248   5.225   1.842  1.00 20.00    -0.297 OA
ENDROOT
BRANCH   1   3
HETATM    3  C5  UNL     1     -31.947   7.474   1.212  1.00 20.00     0.060 A 
HETATM    4  C4  UNL     1     -31.406   8.473   2.181  1.00 20.00     0.017 A 
HETATM    5  C6  UNL     1     -32.542   8.853   1.269  1.00 20.00    -0.007 A 
HETATM    6  C7  UNL     1     -32.314   9.797   0.139  1.00 20.00     0.011 C 
ENDBRANCH   1   3
BRANCH   1   7
HETATM    7  C9  UNL     1     -34.173   6.683   2.155  1.00 20.00     0.111 C 
BRANCH   7   8
HETATM    8  C2  UNL     1     -34.348   6.585   3.647  1.00 20.00    -0.083 C 
HETATM    9  C1  UNL     1     -33.904   7.554   4.464  1.00 20.00     0.014 C 
BRANCH   8  10
HETATM   10  C10 UNL     1     -35.035   5.355   4.196  1.00 20.00     0.029 C 
HETATM   11  C8  UNL     1     -34.097   4.161   4.310  1.00 20.00     0.010 C 
ENDBRANCH   8  10
ENDBRANCH   7   8
ENDBRANCH   1   7
TORSDOF 4
ENDMDL
MODEL 2
REMARK VINA RESULT:      -1.7      0.680      1.588
REMARK  4 active torsions:
REMARK  status: ('A' for Active; 'I' for Inactive)
REMARK    1  A    between atoms: C2_2  and  C9_9 
REMARK    2  A    between atoms: C2_2  and  C10_10 
REMARK    3  A    between atoms: C3_3  and  C5_5 
REMARK    4  A    between atoms: C3_3  and  C9_9 
ROOT
HETATM    1  C3  UNL     1     -32.279   6.132   1.493  1.00 20.00     0.135 C 
HETATM    2  O11 UNL     1     -31.573   5.131   1.521  1.00 20.00    -0.297 OA
ENDROOT
BRANCH   1   3
HETATM    3  C5  UNL     1     -31.663   7.467   1.241  1.00 20.00     0.060 A 
HETATM    4  C4  UNL     1     -31.572   8.435   2.374  1.00 20.00     0.017 A 
HETATM    5  C6  UNL     1     -32.556   8.676   1.260  1.00 20.00    -0.007 A 
HETATM    6  C7  UNL     1     -32.325   9.775   0.279  1.00 20.00     0.011 C 
ENDBRANCH   1   3
BRANCH   1   7
HETATM    7  C9  UNL     1     -33.776   6.145   1.738  1.00 20.00     0.111 C 
BRANCH   7   8
HETATM    8  C2  UNL     1     -34.100   5.814   3.172  1.00 20.00    -0.083 C 
HETATM    9  C1  UNL     1     -33.761   4.628   3.704  1.00 20.00     0.014 C 
BRANCH   8  10
HETATM   10  C10 UNL     1     -34.826   6.857   3.989  1.00 20.00     0.029 C 
HETATM   11  C8  UNL     1     -33.877   7.828   4.678  1.00 20.00     0.010 C 
ENDBRANCH   8  10
ENDBRANCH   7   8
ENDBRANCH   1   7
TORSDOF 4
ENDMDL
MODEL 3
REMARK VINA RESULT:      -1.7      1.264      1.435
REMARK  4 active torsions:
REMARK  status: ('A' for Active; 'I' for Inactive)
REMARK    1  A    between atoms: C2_2  and  C9_9 
REMARK    2  A    between atoms: C2_2  and  C10_10 
REMARK    3  A    between atoms: C3_3  and  C5_5 
REMARK    4  A    between atoms: C3_3  and  C9_9 
ROOT
HETATM    1  C3  UNL     1     -32.321   7.669   2.171  1.00 20.00     0.135 C 
HETATM    2  O11 UNL     1     -31.648   8.243   3.018  1.00 20.00    -0.297 OA
ENDROOT
BRANCH   1   3
HETATM    3  C5  UNL     1     -32.433   8.243   0.798  1.00 20.00     0.060 A 
HETATM    4  C4  UNL     1     -31.190   8.718   0.121  1.00 20.00     0.017 A 
HETATM    5  C6  UNL     1     -32.198   9.717   0.624  1.00 20.00    -0.007 A 
HETATM    6  C7  UNL     1     -33.037  10.486  -0.339  1.00 20.00     0.011 C 
ENDBRANCH   1   3
BRANCH   1   7
HETATM    7  C9  UNL     1     -33.114   6.397   2.408  1.00 20.00     0.111 C 
BRANCH   7   8
HETATM    8  C2  UNL     1     -34.095   6.565   3.540  1.00 20.00    -0.083 C 
HETATM    9  C1  UNL     1     -34.290   7.762   4.117  1.00 20.00     0.014 C 
BRANCH   8  10
HETATM   10  C10 UNL     1     -34.846   5.340   4.008  1.00 20.00     0.029 C 
HETATM   11  C8  UNL     1     -33.956   4.109   4.109  1.00 20.00     0.010 C 
ENDBRANCH   8  10
ENDBRANCH   7   8
ENDBRANCH   1   7
TORSDOF 4
ENDMDL
MODEL 4
REMARK VINA RESULT:      -1.6      0.901      4.707
REMARK  4 active torsions:
REMARK  status: ('A' for Active; 'I' for Inactive)
REMARK    1  A    between atoms: C2_2  and  C9_9 
REMARK    2  A    between atoms: C2_2  and  C10_10 
REMARK    3  A    between atoms: C3_3  and  C5_5 
REMARK    4  A    between atoms: C3_3  and  C9_9 
ROOT
HETATM    1  C3  UNL     1     -32.724   6.792   2.004  1.00 20.00     0.135 C 
HETATM    2  O11 UNL     1     -32.486   5.785   1.348  1.00 20.00    -0.297 OA
ENDROOT
BRANCH   1   3
HETATM    3  C5  UNL     1     -34.022   6.915   2.730  1.00 20.00     0.060 A 
HETATM    4  C4  UNL     1     -34.041   7.641   4.035  1.00 20.00     0.017 A 
HETATM    5  C6  UNL     1     -34.196   6.143   4.008  1.00 20.00    -0.007 A 
HETATM    6  C7  UNL     1     -35.514   5.519   4.315  1.00 20.00     0.011 C 
ENDBRANCH   1   3
BRANCH   1   7
HETATM    7  C9  UNL     1     -31.800   7.990   2.121  1.00 20.00     0.111 C 
BRANCH   7   8
HETATM    8  C2  UNL     1     -31.840   8.837   0.875  1.00 20.00    -0.083 C 
HETATM    9  C1  UNL     1     -31.121   8.509  -0.211  1.00 20.00     0.014 C 
BRANCH   8  10
HETATM   10  C10 UNL     1     -32.711  10.072   0.891  1.00 20.00     0.029 C 
HETATM   11  C8  UNL     1     -33.008  10.599  -0.506  1.00 20.00     0.010 C 
ENDBRANCH   8  10
ENDBRANCH   7   8
ENDBRANCH   1   7
TORSDOF 4
ENDMDL
MODEL 5
REMARK VINA RESULT:      -1.5      1.407      1.879
REMARK  4 active torsions:
REMARK  status: ('A' for Active; 'I' for Inactive)
REMARK    1  A    between atoms: C2_2  and  C9_9 
REMARK    2  A    between atoms: C2_2  and  C10_10 
REMARK    3  A    between atoms: C3_3  and  C5_5 
REMARK    4  A    between atoms: C3_3  and  C9_9 
ROOT
HETATM    1  C3  UNL     1     -33.435   7.469   3.356  1.00 20.00     0.135 C 
HETATM    2  O11 UNL     1     -32.730   7.865   4.276  1.00 20.00    -0.297 OA
ENDROOT
BRANCH   1   3
HETATM    3  C5  UNL     1     -32.966   7.614   1.947  1.00 20.00     0.060 A 
HETATM    4  C4  UNL     1     -31.514   7.422   1.656  1.00 20.00     0.017 A 
HETATM    5  C6  UNL     1     -32.113   8.802   1.601  1.00 20.00    -0.007 A 
HETATM    6  C7  UNL     1     -32.303   9.486   0.290  1.00 20.00     0.011 C 
ENDBRANCH   1   3
BRANCH   1   7
HETATM    7  C9  UNL     1     -34.813   6.855   3.520  1.00 20.00     0.111 C 
BRANCH   7   8
HETATM    8  C2  UNL     1     -34.726   5.449   4.056  1.00 20.00    -0.083 C 
HETATM    9  C1  UNL     1     -35.629   4.984   4.935  1.00 20.00     0.014 C 
BRANCH   8  10
HETATM   10  C10 UNL     1     -33.585   4.582   3.576  1.00 20.00     0.029 C 
HETATM   11  C8  UNL     1     -33.445   3.298   4.381  1.00 20.00     0.010 C 
ENDBRANCH   8  10
ENDBRANCH   7   8
ENDBRANCH   1   7
TORSDOF 4
ENDMDL
MODEL 6
REMARK VINA RESULT:      -1.5      1.339      4.920
REMARK  4 active torsions:
REMARK  status: ('A' for Active; 'I' for Inactive)
REMARK    1  A    between atoms: C2_2  and  C9_9 
REMARK    2  A    between atoms: C2_2  and  C10_10 
REMARK    3  A    between atoms: C3_3  and  C5_5 
REMARK    4  A    between atoms: C3_3  and  C9_9 
ROOT
HETATM    1  C3  UNL     1     -33.672   6.553   3.000  1.00 20.00     0.135 C 
HETATM    2  O11 UNL     1     -33.972   7.482   3.740  1.00 20.00    -0.297 OA
ENDROOT
BRANCH   1   3
HETATM    3  C5  UNL     1     -34.199   5.185   3.274  1.00 20.00     0.060 A 
HETATM    4  C4  UNL     1     -35.144   5.002   4.415  1.00 20.00     0.017 A 
HETATM    5  C6  UNL     1     -33.736   4.482   4.519  1.00 20.00    -0.007 A 
HETATM    6  C7  UNL     1     -33.471   3.016   4.479  1.00 20.00     0.011 C 
ENDBRANCH   1   3
BRANCH   1   7
HETATM    7  C9  UNL     1     -32.746   6.663   1.802  1.00 20.00     0.111 C 
BRANCH   7   8
HETATM    8  C2  UNL     1     -32.060   8.004   1.760  1.00 20.00    -0.083 C 
HETATM    9  C1  UNL     1     -31.527   8.546   2.867  1.00 20.00     0.014 C 
BRANCH   8  10
HETATM   10  C10 UNL     1     -32.000   8.722   0.431  1.00 20.00     0.029 C 
HETATM   11  C8  UNL     1     -32.589  10.124   0.494  1.00 20.00     0.010 C 
ENDBRANCH   8  10
ENDBRANCH   7   8
ENDBRANCH   1   7
TORSDOF 4
ENDMDL
MODEL 7
REMARK VINA RESULT:      -1.3      1.592      4.766
REMARK  4 active torsions:
REMARK  status: ('A' for Active; 'I' for Inactive)
REMARK    1  A    between atoms: C2_2  and  C9_9 
REMARK    2  A    between atoms: C2_2  and  C10_10 
REMARK    3  A    between atoms: C3_3  and  C5_5 
REMARK    4  A    between atoms: C3_3  and  C9_9 
ROOT
HETATM    1  C3  UNL     1     -33.443   7.752   3.802  1.00 20.00     0.135 C 
HETATM    2  O11 UNL     1     -33.943   8.359   4.741  1.00 20.00    -0.297 OA
ENDROOT
BRANCH   1   3
HETATM    3  C5  UNL     1     -34.054   6.472   3.337  1.00 20.00     0.060 A 
HETATM    4  C4  UNL     1     -35.434   6.135   3.796  1.00 20.00     0.017 A 
HETATM    5  C6  UNL     1     -34.256   5.375   4.344  1.00 20.00    -0.007 A 
HETATM    6  C7  UNL     1     -34.023   3.959   3.942  1.00 20.00     0.011 C 
ENDBRANCH   1   3
BRANCH   1   7
HETATM    7  C9  UNL     1     -32.189   8.178   3.062  1.00 20.00     0.111 C 
BRANCH   7   8
HETATM    8  C2  UNL     1     -32.182   7.655   1.649  1.00 20.00    -0.083 C 
HETATM    9  C1  UNL     1     -32.286   6.340   1.395  1.00 20.00     0.014 C 
BRANCH   8  10
HETATM   10  C10 UNL     1     -32.047   8.659   0.527  1.00 20.00     0.029 C 
HETATM   11  C8  UNL     1     -32.649  10.013   0.876  1.00 20.00     0.010 C 
ENDBRANCH   8  10
ENDBRANCH   7   8
ENDBRANCH   1   7
TORSDOF 4
ENDMDL
MODEL 8
REMARK VINA RESULT:      -1.2      1.523      1.966
REMARK  4 active torsions:
REMARK  status: ('A' for Active; 'I' for Inactive)
REMARK    1  A    between atoms: C2_2  and  C9_9 
REMARK    2  A    between atoms: C2_2  and  C10_10 
REMARK    3  A    between atoms: C3_3  and  C5_5 
REMARK    4  A    between atoms: C3_3  and  C9_9 
ROOT
HETATM    1  C3  UNL     1     -33.238   7.593   3.357  1.00 20.00     0.135 C 
HETATM    2  O11 UNL     1     -32.646   8.205   4.238  1.00 20.00    -0.297 OA
ENDROOT
BRANCH   1   3
HETATM    3  C5  UNL     1     -32.870   7.809   1.928  1.00 20.00     0.060 A 
HETATM    4  C4  UNL     1     -31.426   7.763   1.549  1.00 20.00     0.017 A 
HETATM    5  C6  UNL     1     -32.155   9.080   1.562  1.00 20.00    -0.007 A 
HETATM    6  C7  UNL     1     -32.488   9.767   0.282  1.00 20.00     0.011 C 
ENDBRANCH   1   3
BRANCH   1   7
HETATM    7  C9  UNL     1     -34.383   6.625   3.593  1.00 20.00     0.111 C 
BRANCH   7   8
HETATM    8  C2  UNL     1     -33.935   5.196   3.429  1.00 20.00    -0.083 C 
HETATM    9  C1  UNL     1     -33.231   4.808   2.352  1.00 20.00     0.014 C 
BRANCH   8  10
HETATM   10  C10 UNL     1     -34.310   4.212   4.512  1.00 20.00     0.029 C 
HETATM   11  C8  UNL     1     -33.312   3.069   4.638  1.00 20.00     0.010 C 
ENDBRANCH   8  10
ENDBRANCH   7   8
ENDBRANCH   1   7
TORSDOF 4
ENDMDL
MODEL 9
REMARK VINA RESULT:      -1.1      1.008      4.295
REMARK  4 active torsions:
REMARK  status: ('A' for Active; 'I' for Inactive)
REMARK    1  A    between atoms: C2_2  and  C9_9 
REMARK    2  A    between atoms: C2_2  and  C10_10 
REMARK    3  A    between atoms: C3_3  and  C5_5 
REMARK    4  A    between atoms: C3_3  and  C9_9 
ROOT
HETATM    1  C3  UNL     1     -33.046   6.174   1.945  1.00 20.00     0.135 C 
HETATM    2  O11 UNL     1     -32.551   5.140   1.515  1.00 20.00    -0.297 OA
ENDROOT
BRANCH   1   3
HETATM    3  C5  UNL     1     -33.486   6.250   3.369  1.00 20.00     0.060 A 
HETATM    4  C4  UNL     1     -34.951   6.266   3.662  1.00 20.00     0.017 A 
HETATM    5  C6  UNL     1     -34.136   7.519   3.845  1.00 20.00    -0.007 A 
HETATM    6  C7  UNL     1     -33.838   8.027   5.214  1.00 20.00     0.011 C 
ENDBRANCH   1   3
BRANCH   1   7
HETATM    7  C9  UNL     1     -33.299   7.424   1.121  1.00 20.00     0.111 C 
BRANCH   7   8
HETATM    8  C2  UNL     1     -32.112   8.351   1.154  1.00 20.00    -0.083 C 
HETATM    9  C1  UNL     1     -31.198   8.275   2.136  1.00 20.00     0.014 C 
BRANCH   8  10
HETATM   10  C10 UNL     1     -31.988   9.374   0.049  1.00 20.00     0.029 C 
HETATM   11  C8  UNL     1     -32.764  10.651   0.341  1.00 20.00     0.010 C 
ENDBRANCH   8  10
ENDBRANCH   7   8
ENDBRANCH   1   7
TORSDOF 4
ENDMDL
