MODEL 1
REMARK VINA RESULT:      -0.7      0.000      0.000
REMARK  2 active torsions:
REMARK  status: ('A' for Active; 'I' for Inactive)
REMARK    1  A    between atoms: C5_5  and  C6_6 
REMARK    2  A    between atoms: C6_6  and  O8_8 
ROOT
HETATM    1  C1  UNL     1     -32.512   6.426   1.708  1.00 20.00     0.097 C 
HETATM    2  C3  UNL     1     -31.122   8.286   2.518  1.00 20.00     0.062 C 
HETATM    3  C6  UNL     1     -32.549   7.798   2.248  1.00 20.00     0.144 C 
HETATM    4  N7  UNL     1     -32.482   5.347   1.282  1.00 20.00    -0.194 NA
ENDROOT
BRANCH   3   5
HETATM    5  C5  UNL     1     -33.379   7.865   3.545  1.00 20.00     0.049 C 
HETATM    6  C2  UNL     1     -34.416   6.754   3.684  1.00 20.00     0.009 C 
ENDBRANCH   3   5
BRANCH   3   7
HETATM    7  O8  UNL     1     -33.140   8.674   1.287  1.00 20.00    -0.371 OA
HETATM    8  C4  UNL     1     -32.152   9.410   0.586  1.00 20.00     0.204 C 
ENDBRANCH   3   7
TORSDOF 2
ENDMDL
MODEL 2
REMARK VINA RESULT:      -0.7      1.872      2.896
REMARK  2 active torsions:
REMARK  status: ('A' for Active; 'I' for Inactive)
REMARK    1  A    between atoms: C5_5  and  C6_6 
REMARK    2  A    between atoms: C6_6  and  O8_8 
ROOT
HETATM    1  C1  UNL     1     -32.416   9.029   0.999  1.00 20.00     0.097 C 
HETATM    2  C3  UNL     1     -31.503   8.529   3.228  1.00 20.00     0.062 C 
HETATM    3  C6  UNL     1     -32.331   7.999   2.052  1.00 20.00     0.144 C 
HETATM    4  N7  UNL     1     -32.483   9.840   0.173  1.00 20.00    -0.194 NA
ENDROOT
BRANCH   3   5
HETATM    5  C5  UNL     1     -31.701   6.700   1.513  1.00 20.00     0.049 C 
HETATM    6  C2  UNL     1     -32.693   5.557   1.315  1.00 20.00     0.009 C 
ENDBRANCH   3   5
BRANCH   3   7
HETATM    7  O8  UNL     1     -33.641   7.700   2.536  1.00 20.00    -0.371 OA
HETATM    8  C4  UNL     1     -33.690   7.745   3.952  1.00 20.00     0.204 C 
ENDBRANCH   3   7
TORSDOF 2
ENDMDL
MODEL 3
REMARK VINA RESULT:      -0.6      2.213      3.516
REMARK  2 active torsions:
REMARK  status: ('A' for Active; 'I' for Inactive)
REMARK    1  A    between atoms: C5_5  and  C6_6 
REMARK    2  A    between atoms: C6_6  and  O8_8 
ROOT
HETATM    1  C1  UNL     1     -33.916   4.739   3.880  1.00 20.00     0.097 C 
HETATM    2  C3  UNL     1     -35.407   6.636   3.406  1.00 20.00     0.062 C 
HETATM    3  C6  UNL     1     -33.969   6.111   3.341  1.00 20.00     0.144 C 
HETATM    4  N7  UNL     1     -33.874   3.660   4.305  1.00 20.00    -0.194 NA
ENDROOT
BRANCH   3   5
HETATM    5  C5  UNL     1     -33.461   6.159   1.887  1.00 20.00     0.049 C 
HETATM    6  C2  UNL     1     -32.221   7.025   1.684  1.00 20.00     0.009 C 
ENDBRANCH   3   5
BRANCH   3   7
HETATM    7  O8  UNL     1     -33.150   6.969   4.135  1.00 20.00    -0.371 OA
HETATM    8  C4  UNL     1     -33.908   8.024   4.702  1.00 20.00     0.204 C 
ENDBRANCH   3   7
TORSDOF 2
ENDMDL
MODEL 4
REMARK VINA RESULT:      -0.4      1.696      2.992
REMARK  2 active torsions:
REMARK  status: ('A' for Active; 'I' for Inactive)
REMARK    1  A    between atoms: C5_5  and  C6_6 
REMARK    2  A    between atoms: C6_6  and  O8_8 
ROOT
HETATM    1  C1  UNL     1     -33.360   7.501   3.112  1.00 20.00     0.097 C 
HETATM    2  C3  UNL     1     -31.214   8.644   2.740  1.00 20.00     0.062 C 
HETATM    3  C6  UNL     1     -32.341   7.829   2.097  1.00 20.00     0.144 C 
HETATM    4  N7  UNL     1     -34.160   7.242   3.911  1.00 20.00    -0.194 NA
ENDROOT
BRANCH   3   5
HETATM    5  C5  UNL     1     -32.954   8.620   0.926  1.00 20.00     0.049 C 
HETATM    6  C2  UNL     1     -32.076   9.756   0.408  1.00 20.00     0.009 C 
ENDBRANCH   3   5
BRANCH   3   7
HETATM    7  O8  UNL     1     -31.773   6.624   1.582  1.00 20.00    -0.371 OA
HETATM    8  C4  UNL     1     -32.769   5.639   1.362  1.00 20.00     0.204 C 
ENDBRANCH   3   7
TORSDOF 2
ENDMDL
MODEL 5
REMARK VINA RESULT:      -0.2      2.492      3.593
REMARK  2 active torsions:
REMARK  status: ('A' for Active; 'I' for Inactive)
REMARK    1  A    between atoms: C5_5  and  C6_6 
REMARK    2  A    between atoms: C6_6  and  O8_8 
ROOT
HETATM    1  C1  UNL     1     -33.870   7.352   4.408  1.00 20.00     0.097 C 
HETATM    2  C3  UNL     1     -35.820   6.773   3.025  1.00 20.00     0.062 C 
HETATM    3  C6  UNL     1     -34.499   6.275   3.620  1.00 20.00     0.144 C 
HETATM    4  N7  UNL     1     -33.376   8.200   5.026  1.00 20.00    -0.194 NA
ENDROOT
BRANCH   3   5
HETATM    5  C5  UNL     1     -34.755   5.026   4.486  1.00 20.00     0.049 C 
HETATM    6  C2  UNL     1     -33.835   3.849   4.175  1.00 20.00     0.009 C 
ENDBRANCH   3   5
BRANCH   3   7
HETATM    7  O8  UNL     1     -33.640   5.908   2.539  1.00 20.00    -0.371 OA
HETATM    8  C4  UNL     1     -32.932   7.031   2.041  1.00 20.00     0.204 C 
ENDBRANCH   3   7
TORSDOF 2
ENDMDL
MODEL 6
REMARK VINA RESULT:      -0.1      2.030      2.774
REMARK  2 active torsions:
REMARK  status: ('A' for Active; 'I' for Inactive)
REMARK    1  A    between atoms: C5_5  and  C6_6 
REMARK    2  A    between atoms: C6_6  and  O8_8 
ROOT
HETATM    1  C1  UNL     1     -32.405   8.755   1.072  1.00 20.00     0.097 C 
HETATM    2  C3  UNL     1     -33.768   6.722   1.310  1.00 20.00     0.062 C 
HETATM    3  C6  UNL     1     -32.593   7.529   1.871  1.00 20.00     0.144 C 
HETATM    4  N7  UNL     1     -32.257   9.718   0.442  1.00 20.00    -0.194 NA
ENDROOT
BRANCH   3   5
HETATM    5  C5  UNL     1     -32.848   7.863   3.353  1.00 20.00     0.049 C 
HETATM    6  C2  UNL     1     -34.154   7.300   3.907  1.00 20.00     0.009 C 
ENDBRANCH   3   5
BRANCH   3   7
HETATM    7  O8  UNL     1     -31.421   6.718   1.785  1.00 20.00    -0.371 OA
HETATM    8  C4  UNL     1     -31.739   5.392   1.396  1.00 20.00     0.204 C 
ENDBRANCH   3   7
TORSDOF 2
ENDMDL
MODEL 7
REMARK VINA RESULT:       0.1      2.591      3.768
REMARK  2 active torsions:
REMARK  status: ('A' for Active; 'I' for Inactive)
REMARK    1  A    between atoms: C5_5  and  C6_6 
REMARK    2  A    between atoms: C6_6  and  O8_8 
ROOT
HETATM    1  C1  UNL     1     -33.688   6.028   2.593  1.00 20.00     0.097 C 
HETATM    2  C3  UNL     1     -35.981   6.773   3.078  1.00 20.00     0.062 C 
HETATM    3  C6  UNL     1     -34.651   6.302   3.675  1.00 20.00     0.144 C 
HETATM    4  N7  UNL     1     -32.931   5.811   1.740  1.00 20.00    -0.194 NA
ENDROOT
BRANCH   3   5
HETATM    5  C5  UNL     1     -34.109   7.368   4.648  1.00 20.00     0.049 C 
HETATM    6  C2  UNL     1     -32.895   8.133   4.127  1.00 20.00     0.009 C 
ENDBRANCH   3   5
BRANCH   3   7
HETATM    7  O8  UNL     1     -34.899   5.103   4.410  1.00 20.00    -0.371 OA
HETATM    8  C4  UNL     1     -33.932   4.109   4.114  1.00 20.00     0.204 C 
ENDBRANCH   3   7
TORSDOF 2
ENDMDL
MODEL 8
REMARK VINA RESULT:       0.2      1.975      2.540
REMARK  2 active torsions:
REMARK  status: ('A' for Active; 'I' for Inactive)
REMARK    1  A    between atoms: C5_5  and  C6_6 
REMARK    2  A    between atoms: C6_6  and  O8_8 
ROOT
HETATM    1  C1  UNL     1     -32.447   8.880   0.984  1.00 20.00     0.097 C 
HETATM    2  C3  UNL     1     -32.117   6.478   1.398  1.00 20.00     0.062 C 
HETATM    3  C6  UNL     1     -32.366   7.849   2.036  1.00 20.00     0.144 C 
HETATM    4  N7  UNL     1     -32.509   9.690   0.157  1.00 20.00    -0.194 NA
ENDROOT
BRANCH   3   5
HETATM    5  C5  UNL     1     -33.657   7.807   2.876  1.00 20.00     0.049 C 
HETATM    6  C2  UNL     1     -34.064   6.407   3.331  1.00 20.00     0.009 C 
ENDBRANCH   3   5
BRANCH   3   7
HETATM    7  O8  UNL     1     -31.270   8.137   2.904  1.00 20.00    -0.371 OA
HETATM    8  C4  UNL     1     -31.674   8.954   3.990  1.00 20.00     0.204 C 
ENDBRANCH   3   7
TORSDOF 2
ENDMDL
MODEL 9
REMARK VINA RESULT:       0.4      2.178      3.360
REMARK  2 active torsions:
REMARK  status: ('A' for Active; 'I' for Inactive)
REMARK    1  A    between atoms: C5_5  and  C6_6 
REMARK    2  A    between atoms: C6_6  and  O8_8 
ROOT
HETATM    1  C1  UNL     1     -32.356   7.103   2.072  1.00 20.00     0.097 C 
HETATM    2  C3  UNL     1     -33.913   5.536   0.992  1.00 20.00     0.062 C 
HETATM    3  C6  UNL     1     -33.369   6.061   2.324  1.00 20.00     0.144 C 
HETATM    4  N7  UNL     1     -31.558   7.921   1.873  1.00 20.00    -0.194 NA
ENDROOT
BRANCH   3   5
HETATM    5  C5  UNL     1     -34.527   6.606   3.183  1.00 20.00     0.049 C 
HETATM    6  C2  UNL     1     -34.113   7.676   4.189  1.00 20.00     0.009 C 
ENDBRANCH   3   5
BRANCH   3   7
HETATM    7  O8  UNL     1     -32.768   4.967   3.017  1.00 20.00    -0.371 OA
HETATM    8  C4  UNL     1     -33.734   4.219   3.736  1.00 20.00     0.204 C 
ENDBRANCH   3   7
TORSDOF 2
ENDMDL
