MODEL 1
REMARK VINA RESULT:      -1.2      0.000      0.000
REMARK  4 active torsions:
REMARK  status: ('A' for Active; 'I' for Inactive)
REMARK    1  A    between atoms: C2_2  and  C9_9 
REMARK    2  A    between atoms: C2_2  and  C10_10 
REMARK    3  A    between atoms: C3_3  and  C5_5 
REMARK    4  A    between atoms: C3_3  and  C9_9 
ROOT
HETATM    1  C3  UNL     1     -33.709   7.433   3.786  1.00 20.00     0.135 C 
HETATM    2  O11 UNL     1     -32.778   7.781   4.500  1.00 20.00    -0.297 OA
ENDROOT
BRANCH   1   3
HETATM    3  C5  UNL     1     -34.918   6.805   4.396  1.00 20.00     0.060 A 
HETATM    4  C4  UNL     1     -35.893   6.111   3.499  1.00 20.00     0.017 A 
HETATM    5  C6  UNL     1     -35.044   5.314   4.448  1.00 20.00    -0.007 A 
HETATM    6  C7  UNL     1     -33.998   4.392   3.920  1.00 20.00     0.011 C 
ENDBRANCH   1   3
BRANCH   1   7
HETATM    7  C9  UNL     1     -33.735   7.553   2.274  1.00 20.00     0.111 C 
BRANCH   7   8
HETATM    8  C2  UNL     1     -32.375   7.296   1.680  1.00 20.00    -0.083 C 
HETATM    9  C1  UNL     1     -31.922   6.044   1.500  1.00 20.00     0.014 C 
BRANCH   8  10
HETATM   10  C10 UNL     1     -31.535   8.494   1.298  1.00 20.00     0.029 C 
HETATM   11  C8  UNL     1     -32.309   9.515   0.477  1.00 20.00     0.010 C 
ENDBRANCH   8  10
ENDBRANCH   7   8
ENDBRANCH   1   7
TORSDOF 4
ENDMDL
MODEL 2
REMARK VINA RESULT:      -1.1      1.332      1.681
REMARK  4 active torsions:
REMARK  status: ('A' for Active; 'I' for Inactive)
REMARK    1  A    between atoms: C2_2  and  C9_9 
REMARK    2  A    between atoms: C2_2  and  C10_10 
REMARK    3  A    between atoms: C3_3  and  C5_5 
REMARK    4  A    between atoms: C3_3  and  C9_9 
ROOT
HETATM    1  C3  UNL     1     -33.175   6.969   2.631  1.00 20.00     0.135 C 
HETATM    2  O11 UNL     1     -33.220   6.061   1.811  1.00 20.00    -0.297 OA
ENDROOT
BRANCH   1   3
HETATM    3  C5  UNL     1     -34.202   7.046   3.711  1.00 20.00     0.060 A 
HETATM    4  C4  UNL     1     -35.584   6.553   3.421  1.00 20.00     0.017 A 
HETATM    5  C6  UNL     1     -34.697   5.794   4.367  1.00 20.00    -0.007 A 
HETATM    6  C7  UNL     1     -34.203   4.437   4.001  1.00 20.00     0.011 C 
ENDBRANCH   1   3
BRANCH   1   7
HETATM    7  C9  UNL     1     -32.151   8.088   2.630  1.00 20.00     0.111 C 
BRANCH   7   8
HETATM    8  C2  UNL     1     -32.005   8.697   1.260  1.00 20.00    -0.083 C 
HETATM    9  C1  UNL     1     -31.213   8.135   0.332  1.00 20.00     0.014 C 
BRANCH   8  10
HETATM   10  C10 UNL     1     -32.777   9.963   0.966  1.00 20.00     0.029 C 
HETATM   11  C8  UNL     1     -32.799  10.306  -0.517  1.00 20.00     0.010 C 
ENDBRANCH   8  10
ENDBRANCH   7   8
ENDBRANCH   1   7
TORSDOF 4
ENDMDL
MODEL 3
REMARK VINA RESULT:      -1.1      1.499      2.387
REMARK  4 active torsions:
REMARK  status: ('A' for Active; 'I' for Inactive)
REMARK    1  A    between atoms: C2_2  and  C9_9 
REMARK    2  A    between atoms: C2_2  and  C10_10 
REMARK    3  A    between atoms: C3_3  and  C5_5 
REMARK    4  A    between atoms: C3_3  and  C9_9 
ROOT
HETATM    1  C3  UNL     1     -32.879   6.763   2.153  1.00 20.00     0.135 C 
HETATM    2  O11 UNL     1     -32.601   5.709   1.596  1.00 20.00    -0.297 OA
ENDROOT
BRANCH   1   3
HETATM    3  C5  UNL     1     -34.236   6.956   2.743  1.00 20.00     0.060 A 
HETATM    4  C4  UNL     1     -34.644   6.094   3.896  1.00 20.00     0.017 A 
HETATM    5  C6  UNL     1     -34.384   7.558   4.106  1.00 20.00    -0.007 A 
HETATM    6  C7  UNL     1     -33.221   7.999   4.929  1.00 20.00     0.011 C 
ENDBRANCH   1   3
BRANCH   1   7
HETATM    7  C9  UNL     1     -31.946   7.953   2.273  1.00 20.00     0.111 C 
BRANCH   7   8
HETATM    8  C2  UNL     1     -31.926   8.764   1.003  1.00 20.00    -0.083 C 
HETATM    9  C1  UNL     1     -31.177   8.390  -0.047  1.00 20.00     0.014 C 
BRANCH   8  10
HETATM   10  C10 UNL     1     -32.774  10.014   0.951  1.00 20.00     0.029 C 
HETATM   11  C8  UNL     1     -32.958  10.541  -0.465  1.00 20.00     0.010 C 
ENDBRANCH   8  10
ENDBRANCH   7   8
ENDBRANCH   1   7
TORSDOF 4
ENDMDL
MODEL 4
REMARK VINA RESULT:      -1.0      1.397      2.083
REMARK  4 active torsions:
REMARK  status: ('A' for Active; 'I' for Inactive)
REMARK    1  A    between atoms: C2_2  and  C9_9 
REMARK    2  A    between atoms: C2_2  and  C10_10 
REMARK    3  A    between atoms: C3_3  and  C5_5 
REMARK    4  A    between atoms: C3_3  and  C9_9 
ROOT
HETATM    1  C3  UNL     1     -33.261   6.033   2.475  1.00 20.00     0.135 C 
HETATM    2  O11 UNL     1     -32.890   5.099   3.175  1.00 20.00    -0.297 OA
ENDROOT
BRANCH   1   3
HETATM    3  C5  UNL     1     -34.512   6.769   2.823  1.00 20.00     0.060 A 
HETATM    4  C4  UNL     1     -35.295   6.325   4.018  1.00 20.00     0.017 A 
HETATM    5  C6  UNL     1     -34.559   7.634   4.045  1.00 20.00    -0.007 A 
HETATM    6  C7  UNL     1     -33.393   7.817   4.955  1.00 20.00     0.011 C 
ENDBRANCH   1   3
BRANCH   1   7
HETATM    7  C9  UNL     1     -32.559   6.507   1.217  1.00 20.00     0.111 C 
BRANCH   7   8
HETATM    8  C2  UNL     1     -31.988   7.890   1.396  1.00 20.00    -0.083 C 
HETATM    9  C1  UNL     1     -31.383   8.247   2.541  1.00 20.00     0.014 C 
BRANCH   8  10
HETATM   10  C10 UNL     1     -32.121   8.862   0.246  1.00 20.00     0.029 C 
HETATM   11  C8  UNL     1     -32.671  10.213   0.681  1.00 20.00     0.010 C 
ENDBRANCH   8  10
ENDBRANCH   7   8
ENDBRANCH   1   7
TORSDOF 4
ENDMDL
MODEL 5
REMARK VINA RESULT:      -0.8      1.253      4.614
REMARK  4 active torsions:
REMARK  status: ('A' for Active; 'I' for Inactive)
REMARK    1  A    between atoms: C2_2  and  C9_9 
REMARK    2  A    between atoms: C2_2  and  C10_10 
REMARK    3  A    between atoms: C3_3  and  C5_5 
REMARK    4  A    between atoms: C3_3  and  C9_9 
ROOT
HETATM    1  C3  UNL     1     -31.951   8.251   1.803  1.00 20.00     0.135 C 
HETATM    2  O11 UNL     1     -31.192   8.395   2.753  1.00 20.00    -0.297 OA
ENDROOT
BRANCH   1   3
HETATM    3  C5  UNL     1     -31.583   8.809   0.469  1.00 20.00     0.060 A 
HETATM    4  C4  UNL     1     -32.644   8.913  -0.580  1.00 20.00     0.017 A 
HETATM    5  C6  UNL     1     -32.089  10.156   0.054  1.00 20.00    -0.007 A 
HETATM    6  C7  UNL     1     -32.955  11.002   0.924  1.00 20.00     0.011 C 
ENDBRANCH   1   3
BRANCH   1   7
HETATM    7  C9  UNL     1     -33.300   7.560   1.867  1.00 20.00     0.111 C 
BRANCH   7   8
HETATM    8  C2  UNL     1     -33.149   6.087   2.143  1.00 20.00    -0.083 C 
HETATM    9  C1  UNL     1     -32.367   5.313   1.372  1.00 20.00     0.014 C 
BRANCH   8  10
HETATM   10  C10 UNL     1     -33.910   5.508   3.314  1.00 20.00     0.029 C 
HETATM   11  C8  UNL     1     -34.913   6.489   3.905  1.00 20.00     0.010 C 
ENDBRANCH   8  10
ENDBRANCH   7   8
ENDBRANCH   1   7
TORSDOF 4
ENDMDL
MODEL 6
REMARK VINA RESULT:      -0.7      0.865      4.441
REMARK  4 active torsions:
REMARK  status: ('A' for Active; 'I' for Inactive)
REMARK    1  A    between atoms: C2_2  and  C9_9 
REMARK    2  A    between atoms: C2_2  and  C10_10 
REMARK    3  A    between atoms: C3_3  and  C5_5 
REMARK    4  A    between atoms: C3_3  and  C9_9 
ROOT
HETATM    1  C3  UNL     1     -32.943   7.724   3.407  1.00 20.00     0.135 C 
HETATM    2  O11 UNL     1     -32.825   8.331   4.464  1.00 20.00    -0.297 OA
ENDROOT
BRANCH   1   3
HETATM    3  C5  UNL     1     -31.787   7.637   2.467  1.00 20.00     0.060 A 
HETATM    4  C4  UNL     1     -32.020   7.092   1.094  1.00 20.00     0.017 A 
HETATM    5  C6  UNL     1     -31.711   8.550   1.283  1.00 20.00    -0.007 A 
HETATM    6  C7  UNL     1     -32.747   9.578   0.983  1.00 20.00     0.011 C 
ENDBRANCH   1   3
BRANCH   1   7
HETATM    7  C9  UNL     1     -34.218   7.055   2.928  1.00 20.00     0.111 C 
BRANCH   7   8
HETATM    8  C2  UNL     1     -34.475   5.770   3.671  1.00 20.00    -0.083 C 
HETATM    9  C1  UNL     1     -35.511   5.653   4.518  1.00 20.00     0.014 C 
BRANCH   8  10
HETATM   10  C10 UNL     1     -33.525   4.618   3.434  1.00 20.00     0.029 C 
HETATM   11  C8  UNL     1     -33.693   3.500   4.454  1.00 20.00     0.010 C 
ENDBRANCH   8  10
ENDBRANCH   7   8
ENDBRANCH   1   7
TORSDOF 4
ENDMDL
MODEL 7
REMARK VINA RESULT:      -0.7      0.590      1.704
REMARK  4 active torsions:
REMARK  status: ('A' for Active; 'I' for Inactive)
REMARK    1  A    between atoms: C2_2  and  C9_9 
REMARK    2  A    between atoms: C2_2  and  C10_10 
REMARK    3  A    between atoms: C3_3  and  C5_5 
REMARK    4  A    between atoms: C3_3  and  C9_9 
ROOT
HETATM    1  C3  UNL     1     -33.702   7.470   3.838  1.00 20.00     0.135 C 
HETATM    2  O11 UNL     1     -32.803   7.769   4.614  1.00 20.00    -0.297 OA
ENDROOT
BRANCH   1   3
HETATM    3  C5  UNL     1     -34.962   6.864   4.360  1.00 20.00     0.060 A 
HETATM    4  C4  UNL     1     -35.864   6.152   3.401  1.00 20.00     0.017 A 
HETATM    5  C6  UNL     1     -35.103   5.375   4.437  1.00 20.00    -0.007 A 
HETATM    6  C7  UNL     1     -34.023   4.435   4.021  1.00 20.00     0.011 C 
ENDBRANCH   1   3
BRANCH   1   7
HETATM    7  C9  UNL     1     -33.638   7.634   2.331  1.00 20.00     0.111 C 
BRANCH   7   8
HETATM    8  C2  UNL     1     -32.261   7.323   1.804  1.00 20.00    -0.083 C 
HETATM    9  C1  UNL     1     -31.370   8.300   1.571  1.00 20.00     0.014 C 
BRANCH   8  10
HETATM   10  C10 UNL     1     -31.919   5.874   1.542  1.00 20.00     0.029 C 
HETATM   11  C8  UNL     1     -32.962   5.170   0.687  1.00 20.00     0.010 C 
ENDBRANCH   8  10
ENDBRANCH   7   8
ENDBRANCH   1   7
TORSDOF 4
ENDMDL
MODEL 8
REMARK VINA RESULT:      -0.7      1.461      4.714
REMARK  4 active torsions:
REMARK  status: ('A' for Active; 'I' for Inactive)
REMARK    1  A    between atoms: C2_2  and  C9_9 
REMARK    2  A    between atoms: C2_2  and  C10_10 
REMARK    3  A    between atoms: C3_3  and  C5_5 
REMARK    4  A    between atoms: C3_3  and  C9_9 
ROOT
HETATM    1  C3  UNL     1     -32.783   6.581   1.838  1.00 20.00     0.135 C 
HETATM    2  O11 UNL     1     -32.097   5.702   1.333  1.00 20.00    -0.297 OA
ENDROOT
BRANCH   1   3
HETATM    3  C5  UNL     1     -32.167   7.894   2.189  1.00 20.00     0.060 A 
HETATM    4  C4  UNL     1     -30.871   8.272   1.544  1.00 20.00     0.017 A 
HETATM    5  C6  UNL     1     -32.133   9.002   1.182  1.00 20.00    -0.007 A 
HETATM    6  C7  UNL     1     -32.705   8.870  -0.188  1.00 20.00     0.011 C 
ENDBRANCH   1   3
BRANCH   1   7
HETATM    7  C9  UNL     1     -34.253   6.442   2.185  1.00 20.00     0.111 C 
BRANCH   7   8
HETATM    8  C2  UNL     1     -34.465   6.425   3.676  1.00 20.00    -0.083 C 
HETATM    9  C1  UNL     1     -34.215   7.511   4.425  1.00 20.00     0.014 C 
BRANCH   8  10
HETATM   10  C10 UNL     1     -34.964   5.142   4.302  1.00 20.00     0.029 C 
HETATM   11  C8  UNL     1     -33.951   4.010   4.206  1.00 20.00     0.010 C 
ENDBRANCH   8  10
ENDBRANCH   7   8
ENDBRANCH   1   7
TORSDOF 4
ENDMDL
MODEL 9
REMARK VINA RESULT:      -0.7      1.234      4.821
REMARK  4 active torsions:
REMARK  status: ('A' for Active; 'I' for Inactive)
REMARK    1  A    between atoms: C2_2  and  C9_9 
REMARK    2  A    between atoms: C2_2  and  C10_10 
REMARK    3  A    between atoms: C3_3  and  C5_5 
REMARK    4  A    between atoms: C3_3  and  C9_9 
ROOT
HETATM    1  C3  UNL     1     -32.341   8.058   1.978  1.00 20.00     0.135 C 
HETATM    2  O11 UNL     1     -31.237   8.344   2.423  1.00 20.00    -0.297 OA
ENDROOT
BRANCH   1   3
HETATM    3  C5  UNL     1     -33.018   8.983   1.022  1.00 20.00     0.060 A 
HETATM    4  C4  UNL     1     -32.518  10.387   0.909  1.00 20.00     0.017 A 
HETATM    5  C6  UNL     1     -32.314   9.422  -0.224  1.00 20.00    -0.007 A 
HETATM    6  C7  UNL     1     -30.939   8.971  -0.581  1.00 20.00     0.011 C 
ENDBRANCH   1   3
BRANCH   1   7
HETATM    7  C9  UNL     1     -33.132   6.818   2.351  1.00 20.00     0.111 C 
BRANCH   7   8
HETATM    8  C2  UNL     1     -33.962   7.048   3.587  1.00 20.00    -0.083 C 
HETATM    9  C1  UNL     1     -33.736   8.102   4.388  1.00 20.00     0.014 C 
BRANCH   8  10
HETATM   10  C10 UNL     1     -35.054   6.050   3.898  1.00 20.00     0.029 C 
HETATM   11  C8  UNL     1     -34.511   4.657   4.186  1.00 20.00     0.010 C 
ENDBRANCH   8  10
ENDBRANCH   7   8
ENDBRANCH   1   7
TORSDOF 4
ENDMDL
