MODEL 1
REMARK VINA RESULT:      -1.0      0.000      0.000
REMARK  5 active torsions:
REMARK  status: ('A' for Active; 'I' for Inactive)
REMARK    1  A    between atoms: C2_2  and  C8_8 
REMARK    2  A    between atoms: C2_2  and  C9_9 
REMARK    3  A    between atoms: C3_3  and  C10_10 
REMARK    4  A    between atoms: C9_9  and  C10_10 
REMARK    5  A    between atoms: C10_10  and  C11_11 
ROOT
HETATM    1  C10 UNL     1     -33.357   7.148   2.255  1.00 20.00     0.062 C 
ENDROOT
BRANCH   1   2
HETATM    2  C3  UNL     1     -33.992   7.173   3.648  1.00 20.00     0.127 C 
HETATM    3  C4  UNL     1     -35.145   6.230   3.886  1.00 20.00     0.091 C 
HETATM    4  O12 UNL     1     -33.584   7.909   4.546  1.00 20.00    -0.298 OA
ENDBRANCH   1   2
BRANCH   1   5
HETATM    5  C9  UNL     1     -32.084   8.020   2.241  1.00 20.00     0.045 C 
BRANCH   5   6
HETATM    6  C2  UNL     1     -31.933   8.877   0.997  1.00 20.00    -0.089 C 
HETATM    7  C1  UNL     1     -31.097   8.514   0.010  1.00 20.00     0.014 C 
BRANCH   6   8
HETATM    8  C8  UNL     1     -32.739  10.153   0.895  1.00 20.00     0.029 C 
HETATM    9  C5  UNL     1     -33.013  10.572  -0.542  1.00 20.00     0.010 C 
ENDBRANCH   6   8
ENDBRANCH   5   6
ENDBRANCH   1   5
BRANCH   1  10
HETATM   10  C11 UNL     1     -33.083   5.705   1.752  1.00 20.00    -0.011 C 
HETATM   11  C6  UNL     1     -31.604   5.311   1.704  1.00 20.00     0.010 C 
HETATM   12  C7  UNL     1     -33.730   5.449   0.387  1.00 20.00     0.010 C 
ENDBRANCH   1  10
TORSDOF 5
ENDMDL
MODEL 2
REMARK VINA RESULT:      -1.0      1.785      3.398
REMARK  5 active torsions:
REMARK  status: ('A' for Active; 'I' for Inactive)
REMARK    1  A    between atoms: C2_2  and  C8_8 
REMARK    2  A    between atoms: C2_2  and  C9_9 
REMARK    3  A    between atoms: C3_3  and  C10_10 
REMARK    4  A    between atoms: C9_9  and  C10_10 
REMARK    5  A    between atoms: C10_10  and  C11_11 
ROOT
HETATM    1  C10 UNL     1     -33.687   5.967   3.723  1.00 20.00     0.062 C 
ENDROOT
BRANCH   1   2
HETATM    2  C3  UNL     1     -34.392   4.708   4.237  1.00 20.00     0.127 C 
HETATM    3  C4  UNL     1     -33.583   3.436   4.258  1.00 20.00     0.091 C 
HETATM    4  O12 UNL     1     -35.558   4.720   4.632  1.00 20.00    -0.298 OA
ENDBRANCH   1   2
BRANCH   1   5
HETATM    5  C9  UNL     1     -33.693   5.982   2.180  1.00 20.00     0.045 C 
BRANCH   5   6
HETATM    6  C2  UNL     1     -32.324   6.185   1.556  1.00 20.00    -0.089 C 
HETATM    7  C1  UNL     1     -31.737   5.201   0.855  1.00 20.00     0.014 C 
BRANCH   6   8
HETATM    8  C8  UNL     1     -31.633   7.516   1.747  1.00 20.00     0.029 C 
HETATM    9  C5  UNL     1     -32.321   8.656   1.010  1.00 20.00     0.010 C 
ENDBRANCH   6   8
ENDBRANCH   5   6
ENDBRANCH   1   5
BRANCH   1  10
HETATM   10  C11 UNL     1     -34.283   7.269   4.323  1.00 20.00    -0.011 C 
HETATM   11  C6  UNL     1     -35.108   8.109   3.343  1.00 20.00     0.010 C 
HETATM   12  C7  UNL     1     -33.203   8.142   4.969  1.00 20.00     0.010 C 
ENDBRANCH   1  10
TORSDOF 5
ENDMDL
MODEL 3
REMARK VINA RESULT:      -0.8      1.753      4.665
REMARK  5 active torsions:
REMARK  status: ('A' for Active; 'I' for Inactive)
REMARK    1  A    between atoms: C2_2  and  C8_8 
REMARK    2  A    between atoms: C2_2  and  C9_9 
REMARK    3  A    between atoms: C3_3  and  C10_10 
REMARK    4  A    between atoms: C9_9  and  C10_10 
REMARK    5  A    between atoms: C10_10  and  C11_11 
ROOT
HETATM    1  C10 UNL     1     -33.016   6.962   1.976  1.00 20.00     0.062 C 
ENDROOT
BRANCH   1   2
HETATM    2  C3  UNL     1     -32.646   5.672   1.239  1.00 20.00     0.127 C 
HETATM    3  C4  UNL     1     -33.681   5.105   0.300  1.00 20.00     0.091 C 
HETATM    4  O12 UNL     1     -31.556   5.119   1.384  1.00 20.00    -0.298 OA
ENDBRANCH   1   2
BRANCH   1   5
HETATM    5  C9  UNL     1     -33.311   6.657   3.460  1.00 20.00     0.045 C 
BRANCH   5   6
HETATM    6  C2  UNL     1     -34.719   6.156   3.722  1.00 20.00    -0.089 C 
HETATM    7  C1  UNL     1     -35.787   6.864   3.318  1.00 20.00     0.014 C 
BRANCH   6   8
HETATM    8  C8  UNL     1     -34.896   4.844   4.454  1.00 20.00     0.029 C 
HETATM    9  C5  UNL     1     -33.777   3.851   4.176  1.00 20.00     0.010 C 
ENDBRANCH   6   8
ENDBRANCH   5   6
ENDBRANCH   1   5
BRANCH   1  10
HETATM   10  C11 UNL     1     -31.942   8.071   1.809  1.00 20.00    -0.011 C 
HETATM   11  C6  UNL     1     -31.523   8.760   3.111  1.00 20.00     0.010 C 
HETATM   12  C7  UNL     1     -32.368   9.124   0.782  1.00 20.00     0.010 C 
ENDBRANCH   1  10
TORSDOF 5
ENDMDL
MODEL 4
REMARK VINA RESULT:      -0.8      1.712      2.940
REMARK  5 active torsions:
REMARK  status: ('A' for Active; 'I' for Inactive)
REMARK    1  A    between atoms: C2_2  and  C8_8 
REMARK    2  A    between atoms: C2_2  and  C9_9 
REMARK    3  A    between atoms: C3_3  and  C10_10 
REMARK    4  A    between atoms: C9_9  and  C10_10 
REMARK    5  A    between atoms: C10_10  and  C11_11 
ROOT
HETATM    1  C10 UNL     1     -33.100   6.124   2.652  1.00 20.00     0.062 C 
ENDROOT
BRANCH   1   2
HETATM    2  C3  UNL     1     -32.611   5.401   1.394  1.00 20.00     0.127 C 
HETATM    3  C4  UNL     1     -33.618   5.202   0.290  1.00 20.00     0.091 C 
HETATM    4  O12 UNL     1     -31.452   5.008   1.268  1.00 20.00    -0.298 OA
ENDBRANCH   1   2
BRANCH   1   5
HETATM    5  C9  UNL     1     -33.341   7.616   2.343  1.00 20.00     0.045 C 
BRANCH   5   6
HETATM    6  C2  UNL     1     -32.113   8.351   1.837  1.00 20.00    -0.089 C 
HETATM    7  C1  UNL     1     -31.046   8.534   2.632  1.00 20.00     0.014 C 
BRANCH   6   8
HETATM    8  C8  UNL     1     -32.118   8.878   0.419  1.00 20.00     0.029 C 
HETATM    9  C5  UNL     1     -32.617  10.313   0.319  1.00 20.00     0.010 C 
ENDBRANCH   6   8
ENDBRANCH   5   6
ENDBRANCH   1   5
BRANCH   1  10
HETATM   10  C11 UNL     1     -34.349   5.448   3.279  1.00 20.00    -0.011 C 
HETATM   11  C6  UNL     1     -35.222   6.375   4.130  1.00 20.00     0.010 C 
HETATM   12  C7  UNL     1     -33.973   4.204   4.090  1.00 20.00     0.010 C 
ENDBRANCH   1  10
TORSDOF 5
ENDMDL
MODEL 5
REMARK VINA RESULT:      -0.6      1.389      4.267
REMARK  5 active torsions:
REMARK  status: ('A' for Active; 'I' for Inactive)
REMARK    1  A    between atoms: C2_2  and  C8_8 
REMARK    2  A    between atoms: C2_2  and  C9_9 
REMARK    3  A    between atoms: C3_3  and  C10_10 
REMARK    4  A    between atoms: C9_9  and  C10_10 
REMARK    5  A    between atoms: C10_10  and  C11_11 
ROOT
HETATM    1  C10 UNL     1     -32.557   6.698   2.069  1.00 20.00     0.062 C 
ENDROOT
BRANCH   1   2
HETATM    2  C3  UNL     1     -31.880   8.057   1.872  1.00 20.00     0.127 C 
HETATM    3  C4  UNL     1     -32.198   8.797   0.597  1.00 20.00     0.091 C 
HETATM    4  O12 UNL     1     -31.123   8.545   2.711  1.00 20.00    -0.298 OA
ENDBRANCH   1   2
BRANCH   1   5
HETATM    5  C9  UNL     1     -34.056   6.894   2.375  1.00 20.00     0.045 C 
BRANCH   5   6
HETATM    6  C2  UNL     1     -34.412   6.762   3.845  1.00 20.00    -0.089 C 
HETATM    7  C1  UNL     1     -34.089   7.729   4.720  1.00 20.00     0.014 C 
BRANCH   6   8
HETATM    8  C8  UNL     1     -35.132   5.514   4.306  1.00 20.00     0.029 C 
HETATM    9  C5  UNL     1     -34.263   4.266   4.242  1.00 20.00     0.010 C 
ENDBRANCH   6   8
ENDBRANCH   5   6
ENDBRANCH   1   5
BRANCH   1  10
HETATM   10  C11 UNL     1     -32.325   5.740   0.869  1.00 20.00    -0.011 C 
HETATM   11  C6  UNL     1     -33.596   5.091   0.312  1.00 20.00     0.010 C 
HETATM   12  C7  UNL     1     -31.294   4.656   1.200  1.00 20.00     0.010 C 
ENDBRANCH   1  10
TORSDOF 5
ENDMDL
MODEL 6
REMARK VINA RESULT:      -0.2      1.783      4.474
REMARK  5 active torsions:
REMARK  status: ('A' for Active; 'I' for Inactive)
REMARK    1  A    between atoms: C2_2  and  C8_8 
REMARK    2  A    between atoms: C2_2  and  C9_9 
REMARK    3  A    between atoms: C3_3  and  C10_10 
REMARK    4  A    between atoms: C9_9  and  C10_10 
REMARK    5  A    between atoms: C10_10  and  C11_11 
ROOT
HETATM    1  C10 UNL     1     -32.963   6.968   1.713  1.00 20.00     0.062 C 
ENDROOT
BRANCH   1   2
HETATM    2  C3  UNL     1     -32.834   5.687   0.883  1.00 20.00     0.127 C 
HETATM    3  C4  UNL     1     -31.564   4.892   1.054  1.00 20.00     0.091 C 
HETATM    4  O12 UNL     1     -33.720   5.304   0.120  1.00 20.00    -0.298 OA
ENDBRANCH   1   2
BRANCH   1   5
HETATM    5  C9  UNL     1     -32.953   6.624   3.217  1.00 20.00     0.045 C 
BRANCH   5   6
HETATM    6  C2  UNL     1     -34.166   7.130   3.977  1.00 20.00    -0.089 C 
HETATM    7  C1  UNL     1     -34.133   8.312   4.614  1.00 20.00     0.014 C 
BRANCH   6   8
HETATM    8  C8  UNL     1     -35.410   6.272   4.008  1.00 20.00     0.029 C 
HETATM    9  C5  UNL     1     -35.142   4.850   4.480  1.00 20.00     0.010 C 
ENDBRANCH   6   8
ENDBRANCH   5   6
ENDBRANCH   1   5
BRANCH   1  10
HETATM   10  C11 UNL     1     -31.886   8.025   1.347  1.00 20.00    -0.011 C 
HETATM   11  C6  UNL     1     -31.062   8.538   2.532  1.00 20.00     0.010 C 
HETATM   12  C7  UNL     1     -32.490   9.209   0.586  1.00 20.00     0.010 C 
ENDBRANCH   1  10
TORSDOF 5
ENDMDL
MODEL 7
REMARK VINA RESULT:      -0.1      1.682      4.741
REMARK  5 active torsions:
REMARK  status: ('A' for Active; 'I' for Inactive)
REMARK    1  A    between atoms: C2_2  and  C8_8 
REMARK    2  A    between atoms: C2_2  and  C9_9 
REMARK    3  A    between atoms: C3_3  and  C10_10 
REMARK    4  A    between atoms: C9_9  and  C10_10 
REMARK    5  A    between atoms: C10_10  and  C11_11 
ROOT
HETATM    1  C10 UNL     1     -33.254   7.040   2.051  1.00 20.00     0.062 C 
ENDROOT
BRANCH   1   2
HETATM    2  C3  UNL     1     -32.644   5.835   1.330  1.00 20.00     0.127 C 
HETATM    3  C4  UNL     1     -33.504   5.155   0.295  1.00 20.00     0.091 C 
HETATM    4  O12 UNL     1     -31.503   5.436   1.562  1.00 20.00    -0.298 OA
ENDBRANCH   1   2
BRANCH   1   5
HETATM    5  C9  UNL     1     -33.491   6.701   3.538  1.00 20.00     0.045 C 
BRANCH   5   6
HETATM    6  C2  UNL     1     -34.853   6.095   3.826  1.00 20.00    -0.089 C 
HETATM    7  C1  UNL     1     -35.978   6.723   3.446  1.00 20.00     0.014 C 
BRANCH   6   8
HETATM    8  C8  UNL     1     -34.916   4.772   4.556  1.00 20.00     0.029 C 
HETATM    9  C5  UNL     1     -33.769   3.838   4.198  1.00 20.00     0.010 C 
ENDBRANCH   6   8
ENDBRANCH   5   6
ENDBRANCH   1   5
BRANCH   1  10
HETATM   10  C11 UNL     1     -32.407   8.330   1.873  1.00 20.00    -0.011 C 
HETATM   11  C6  UNL     1     -31.903   8.576   0.448  1.00 20.00     0.010 C 
HETATM   12  C7  UNL     1     -31.230   8.374   2.852  1.00 20.00     0.010 C 
ENDBRANCH   1  10
TORSDOF 5
ENDMDL
MODEL 8
REMARK VINA RESULT:       0.0      1.399      2.741
REMARK  5 active torsions:
REMARK  status: ('A' for Active; 'I' for Inactive)
REMARK    1  A    between atoms: C2_2  and  C8_8 
REMARK    2  A    between atoms: C2_2  and  C9_9 
REMARK    3  A    between atoms: C3_3  and  C10_10 
REMARK    4  A    between atoms: C9_9  and  C10_10 
REMARK    5  A    between atoms: C10_10  and  C11_11 
ROOT
HETATM    1  C10 UNL     1     -33.153   6.712   2.812  1.00 20.00     0.062 C 
ENDROOT
BRANCH   1   2
HETATM    2  C3  UNL     1     -33.277   5.198   2.621  1.00 20.00     0.127 C 
HETATM    3  C4  UNL     1     -33.040   4.667   1.229  1.00 20.00     0.091 C 
HETATM    4  O12 UNL     1     -33.541   4.436   3.550  1.00 20.00    -0.298 OA
ENDBRANCH   1   2
BRANCH   1   5
HETATM    5  C9  UNL     1     -33.065   7.412   1.439  1.00 20.00     0.045 C 
BRANCH   5   6
HETATM    6  C2  UNL     1     -31.987   8.478   1.355  1.00 20.00    -0.089 C 
HETATM    7  C1  UNL     1     -31.088   8.625   2.341  1.00 20.00     0.014 C 
BRANCH   6   8
HETATM    8  C8  UNL     1     -31.951   9.375   0.137  1.00 20.00     0.029 C 
HETATM    9  C5  UNL     1     -32.757  10.654   0.315  1.00 20.00     0.010 C 
ENDBRANCH   6   8
ENDBRANCH   5   6
ENDBRANCH   1   5
BRANCH   1  10
HETATM   10  C11 UNL     1     -34.291   7.295   3.693  1.00 20.00    -0.011 C 
HETATM   11  C6  UNL     1     -33.823   7.945   4.999  1.00 20.00     0.010 C 
HETATM   12  C7  UNL     1     -35.368   6.248   3.994  1.00 20.00     0.010 C 
ENDBRANCH   1  10
TORSDOF 5
ENDMDL
MODEL 9
REMARK VINA RESULT:       0.1      2.034      3.862
REMARK  5 active torsions:
REMARK  status: ('A' for Active; 'I' for Inactive)
REMARK    1  A    between atoms: C2_2  and  C8_8 
REMARK    2  A    between atoms: C2_2  and  C9_9 
REMARK    3  A    between atoms: C3_3  and  C10_10 
REMARK    4  A    between atoms: C9_9  and  C10_10 
REMARK    5  A    between atoms: C10_10  and  C11_11 
ROOT
HETATM    1  C10 UNL     1     -33.700   6.024   3.746  1.00 20.00     0.062 C 
ENDROOT
BRANCH   1   2
HETATM    2  C3  UNL     1     -34.420   4.761   4.229  1.00 20.00     0.127 C 
HETATM    3  C4  UNL     1     -33.624   3.480   4.221  1.00 20.00     0.091 C 
HETATM    4  O12 UNL     1     -35.586   4.777   4.623  1.00 20.00    -0.298 OA
ENDBRANCH   1   2
BRANCH   1   5
HETATM    5  C9  UNL     1     -33.695   6.070   2.204  1.00 20.00     0.045 C 
BRANCH   5   6
HETATM    6  C2  UNL     1     -32.351   6.432   1.598  1.00 20.00    -0.089 C 
HETATM    7  C1  UNL     1     -31.920   7.704   1.593  1.00 20.00     0.014 C 
BRANCH   6   8
HETATM    8  C8  UNL     1     -31.510   5.329   0.995  1.00 20.00     0.029 C 
HETATM    9  C5  UNL     1     -32.330   4.317   0.207  1.00 20.00     0.010 C 
ENDBRANCH   6   8
ENDBRANCH   5   6
ENDBRANCH   1   5
BRANCH   1  10
HETATM   10  C11 UNL     1     -34.290   7.319   4.368  1.00 20.00    -0.011 C 
HETATM   11  C6  UNL     1     -35.102   8.184   3.400  1.00 20.00     0.010 C 
HETATM   12  C7  UNL     1     -33.206   8.170   5.037  1.00 20.00     0.010 C 
ENDBRANCH   1  10
TORSDOF 5
ENDMDL
