MODEL 1
REMARK VINA RESULT:      -2.3      0.000      0.000
REMARK  6 active torsions:
REMARK  status: ('A' for Active; 'I' for Inactive)
REMARK    1  A    between atoms: C4_4  and  C6_6 
REMARK    2  A    between atoms: C4_4  and  C9_9 
REMARK    3  A    between atoms: C5_5  and  O10_10 
REMARK    4  A    between atoms: C6_6  and  O10_10 
REMARK    5  A    between atoms: C7_7  and  C9_9 
REMARK    6  A    between atoms: C8_8  and  C9_9 
ROOT
HETATM    1  C9  UNL     1     -33.329   5.790   3.099  1.00 20.00     0.005 C 
ENDROOT
BRANCH   1   2
HETATM    2  C4  UNL     1     -32.794   6.156   1.690  1.00 20.00     0.032 C 
BRANCH   2   3
HETATM    3  C6  UNL     1     -31.707   7.226   1.678  1.00 20.00     0.168 C 
BRANCH   3   4
HETATM    4  O10 UNL     1     -32.324   8.500   1.540  1.00 20.00    -0.391 OA
BRANCH   4   5
HETATM    5  C5  UNL     1     -31.968   9.120   0.312  1.00 20.00     0.163 C 
HETATM    6  C1  UNL     1     -32.657  10.466   0.221  1.00 20.00     0.033 C 
ENDBRANCH   4   5
ENDBRANCH   3   4
ENDBRANCH   2   3
ENDBRANCH   1   2
BRANCH   1   7
HETATM    7  C7  UNL     1     -33.862   4.342   3.174  1.00 20.00     0.119 C 
HETATM    8 CL11 UNL     1     -33.326   3.470   4.631  1.00 20.00    -0.130 Cl
ENDBRANCH   1   7
BRANCH   1   9
HETATM    9  C8  UNL     1     -34.374   6.841   3.603  1.00 20.00    -0.017 C 
HETATM   10  C2  UNL     1     -35.622   6.179   4.205  1.00 20.00     0.010 C 
HETATM   11  C3  UNL     1     -33.786   7.796   4.651  1.00 20.00     0.010 C 
ENDBRANCH   1   9
TORSDOF 6
ENDMDL
MODEL 2
REMARK VINA RESULT:      -1.6      1.634      1.866
REMARK  6 active torsions:
REMARK  status: ('A' for Active; 'I' for Inactive)
REMARK    1  A    between atoms: C4_4  and  C6_6 
REMARK    2  A    between atoms: C4_4  and  C9_9 
REMARK    3  A    between atoms: C5_5  and  O10_10 
REMARK    4  A    between atoms: C6_6  and  O10_10 
REMARK    5  A    between atoms: C7_7  and  C9_9 
REMARK    6  A    between atoms: C8_8  and  C9_9 
ROOT
HETATM    1  C9  UNL     1     -32.889   6.732   2.836  1.00 20.00     0.005 C 
ENDROOT
BRANCH   1   2
HETATM    2  C4  UNL     1     -31.895   7.856   2.447  1.00 20.00     0.032 C 
BRANCH   2   3
HETATM    3  C6  UNL     1     -32.229   8.581   1.147  1.00 20.00     0.168 C 
BRANCH   3   4
HETATM    4  O10 UNL     1     -32.585   9.924   1.453  1.00 20.00    -0.391 OA
BRANCH   4   5
HETATM    5  C5  UNL     1     -32.639  10.728   0.283  1.00 20.00     0.163 C 
HETATM    6  C1  UNL     1     -32.686   9.826  -0.933  1.00 20.00     0.033 C 
ENDBRANCH   4   5
ENDBRANCH   3   4
ENDBRANCH   2   3
ENDBRANCH   1   2
BRANCH   1   7
HETATM    7  C7  UNL     1     -33.273   5.837   1.637  1.00 20.00     0.119 C 
HETATM    8 CL11 UNL     1     -31.887   4.970   0.933  1.00 20.00    -0.130 Cl
ENDBRANCH   1   7
BRANCH   1   9
HETATM    9  C8  UNL     1     -34.140   7.308   3.580  1.00 20.00    -0.017 C 
HETATM   10  C2  UNL     1     -35.153   6.214   3.948  1.00 20.00     0.010 C 
HETATM   11  C3  UNL     1     -33.764   8.063   4.862  1.00 20.00     0.010 C 
ENDBRANCH   1   9
TORSDOF 6
ENDMDL
MODEL 3
REMARK VINA RESULT:      -1.5      2.657      5.053
REMARK  6 active torsions:
REMARK  status: ('A' for Active; 'I' for Inactive)
REMARK    1  A    between atoms: C4_4  and  C6_6 
REMARK    2  A    between atoms: C4_4  and  C9_9 
REMARK    3  A    between atoms: C5_5  and  O10_10 
REMARK    4  A    between atoms: C6_6  and  O10_10 
REMARK    5  A    between atoms: C7_7  and  C9_9 
REMARK    6  A    between atoms: C8_8  and  C9_9 
ROOT
HETATM    1  C9  UNL     1     -33.445   6.838   3.160  1.00 20.00     0.005 C 
ENDROOT
BRANCH   1   2
HETATM    2  C4  UNL     1     -34.714   5.950   3.092  1.00 20.00     0.032 C 
BRANCH   2   3
HETATM    3  C6  UNL     1     -35.338   5.623   4.446  1.00 20.00     0.168 C 
BRANCH   3   4
HETATM    4  O10 UNL     1     -35.015   4.280   4.784  1.00 20.00    -0.391 OA
BRANCH   4   5
HETATM    5  C5  UNL     1     -33.892   3.814   4.047  1.00 20.00     0.163 C 
HETATM    6  C1  UNL     1     -33.082   2.880   4.921  1.00 20.00     0.033 C 
ENDBRANCH   4   5
ENDBRANCH   3   4
ENDBRANCH   2   3
ENDBRANCH   1   2
BRANCH   1   7
HETATM    7  C7  UNL     1     -33.711   8.202   3.832  1.00 20.00     0.119 C 
HETATM    8 CL11 UNL     1     -33.023   8.326   5.470  1.00 20.00    -0.130 Cl
ENDBRANCH   1   7
BRANCH   1   9
HETATM    9  C8  UNL     1     -32.774   6.982   1.753  1.00 20.00    -0.017 C 
HETATM   10  C2  UNL     1     -31.726   8.105   1.720  1.00 20.00     0.010 C 
HETATM   11  C3  UNL     1     -32.100   5.684   1.288  1.00 20.00     0.010 C 
ENDBRANCH   1   9
TORSDOF 6
ENDMDL
MODEL 4
REMARK VINA RESULT:      -1.5      2.306      4.686
REMARK  6 active torsions:
REMARK  status: ('A' for Active; 'I' for Inactive)
REMARK    1  A    between atoms: C4_4  and  C6_6 
REMARK    2  A    between atoms: C4_4  and  C9_9 
REMARK    3  A    between atoms: C5_5  and  O10_10 
REMARK    4  A    between atoms: C6_6  and  O10_10 
REMARK    5  A    between atoms: C7_7  and  C9_9 
REMARK    6  A    between atoms: C8_8  and  C9_9 
ROOT
HETATM    1  C9  UNL     1     -33.287   7.002   2.019  1.00 20.00     0.005 C 
ENDROOT
BRANCH   1   2
HETATM    2  C4  UNL     1     -33.634   6.739   3.507  1.00 20.00     0.032 C 
BRANCH   2   3
HETATM    3  C6  UNL     1     -34.984   6.067   3.739  1.00 20.00     0.168 C 
BRANCH   3   4
HETATM    4  O10 UNL     1     -34.782   4.897   4.521  1.00 20.00    -0.391 OA
BRANCH   4   5
HETATM    5  C5  UNL     1     -33.943   3.964   3.853  1.00 20.00     0.163 C 
HETATM    6  C1  UNL     1     -33.242   3.104   4.885  1.00 20.00     0.033 C 
ENDBRANCH   4   5
ENDBRANCH   3   4
ENDBRANCH   2   3
ENDBRANCH   1   2
BRANCH   1   7
HETATM    7  C7  UNL     1     -33.137   5.698   1.205  1.00 20.00     0.119 C 
HETATM    8 CL11 UNL     1     -31.496   5.012   1.271  1.00 20.00    -0.130 Cl
ENDBRANCH   1   7
BRANCH   1   9
HETATM    9  C8  UNL     1     -32.043   7.943   1.881  1.00 20.00    -0.017 C 
HETATM   10  C2  UNL     1     -32.256   9.037   0.824  1.00 20.00     0.010 C 
HETATM   11  C3  UNL     1     -31.672   8.622   3.206  1.00 20.00     0.010 C 
ENDBRANCH   1   9
TORSDOF 6
ENDMDL
MODEL 5
REMARK VINA RESULT:      -1.2      2.583      4.935
REMARK  6 active torsions:
REMARK  status: ('A' for Active; 'I' for Inactive)
REMARK    1  A    between atoms: C4_4  and  C6_6 
REMARK    2  A    between atoms: C4_4  and  C9_9 
REMARK    3  A    between atoms: C5_5  and  O10_10 
REMARK    4  A    between atoms: C6_6  and  O10_10 
REMARK    5  A    between atoms: C7_7  and  C9_9 
REMARK    6  A    between atoms: C8_8  and  C9_9 
ROOT
HETATM    1  C9  UNL     1     -33.166   6.866   3.294  1.00 20.00     0.005 C 
ENDROOT
BRANCH   1   2
HETATM    2  C4  UNL     1     -34.437   6.024   3.011  1.00 20.00     0.032 C 
BRANCH   2   3
HETATM    3  C6  UNL     1     -35.288   5.720   4.241  1.00 20.00     0.168 C 
BRANCH   3   4
HETATM    4  O10 UNL     1     -35.000   4.397   4.677  1.00 20.00    -0.391 OA
BRANCH   4   5
HETATM    5  C5  UNL     1     -33.880   3.855   3.990  1.00 20.00     0.163 C 
HETATM    6  C1  UNL     1     -33.160   2.887   4.907  1.00 20.00     0.033 C 
ENDBRANCH   4   5
ENDBRANCH   3   4
ENDBRANCH   2   3
ENDBRANCH   1   2
BRANCH   1   7
HETATM    7  C7  UNL     1     -33.495   8.272   3.843  1.00 20.00     0.119 C 
HETATM    8 CL11 UNL     1     -33.070   8.474   5.560  1.00 20.00    -0.130 Cl
ENDBRANCH   1   7
BRANCH   1   9
HETATM    9  C8  UNL     1     -32.225   6.915   2.044  1.00 20.00    -0.017 C 
HETATM   10  C2  UNL     1     -32.587   5.847   1.001  1.00 20.00     0.010 C 
HETATM   11  C3  UNL     1     -32.240   8.284   1.352  1.00 20.00     0.010 C 
ENDBRANCH   1   9
TORSDOF 6
ENDMDL
MODEL 6
REMARK VINA RESULT:      -1.0      1.602      2.264
REMARK  6 active torsions:
REMARK  status: ('A' for Active; 'I' for Inactive)
REMARK    1  A    between atoms: C4_4  and  C6_6 
REMARK    2  A    between atoms: C4_4  and  C9_9 
REMARK    3  A    between atoms: C5_5  and  O10_10 
REMARK    4  A    between atoms: C6_6  and  O10_10 
REMARK    5  A    between atoms: C7_7  and  C9_9 
REMARK    6  A    between atoms: C8_8  and  C9_9 
ROOT
HETATM    1  C9  UNL     1     -34.008   6.514   3.006  1.00 20.00     0.005 C 
ENDROOT
BRANCH   1   2
HETATM    2  C4  UNL     1     -32.778   6.301   2.087  1.00 20.00     0.032 C 
BRANCH   2   3
HETATM    3  C6  UNL     1     -31.928   7.547   1.858  1.00 20.00     0.168 C 
BRANCH   3   4
HETATM    4  O10 UNL     1     -32.378   8.194   0.674  1.00 20.00    -0.391 OA
BRANCH   4   5
HETATM    5  C5  UNL     1     -32.137   9.593   0.722  1.00 20.00     0.163 C 
HETATM    6  C1  UNL     1     -32.760  10.242  -0.497  1.00 20.00     0.033 C 
ENDBRANCH   4   5
ENDBRANCH   3   4
ENDBRANCH   2   3
ENDBRANCH   1   2
BRANCH   1   7
HETATM    7  C7  UNL     1     -34.049   7.929   3.624  1.00 20.00     0.119 C 
HETATM    8 CL11 UNL     1     -33.240   8.030   5.206  1.00 20.00    -0.130 Cl
ENDBRANCH   1   7
BRANCH   1   9
HETATM    9  C8  UNL     1     -34.117   5.385   4.084  1.00 20.00    -0.017 C 
HETATM   10  C2  UNL     1     -35.553   5.211   4.602  1.00 20.00     0.010 C 
HETATM   11  C3  UNL     1     -33.629   4.027   3.562  1.00 20.00     0.010 C 
ENDBRANCH   1   9
TORSDOF 6
ENDMDL
MODEL 7
REMARK VINA RESULT:      -1.0      1.765      2.699
REMARK  6 active torsions:
REMARK  status: ('A' for Active; 'I' for Inactive)
REMARK    1  A    between atoms: C4_4  and  C6_6 
REMARK    2  A    between atoms: C4_4  and  C9_9 
REMARK    3  A    between atoms: C5_5  and  O10_10 
REMARK    4  A    between atoms: C6_6  and  O10_10 
REMARK    5  A    between atoms: C7_7  and  C9_9 
REMARK    6  A    between atoms: C8_8  and  C9_9 
ROOT
HETATM    1  C9  UNL     1     -33.553   7.114   2.620  1.00 20.00     0.005 C 
ENDROOT
BRANCH   1   2
HETATM    2  C4  UNL     1     -32.125   7.710   2.528  1.00 20.00     0.032 C 
BRANCH   2   3
HETATM    3  C6  UNL     1     -32.023   9.003   1.725  1.00 20.00     0.168 C 
BRANCH   3   4
HETATM    4  O10 UNL     1     -31.997   8.678   0.341  1.00 20.00    -0.391 OA
BRANCH   4   5
HETATM    5  C5  UNL     1     -32.569   9.713  -0.448  1.00 20.00     0.163 C 
HETATM    6  C1  UNL     1     -32.820  10.920   0.431  1.00 20.00     0.033 C 
ENDBRANCH   4   5
ENDBRANCH   3   4
ENDBRANCH   2   3
ENDBRANCH   1   2
BRANCH   1   7
HETATM    7  C7  UNL     1     -34.211   7.359   3.995  1.00 20.00     0.119 C 
HETATM    8 CL11 UNL     1     -33.164   8.244   5.130  1.00 20.00    -0.130 Cl
ENDBRANCH   1   7
BRANCH   1   9
HETATM    9  C8  UNL     1     -33.568   5.604   2.207  1.00 20.00    -0.017 C 
HETATM   10  C2  UNL     1     -32.327   5.211   1.391  1.00 20.00     0.010 C 
HETATM   11  C3  UNL     1     -33.660   4.666   3.419  1.00 20.00     0.010 C 
ENDBRANCH   1   9
TORSDOF 6
ENDMDL
MODEL 8
REMARK VINA RESULT:      -0.9      1.943      4.675
REMARK  6 active torsions:
REMARK  status: ('A' for Active; 'I' for Inactive)
REMARK    1  A    between atoms: C4_4  and  C6_6 
REMARK    2  A    between atoms: C4_4  and  C9_9 
REMARK    3  A    between atoms: C5_5  and  O10_10 
REMARK    4  A    between atoms: C6_6  and  O10_10 
REMARK    5  A    between atoms: C7_7  and  C9_9 
REMARK    6  A    between atoms: C8_8  and  C9_9 
ROOT
HETATM    1  C9  UNL     1     -32.623   7.762   1.913  1.00 20.00     0.005 C 
ENDROOT
BRANCH   1   2
HETATM    2  C4  UNL     1     -32.741   7.983   3.443  1.00 20.00     0.032 C 
BRANCH   2   3
HETATM    3  C6  UNL     1     -34.106   7.643   4.034  1.00 20.00     0.168 C 
BRANCH   3   4
HETATM    4  O10 UNL     1     -34.617   6.496   3.367  1.00 20.00    -0.391 OA
BRANCH   4   5
HETATM    5  C5  UNL     1     -35.069   5.515   4.291  1.00 20.00     0.163 C 
HETATM    6  C1  UNL     1     -34.195   4.283   4.168  1.00 20.00     0.033 C 
ENDBRANCH   4   5
ENDBRANCH   3   4
ENDBRANCH   2   3
ENDBRANCH   1   2
BRANCH   1   7
HETATM    7  C7  UNL     1     -31.969   6.410   1.557  1.00 20.00     0.119 C 
HETATM    8 CL11 UNL     1     -33.079   5.287   0.734  1.00 20.00    -0.130 Cl
ENDBRANCH   1   7
BRANCH   1   9
HETATM    9  C8  UNL     1     -31.917   8.973   1.216  1.00 20.00    -0.017 C 
HETATM   10  C2  UNL     1     -31.171   8.555  -0.060  1.00 20.00     0.010 C 
HETATM   11  C3  UNL     1     -32.899  10.094   0.851  1.00 20.00     0.010 C 
ENDBRANCH   1   9
TORSDOF 6
ENDMDL
MODEL 9
REMARK VINA RESULT:      -0.9      2.803      4.912
REMARK  6 active torsions:
REMARK  status: ('A' for Active; 'I' for Inactive)
REMARK    1  A    between atoms: C4_4  and  C6_6 
REMARK    2  A    between atoms: C4_4  and  C9_9 
REMARK    3  A    between atoms: C5_5  and  O10_10 
REMARK    4  A    between atoms: C6_6  and  O10_10 
REMARK    5  A    between atoms: C7_7  and  C9_9 
REMARK    6  A    between atoms: C8_8  and  C9_9 
ROOT
HETATM    1  C9  UNL     1     -32.333   7.213   2.137  1.00 20.00     0.005 C 
ENDROOT
BRANCH   1   2
HETATM    2  C4  UNL     1     -33.536   7.913   2.820  1.00 20.00     0.032 C 
BRANCH   2   3
HETATM    3  C6  UNL     1     -34.059   7.209   4.069  1.00 20.00     0.168 C 
BRANCH   3   4
HETATM    4  O10 UNL     1     -35.231   6.481   3.725  1.00 20.00    -0.391 OA
BRANCH   4   5
HETATM    5  C5  UNL     1     -35.370   5.312   4.520  1.00 20.00     0.163 C 
HETATM    6  C1  UNL     1     -34.238   4.359   4.197  1.00 20.00     0.033 C 
ENDBRANCH   4   5
ENDBRANCH   3   4
ENDBRANCH   2   3
ENDBRANCH   1   2
BRANCH   1   7
HETATM    7  C7  UNL     1     -31.645   8.109   1.084  1.00 20.00     0.119 C 
HETATM    8 CL11 UNL     1     -32.584   9.565   0.676  1.00 20.00    -0.130 Cl
ENDBRANCH   1   7
BRANCH   1   9
HETATM    9  C8  UNL     1     -32.738   5.814   1.563  1.00 20.00    -0.017 C 
HETATM   10  C2  UNL     1     -33.707   5.931   0.377  1.00 20.00     0.010 C 
HETATM   11  C3  UNL     1     -31.523   4.993   1.110  1.00 20.00     0.010 C 
ENDBRANCH   1   9
TORSDOF 6
ENDMDL
