MODEL 1
REMARK VINA RESULT:      -0.4      0.000      0.000
REMARK  3 active torsions:
REMARK  status: ('A' for Active; 'I' for Inactive)
REMARK    1  A    between atoms: C6_6  and  C8_8 
REMARK    2  A    between atoms: C7_7  and  C8_8 
REMARK    3  A    between atoms: C7_7  and  C9_9 
ROOT
HETATM    1  C8  UNL     1     -32.176   7.684   2.117  1.00 20.00     0.042 C 
ENDROOT
BRANCH   1   2
HETATM    2  C6  UNL     1     -32.660   8.563   0.980  1.00 20.00     0.122 C 
HETATM    3  C2  UNL     1     -31.574   8.910  -0.023  1.00 20.00     0.034 C 
HETATM    4  C1  UNL     1     -32.092  10.208  -0.590  1.00 20.00     0.029 C 
HETATM    5  C5  UNL     1     -32.689  10.868   0.635  1.00 20.00     0.168 C 
HETATM    6  O10 UNL     1     -33.140   9.815   1.500  1.00 20.00    -0.386 OA
ENDBRANCH   1   2
BRANCH   1   7
HETATM    7  C7  UNL     1     -32.826   6.335   2.101  1.00 20.00    -0.025 A 
HETATM    8  C3  UNL     1     -33.111   5.701   0.759  1.00 20.00     0.011 A 
HETATM    9  C4  UNL     1     -32.007   5.159   1.622  1.00 20.00     0.011 A 
BRANCH   7  10
HETATM   10  C9  UNL     1     -33.810   6.102   3.215  1.00 20.00     0.124 C 
HETATM   11 CL11 UNL     1     -34.129   7.612   4.103  1.00 20.00    -0.130 Cl
ENDBRANCH   7  10
ENDBRANCH   1   7
TORSDOF 3
ENDMDL
MODEL 2
REMARK VINA RESULT:      -0.1      2.513      4.833
REMARK  3 active torsions:
REMARK  status: ('A' for Active; 'I' for Inactive)
REMARK    1  A    between atoms: C6_6  and  C8_8 
REMARK    2  A    between atoms: C7_7  and  C8_8 
REMARK    3  A    between atoms: C7_7  and  C9_9 
ROOT
HETATM    1  C8  UNL     1     -33.085   7.328   3.116  1.00 20.00     0.042 C 
ENDROOT
BRANCH   1   2
HETATM    2  C6  UNL     1     -34.111   6.214   3.202  1.00 20.00     0.122 C 
HETATM    3  C2  UNL     1     -35.173   6.449   4.261  1.00 20.00     0.034 C 
HETATM    4  C1  UNL     1     -35.600   5.038   4.577  1.00 20.00     0.029 C 
HETATM    5  C5  UNL     1     -34.284   4.291   4.506  1.00 20.00     0.168 C 
HETATM    6  O10 UNL     1     -33.463   4.979   3.551  1.00 20.00    -0.386 OA
ENDBRANCH   1   2
BRANCH   1   7
HETATM    7  C7  UNL     1     -32.480   7.432   1.749  1.00 20.00    -0.025 A 
HETATM    8  C3  UNL     1     -32.382   8.802   1.121  1.00 20.00     0.011 A 
HETATM    9  C4  UNL     1     -31.140   8.118   1.618  1.00 20.00     0.011 A 
BRANCH   7  10
HETATM   10  C9  UNL     1     -32.764   6.261   0.850  1.00 20.00     0.124 C 
HETATM   11 CL11 UNL     1     -31.533   4.992   1.054  1.00 20.00    -0.130 Cl
ENDBRANCH   7  10
ENDBRANCH   1   7
TORSDOF 3
ENDMDL
MODEL 3
REMARK VINA RESULT:       0.3      1.716      2.524
REMARK  3 active torsions:
REMARK  status: ('A' for Active; 'I' for Inactive)
REMARK    1  A    between atoms: C6_6  and  C8_8 
REMARK    2  A    between atoms: C7_7  and  C8_8 
REMARK    3  A    between atoms: C7_7  and  C9_9 
ROOT
HETATM    1  C8  UNL     1     -33.181   7.588   3.273  1.00 20.00     0.042 C 
ENDROOT
BRANCH   1   2
HETATM    2  C6  UNL     1     -32.816   7.815   1.818  1.00 20.00     0.122 C 
HETATM    3  C2  UNL     1     -31.321   7.768   1.554  1.00 20.00     0.034 C 
HETATM    4  C1  UNL     1     -31.208   8.620   0.315  1.00 20.00     0.029 C 
HETATM    5  C5  UNL     1     -32.229   9.705   0.588  1.00 20.00     0.168 C 
HETATM    6  O10 UNL     1     -33.256   9.118   1.402  1.00 20.00    -0.386 OA
ENDBRANCH   1   2
BRANCH   1   7
HETATM    7  C7  UNL     1     -34.125   6.438   3.444  1.00 20.00    -0.025 A 
HETATM    8  C3  UNL     1     -35.028   6.436   4.655  1.00 20.00     0.011 A 
HETATM    9  C4  UNL     1     -35.604   6.707   3.294  1.00 20.00     0.011 A 
BRANCH   7  10
HETATM   10  C9  UNL     1     -33.595   5.118   2.956  1.00 20.00     0.124 C 
HETATM   11 CL11 UNL     1     -33.862   3.842   4.168  1.00 20.00    -0.130 Cl
ENDBRANCH   7  10
ENDBRANCH   1   7
TORSDOF 3
ENDMDL
MODEL 4
REMARK VINA RESULT:       0.3      2.502      4.726
REMARK  3 active torsions:
REMARK  status: ('A' for Active; 'I' for Inactive)
REMARK    1  A    between atoms: C6_6  and  C8_8 
REMARK    2  A    between atoms: C7_7  and  C8_8 
REMARK    3  A    between atoms: C7_7  and  C9_9 
ROOT
HETATM    1  C8  UNL     1     -33.142   7.244   2.941  1.00 20.00     0.042 C 
ENDROOT
BRANCH   1   2
HETATM    2  C6  UNL     1     -34.161   6.137   3.134  1.00 20.00     0.122 C 
HETATM    3  C2  UNL     1     -35.169   6.425   4.233  1.00 20.00     0.034 C 
HETATM    4  C1  UNL     1     -35.576   5.032   4.640  1.00 20.00     0.029 C 
HETATM    5  C5  UNL     1     -34.265   4.281   4.540  1.00 20.00     0.168 C 
HETATM    6  O10 UNL     1     -33.494   4.920   3.511  1.00 20.00    -0.386 OA
ENDBRANCH   1   2
BRANCH   1   7
HETATM    7  C7  UNL     1     -32.366   7.079   1.670  1.00 20.00    -0.025 A 
HETATM    8  C3  UNL     1     -31.837   5.703   1.337  1.00 20.00     0.011 A 
HETATM    9  C4  UNL     1     -32.991   6.268   0.559  1.00 20.00     0.011 A 
BRANCH   7  10
HETATM   10  C9  UNL     1     -31.528   8.269   1.292  1.00 20.00     0.124 C 
HETATM   11 CL11 UNL     1     -32.541   9.566   0.613  1.00 20.00    -0.130 Cl
ENDBRANCH   7  10
ENDBRANCH   1   7
TORSDOF 3
ENDMDL
MODEL 5
REMARK VINA RESULT:       0.4      2.132      4.530
REMARK  3 active torsions:
REMARK  status: ('A' for Active; 'I' for Inactive)
REMARK    1  A    between atoms: C6_6  and  C8_8 
REMARK    2  A    between atoms: C7_7  and  C8_8 
REMARK    3  A    between atoms: C7_7  and  C9_9 
ROOT
HETATM    1  C8  UNL     1     -33.036   6.703   1.620  1.00 20.00     0.042 C 
ENDROOT
BRANCH   1   2
HETATM    2  C6  UNL     1     -33.425   6.321   3.036  1.00 20.00     0.122 C 
HETATM    3  C2  UNL     1     -33.707   4.839   3.208  1.00 20.00     0.034 C 
HETATM    4  C1  UNL     1     -34.640   4.846   4.392  1.00 20.00     0.029 C 
HETATM    5  C5  UNL     1     -35.470   6.085   4.129  1.00 20.00     0.168 C 
HETATM    6  O10 UNL     1     -34.633   7.005   3.412  1.00 20.00    -0.386 OA
ENDBRANCH   1   2
BRANCH   1   7
HETATM    7  C7  UNL     1     -32.198   7.944   1.582  1.00 20.00    -0.025 A 
HETATM    8  C3  UNL     1     -31.920   8.651   2.888  1.00 20.00     0.011 A 
HETATM    9  C4  UNL     1     -30.822   7.889   2.202  1.00 20.00     0.011 A 
BRANCH   7  10
HETATM   10  C9  UNL     1     -32.384   8.786   0.350  1.00 20.00     0.124 C 
HETATM   11 CL11 UNL     1     -32.722  10.479   0.784  1.00 20.00    -0.130 Cl
ENDBRANCH   7  10
ENDBRANCH   1   7
TORSDOF 3
ENDMDL
MODEL 6
REMARK VINA RESULT:       0.6      2.187      3.157
REMARK  3 active torsions:
REMARK  status: ('A' for Active; 'I' for Inactive)
REMARK    1  A    between atoms: C6_6  and  C8_8 
REMARK    2  A    between atoms: C7_7  and  C8_8 
REMARK    3  A    between atoms: C7_7  and  C9_9 
ROOT
HETATM    1  C8  UNL     1     -33.470   5.463   2.737  1.00 20.00     0.042 C 
ENDROOT
BRANCH   1   2
HETATM    2  C6  UNL     1     -33.164   6.759   2.011  1.00 20.00     0.122 C 
HETATM    3  C2  UNL     1     -32.075   6.624   0.963  1.00 20.00     0.034 C 
HETATM    4  C1  UNL     1     -31.543   8.033   0.898  1.00 20.00     0.029 C 
HETATM    5  C5  UNL     1     -31.605   8.457   2.350  1.00 20.00     0.168 C 
HETATM    6  O10 UNL     1     -32.699   7.745   2.948  1.00 20.00    -0.386 OA
ENDBRANCH   1   2
BRANCH   1   7
HETATM    7  C7  UNL     1     -34.514   5.644   3.797  1.00 20.00    -0.025 A 
HETATM    8  C3  UNL     1     -34.702   7.026   4.376  1.00 20.00     0.011 A 
HETATM    9  C4  UNL     1     -35.740   6.456   3.452  1.00 20.00     0.011 A 
BRANCH   7  10
HETATM   10  C9  UNL     1     -34.683   4.464   4.714  1.00 20.00     0.124 C 
HETATM   11 CL11 UNL     1     -33.415   3.250   4.425  1.00 20.00    -0.130 Cl
ENDBRANCH   7  10
ENDBRANCH   1   7
TORSDOF 3
ENDMDL
MODEL 7
REMARK VINA RESULT:       0.6      2.579      4.716
REMARK  3 active torsions:
REMARK  status: ('A' for Active; 'I' for Inactive)
REMARK    1  A    between atoms: C6_6  and  C8_8 
REMARK    2  A    between atoms: C7_7  and  C8_8 
REMARK    3  A    between atoms: C7_7  and  C9_9 
ROOT
HETATM    1  C8  UNL     1     -32.923   7.682   3.260  1.00 20.00     0.042 C 
ENDROOT
BRANCH   1   2
HETATM    2  C6  UNL     1     -33.999   6.617   3.175  1.00 20.00     0.122 C 
HETATM    3  C2  UNL     1     -35.038   6.716   4.278  1.00 20.00     0.034 C 
HETATM    4  C1  UNL     1     -35.527   5.292   4.359  1.00 20.00     0.029 C 
HETATM    5  C5  UNL     1     -34.250   4.509   4.139  1.00 20.00     0.168 C 
HETATM    6  O10 UNL     1     -33.407   5.313   3.298  1.00 20.00    -0.386 OA
ENDBRANCH   1   2
BRANCH   1   7
HETATM    7  C7  UNL     1     -32.399   8.061   1.909  1.00 20.00    -0.025 A 
HETATM    8  C3  UNL     1     -30.928   7.849   1.634  1.00 20.00     0.011 A 
HETATM    9  C4  UNL     1     -31.945   6.952   0.988  1.00 20.00     0.011 A 
BRANCH   7  10
HETATM   10  C9  UNL     1     -33.066   9.260   1.294  1.00 20.00     0.124 C 
HETATM   11 CL11 UNL     1     -32.121   9.875  -0.083  1.00 20.00    -0.130 Cl
ENDBRANCH   7  10
ENDBRANCH   1   7
TORSDOF 3
ENDMDL
MODEL 8
REMARK VINA RESULT:       0.6      1.550      2.232
REMARK  3 active torsions:
REMARK  status: ('A' for Active; 'I' for Inactive)
REMARK    1  A    between atoms: C6_6  and  C8_8 
REMARK    2  A    between atoms: C7_7  and  C8_8 
REMARK    3  A    between atoms: C7_7  and  C9_9 
ROOT
HETATM    1  C8  UNL     1     -32.208   8.070   2.483  1.00 20.00     0.042 C 
ENDROOT
BRANCH   1   2
HETATM    2  C6  UNL     1     -32.659   8.675   1.167  1.00 20.00     0.122 C 
HETATM    3  C2  UNL     1     -31.557   8.753   0.126  1.00 20.00     0.034 C 
HETATM    4  C1  UNL     1     -32.034   9.898  -0.732  1.00 20.00     0.029 C 
HETATM    5  C5  UNL     1     -32.621  10.838   0.299  1.00 20.00     0.168 C 
HETATM    6  O10 UNL     1     -33.107  10.025   1.378  1.00 20.00    -0.386 OA
ENDBRANCH   1   2
BRANCH   1   7
HETATM    7  C7  UNL     1     -33.271   7.217   3.104  1.00 20.00    -0.025 A 
HETATM    8  C3  UNL     1     -33.499   7.341   4.592  1.00 20.00     0.011 A 
HETATM    9  C4  UNL     1     -34.510   7.902   3.632  1.00 20.00     0.011 A 
BRANCH   7  10
HETATM   10  C9  UNL     1     -33.429   5.859   2.476  1.00 20.00     0.124 C 
HETATM   11 CL11 UNL     1     -32.035   5.477   1.437  1.00 20.00    -0.130 Cl
ENDBRANCH   7  10
ENDBRANCH   1   7
TORSDOF 3
ENDMDL
MODEL 9
REMARK VINA RESULT:       0.8      2.403      4.732
REMARK  3 active torsions:
REMARK  status: ('A' for Active; 'I' for Inactive)
REMARK    1  A    between atoms: C6_6  and  C8_8 
REMARK    2  A    between atoms: C7_7  and  C8_8 
REMARK    3  A    between atoms: C7_7  and  C9_9 
ROOT
HETATM    1  C8  UNL     1     -33.795   7.108   2.266  1.00 20.00     0.042 C 
ENDROOT
BRANCH   1   2
HETATM    2  C6  UNL     1     -33.867   6.326   3.564  1.00 20.00     0.122 C 
HETATM    3  C2  UNL     1     -33.600   4.842   3.393  1.00 20.00     0.034 C 
HETATM    4  C1  UNL     1     -34.340   4.265   4.574  1.00 20.00     0.029 C 
HETATM    5  C5  UNL     1     -35.569   5.147   4.633  1.00 20.00     0.168 C 
HETATM    6  O10 UNL     1     -35.186   6.435   4.127  1.00 20.00    -0.386 OA
ENDBRANCH   1   2
BRANCH   1   7
HETATM    7  C7  UNL     1     -32.389   7.241   1.767  1.00 20.00    -0.025 A 
HETATM    8  C3  UNL     1     -32.026   8.487   0.993  1.00 20.00     0.011 A 
HETATM    9  C4  UNL     1     -31.512   8.300   2.392  1.00 20.00     0.011 A 
BRANCH   7  10
HETATM   10  C9  UNL     1     -31.746   5.944   1.357  1.00 20.00     0.124 C 
HETATM   11 CL11 UNL     1     -32.841   4.993   0.326  1.00 20.00    -0.130 Cl
ENDBRANCH   7  10
ENDBRANCH   1   7
TORSDOF 3
ENDMDL
