MODEL 1
REMARK VINA RESULT:      -1.3      0.000      0.000
REMARK  3 active torsions:
REMARK  status: ('A' for Active; 'I' for Inactive)
REMARK    1  A    between atoms: C6_6  and  C7_7 
REMARK    2  A    between atoms: C6_6  and  C8_8 
REMARK    3  A    between atoms: C8_8  and  O10_10 
ROOT
HETATM    1  C1  UNL     1     -32.297   8.953   0.870  1.00 20.00     0.097 C 
HETATM    2  C4  UNL     1     -31.449   8.503   3.132  1.00 20.00     0.062 C 
HETATM    3  C8  UNL     1     -32.297   7.972   1.970  1.00 20.00     0.144 C 
HETATM    4  N9  UNL     1     -32.299   9.728   0.006  1.00 20.00    -0.194 NA
ENDROOT
BRANCH   3   5
HETATM    5  C6  UNL     1     -33.729   7.678   2.469  1.00 20.00     0.057 C 
BRANCH   5   6
HETATM    6  C7  UNL     1     -33.876   7.023   3.865  1.00 20.00    -0.019 C 
HETATM    7  C2  UNL     1     -33.859   8.116   4.940  1.00 20.00     0.009 C 
HETATM    8  C3  UNL     1     -35.142   6.182   4.020  1.00 20.00     0.009 C 
ENDBRANCH   5   6
ENDBRANCH   3   5
BRANCH   3   9
HETATM    9  O10 UNL     1     -31.696   6.754   1.531  1.00 20.00    -0.371 OA
HETATM   10  C5  UNL     1     -32.678   5.785   1.198  1.00 20.00     0.204 C 
ENDBRANCH   3   9
TORSDOF 3
ENDMDL
MODEL 2
REMARK VINA RESULT:      -0.9      1.438      2.269
REMARK  3 active torsions:
REMARK  status: ('A' for Active; 'I' for Inactive)
REMARK    1  A    between atoms: C6_6  and  C7_7 
REMARK    2  A    between atoms: C6_6  and  C8_8 
REMARK    3  A    between atoms: C8_8  and  O10_10 
ROOT
HETATM    1  C1  UNL     1     -32.250   7.452   1.507  1.00 20.00     0.097 C 
HETATM    2  C4  UNL     1     -31.558   5.099   1.348  1.00 20.00     0.062 C 
HETATM    3  C8  UNL     1     -32.724   6.061   1.610  1.00 20.00     0.144 C 
HETATM    4  N9  UNL     1     -31.875   8.547   1.429  1.00 20.00    -0.194 NA
ENDROOT
BRANCH   3   5
HETATM    5  C6  UNL     1     -33.330   5.767   3.001  1.00 20.00     0.057 C 
BRANCH   5   6
HETATM    6  C7  UNL     1     -34.413   6.742   3.526  1.00 20.00    -0.019 C 
HETATM    7  C2  UNL     1     -35.514   5.939   4.229  1.00 20.00     0.009 C 
HETATM    8  C3  UNL     1     -33.874   7.805   4.481  1.00 20.00     0.009 C 
ENDBRANCH   5   6
ENDBRANCH   3   5
BRANCH   3   9
HETATM    9  O10 UNL     1     -33.710   5.811   0.609  1.00 20.00    -0.371 OA
HETATM   10  C5  UNL     1     -33.505   4.553  -0.016  1.00 20.00     0.204 C 
ENDBRANCH   3   9
TORSDOF 3
ENDMDL
MODEL 3
REMARK VINA RESULT:      -0.6      2.267      4.047
REMARK  3 active torsions:
REMARK  status: ('A' for Active; 'I' for Inactive)
REMARK    1  A    between atoms: C6_6  and  C7_7 
REMARK    2  A    between atoms: C6_6  and  C8_8 
REMARK    3  A    between atoms: C8_8  and  O10_10 
ROOT
HETATM    1  C1  UNL     1     -33.663   7.549   4.514  1.00 20.00     0.097 C 
HETATM    2  C4  UNL     1     -35.658   6.366   3.705  1.00 20.00     0.062 C 
HETATM    3  C8  UNL     1     -34.133   6.494   3.600  1.00 20.00     0.144 C 
HETATM    4  N9  UNL     1     -33.293   8.382   5.232  1.00 20.00    -0.194 NA
ENDROOT
BRANCH   3   5
HETATM    5  C6  UNL     1     -33.741   6.793   2.136  1.00 20.00     0.057 C 
BRANCH   5   6
HETATM    6  C7  UNL     1     -32.230   6.853   1.801  1.00 20.00    -0.019 C 
HETATM    7  C2  UNL     1     -31.859   5.649   0.929  1.00 20.00     0.009 C 
HETATM    8  C3  UNL     1     -31.808   8.140   1.093  1.00 20.00     0.009 C 
ENDBRANCH   5   6
ENDBRANCH   3   5
BRANCH   3   9
HETATM    9  O10 UNL     1     -33.577   5.237   3.985  1.00 20.00    -0.371 OA
HETATM   10  C5  UNL     1     -34.581   4.350   4.455  1.00 20.00     0.204 C 
ENDBRANCH   3   9
TORSDOF 3
ENDMDL
MODEL 4
REMARK VINA RESULT:      -0.4      2.008      2.953
REMARK  3 active torsions:
REMARK  status: ('A' for Active; 'I' for Inactive)
REMARK    1  A    between atoms: C6_6  and  C7_7 
REMARK    2  A    between atoms: C6_6  and  C8_8 
REMARK    3  A    between atoms: C8_8  and  O10_10 
ROOT
HETATM    1  C1  UNL     1     -31.872   5.183   1.009  1.00 20.00     0.097 C 
HETATM    2  C4  UNL     1     -33.679   6.809   0.649  1.00 20.00     0.062 C 
HETATM    3  C8  UNL     1     -32.605   6.304   1.622  1.00 20.00     0.144 C 
HETATM    4  N9  UNL     1     -31.296   4.298   0.528  1.00 20.00    -0.194 NA
ENDROOT
BRANCH   3   5
HETATM    5  C6  UNL     1     -33.271   5.889   2.953  1.00 20.00     0.057 C 
BRANCH   5   6
HETATM    6  C7  UNL     1     -34.378   6.815   3.515  1.00 20.00    -0.019 C 
HETATM    7  C2  UNL     1     -35.453   5.960   4.197  1.00 20.00     0.009 C 
HETATM    8  C3  UNL     1     -33.862   7.861   4.502  1.00 20.00     0.009 C 
ENDBRANCH   5   6
ENDBRANCH   3   5
BRANCH   3   9
HETATM    9  O10 UNL     1     -31.712   7.391   1.866  1.00 20.00    -0.371 OA
HETATM   10  C5  UNL     1     -32.136   8.568   1.195  1.00 20.00     0.204 C 
ENDBRANCH   3   9
TORSDOF 3
ENDMDL
MODEL 5
REMARK VINA RESULT:      -0.1      1.629      2.273
REMARK  3 active torsions:
REMARK  status: ('A' for Active; 'I' for Inactive)
REMARK    1  A    between atoms: C6_6  and  C7_7 
REMARK    2  A    between atoms: C6_6  and  C8_8 
REMARK    3  A    between atoms: C8_8  and  O10_10 
ROOT
HETATM    1  C1  UNL     1     -32.203   7.697   1.464  1.00 20.00     0.097 C 
HETATM    2  C4  UNL     1     -31.543   5.331   1.533  1.00 20.00     0.062 C 
HETATM    3  C8  UNL     1     -32.677   6.336   1.771  1.00 20.00     0.144 C 
HETATM    4  N9  UNL     1     -31.828   8.769   1.226  1.00 20.00    -0.194 NA
ENDROOT
BRANCH   3   5
HETATM    5  C6  UNL     1     -33.169   6.221   3.231  1.00 20.00     0.057 C 
BRANCH   5   6
HETATM    6  C7  UNL     1     -34.405   5.326   3.497  1.00 20.00    -0.019 C 
HETATM    7  C2  UNL     1     -33.952   4.033   4.185  1.00 20.00     0.009 C 
HETATM    8  C3  UNL     1     -35.480   6.001   4.347  1.00 20.00     0.009 C 
ENDBRANCH   5   6
ENDBRANCH   3   5
BRANCH   3   9
HETATM    9  O10 UNL     1     -33.743   5.986   0.889  1.00 20.00    -0.371 OA
HETATM   10  C5  UNL     1     -33.430   4.824   0.136  1.00 20.00     0.204 C 
ENDBRANCH   3   9
TORSDOF 3
ENDMDL
MODEL 6
REMARK VINA RESULT:      -0.1      2.009      3.855
REMARK  3 active torsions:
REMARK  status: ('A' for Active; 'I' for Inactive)
REMARK    1  A    between atoms: C6_6  and  C7_7 
REMARK    2  A    between atoms: C6_6  and  C8_8 
REMARK    3  A    between atoms: C8_8  and  O10_10 
ROOT
HETATM    1  C1  UNL     1     -32.500   6.379   1.742  1.00 20.00     0.097 C 
HETATM    2  C4  UNL     1     -31.056   8.176   2.592  1.00 20.00     0.062 C 
HETATM    3  C8  UNL     1     -32.501   7.727   2.336  1.00 20.00     0.144 C 
HETATM    4  N9  UNL     1     -32.500   5.318   1.271  1.00 20.00    -0.194 NA
ENDROOT
BRANCH   3   5
HETATM    5  C6  UNL     1     -33.203   8.753   1.419  1.00 20.00     0.057 C 
BRANCH   5   6
HETATM    6  C7  UNL     1     -32.303   9.691   0.578  1.00 20.00    -0.019 C 
HETATM    7  C2  UNL     1     -32.436   9.322  -0.904  1.00 20.00     0.009 C 
HETATM    8  C3  UNL     1     -32.620  11.174   0.760  1.00 20.00     0.009 C 
ENDBRANCH   5   6
ENDBRANCH   3   5
BRANCH   3   9
HETATM    9  O10 UNL     1     -33.164   7.699   3.600  1.00 20.00    -0.371 OA
HETATM   10  C5  UNL     1     -34.334   6.897   3.551  1.00 20.00     0.204 C 
ENDBRANCH   3   9
TORSDOF 3
ENDMDL
MODEL 7
REMARK VINA RESULT:       0.0      3.039      4.489
REMARK  3 active torsions:
REMARK  status: ('A' for Active; 'I' for Inactive)
REMARK    1  A    between atoms: C6_6  and  C7_7 
REMARK    2  A    between atoms: C6_6  and  C8_8 
REMARK    3  A    between atoms: C8_8  and  O10_10 
ROOT
HETATM    1  C1  UNL     1     -34.123   4.815   4.113  1.00 20.00     0.097 C 
HETATM    2  C4  UNL     1     -33.770   7.159   4.760  1.00 20.00     0.062 C 
HETATM    3  C8  UNL     1     -34.457   6.208   3.772  1.00 20.00     0.144 C 
HETATM    4  N9  UNL     1     -33.856   3.717   4.380  1.00 20.00    -0.194 NA
ENDROOT
BRANCH   3   5
HETATM    5  C6  UNL     1     -34.023   6.561   2.332  1.00 20.00     0.057 C 
BRANCH   5   6
HETATM    6  C7  UNL     1     -32.505   6.566   2.026  1.00 20.00    -0.019 C 
HETATM    7  C2  UNL     1     -32.199   5.495   0.973  1.00 20.00     0.009 C 
HETATM    8  C3  UNL     1     -31.979   7.916   1.541  1.00 20.00     0.009 C 
ENDBRANCH   5   6
ENDBRANCH   3   5
BRANCH   3   9
HETATM    9  O10 UNL     1     -35.865   6.413   3.899  1.00 20.00    -0.371 OA
HETATM   10  C5  UNL     1     -36.425   6.909   2.693  1.00 20.00     0.204 C 
ENDBRANCH   3   9
TORSDOF 3
ENDMDL
MODEL 8
REMARK VINA RESULT:       0.1      1.971      2.589
REMARK  3 active torsions:
REMARK  status: ('A' for Active; 'I' for Inactive)
REMARK    1  A    between atoms: C6_6  and  C7_7 
REMARK    2  A    between atoms: C6_6  and  C8_8 
REMARK    3  A    between atoms: C8_8  and  O10_10 
ROOT
HETATM    1  C1  UNL     1     -32.364   8.221   3.511  1.00 20.00     0.097 C 
HETATM    2  C4  UNL     1     -31.227   7.278   1.548  1.00 20.00     0.062 C 
HETATM    3  C8  UNL     1     -32.577   7.662   2.165  1.00 20.00     0.144 C 
HETATM    4  N9  UNL     1     -32.196   8.658   4.573  1.00 20.00    -0.194 NA
ENDROOT
BRANCH   3   5
HETATM    5  C6  UNL     1     -33.497   6.422   2.203  1.00 20.00     0.057 C 
BRANCH   5   6
HETATM    6  C7  UNL     1     -33.990   5.942   3.591  1.00 20.00    -0.019 C 
HETATM    7  C2  UNL     1     -35.417   6.452   3.823  1.00 20.00     0.009 C 
HETATM    8  C3  UNL     1     -33.961   4.424   3.764  1.00 20.00     0.009 C 
ENDBRANCH   5   6
ENDBRANCH   3   5
BRANCH   3   9
HETATM    9  O10 UNL     1     -33.162   8.651   1.317  1.00 20.00    -0.371 OA
HETATM   10  C5  UNL     1     -32.169   9.371   0.603  1.00 20.00     0.204 C 
ENDBRANCH   3   9
TORSDOF 3
ENDMDL
MODEL 9
REMARK VINA RESULT:       0.1      2.120      3.525
REMARK  3 active torsions:
REMARK  status: ('A' for Active; 'I' for Inactive)
REMARK    1  A    between atoms: C6_6  and  C7_7 
REMARK    2  A    between atoms: C6_6  and  C8_8 
REMARK    3  A    between atoms: C8_8  and  O10_10 
ROOT
HETATM    1  C1  UNL     1     -33.402   7.620   3.129  1.00 20.00     0.097 C 
HETATM    2  C4  UNL     1     -31.154   8.602   2.998  1.00 20.00     0.062 C 
HETATM    3  C8  UNL     1     -32.384   8.144   2.203  1.00 20.00     0.144 C 
HETATM    4  N9  UNL     1     -34.203   7.203   3.859  1.00 20.00    -0.194 NA
ENDROOT
BRANCH   3   5
HETATM    5  C6  UNL     1     -31.959   7.083   1.164  1.00 20.00     0.057 C 
BRANCH   5   6
HETATM    6  C7  UNL     1     -32.436   5.628   1.396  1.00 20.00    -0.019 C 
HETATM    7  C2  UNL     1     -33.595   5.319   0.441  1.00 20.00     0.009 C 
HETATM    8  C3  UNL     1     -31.336   4.583   1.211  1.00 20.00     0.009 C 
ENDBRANCH   5   6
ENDBRANCH   3   5
BRANCH   3   9
HETATM    9  O10 UNL     1     -32.895   9.289   1.520  1.00 20.00    -0.371 OA
HETATM   10  C5  UNL     1     -32.212   9.506   0.295  1.00 20.00     0.204 C 
ENDBRANCH   3   9
TORSDOF 3
ENDMDL
