MODEL 1
REMARK VINA RESULT:      -2.1      0.000      0.000
REMARK  5 active torsions:
REMARK  status: ('A' for Active; 'I' for Inactive)
REMARK    1  A    between atoms: C2_2  and  C7_7 
REMARK    2  A    between atoms: C2_2  and  C8_8 
REMARK    3  A    between atoms: C3_3  and  C10_10 
REMARK    4  A    between atoms: C8_8  and  C10_10 
REMARK    5  A    between atoms: C9_9  and  C10_10 
ROOT
HETATM    1  C10 UNL     1     -33.786   6.044   3.626  1.00 20.00     0.058 C 
ENDROOT
BRANCH   1   2
HETATM    2  C3  UNL     1     -34.465   4.802   4.207  1.00 20.00     0.127 C 
HETATM    3  C4  UNL     1     -33.650   3.534   4.240  1.00 20.00     0.091 C 
HETATM    4  O11 UNL     1     -35.629   4.812   4.609  1.00 20.00    -0.298 OA
ENDBRANCH   1   2
BRANCH   1   5
HETATM    5  C8  UNL     1     -33.723   6.000   2.086  1.00 20.00     0.045 C 
BRANCH   5   6
HETATM    6  C2  UNL     1     -32.329   6.178   1.514  1.00 20.00    -0.089 C 
HETATM    7  C1  UNL     1     -31.724   5.174   0.857  1.00 20.00     0.014 C 
BRANCH   6   8
HETATM    8  C7  UNL     1     -31.626   7.503   1.706  1.00 20.00     0.029 C 
HETATM    9  C5  UNL     1     -32.385   8.677   1.103  1.00 20.00     0.010 C 
ENDBRANCH   6   8
ENDBRANCH   5   6
ENDBRANCH   1   5
BRANCH   1  10
HETATM   10  C9  UNL     1     -34.472   7.319   4.150  1.00 20.00     0.008 C 
HETATM   11  C6  UNL     1     -33.559   8.291   4.887  1.00 20.00     0.006 C 
ENDBRANCH   1  10
TORSDOF 5
ENDMDL
MODEL 2
REMARK VINA RESULT:      -1.6      1.754      3.145
REMARK  5 active torsions:
REMARK  status: ('A' for Active; 'I' for Inactive)
REMARK    1  A    between atoms: C2_2  and  C7_7 
REMARK    2  A    between atoms: C2_2  and  C8_8 
REMARK    3  A    between atoms: C3_3  and  C10_10 
REMARK    4  A    between atoms: C8_8  and  C10_10 
REMARK    5  A    between atoms: C9_9  and  C10_10 
ROOT
HETATM    1  C10 UNL     1     -33.388   7.163   2.281  1.00 20.00     0.058 C 
ENDROOT
BRANCH   1   2
HETATM    2  C3  UNL     1     -33.998   7.191   3.684  1.00 20.00     0.127 C 
HETATM    3  C4  UNL     1     -35.162   6.267   3.937  1.00 20.00     0.091 C 
HETATM    4  O11 UNL     1     -33.587   7.944   4.568  1.00 20.00    -0.298 OA
ENDBRANCH   1   2
BRANCH   1   5
HETATM    5  C8  UNL     1     -32.059   7.942   2.214  1.00 20.00     0.045 C 
BRANCH   5   6
HETATM    6  C2  UNL     1     -31.926   8.845   1.001  1.00 20.00    -0.089 C 
HETATM    7  C1  UNL     1     -31.081   8.534   0.004  1.00 20.00     0.014 C 
BRANCH   6   8
HETATM    8  C7  UNL     1     -32.753  10.109   0.941  1.00 20.00     0.029 C 
HETATM    9  C5  UNL     1     -33.010  10.591  -0.480  1.00 20.00     0.010 C 
ENDBRANCH   6   8
ENDBRANCH   5   6
ENDBRANCH   1   5
BRANCH   1  10
HETATM   10  C9  UNL     1     -33.243   5.710   1.793  1.00 20.00     0.008 C 
HETATM   11  C6  UNL     1     -31.834   5.298   1.387  1.00 20.00     0.006 C 
ENDBRANCH   1  10
TORSDOF 5
ENDMDL
MODEL 3
REMARK VINA RESULT:      -1.6      2.458      5.030
REMARK  5 active torsions:
REMARK  status: ('A' for Active; 'I' for Inactive)
REMARK    1  A    between atoms: C2_2  and  C7_7 
REMARK    2  A    between atoms: C2_2  and  C8_8 
REMARK    3  A    between atoms: C3_3  and  C10_10 
REMARK    4  A    between atoms: C8_8  and  C10_10 
REMARK    5  A    between atoms: C9_9  and  C10_10 
ROOT
HETATM    1  C10 UNL     1     -32.274   7.947   2.065  1.00 20.00     0.058 C 
ENDROOT
BRANCH   1   2
HETATM    2  C3  UNL     1     -31.980   8.930   0.931  1.00 20.00     0.127 C 
HETATM    3  C4  UNL     1     -32.810  10.188   0.891  1.00 20.00     0.091 C 
HETATM    4  O11 UNL     1     -31.128   8.710   0.070  1.00 20.00    -0.298 OA
ENDBRANCH   1   2
BRANCH   1   5
HETATM    5  C8  UNL     1     -33.778   7.885   2.400  1.00 20.00     0.045 C 
BRANCH   5   6
HETATM    6  C2  UNL     1     -34.083   7.439   3.819  1.00 20.00    -0.089 C 
HETATM    7  C1  UNL     1     -33.416   7.963   4.861  1.00 20.00     0.014 C 
BRANCH   6   8
HETATM    8  C7  UNL     1     -35.144   6.385   4.038  1.00 20.00     0.029 C 
HETATM    9  C5  UNL     1     -34.575   4.978   4.164  1.00 20.00     0.010 C 
ENDBRANCH   6   8
ENDBRANCH   5   6
ENDBRANCH   1   5
BRANCH   1  10
HETATM   10  C9  UNL     1     -31.689   6.562   1.734  1.00 20.00     0.008 C 
HETATM   11  C6  UNL     1     -32.669   5.572   1.120  1.00 20.00     0.006 C 
ENDBRANCH   1  10
TORSDOF 5
ENDMDL
MODEL 4
REMARK VINA RESULT:      -1.4      1.866      4.177
REMARK  5 active torsions:
REMARK  status: ('A' for Active; 'I' for Inactive)
REMARK    1  A    between atoms: C2_2  and  C7_7 
REMARK    2  A    between atoms: C2_2  and  C8_8 
REMARK    3  A    between atoms: C3_3  and  C10_10 
REMARK    4  A    between atoms: C8_8  and  C10_10 
REMARK    5  A    between atoms: C9_9  and  C10_10 
ROOT
HETATM    1  C10 UNL     1     -33.057   7.057   2.054  1.00 20.00     0.058 C 
ENDROOT
BRANCH   1   2
HETATM    2  C3  UNL     1     -32.623   5.788   1.318  1.00 20.00     0.127 C 
HETATM    3  C4  UNL     1     -33.625   5.173   0.375  1.00 20.00     0.091 C 
HETATM    4  O11 UNL     1     -31.521   5.267   1.494  1.00 20.00    -0.298 OA
ENDBRANCH   1   2
BRANCH   1   5
HETATM    5  C8  UNL     1     -33.398   6.780   3.532  1.00 20.00     0.045 C 
BRANCH   5   6
HETATM    6  C2  UNL     1     -34.780   6.192   3.753  1.00 20.00    -0.089 C 
HETATM    7  C1  UNL     1     -35.876   6.830   3.308  1.00 20.00     0.014 C 
BRANCH   6   8
HETATM    8  C7  UNL     1     -34.903   4.881   4.496  1.00 20.00     0.029 C 
HETATM    9  C5  UNL     1     -33.797   3.892   4.153  1.00 20.00     0.010 C 
ENDBRANCH   6   8
ENDBRANCH   5   6
ENDBRANCH   1   5
BRANCH   1  10
HETATM   10  C9  UNL     1     -31.992   8.157   1.893  1.00 20.00     0.008 C 
HETATM   11  C6  UNL     1     -32.248   9.150   0.767  1.00 20.00     0.006 C 
ENDBRANCH   1  10
TORSDOF 5
ENDMDL
MODEL 5
REMARK VINA RESULT:      -1.2      1.061      2.484
REMARK  5 active torsions:
REMARK  status: ('A' for Active; 'I' for Inactive)
REMARK    1  A    between atoms: C2_2  and  C7_7 
REMARK    2  A    between atoms: C2_2  and  C8_8 
REMARK    3  A    between atoms: C3_3  and  C10_10 
REMARK    4  A    between atoms: C8_8  and  C10_10 
REMARK    5  A    between atoms: C9_9  and  C10_10 
ROOT
HETATM    1  C10 UNL     1     -34.165   5.117   3.413  1.00 20.00     0.058 C 
ENDROOT
BRANCH   1   2
HETATM    2  C3  UNL     1     -34.887   6.422   3.757  1.00 20.00     0.127 C 
HETATM    3  C4  UNL     1     -34.057   7.513   4.385  1.00 20.00     0.091 C 
HETATM    4  O11 UNL     1     -36.092   6.581   3.561  1.00 20.00    -0.298 OA
ENDBRANCH   1   2
BRANCH   1   5
HETATM    5  C8  UNL     1     -32.709   5.364   2.969  1.00 20.00     0.045 C 
BRANCH   5   6
HETATM    6  C2  UNL     1     -32.575   6.027   1.610  1.00 20.00    -0.089 C 
HETATM    7  C1  UNL     1     -33.245   5.552   0.547  1.00 20.00     0.014 C 
BRANCH   6   8
HETATM    8  C7  UNL     1     -31.664   7.225   1.471  1.00 20.00     0.029 C 
HETATM    9  C5  UNL     1     -32.419   8.533   1.276  1.00 20.00     0.010 C 
ENDBRANCH   6   8
ENDBRANCH   5   6
ENDBRANCH   1   5
BRANCH   1  10
HETATM   10  C9  UNL     1     -34.261   4.130   4.590  1.00 20.00     0.008 C 
HETATM   11  C6  UNL     1     -33.209   3.029   4.602  1.00 20.00     0.006 C 
ENDBRANCH   1  10
TORSDOF 5
ENDMDL
MODEL 6
REMARK VINA RESULT:      -1.2      1.942      4.762
REMARK  5 active torsions:
REMARK  status: ('A' for Active; 'I' for Inactive)
REMARK    1  A    between atoms: C2_2  and  C7_7 
REMARK    2  A    between atoms: C2_2  and  C8_8 
REMARK    3  A    between atoms: C3_3  and  C10_10 
REMARK    4  A    between atoms: C8_8  and  C10_10 
REMARK    5  A    between atoms: C9_9  and  C10_10 
ROOT
HETATM    1  C10 UNL     1     -32.408   6.582   2.119  1.00 20.00     0.058 C 
ENDROOT
BRANCH   1   2
HETATM    2  C3  UNL     1     -31.930   8.026   1.955  1.00 20.00     0.127 C 
HETATM    3  C4  UNL     1     -32.204   8.686   0.627  1.00 20.00     0.091 C 
HETATM    4  O11 UNL     1     -31.326   8.627   2.844  1.00 20.00    -0.298 OA
ENDBRANCH   1   2
BRANCH   1   5
HETATM    5  C8  UNL     1     -33.939   6.497   2.284  1.00 20.00     0.045 C 
BRANCH   5   6
HETATM    6  C2  UNL     1     -34.411   6.486   3.727  1.00 20.00    -0.089 C 
HETATM    7  C1  UNL     1     -34.316   7.589   4.488  1.00 20.00     0.014 C 
BRANCH   6   8
HETATM    8  C7  UNL     1     -34.979   5.206   4.297  1.00 20.00     0.029 C 
HETATM    9  C5  UNL     1     -34.023   4.026   4.192  1.00 20.00     0.010 C 
ENDBRANCH   6   8
ENDBRANCH   5   6
ENDBRANCH   1   5
BRANCH   1  10
HETATM   10  C9  UNL     1     -31.893   5.716   0.955  1.00 20.00     0.008 C 
HETATM   11  C6  UNL     1     -32.884   4.690   0.421  1.00 20.00     0.006 C 
ENDBRANCH   1  10
TORSDOF 5
ENDMDL
MODEL 7
REMARK VINA RESULT:      -1.0      0.430      1.702
REMARK  5 active torsions:
REMARK  status: ('A' for Active; 'I' for Inactive)
REMARK    1  A    between atoms: C2_2  and  C7_7 
REMARK    2  A    between atoms: C2_2  and  C8_8 
REMARK    3  A    between atoms: C3_3  and  C10_10 
REMARK    4  A    between atoms: C8_8  and  C10_10 
REMARK    5  A    between atoms: C9_9  and  C10_10 
ROOT
HETATM    1  C10 UNL     1     -33.795   6.101   3.731  1.00 20.00     0.058 C 
ENDROOT
BRANCH   1   2
HETATM    2  C3  UNL     1     -34.482   4.831   4.237  1.00 20.00     0.127 C 
HETATM    3  C4  UNL     1     -33.664   3.564   4.220  1.00 20.00     0.091 C 
HETATM    4  O11 UNL     1     -35.652   4.820   4.619  1.00 20.00    -0.298 OA
ENDBRANCH   1   2
BRANCH   1   5
HETATM    5  C8  UNL     1     -33.769   6.169   2.191  1.00 20.00     0.045 C 
BRANCH   5   6
HETATM    6  C2  UNL     1     -32.405   6.485   1.604  1.00 20.00    -0.089 C 
HETATM    7  C1  UNL     1     -31.934   7.744   1.604  1.00 20.00     0.014 C 
BRANCH   6   8
HETATM    8  C7  UNL     1     -31.591   5.360   1.007  1.00 20.00     0.029 C 
HETATM    9  C5  UNL     1     -32.429   4.373   0.205  1.00 20.00     0.010 C 
ENDBRANCH   6   8
ENDBRANCH   5   6
ENDBRANCH   1   5
BRANCH   1  10
HETATM   10  C9  UNL     1     -34.446   7.345   4.363  1.00 20.00     0.008 C 
HETATM   11  C6  UNL     1     -33.474   8.350   4.968  1.00 20.00     0.006 C 
ENDBRANCH   1  10
TORSDOF 5
ENDMDL
MODEL 8
REMARK VINA RESULT:      -0.9      1.134      1.558
REMARK  5 active torsions:
REMARK  status: ('A' for Active; 'I' for Inactive)
REMARK    1  A    between atoms: C2_2  and  C7_7 
REMARK    2  A    between atoms: C2_2  and  C8_8 
REMARK    3  A    between atoms: C3_3  and  C10_10 
REMARK    4  A    between atoms: C8_8  and  C10_10 
REMARK    5  A    between atoms: C9_9  and  C10_10 
ROOT
HETATM    1  C10 UNL     1     -33.468   6.689   3.484  1.00 20.00     0.058 C 
ENDROOT
BRANCH   1   2
HETATM    2  C3  UNL     1     -34.477   5.593   3.832  1.00 20.00     0.127 C 
HETATM    3  C4  UNL     1     -33.962   4.177   3.856  1.00 20.00     0.091 C 
HETATM    4  O11 UNL     1     -35.663   5.836   4.060  1.00 20.00    -0.298 OA
ENDBRANCH   1   2
BRANCH   1   5
HETATM    5  C8  UNL     1     -33.222   6.786   1.965  1.00 20.00     0.045 C 
BRANCH   5   6
HETATM    6  C2  UNL     1     -32.265   7.891   1.557  1.00 20.00    -0.089 C 
HETATM    7  C1  UNL     1     -31.199   8.191   2.318  1.00 20.00     0.014 C 
BRANCH   6   8
HETATM    8  C7  UNL     1     -32.540   8.659   0.284  1.00 20.00     0.029 C 
HETATM    9  C5  UNL     1     -32.486  10.169   0.470  1.00 20.00     0.010 C 
ENDBRANCH   6   8
ENDBRANCH   5   6
ENDBRANCH   1   5
BRANCH   1  10
HETATM   10  C9  UNL     1     -33.908   8.031   4.095  1.00 20.00     0.008 C 
HETATM   11  C6  UNL     1     -33.211   8.414   5.395  1.00 20.00     0.006 C 
ENDBRANCH   1  10
TORSDOF 5
ENDMDL
MODEL 9
REMARK VINA RESULT:      -0.8      1.364      2.893
REMARK  5 active torsions:
REMARK  status: ('A' for Active; 'I' for Inactive)
REMARK    1  A    between atoms: C2_2  and  C7_7 
REMARK    2  A    between atoms: C2_2  and  C8_8 
REMARK    3  A    between atoms: C3_3  and  C10_10 
REMARK    4  A    between atoms: C8_8  and  C10_10 
REMARK    5  A    between atoms: C9_9  and  C10_10 
ROOT
HETATM    1  C10 UNL     1     -33.559   6.216   2.307  1.00 20.00     0.058 C 
ENDROOT
BRANCH   1   2
HETATM    2  C3  UNL     1     -34.219   5.455   3.458  1.00 20.00     0.127 C 
HETATM    3  C4  UNL     1     -35.340   6.157   4.181  1.00 20.00     0.091 C 
HETATM    4  O11 UNL     1     -33.850   4.333   3.807  1.00 20.00    -0.298 OA
ENDBRANCH   1   2
BRANCH   1   5
HETATM    5  C8  UNL     1     -33.304   7.694   2.663  1.00 20.00     0.045 C 
BRANCH   5   6
HETATM    6  C2  UNL     1     -32.113   8.311   1.951  1.00 20.00    -0.089 C 
HETATM    7  C1  UNL     1     -30.949   8.494   2.596  1.00 20.00     0.014 C 
BRANCH   6   8
HETATM    8  C7  UNL     1     -32.265   8.727   0.506  1.00 20.00     0.029 C 
HETATM    9  C5  UNL     1     -32.543  10.214   0.336  1.00 20.00     0.010 C 
ENDBRANCH   6   8
ENDBRANCH   5   6
ENDBRANCH   1   5
BRANCH   1  10
HETATM   10  C9  UNL     1     -32.278   5.490   1.856  1.00 20.00     0.008 C 
HETATM   11  C6  UNL     1     -32.368   4.792   0.505  1.00 20.00     0.006 C 
ENDBRANCH   1  10
TORSDOF 5
ENDMDL
