MODEL 1
REMARK VINA RESULT:      -0.5      0.000      0.000
REMARK  4 active torsions:
REMARK  status: ('A' for Active; 'I' for Inactive)
REMARK    1  A    between atoms: C6_6  and  C8_8 
REMARK    2  A    between atoms: C6_6  and  C9_9 
REMARK    3  A    between atoms: C7_7  and  O11_11 
REMARK    4  A    between atoms: C9_9  and  O11_11 
ROOT
HETATM    1  C1  UNL     1     -33.820   7.568   4.530  1.00 20.00     0.097 C 
HETATM    2  C5  UNL     1     -35.609   6.037   3.826  1.00 20.00     0.062 C 
HETATM    3  C9  UNL     1     -34.120   6.385   3.702  1.00 20.00     0.145 C 
HETATM    4  N10 UNL     1     -33.585   8.500   5.179  1.00 20.00    -0.194 NA
ENDROOT
BRANCH   3   5
HETATM    5  C6  UNL     1     -33.770   6.627   2.218  1.00 20.00     0.057 C 
BRANCH   5   6
HETATM    6  C8  UNL     1     -32.268   6.695   1.843  1.00 20.00    -0.019 C 
HETATM    7  C3  UNL     1     -31.927   5.523   0.914  1.00 20.00     0.009 C 
HETATM    8  C4  UNL     1     -31.862   8.007   1.172  1.00 20.00     0.009 C 
ENDBRANCH   5   6
ENDBRANCH   3   5
BRANCH   3   9
HETATM    9  O11 UNL     1     -33.383   5.261   4.180  1.00 20.00    -0.366 OA
BRANCH   9  10
HETATM   10  C7  UNL     1     -34.161   4.075   4.131  1.00 20.00     0.165 C 
HETATM   11  C2  UNL     1     -33.323   2.914   4.622  1.00 20.00     0.033 C 
ENDBRANCH   9  10
ENDBRANCH   3   9
TORSDOF 4
ENDMDL
MODEL 2
REMARK VINA RESULT:      -0.2      2.490      4.097
REMARK  4 active torsions:
REMARK  status: ('A' for Active; 'I' for Inactive)
REMARK    1  A    between atoms: C6_6  and  C8_8 
REMARK    2  A    between atoms: C6_6  and  C9_9 
REMARK    3  A    between atoms: C7_7  and  O11_11 
REMARK    4  A    between atoms: C9_9  and  O11_11 
ROOT
HETATM    1  C1  UNL     1     -32.303   9.064   0.886  1.00 20.00     0.097 C 
HETATM    2  C5  UNL     1     -31.439   8.620   3.143  1.00 20.00     0.062 C 
HETATM    3  C9  UNL     1     -32.291   8.083   1.986  1.00 20.00     0.145 C 
HETATM    4  N10 UNL     1     -32.315   9.838   0.022  1.00 20.00    -0.194 NA
ENDROOT
BRANCH   3   5
HETATM    5  C6  UNL     1     -33.718   7.781   2.494  1.00 20.00     0.057 C 
BRANCH   5   6
HETATM    6  C8  UNL     1     -33.850   7.065   3.861  1.00 20.00    -0.019 C 
HETATM    7  C3  UNL     1     -33.807   8.109   4.984  1.00 20.00     0.009 C 
HETATM    8  C4  UNL     1     -35.123   6.229   3.996  1.00 20.00     0.009 C 
ENDBRANCH   5   6
ENDBRANCH   3   5
BRANCH   3   9
HETATM    9  O11 UNL     1     -31.685   6.868   1.544  1.00 20.00    -0.366 OA
BRANCH   9  10
HETATM   10  C7  UNL     1     -32.663   5.907   1.179  1.00 20.00     0.165 C 
HETATM   11  C2  UNL     1     -31.967   4.632   0.755  1.00 20.00     0.033 C 
ENDBRANCH   9  10
ENDBRANCH   3   9
TORSDOF 4
ENDMDL
MODEL 3
REMARK VINA RESULT:       0.2      1.801      4.552
REMARK  4 active torsions:
REMARK  status: ('A' for Active; 'I' for Inactive)
REMARK    1  A    between atoms: C6_6  and  C8_8 
REMARK    2  A    between atoms: C6_6  and  C9_9 
REMARK    3  A    between atoms: C7_7  and  O11_11 
REMARK    4  A    between atoms: C9_9  and  O11_11 
ROOT
HETATM    1  C1  UNL     1     -32.498   8.156   3.691  1.00 20.00     0.097 C 
HETATM    2  C5  UNL     1     -31.241   7.206   1.804  1.00 20.00     0.062 C 
HETATM    3  C9  UNL     1     -32.627   7.602   2.330  1.00 20.00     0.145 C 
HETATM    4  N10 UNL     1     -32.396   8.589   4.762  1.00 20.00    -0.194 NA
ENDROOT
BRANCH   3   5
HETATM    5  C6  UNL     1     -33.559   6.372   2.304  1.00 20.00     0.057 C 
BRANCH   5   6
HETATM    6  C8  UNL     1     -34.071   5.837   3.665  1.00 20.00    -0.019 C 
HETATM    7  C3  UNL     1     -35.515   6.305   3.880  1.00 20.00     0.009 C 
HETATM    8  C4  UNL     1     -34.009   4.314   3.788  1.00 20.00     0.009 C 
ENDBRANCH   5   6
ENDBRANCH   3   5
BRANCH   3   9
HETATM    9  O11 UNL     1     -33.143   8.599   1.449  1.00 20.00    -0.366 OA
BRANCH   9  10
HETATM   10  C7  UNL     1     -32.104   9.219   0.707  1.00 20.00     0.165 C 
HETATM   11  C2  UNL     1     -32.712  10.226  -0.246  1.00 20.00     0.033 C 
ENDBRANCH   9  10
ENDBRANCH   3   9
TORSDOF 4
ENDMDL
MODEL 4
REMARK VINA RESULT:       0.2      2.381      3.676
REMARK  4 active torsions:
REMARK  status: ('A' for Active; 'I' for Inactive)
REMARK    1  A    between atoms: C6_6  and  C8_8 
REMARK    2  A    between atoms: C6_6  and  C9_9 
REMARK    3  A    between atoms: C7_7  and  O11_11 
REMARK    4  A    between atoms: C9_9  and  O11_11 
ROOT
HETATM    1  C1  UNL     1     -32.162   6.299   1.618  1.00 20.00     0.097 C 
HETATM    2  C5  UNL     1     -31.149   8.279   2.665  1.00 20.00     0.062 C 
HETATM    3  C9  UNL     1     -32.452   7.633   2.176  1.00 20.00     0.145 C 
HETATM    4  N10 UNL     1     -31.932   5.251   1.177  1.00 20.00    -0.194 NA
ENDROOT
BRANCH   3   5
HETATM    5  C6  UNL     1     -33.122   8.551   1.131  1.00 20.00     0.057 C 
BRANCH   5   6
HETATM    6  C8  UNL     1     -32.250   9.666   0.501  1.00 20.00    -0.019 C 
HETATM    7  C3  UNL     1     -32.258   9.511  -1.025  1.00 20.00     0.009 C 
HETATM    8  C4  UNL     1     -32.702  11.080   0.868  1.00 20.00     0.009 C 
ENDBRANCH   5   6
ENDBRANCH   3   5
BRANCH   3   9
HETATM    9  O11 UNL     1     -33.312   7.507   3.308  1.00 20.00    -0.366 OA
BRANCH   9  10
HETATM   10  C7  UNL     1     -33.968   6.248   3.320  1.00 20.00     0.165 C 
HETATM   11  C2  UNL     1     -35.299   6.393   4.025  1.00 20.00     0.033 C 
ENDBRANCH   9  10
ENDBRANCH   3   9
TORSDOF 4
ENDMDL
MODEL 5
REMARK VINA RESULT:       0.6      2.513      4.317
REMARK  4 active torsions:
REMARK  status: ('A' for Active; 'I' for Inactive)
REMARK    1  A    between atoms: C6_6  and  C8_8 
REMARK    2  A    between atoms: C6_6  and  C9_9 
REMARK    3  A    between atoms: C7_7  and  O11_11 
REMARK    4  A    between atoms: C9_9  and  O11_11 
ROOT
HETATM    1  C1  UNL     1     -33.573   7.378   3.228  1.00 20.00     0.097 C 
HETATM    2  C5  UNL     1     -31.493   8.678   3.379  1.00 20.00     0.062 C 
HETATM    3  C9  UNL     1     -32.490   7.991   2.437  1.00 20.00     0.145 C 
HETATM    4  N10 UNL     1     -34.423   6.894   3.851  1.00 20.00    -0.194 NA
ENDROOT
BRANCH   3   5
HETATM    5  C6  UNL     1     -31.750   6.942   1.579  1.00 20.00     0.057 C 
BRANCH   5   6
HETATM    6  C8  UNL     1     -32.418   5.554   1.418  1.00 20.00    -0.019 C 
HETATM    7  C3  UNL     1     -33.562   5.660   0.403  1.00 20.00     0.009 C 
HETATM    8  C4  UNL     1     -31.452   4.454   0.978  1.00 20.00     0.009 C 
ENDBRANCH   5   6
ENDBRANCH   3   5
BRANCH   3   9
HETATM    9  O11 UNL     1     -33.027   9.000   1.582  1.00 20.00    -0.366 OA
BRANCH   9  10
HETATM   10  C7  UNL     1     -32.105   9.356   0.563  1.00 20.00     0.165 C 
HETATM   11  C2  UNL     1     -32.805  10.238  -0.448  1.00 20.00     0.033 C 
ENDBRANCH   9  10
ENDBRANCH   3   9
TORSDOF 4
ENDMDL
MODEL 6
REMARK VINA RESULT:       0.6      2.658      4.678
REMARK  4 active torsions:
REMARK  status: ('A' for Active; 'I' for Inactive)
REMARK    1  A    between atoms: C6_6  and  C8_8 
REMARK    2  A    between atoms: C6_6  and  C9_9 
REMARK    3  A    between atoms: C7_7  and  O11_11 
REMARK    4  A    between atoms: C9_9  and  O11_11 
ROOT
HETATM    1  C1  UNL     1     -31.871   5.178   1.068  1.00 20.00     0.097 C 
HETATM    2  C5  UNL     1     -33.864   6.564   0.684  1.00 20.00     0.062 C 
HETATM    3  C9  UNL     1     -32.673   6.289   1.612  1.00 20.00     0.145 C 
HETATM    4  N10 UNL     1     -31.241   4.302   0.640  1.00 20.00    -0.194 NA
ENDROOT
BRANCH   3   5
HETATM    5  C6  UNL     1     -33.189   5.973   3.033  1.00 20.00     0.057 C 
BRANCH   5   6
HETATM    6  C8  UNL     1     -34.356   6.836   3.574  1.00 20.00    -0.019 C 
HETATM    7  C3  UNL     1     -35.423   5.918   4.183  1.00 20.00     0.009 C 
HETATM    8  C4  UNL     1     -33.925   7.870   4.614  1.00 20.00     0.009 C 
ENDBRANCH   5   6
ENDBRANCH   3   5
BRANCH   3   9
HETATM    9  O11 UNL     1     -31.887   7.479   1.653  1.00 20.00    -0.366 OA
BRANCH   9  10
HETATM   10  C7  UNL     1     -32.655   8.617   1.295  1.00 20.00     0.165 C 
HETATM   11  C2  UNL     1     -31.893   9.423   0.266  1.00 20.00     0.033 C 
ENDBRANCH   9  10
ENDBRANCH   3   9
TORSDOF 4
ENDMDL
MODEL 7
REMARK VINA RESULT:       0.6      2.121      3.904
REMARK  4 active torsions:
REMARK  status: ('A' for Active; 'I' for Inactive)
REMARK    1  A    between atoms: C6_6  and  C8_8 
REMARK    2  A    between atoms: C6_6  and  C9_9 
REMARK    3  A    between atoms: C7_7  and  O11_11 
REMARK    4  A    between atoms: C9_9  and  O11_11 
ROOT
HETATM    1  C1  UNL     1     -32.294   7.468   1.491  1.00 20.00     0.097 C 
HETATM    2  C5  UNL     1     -31.414   5.174   1.496  1.00 20.00     0.062 C 
HETATM    3  C9  UNL     1     -32.664   6.050   1.648  1.00 20.00     0.145 C 
HETATM    4  N10 UNL     1     -32.002   8.584   1.369  1.00 20.00    -0.194 NA
ENDROOT
BRANCH   3   5
HETATM    5  C6  UNL     1     -33.316   5.781   3.022  1.00 20.00     0.057 C 
BRANCH   5   6
HETATM    6  C8  UNL     1     -34.387   6.789   3.510  1.00 20.00    -0.019 C 
HETATM    7  C3  UNL     1     -35.545   6.020   4.159  1.00 20.00     0.009 C 
HETATM    8  C4  UNL     1     -33.851   7.825   4.498  1.00 20.00     0.009 C 
ENDBRANCH   5   6
ENDBRANCH   3   5
BRANCH   3   9
HETATM    9  O11 UNL     1     -33.574   5.669   0.616  1.00 20.00    -0.366 OA
BRANCH   9  10
HETATM   10  C7  UNL     1     -33.198   4.434   0.027  1.00 20.00     0.165 C 
HETATM   11  C2  UNL     1     -34.392   3.849  -0.695  1.00 20.00     0.033 C 
ENDBRANCH   9  10
ENDBRANCH   3   9
TORSDOF 4
ENDMDL
MODEL 8
REMARK VINA RESULT:       0.7      1.345      2.097
REMARK  4 active torsions:
REMARK  status: ('A' for Active; 'I' for Inactive)
REMARK    1  A    between atoms: C6_6  and  C8_8 
REMARK    2  A    between atoms: C6_6  and  C9_9 
REMARK    3  A    between atoms: C7_7  and  O11_11 
REMARK    4  A    between atoms: C9_9  and  O11_11 
ROOT
HETATM    1  C1  UNL     1     -34.198   6.410   3.195  1.00 20.00     0.097 C 
HETATM    2  C5  UNL     1     -33.929   5.303   1.017  1.00 20.00     0.062 C 
HETATM    3  C9  UNL     1     -33.232   5.724   2.317  1.00 20.00     0.145 C 
HETATM    4  N10 UNL     1     -34.958   6.952   3.884  1.00 20.00    -0.194 NA
ENDROOT
BRANCH   3   5
HETATM    5  C6  UNL     1     -32.025   6.628   1.985  1.00 20.00     0.057 C 
BRANCH   5   6
HETATM    6  C8  UNL     1     -32.253   8.160   2.019  1.00 20.00    -0.019 C 
HETATM    7  C3  UNL     1     -31.394   8.773   3.133  1.00 20.00     0.009 C 
HETATM    8  C4  UNL     1     -31.937   8.857   0.696  1.00 20.00     0.009 C 
ENDBRANCH   5   6
ENDBRANCH   3   5
BRANCH   3   9
HETATM    9  O11 UNL     1     -32.765   4.533   2.950  1.00 20.00    -0.366 OA
BRANCH   9  10
HETATM   10  C7  UNL     1     -33.764   3.966   3.784  1.00 20.00     0.165 C 
HETATM   11  C2  UNL     1     -33.118   2.958   4.710  1.00 20.00     0.033 C 
ENDBRANCH   9  10
ENDBRANCH   3   9
TORSDOF 4
ENDMDL
MODEL 9
REMARK VINA RESULT:       0.7      2.470      4.706
REMARK  4 active torsions:
REMARK  status: ('A' for Active; 'I' for Inactive)
REMARK    1  A    between atoms: C6_6  and  C8_8 
REMARK    2  A    between atoms: C6_6  and  C9_9 
REMARK    3  A    between atoms: C7_7  and  O11_11 
REMARK    4  A    between atoms: C9_9  and  O11_11 
ROOT
HETATM    1  C1  UNL     1     -31.731   5.268   1.324  1.00 20.00     0.097 C 
HETATM    2  C5  UNL     1     -33.727   6.499   0.590  1.00 20.00     0.062 C 
HETATM    3  C9  UNL     1     -32.557   6.461   1.581  1.00 20.00     0.145 C 
HETATM    4  N10 UNL     1     -31.083   4.327   1.122  1.00 20.00    -0.194 NA
ENDROOT
BRANCH   3   5
HETATM    5  C6  UNL     1     -33.105   6.472   3.025  1.00 20.00     0.057 C 
BRANCH   5   6
HETATM    6  C8  UNL     1     -34.386   5.647   3.306  1.00 20.00    -0.019 C 
HETATM    7  C3  UNL     1     -34.002   4.351   4.031  1.00 20.00     0.009 C 
HETATM    8  C4  UNL     1     -35.431   6.397   4.132  1.00 20.00     0.009 C 
ENDBRANCH   5   6
ENDBRANCH   3   5
BRANCH   3   9
HETATM    9  O11 UNL     1     -31.784   7.641   1.366  1.00 20.00    -0.366 OA
BRANCH   9  10
HETATM   10  C7  UNL     1     -32.581   8.809   1.486  1.00 20.00     0.165 C 
HETATM   11  C2  UNL     1     -32.295   9.723   0.314  1.00 20.00     0.033 C 
ENDBRANCH   9  10
ENDBRANCH   3   9
TORSDOF 4
ENDMDL
