MODEL 1
REMARK VINA RESULT:      -1.7      0.000      0.000
REMARK  5 active torsions:
REMARK  status: ('A' for Active; 'I' for Inactive)
REMARK    1  A    between atoms: C2_2  and  C7_7 
REMARK    2  A    between atoms: C2_2  and  C8_8 
REMARK    3  A    between atoms: C3_3  and  C10_10 
REMARK    4  A    between atoms: C8_8  and  C10_10 
REMARK    5  A    between atoms: C9_9  and  C10_10 
ROOT
HETATM    1  C10 UNL     1     -33.666   5.454   3.415  1.00 20.00     0.058 C 
ENDROOT
BRANCH   1   2
HETATM    2  C3  UNL     1     -34.602   6.509   4.009  1.00 20.00     0.127 C 
HETATM    3  C4  UNL     1     -33.975   7.815   4.428  1.00 20.00     0.091 C 
HETATM    4  O11 UNL     1     -35.806   6.308   4.169  1.00 20.00    -0.298 OA
ENDBRANCH   1   2
BRANCH   1   5
HETATM    5  C8  UNL     1     -33.517   5.610   1.889  1.00 20.00     0.045 C 
BRANCH   5   6
HETATM    6  C2  UNL     1     -32.105   5.923   1.429  1.00 20.00    -0.089 C 
HETATM    7  C1  UNL     1     -31.381   5.005   0.767  1.00 20.00     0.014 C 
BRANCH   6   8
HETATM    8  C7  UNL     1     -31.522   7.283   1.742  1.00 20.00     0.029 C 
HETATM    9  C5  UNL     1     -32.343   8.432   1.174  1.00 20.00     0.010 C 
ENDBRANCH   6   8
ENDBRANCH   5   6
ENDBRANCH   1   5
BRANCH   1  10
HETATM   10  C9  UNL     1     -34.128   4.045   3.828  1.00 20.00     0.008 C 
HETATM   11  C6  UNL     1     -33.133   3.254   4.669  1.00 20.00     0.006 C 
ENDBRANCH   1  10
TORSDOF 5
ENDMDL
MODEL 2
REMARK VINA RESULT:      -1.6      1.010      2.416
REMARK  5 active torsions:
REMARK  status: ('A' for Active; 'I' for Inactive)
REMARK    1  A    between atoms: C2_2  and  C7_7 
REMARK    2  A    between atoms: C2_2  and  C8_8 
REMARK    3  A    between atoms: C3_3  and  C10_10 
REMARK    4  A    between atoms: C8_8  and  C10_10 
REMARK    5  A    between atoms: C9_9  and  C10_10 
ROOT
HETATM    1  C10 UNL     1     -34.278   5.963   3.374  1.00 20.00     0.058 C 
ENDROOT
BRANCH   1   2
HETATM    2  C3  UNL     1     -34.682   4.777   4.253  1.00 20.00     0.127 C 
HETATM    3  C4  UNL     1     -33.720   3.619   4.315  1.00 20.00     0.091 C 
HETATM    4  O11 UNL     1     -35.751   4.743   4.864  1.00 20.00    -0.298 OA
ENDBRANCH   1   2
BRANCH   1   5
HETATM    5  C8  UNL     1     -32.779   5.931   3.018  1.00 20.00     0.045 C 
BRANCH   5   6
HETATM    6  C2  UNL     1     -32.462   6.406   1.611  1.00 20.00    -0.089 C 
HETATM    7  C1  UNL     1     -32.897   5.718   0.542  1.00 20.00     0.014 C 
BRANCH   6   8
HETATM    8  C7  UNL     1     -31.636   7.660   1.435  1.00 20.00     0.029 C 
HETATM    9  C5  UNL     1     -32.459   8.864   1.001  1.00 20.00     0.010 C 
ENDBRANCH   6   8
ENDBRANCH   5   6
ENDBRANCH   1   5
BRANCH   1  10
HETATM   10  C9  UNL     1     -34.703   7.285   4.039  1.00 20.00     0.008 C 
HETATM   11  C6  UNL     1     -33.581   8.064   4.713  1.00 20.00     0.006 C 
ENDBRANCH   1  10
TORSDOF 5
ENDMDL
MODEL 3
REMARK VINA RESULT:      -1.6      1.970      4.744
REMARK  5 active torsions:
REMARK  status: ('A' for Active; 'I' for Inactive)
REMARK    1  A    between atoms: C2_2  and  C7_7 
REMARK    2  A    between atoms: C2_2  and  C8_8 
REMARK    3  A    between atoms: C3_3  and  C10_10 
REMARK    4  A    between atoms: C8_8  and  C10_10 
REMARK    5  A    between atoms: C9_9  and  C10_10 
ROOT
HETATM    1  C10 UNL     1     -32.353   7.119   2.120  1.00 20.00     0.058 C 
ENDROOT
BRANCH   1   2
HETATM    2  C3  UNL     1     -32.308   5.806   1.334  1.00 20.00     0.127 C 
HETATM    3  C4  UNL     1     -33.550   5.429   0.569  1.00 20.00     0.091 C 
HETATM    4  O11 UNL     1     -31.322   5.068   1.338  1.00 20.00    -0.298 OA
ENDBRANCH   1   2
BRANCH   1   5
HETATM    5  C8  UNL     1     -33.797   7.540   2.455  1.00 20.00     0.045 C 
BRANCH   5   6
HETATM    6  C2  UNL     1     -34.220   7.238   3.881  1.00 20.00    -0.089 C 
HETATM    7  C1  UNL     1     -33.730   7.953   4.907  1.00 20.00     0.014 C 
BRANCH   6   8
HETATM    8  C7  UNL     1     -35.194   6.108   4.128  1.00 20.00     0.029 C 
HETATM    9  C5  UNL     1     -34.528   4.740   4.169  1.00 20.00     0.010 C 
ENDBRANCH   6   8
ENDBRANCH   5   6
ENDBRANCH   1   5
BRANCH   1  10
HETATM   10  C9  UNL     1     -31.573   8.212   1.369  1.00 20.00     0.008 C 
HETATM   11  C6  UNL     1     -32.430   9.268   0.682  1.00 20.00     0.006 C 
ENDBRANCH   1  10
TORSDOF 5
ENDMDL
MODEL 4
REMARK VINA RESULT:      -1.4      1.922      4.270
REMARK  5 active torsions:
REMARK  status: ('A' for Active; 'I' for Inactive)
REMARK    1  A    between atoms: C2_2  and  C7_7 
REMARK    2  A    between atoms: C2_2  and  C8_8 
REMARK    3  A    between atoms: C3_3  and  C10_10 
REMARK    4  A    between atoms: C8_8  and  C10_10 
REMARK    5  A    between atoms: C9_9  and  C10_10 
ROOT
HETATM    1  C10 UNL     1     -33.060   7.018   2.091  1.00 20.00     0.058 C 
ENDROOT
BRANCH   1   2
HETATM    2  C3  UNL     1     -32.119   8.211   1.912  1.00 20.00     0.127 C 
HETATM    3  C4  UNL     1     -32.379   9.110   0.731  1.00 20.00     0.091 C 
HETATM    4  O11 UNL     1     -31.174   8.426   2.671  1.00 20.00    -0.298 OA
ENDBRANCH   1   2
BRANCH   1   5
HETATM    5  C8  UNL     1     -33.472   6.826   3.564  1.00 20.00     0.045 C 
BRANCH   5   6
HETATM    6  C2  UNL     1     -34.843   6.201   3.751  1.00 20.00    -0.089 C 
HETATM    7  C1  UNL     1     -35.941   6.799   3.261  1.00 20.00     0.014 C 
BRANCH   6   8
HETATM    8  C7  UNL     1     -34.952   4.899   4.512  1.00 20.00     0.029 C 
HETATM    9  C5  UNL     1     -33.848   3.910   4.169  1.00 20.00     0.010 C 
ENDBRANCH   6   8
ENDBRANCH   5   6
ENDBRANCH   1   5
BRANCH   1  10
HETATM   10  C9  UNL     1     -32.432   5.752   1.479  1.00 20.00     0.008 C 
HETATM   11  C6  UNL     1     -33.300   5.023   0.462  1.00 20.00     0.006 C 
ENDBRANCH   1  10
TORSDOF 5
ENDMDL
MODEL 5
REMARK VINA RESULT:      -1.4      1.149      1.683
REMARK  5 active torsions:
REMARK  status: ('A' for Active; 'I' for Inactive)
REMARK    1  A    between atoms: C2_2  and  C7_7 
REMARK    2  A    between atoms: C2_2  and  C8_8 
REMARK    3  A    between atoms: C3_3  and  C10_10 
REMARK    4  A    between atoms: C8_8  and  C10_10 
REMARK    5  A    between atoms: C9_9  and  C10_10 
ROOT
HETATM    1  C10 UNL     1     -33.317   6.153   3.022  1.00 20.00     0.058 C 
ENDROOT
BRANCH   1   2
HETATM    2  C3  UNL     1     -34.450   6.809   3.815  1.00 20.00     0.127 C 
HETATM    3  C4  UNL     1     -34.059   7.888   4.792  1.00 20.00     0.091 C 
HETATM    4  O11 UNL     1     -35.626   6.465   3.694  1.00 20.00    -0.298 OA
ENDBRANCH   1   2
BRANCH   1   5
HETATM    5  C8  UNL     1     -33.133   6.803   1.637  1.00 20.00     0.045 C 
BRANCH   5   6
HETATM    6  C2  UNL     1     -32.109   7.924   1.605  1.00 20.00    -0.089 C 
HETATM    7  C1  UNL     1     -31.380   8.216   2.695  1.00 20.00     0.014 C 
BRANCH   6   8
HETATM    8  C7  UNL     1     -31.935   8.714   0.328  1.00 20.00     0.029 C 
HETATM    9  C5  UNL     1     -32.592  10.085   0.377  1.00 20.00     0.010 C 
ENDBRANCH   6   8
ENDBRANCH   5   6
ENDBRANCH   1   5
BRANCH   1  10
HETATM   10  C9  UNL     1     -33.539   4.632   2.941  1.00 20.00     0.008 C 
HETATM   11  C6  UNL     1     -33.756   3.934   4.278  1.00 20.00     0.006 C 
ENDBRANCH   1  10
TORSDOF 5
ENDMDL
MODEL 6
REMARK VINA RESULT:      -1.3      2.581      4.583
REMARK  5 active torsions:
REMARK  status: ('A' for Active; 'I' for Inactive)
REMARK    1  A    between atoms: C2_2  and  C7_7 
REMARK    2  A    between atoms: C2_2  and  C8_8 
REMARK    3  A    between atoms: C3_3  and  C10_10 
REMARK    4  A    between atoms: C8_8  and  C10_10 
REMARK    5  A    between atoms: C9_9  and  C10_10 
ROOT
HETATM    1  C10 UNL     1     -32.471   7.855   1.628  1.00 20.00     0.058 C 
ENDROOT
BRANCH   1   2
HETATM    2  C3  UNL     1     -31.957   8.931   0.668  1.00 20.00     0.127 C 
HETATM    3  C4  UNL     1     -32.787  10.183   0.543  1.00 20.00     0.091 C 
HETATM    4  O11 UNL     1     -30.931   8.786   0.002  1.00 20.00    -0.298 OA
ENDBRANCH   1   2
BRANCH   1   5
HETATM    5  C8  UNL     1     -32.378   8.305   3.099  1.00 20.00     0.045 C 
BRANCH   5   6
HETATM    6  C2  UNL     1     -33.537   7.844   3.966  1.00 20.00    -0.089 C 
HETATM    7  C1  UNL     1     -33.549   8.098   5.285  1.00 20.00     0.014 C 
BRANCH   6   8
HETATM    8  C7  UNL     1     -34.672   7.083   3.319  1.00 20.00     0.029 C 
HETATM    9  C5  UNL     1     -35.202   5.948   4.182  1.00 20.00     0.010 C 
ENDBRANCH   6   8
ENDBRANCH   5   6
ENDBRANCH   1   5
BRANCH   1  10
HETATM   10  C9  UNL     1     -31.747   6.523   1.366  1.00 20.00     0.008 C 
HETATM   11  C6  UNL     1     -32.656   5.315   1.176  1.00 20.00     0.006 C 
ENDBRANCH   1  10
TORSDOF 5
ENDMDL
MODEL 7
REMARK VINA RESULT:      -1.3      1.521      2.664
REMARK  5 active torsions:
REMARK  status: ('A' for Active; 'I' for Inactive)
REMARK    1  A    between atoms: C2_2  and  C7_7 
REMARK    2  A    between atoms: C2_2  and  C8_8 
REMARK    3  A    between atoms: C3_3  and  C10_10 
REMARK    4  A    between atoms: C8_8  and  C10_10 
REMARK    5  A    between atoms: C9_9  and  C10_10 
ROOT
HETATM    1  C10 UNL     1     -33.117   6.077   2.652  1.00 20.00     0.058 C 
ENDROOT
BRANCH   1   2
HETATM    2  C3  UNL     1     -34.172   5.448   3.564  1.00 20.00     0.127 C 
HETATM    3  C4  UNL     1     -35.330   6.323   3.969  1.00 20.00     0.091 C 
HETATM    4  O11 UNL     1     -34.081   4.292   3.979  1.00 20.00    -0.298 OA
ENDBRANCH   1   2
BRANCH   1   5
HETATM    5  C8  UNL     1     -33.324   7.596   2.494  1.00 20.00     0.045 C 
BRANCH   5   6
HETATM    6  C2  UNL     1     -32.116   8.337   1.950  1.00 20.00    -0.089 C 
HETATM    7  C1  UNL     1     -31.049   8.574   2.732  1.00 20.00     0.014 C 
BRANCH   6   8
HETATM    8  C7  UNL     1     -32.139   8.814   0.516  1.00 20.00     0.029 C 
HETATM    9  C5  UNL     1     -32.578  10.264   0.373  1.00 20.00     0.010 C 
ENDBRANCH   6   8
ENDBRANCH   5   6
ENDBRANCH   1   5
BRANCH   1  10
HETATM   10  C9  UNL     1     -33.076   5.338   1.302  1.00 20.00     0.008 C 
HETATM   11  C6  UNL     1     -31.692   4.891   0.847  1.00 20.00     0.006 C 
ENDBRANCH   1  10
TORSDOF 5
ENDMDL
MODEL 8
REMARK VINA RESULT:      -1.1      1.871      3.299
REMARK  5 active torsions:
REMARK  status: ('A' for Active; 'I' for Inactive)
REMARK    1  A    between atoms: C2_2  and  C7_7 
REMARK    2  A    between atoms: C2_2  and  C8_8 
REMARK    3  A    between atoms: C3_3  and  C10_10 
REMARK    4  A    between atoms: C8_8  and  C10_10 
REMARK    5  A    between atoms: C9_9  and  C10_10 
ROOT
HETATM    1  C10 UNL     1     -33.459   7.251   2.597  1.00 20.00     0.058 C 
ENDROOT
BRANCH   1   2
HETATM    2  C3  UNL     1     -33.237   5.755   2.359  1.00 20.00     0.127 C 
HETATM    3  C4  UNL     1     -33.798   4.812   3.392  1.00 20.00     0.091 C 
HETATM    4  O11 UNL     1     -32.608   5.328   1.390  1.00 20.00    -0.298 OA
ENDBRANCH   1   2
BRANCH   1   5
HETATM    5  C8  UNL     1     -32.151   8.055   2.465  1.00 20.00     0.045 C 
BRANCH   5   6
HETATM    6  C2  UNL     1     -32.002   8.789   1.144  1.00 20.00    -0.089 C 
HETATM    7  C1  UNL     1     -31.210   8.301   0.175  1.00 20.00     0.014 C 
BRANCH   6   8
HETATM    8  C7  UNL     1     -32.751  10.087   0.944  1.00 20.00     0.029 C 
HETATM    9  C5  UNL     1     -32.904  10.472  -0.521  1.00 20.00     0.010 C 
ENDBRANCH   6   8
ENDBRANCH   5   6
ENDBRANCH   1   5
BRANCH   1  10
HETATM   10  C9  UNL     1     -34.161   7.473   3.949  1.00 20.00     0.008 C 
HETATM   11  C6  UNL     1     -33.338   8.215   4.994  1.00 20.00     0.006 C 
ENDBRANCH   1  10
TORSDOF 5
ENDMDL
MODEL 9
REMARK VINA RESULT:      -1.1      1.699      3.289
REMARK  5 active torsions:
REMARK  status: ('A' for Active; 'I' for Inactive)
REMARK    1  A    between atoms: C2_2  and  C7_7 
REMARK    2  A    between atoms: C2_2  and  C8_8 
REMARK    3  A    between atoms: C3_3  and  C10_10 
REMARK    4  A    between atoms: C8_8  and  C10_10 
REMARK    5  A    between atoms: C9_9  and  C10_10 
ROOT
HETATM    1  C10 UNL     1     -33.413   7.193   2.511  1.00 20.00     0.058 C 
ENDROOT
BRANCH   1   2
HETATM    2  C3  UNL     1     -33.172   5.687   2.377  1.00 20.00     0.127 C 
HETATM    3  C4  UNL     1     -32.424   5.226   1.152  1.00 20.00     0.091 C 
HETATM    4  O11 UNL     1     -33.585   4.876   3.206  1.00 20.00    -0.298 OA
ENDBRANCH   1   2
BRANCH   1   5
HETATM    5  C8  UNL     1     -32.104   7.998   2.395  1.00 20.00     0.045 C 
BRANCH   5   6
HETATM    6  C2  UNL     1     -31.984   8.811   1.118  1.00 20.00    -0.089 C 
HETATM    7  C1  UNL     1     -31.169   8.413   0.127  1.00 20.00     0.014 C 
BRANCH   6   8
HETATM    8  C7  UNL     1     -32.788  10.085   0.987  1.00 20.00     0.029 C 
HETATM    9  C5  UNL     1     -32.959  10.541  -0.455  1.00 20.00     0.010 C 
ENDBRANCH   6   8
ENDBRANCH   5   6
ENDBRANCH   1   5
BRANCH   1  10
HETATM   10  C9  UNL     1     -34.183   7.492   3.810  1.00 20.00     0.008 C 
HETATM   11  C6  UNL     1     -33.365   8.151   4.913  1.00 20.00     0.006 C 
ENDBRANCH   1  10
TORSDOF 5
ENDMDL
