MODEL 1
REMARK VINA RESULT:      -2.5      0.000      0.000
REMARK  4 active torsions:
REMARK  status: ('A' for Active; 'I' for Inactive)
REMARK    1  A    between atoms: C4_4  and  C5_5 
REMARK    2  A    between atoms: C5_5  and  C8_8 
REMARK    3  A    between atoms: C6_6  and  C8_8 
REMARK    4  A    between atoms: C7_7  and  C8_8 
ROOT
HETATM    1  C8  UNL     1     -33.377   7.164   2.189  1.00 20.00     0.003 C 
ENDROOT
BRANCH   1   2
HETATM    2  C5  UNL     1     -32.056   7.970   2.061  1.00 20.00     0.005 C 
BRANCH   2   3
HETATM    3  C4  UNL     1     -31.820   8.684   0.725  1.00 20.00    -0.004 C 
HETATM    4  C1  UNL     1     -32.601   9.980   0.581  1.00 20.00     0.005 C 
ENDBRANCH   2   3
ENDBRANCH   1   2
BRANCH   1   5
HETATM    5  C6  UNL     1     -33.092   5.650   2.071  1.00 20.00     0.119 C 
HETATM    6 CL9  UNL     1     -31.681   5.305   1.032  1.00 20.00    -0.130 Cl
ENDBRANCH   1   5
BRANCH   1   7
HETATM    7  C7  UNL     1     -34.172   7.502   3.489  1.00 20.00    -0.018 C 
HETATM    8  C2  UNL     1     -33.254   7.984   4.619  1.00 20.00     0.010 C 
HETATM    9  C3  UNL     1     -35.046   6.351   3.994  1.00 20.00     0.010 C 
ENDBRANCH   1   7
TORSDOF 4
ENDMDL
MODEL 2
REMARK VINA RESULT:      -2.5      0.763      1.401
REMARK  4 active torsions:
REMARK  status: ('A' for Active; 'I' for Inactive)
REMARK    1  A    between atoms: C4_4  and  C5_5 
REMARK    2  A    between atoms: C5_5  and  C8_8 
REMARK    3  A    between atoms: C6_6  and  C8_8 
REMARK    4  A    between atoms: C7_7  and  C8_8 
ROOT
HETATM    1  C8  UNL     1     -33.217   7.026   2.255  1.00 20.00     0.003 C 
ENDROOT
BRANCH   1   2
HETATM    2  C5  UNL     1     -32.205   8.195   2.112  1.00 20.00     0.005 C 
BRANCH   2   3
HETATM    3  C4  UNL     1     -31.911   8.671   0.684  1.00 20.00    -0.004 C 
HETATM    4  C1  UNL     1     -32.518  10.025   0.356  1.00 20.00     0.005 C 
ENDBRANCH   2   3
ENDBRANCH   1   2
BRANCH   1   5
HETATM    5  C6  UNL     1     -32.597   5.715   1.723  1.00 20.00     0.119 C 
HETATM    6 CL9  UNL     1     -33.469   5.083   0.299  1.00 20.00    -0.130 Cl
ENDBRANCH   1   5
BRANCH   1   7
HETATM    7  C7  UNL     1     -33.754   6.861   3.711  1.00 20.00    -0.018 C 
HETATM    8  C2  UNL     1     -35.203   6.359   3.738  1.00 20.00     0.010 C 
HETATM    9  C3  UNL     1     -33.634   8.129   4.560  1.00 20.00     0.010 C 
ENDBRANCH   1   7
TORSDOF 4
ENDMDL
MODEL 3
REMARK VINA RESULT:      -2.2      2.029      3.947
REMARK  4 active torsions:
REMARK  status: ('A' for Active; 'I' for Inactive)
REMARK    1  A    between atoms: C4_4  and  C5_5 
REMARK    2  A    between atoms: C5_5  and  C8_8 
REMARK    3  A    between atoms: C6_6  and  C8_8 
REMARK    4  A    between atoms: C7_7  and  C8_8 
ROOT
HETATM    1  C8  UNL     1     -33.268   5.898   3.095  1.00 20.00     0.003 C 
ENDROOT
BRANCH   1   2
HETATM    2  C5  UNL     1     -33.846   4.459   3.176  1.00 20.00     0.005 C 
BRANCH   2   3
HETATM    3  C4  UNL     1     -33.920   3.832   4.573  1.00 20.00    -0.004 C 
HETATM    4  C1  UNL     1     -32.901   2.727   4.798  1.00 20.00     0.005 C 
ENDBRANCH   2   3
ENDBRANCH   1   2
BRANCH   1   5
HETATM    5  C6  UNL     1     -32.705   6.169   1.683  1.00 20.00     0.119 C 
HETATM    6 CL9  UNL     1     -31.875   7.747   1.576  1.00 20.00    -0.130 Cl
ENDBRANCH   1   5
BRANCH   1   7
HETATM    7  C7  UNL     1     -34.296   6.991   3.525  1.00 20.00    -0.018 C 
HETATM    8  C2  UNL     1     -33.744   7.897   4.634  1.00 20.00     0.010 C 
HETATM    9  C3  UNL     1     -35.654   6.428   3.951  1.00 20.00     0.010 C 
ENDBRANCH   1   7
TORSDOF 4
ENDMDL
MODEL 4
REMARK VINA RESULT:      -1.9      2.199      2.822
REMARK  4 active torsions:
REMARK  status: ('A' for Active; 'I' for Inactive)
REMARK    1  A    between atoms: C4_4  and  C5_5 
REMARK    2  A    between atoms: C5_5  and  C8_8 
REMARK    3  A    between atoms: C6_6  and  C8_8 
REMARK    4  A    between atoms: C7_7  and  C8_8 
ROOT
HETATM    1  C8  UNL     1     -33.419   6.332   3.356  1.00 20.00     0.003 C 
ENDROOT
BRANCH   1   2
HETATM    2  C5  UNL     1     -32.979   6.541   1.881  1.00 20.00     0.005 C 
BRANCH   2   3
HETATM    3  C4  UNL     1     -31.837   7.536   1.645  1.00 20.00    -0.004 C 
HETATM    4  C1  UNL     1     -32.281   8.820   0.963  1.00 20.00     0.005 C 
ENDBRANCH   2   3
ENDBRANCH   1   2
BRANCH   1   5
HETATM    5  C6  UNL     1     -34.051   7.627   3.912  1.00 20.00     0.119 C 
HETATM    6 CL9  UNL     1     -33.088   8.335   5.239  1.00 20.00    -0.130 Cl
ENDBRANCH   1   5
BRANCH   1   7
HETATM    7  C7  UNL     1     -34.363   5.103   3.541  1.00 20.00    -0.018 C 
HETATM    8  C2  UNL     1     -35.584   5.439   4.406  1.00 20.00     0.010 C 
HETATM    9  C3  UNL     1     -33.660   3.865   4.105  1.00 20.00     0.010 C 
ENDBRANCH   1   7
TORSDOF 4
ENDMDL
MODEL 5
REMARK VINA RESULT:      -1.9      2.457      4.545
REMARK  4 active torsions:
REMARK  status: ('A' for Active; 'I' for Inactive)
REMARK    1  A    between atoms: C4_4  and  C5_5 
REMARK    2  A    between atoms: C5_5  and  C8_8 
REMARK    3  A    between atoms: C6_6  and  C8_8 
REMARK    4  A    between atoms: C7_7  and  C8_8 
ROOT
HETATM    1  C8  UNL     1     -34.160   6.366   3.157  1.00 20.00     0.003 C 
ENDROOT
BRANCH   1   2
HETATM    2  C5  UNL     1     -34.257   5.262   4.246  1.00 20.00     0.005 C 
BRANCH   2   3
HETATM    3  C4  UNL     1     -33.862   3.845   3.816  1.00 20.00    -0.004 C 
HETATM    4  C1  UNL     1     -33.147   3.057   4.902  1.00 20.00     0.005 C 
ENDBRANCH   2   3
ENDBRANCH   1   2
BRANCH   1   5
HETATM    5  C6  UNL     1     -34.350   7.761   3.792  1.00 20.00     0.119 C 
HETATM    6 CL9  UNL     1     -33.306   8.003   5.221  1.00 20.00    -0.130 Cl
ENDBRANCH   1   5
BRANCH   1   7
HETATM    7  C7  UNL     1     -32.841   6.286   2.326  1.00 20.00    -0.018 C 
HETATM    8  C2  UNL     1     -32.273   7.675   2.010  1.00 20.00     0.010 C 
HETATM    9  C3  UNL     1     -32.976   5.480   1.031  1.00 20.00     0.010 C 
ENDBRANCH   1   7
TORSDOF 4
ENDMDL
MODEL 6
REMARK VINA RESULT:      -1.9      1.718      3.980
REMARK  4 active torsions:
REMARK  status: ('A' for Active; 'I' for Inactive)
REMARK    1  A    between atoms: C4_4  and  C5_5 
REMARK    2  A    between atoms: C5_5  and  C8_8 
REMARK    3  A    between atoms: C6_6  and  C8_8 
REMARK    4  A    between atoms: C7_7  and  C8_8 
ROOT
HETATM    1  C8  UNL     1     -33.239   7.111   2.119  1.00 20.00     0.003 C 
ENDROOT
BRANCH   1   2
HETATM    2  C5  UNL     1     -33.726   7.159   3.593  1.00 20.00     0.005 C 
BRANCH   2   3
HETATM    3  C4  UNL     1     -35.117   6.577   3.870  1.00 20.00    -0.004 C 
HETATM    4  C1  UNL     1     -35.086   5.149   4.392  1.00 20.00     0.005 C 
ENDBRANCH   2   3
ENDBRANCH   1   2
BRANCH   1   5
HETATM    5  C6  UNL     1     -32.002   8.017   1.935  1.00 20.00     0.119 C 
HETATM    6 CL9  UNL     1     -32.245   9.243   0.659  1.00 20.00    -0.130 Cl
ENDBRANCH   1   5
BRANCH   1   7
HETATM    7  C7  UNL     1     -32.969   5.658   1.615  1.00 20.00    -0.018 C 
HETATM    8  C2  UNL     1     -31.475   5.395   1.386  1.00 20.00     0.010 C 
HETATM    9  C3  UNL     1     -33.754   5.286   0.355  1.00 20.00     0.010 C 
ENDBRANCH   1   7
TORSDOF 4
ENDMDL
MODEL 7
REMARK VINA RESULT:      -1.8      2.468      4.658
REMARK  4 active torsions:
REMARK  status: ('A' for Active; 'I' for Inactive)
REMARK    1  A    between atoms: C4_4  and  C5_5 
REMARK    2  A    between atoms: C5_5  and  C8_8 
REMARK    3  A    between atoms: C6_6  and  C8_8 
REMARK    4  A    between atoms: C7_7  and  C8_8 
ROOT
HETATM    1  C8  UNL     1     -33.936   6.204   2.880  1.00 20.00     0.003 C 
ENDROOT
BRANCH   1   2
HETATM    2  C5  UNL     1     -33.246   5.204   3.846  1.00 20.00     0.005 C 
BRANCH   2   3
HETATM    3  C4  UNL     1     -34.048   3.951   4.216  1.00 20.00    -0.004 C 
HETATM    4  C1  UNL     1     -33.190   2.815   4.750  1.00 20.00     0.005 C 
ENDBRANCH   2   3
ENDBRANCH   1   2
BRANCH   1   5
HETATM    5  C6  UNL     1     -34.417   7.451   3.654  1.00 20.00     0.119 C 
HETATM    6 CL9  UNL     1     -33.345   7.850   5.026  1.00 20.00    -0.130 Cl
ENDBRANCH   1   5
BRANCH   1   7
HETATM    7  C7  UNL     1     -33.039   6.592   1.663  1.00 20.00    -0.018 C 
HETATM    8  C2  UNL     1     -32.191   5.411   1.171  1.00 20.00     0.010 C 
HETATM    9  C3  UNL     1     -32.134   7.799   1.923  1.00 20.00     0.010 C 
ENDBRANCH   1   7
TORSDOF 4
ENDMDL
MODEL 8
REMARK VINA RESULT:      -1.6      1.979      3.749
REMARK  4 active torsions:
REMARK  status: ('A' for Active; 'I' for Inactive)
REMARK    1  A    between atoms: C4_4  and  C5_5 
REMARK    2  A    between atoms: C5_5  and  C8_8 
REMARK    3  A    between atoms: C6_6  and  C8_8 
REMARK    4  A    between atoms: C7_7  and  C8_8 
ROOT
HETATM    1  C8  UNL     1     -33.492   5.681   3.219  1.00 20.00     0.003 C 
ENDROOT
BRANCH   1   2
HETATM    2  C5  UNL     1     -34.707   6.504   3.727  1.00 20.00     0.005 C 
BRANCH   2   3
HETATM    3  C4  UNL     1     -34.412   7.934   4.195  1.00 20.00    -0.004 C 
HETATM    4  C1  UNL     1     -33.194   8.039   5.098  1.00 20.00     0.005 C 
ENDBRANCH   2   3
ENDBRANCH   1   2
BRANCH   1   5
HETATM    5  C6  UNL     1     -33.817   4.171   3.253  1.00 20.00     0.119 C 
HETATM    6 CL9  UNL     1     -33.328   3.409   4.793  1.00 20.00    -0.130 Cl
ENDBRANCH   1   5
BRANCH   1   7
HETATM    7  C7  UNL     1     -32.998   6.132   1.808  1.00 20.00    -0.018 C 
HETATM    8  C2  UNL     1     -32.269   5.005   1.064  1.00 20.00     0.010 C 
HETATM    9  C3  UNL     1     -32.117   7.383   1.834  1.00 20.00     0.010 C 
ENDBRANCH   1   7
TORSDOF 4
ENDMDL
MODEL 9
REMARK VINA RESULT:      -1.4      1.999      2.861
REMARK  4 active torsions:
REMARK  status: ('A' for Active; 'I' for Inactive)
REMARK    1  A    between atoms: C4_4  and  C5_5 
REMARK    2  A    between atoms: C5_5  and  C8_8 
REMARK    3  A    between atoms: C6_6  and  C8_8 
REMARK    4  A    between atoms: C7_7  and  C8_8 
ROOT
HETATM    1  C8  UNL     1     -32.493   7.343   2.451  1.00 20.00     0.003 C 
ENDROOT
BRANCH   1   2
HETATM    2  C5  UNL     1     -31.851   8.247   1.364  1.00 20.00     0.005 C 
BRANCH   2   3
HETATM    3  C4  UNL     1     -32.557   9.578   1.081  1.00 20.00    -0.004 C 
HETATM    4  C1  UNL     1     -32.608   9.938  -0.396  1.00 20.00     0.005 C 
ENDBRANCH   2   3
ENDBRANCH   1   2
BRANCH   1   5
HETATM    5  C6  UNL     1     -33.563   8.131   3.238  1.00 20.00     0.119 C 
HETATM    6 CL9  UNL     1     -33.268   8.102   4.999  1.00 20.00    -0.130 Cl
ENDBRANCH   1   5
BRANCH   1   7
HETATM    7  C7  UNL     1     -33.065   6.011   1.874  1.00 20.00    -0.018 C 
HETATM    8  C2  UNL     1     -33.698   5.135   2.964  1.00 20.00     0.010 C 
HETATM    9  C3  UNL     1     -32.042   5.189   1.086  1.00 20.00     0.010 C 
ENDBRANCH   1   7
TORSDOF 4
ENDMDL
