MODEL 1
REMARK VINA RESULT:       0.0      0.000      0.000
REMARK  4 active torsions:
REMARK  status: ('A' for Active; 'I' for Inactive)
REMARK    1  A    between atoms: C6_6  and  C8_8 
REMARK    2  A    between atoms: C6_6  and  C9_9 
REMARK    3  A    between atoms: C7_7  and  O11_11 
REMARK    4  A    between atoms: C8_8  and  O11_11 
ROOT
HETATM    1  C1  UNL     1     -32.298   8.609   1.218  1.00 20.00     0.091 C 
HETATM    2  C8  UNL     1     -32.351   7.418   2.081  1.00 20.00     0.228 C 
HETATM    3  N10 UNL     1     -32.255   9.549   0.539  1.00 20.00    -0.195 NA
ENDROOT
BRANCH   2   4
HETATM    4  C6  UNL     1     -33.795   6.897   2.182  1.00 20.00     0.055 C 
BRANCH   4   5
HETATM    5  C9  UNL     1     -34.339   6.591   3.610  1.00 20.00    -0.048 C 
HETATM    6  C3  UNL     1     -35.879   6.637   3.547  1.00 20.00     0.014 C 
HETATM    7  C4  UNL     1     -33.917   5.185   4.070  1.00 20.00     0.014 C 
HETATM    8  C5  UNL     1     -33.868   7.622   4.646  1.00 20.00     0.014 C 
ENDBRANCH   4   5
ENDBRANCH   2   4
BRANCH   2   9
HETATM    9  O11 UNL     1     -31.518   6.408   1.524  1.00 20.00    -0.372 OA
BRANCH   9  10
HETATM   10  C7  UNL     1     -32.284   5.364   0.940  1.00 20.00     0.165 C 
HETATM   11  C2  UNL     1     -31.346   4.328   0.359  1.00 20.00     0.033 C 
ENDBRANCH   9  10
ENDBRANCH   2   9
TORSDOF 4
ENDMDL
MODEL 2
REMARK VINA RESULT:       0.1      2.397      4.114
REMARK  4 active torsions:
REMARK  status: ('A' for Active; 'I' for Inactive)
REMARK    1  A    between atoms: C6_6  and  C8_8 
REMARK    2  A    between atoms: C6_6  and  C9_9 
REMARK    3  A    between atoms: C7_7  and  O11_11 
REMARK    4  A    between atoms: C8_8  and  O11_11 
ROOT
HETATM    1  C1  UNL     1     -34.326   6.751   3.997  1.00 20.00     0.091 C 
HETATM    2  C8  UNL     1     -34.240   5.438   3.338  1.00 20.00     0.228 C 
HETATM    3  N10 UNL     1     -34.395   7.787   4.516  1.00 20.00    -0.195 NA
ENDROOT
BRANCH   2   4
HETATM    4  C6  UNL     1     -32.830   5.221   2.762  1.00 20.00     0.055 C 
BRANCH   4   5
HETATM    5  C9  UNL     1     -32.546   5.810   1.348  1.00 20.00    -0.048 C 
HETATM    6  C3  UNL     1     -31.479   4.923   0.674  1.00 20.00     0.014 C 
HETATM    7  C4  UNL     1     -33.813   5.783   0.476  1.00 20.00     0.014 C 
HETATM    8  C5  UNL     1     -32.008   7.247   1.411  1.00 20.00     0.014 C 
ENDBRANCH   4   5
ENDBRANCH   2   4
BRANCH   2   9
HETATM    9  O11 UNL     1     -34.525   4.423   4.295  1.00 20.00    -0.372 OA
BRANCH   9  10
HETATM   10  C7  UNL     1     -33.653   3.311   4.149  1.00 20.00     0.165 C 
HETATM   11  C2  UNL     1     -32.962   3.049   5.470  1.00 20.00     0.033 C 
ENDBRANCH   9  10
ENDBRANCH   2   9
TORSDOF 4
ENDMDL
MODEL 3
REMARK VINA RESULT:       0.1      0.066      1.305
REMARK  4 active torsions:
REMARK  status: ('A' for Active; 'I' for Inactive)
REMARK    1  A    between atoms: C6_6  and  C8_8 
REMARK    2  A    between atoms: C6_6  and  C9_9 
REMARK    3  A    between atoms: C7_7  and  O11_11 
REMARK    4  A    between atoms: C8_8  and  O11_11 
ROOT
HETATM    1  C1  UNL     1     -32.309   8.642   1.197  1.00 20.00     0.091 C 
HETATM    2  C8  UNL     1     -32.366   7.456   2.068  1.00 20.00     0.228 C 
HETATM    3  N10 UNL     1     -32.264   9.577   0.512  1.00 20.00    -0.195 NA
ENDROOT
BRANCH   2   4
HETATM    4  C6  UNL     1     -33.810   6.937   2.169  1.00 20.00     0.055 C 
BRANCH   4   5
HETATM    5  C9  UNL     1     -34.326   6.552   3.588  1.00 20.00    -0.048 C 
HETATM    6  C3  UNL     1     -33.787   7.599   4.585  1.00 20.00     0.014 C 
HETATM    7  C4  UNL     1     -35.863   6.583   3.642  1.00 20.00     0.014 C 
HETATM    8  C5  UNL     1     -33.834   5.167   4.032  1.00 20.00     0.014 C 
ENDBRANCH   4   5
ENDBRANCH   2   4
BRANCH   2   9
HETATM    9  O11 UNL     1     -31.532   6.442   1.519  1.00 20.00    -0.372 OA
BRANCH   9  10
HETATM   10  C7  UNL     1     -32.297   5.412   0.910  1.00 20.00     0.165 C 
HETATM   11  C2  UNL     1     -31.362   4.339   0.397  1.00 20.00     0.033 C 
ENDBRANCH   9  10
ENDBRANCH   2   9
TORSDOF 4
ENDMDL
MODEL 4
REMARK VINA RESULT:       0.1      1.751      2.903
REMARK  4 active torsions:
REMARK  status: ('A' for Active; 'I' for Inactive)
REMARK    1  A    between atoms: C6_6  and  C8_8 
REMARK    2  A    between atoms: C6_6  and  C9_9 
REMARK    3  A    between atoms: C7_7  and  O11_11 
REMARK    4  A    between atoms: C8_8  and  O11_11 
ROOT
HETATM    1  C1  UNL     1     -32.183   5.509   1.022  1.00 20.00     0.091 C 
HETATM    2  C8  UNL     1     -33.031   6.443   1.780  1.00 20.00     0.228 C 
HETATM    3  N10 UNL     1     -31.515   4.773   0.423  1.00 20.00    -0.195 NA
ENDROOT
BRANCH   2   4
HETATM    4  C6  UNL     1     -33.494   5.794   3.096  1.00 20.00     0.055 C 
BRANCH   4   5
HETATM    5  C9  UNL     1     -34.692   6.466   3.833  1.00 20.00    -0.048 C 
HETATM    6  C3  UNL     1     -35.361   5.394   4.718  1.00 20.00     0.014 C 
HETATM    7  C4  UNL     1     -34.208   7.608   4.742  1.00 20.00     0.014 C 
HETATM    8  C5  UNL     1     -35.745   7.011   2.857  1.00 20.00     0.014 C 
ENDBRANCH   4   5
ENDBRANCH   2   4
BRANCH   2   9
HETATM    9  O11 UNL     1     -32.281   7.618   2.067  1.00 20.00    -0.372 OA
BRANCH   9  10
HETATM   10  C7  UNL     1     -31.768   8.209   0.881  1.00 20.00     0.165 C 
HETATM   11  C2  UNL     1     -32.461   9.535   0.651  1.00 20.00     0.033 C 
ENDBRANCH   9  10
ENDBRANCH   2   9
TORSDOF 4
ENDMDL
MODEL 5
REMARK VINA RESULT:       0.1      2.385      4.104
REMARK  4 active torsions:
REMARK  status: ('A' for Active; 'I' for Inactive)
REMARK    1  A    between atoms: C6_6  and  C8_8 
REMARK    2  A    between atoms: C6_6  and  C9_9 
REMARK    3  A    between atoms: C7_7  and  O11_11 
REMARK    4  A    between atoms: C8_8  and  O11_11 
ROOT
HETATM    1  C1  UNL     1     -34.328   6.800   3.993  1.00 20.00     0.091 C 
HETATM    2  C8  UNL     1     -34.229   5.498   3.311  1.00 20.00     0.228 C 
HETATM    3  N10 UNL     1     -34.408   7.825   4.529  1.00 20.00    -0.195 NA
ENDROOT
BRANCH   2   4
HETATM    4  C6  UNL     1     -32.810   5.296   2.753  1.00 20.00     0.055 C 
BRANCH   4   5
HETATM    5  C9  UNL     1     -32.545   5.788   1.299  1.00 20.00    -0.048 C 
HETATM    6  C3  UNL     1     -31.992   7.226   1.381  1.00 20.00     0.014 C 
HETATM    7  C4  UNL     1     -31.494   4.907   0.602  1.00 20.00     0.014 C 
HETATM    8  C5  UNL     1     -33.824   5.813   0.449  1.00 20.00     0.014 C 
ENDBRANCH   4   5
ENDBRANCH   2   4
BRANCH   2   9
HETATM    9  O11 UNL     1     -34.525   4.466   4.244  1.00 20.00    -0.372 OA
BRANCH   9  10
HETATM   10  C7  UNL     1     -33.658   3.353   4.082  1.00 20.00     0.165 C 
HETATM   11  C2  UNL     1     -32.987   3.053   5.405  1.00 20.00     0.033 C 
ENDBRANCH   9  10
ENDBRANCH   2   9
TORSDOF 4
ENDMDL
MODEL 6
REMARK VINA RESULT:       0.2      2.386      4.111
REMARK  4 active torsions:
REMARK  status: ('A' for Active; 'I' for Inactive)
REMARK    1  A    between atoms: C6_6  and  C8_8 
REMARK    2  A    between atoms: C6_6  and  C9_9 
REMARK    3  A    between atoms: C7_7  and  O11_11 
REMARK    4  A    between atoms: C8_8  and  O11_11 
ROOT
HETATM    1  C1  UNL     1     -34.320   6.774   3.985  1.00 20.00     0.091 C 
HETATM    2  C8  UNL     1     -34.221   5.467   3.317  1.00 20.00     0.228 C 
HETATM    3  N10 UNL     1     -34.400   7.805   4.512  1.00 20.00    -0.195 NA
ENDROOT
BRANCH   2   4
HETATM    4  C6  UNL     1     -32.799   5.254   2.770  1.00 20.00     0.055 C 
BRANCH   4   5
HETATM    5  C9  UNL     1     -32.505   5.789   1.337  1.00 20.00    -0.048 C 
HETATM    6  C3  UNL     1     -33.830   5.772   0.546  1.00 20.00     0.014 C 
HETATM    7  C4  UNL     1     -31.991   7.238   1.384  1.00 20.00     0.014 C 
HETATM    8  C5  UNL     1     -31.486   4.918   0.587  1.00 20.00     0.014 C 
ENDBRANCH   4   5
ENDBRANCH   2   4
BRANCH   2   9
HETATM    9  O11 UNL     1     -34.529   4.444   4.257  1.00 20.00    -0.372 OA
BRANCH   9  10
HETATM   10  C7  UNL     1     -33.655   3.332   4.121  1.00 20.00     0.165 C 
HETATM   11  C2  UNL     1     -32.984   3.065   5.451  1.00 20.00     0.033 C 
ENDBRANCH   9  10
ENDBRANCH   2   9
TORSDOF 4
ENDMDL
MODEL 7
REMARK VINA RESULT:       0.8      1.376      3.450
REMARK  4 active torsions:
REMARK  status: ('A' for Active; 'I' for Inactive)
REMARK    1  A    between atoms: C6_6  and  C8_8 
REMARK    2  A    between atoms: C6_6  and  C9_9 
REMARK    3  A    between atoms: C7_7  and  O11_11 
REMARK    4  A    between atoms: C8_8  and  O11_11 
ROOT
HETATM    1  C1  UNL     1     -32.462   9.096   1.049  1.00 20.00     0.091 C 
HETATM    2  C8  UNL     1     -32.536   8.013   2.043  1.00 20.00     0.228 C 
HETATM    3  N10 UNL     1     -32.405   9.951   0.266  1.00 20.00    -0.195 NA
ENDROOT
BRANCH   2   4
HETATM    4  C6  UNL     1     -31.730   6.794   1.564  1.00 20.00     0.055 C 
BRANCH   4   5
HETATM    5  C9  UNL     1     -32.525   5.479   1.302  1.00 20.00    -0.048 C 
HETATM    6  C3  UNL     1     -31.565   4.474   0.632  1.00 20.00     0.014 C 
HETATM    7  C4  UNL     1     -33.023   4.864   2.621  1.00 20.00     0.014 C 
HETATM    8  C5  UNL     1     -33.722   5.698   0.366  1.00 20.00     0.014 C 
ENDBRANCH   4   5
ENDBRANCH   2   4
BRANCH   2   9
HETATM    9  O11 UNL     1     -32.003   8.482   3.276  1.00 20.00    -0.372 OA
BRANCH   9  10
HETATM   10  C7  UNL     1     -32.814   8.091   4.376  1.00 20.00     0.165 C 
HETATM   11  C2  UNL     1     -34.177   7.679   3.863  1.00 20.00     0.033 C 
ENDBRANCH   9  10
ENDBRANCH   2   9
TORSDOF 4
ENDMDL
MODEL 8
REMARK VINA RESULT:       0.8      2.063      4.453
REMARK  4 active torsions:
REMARK  status: ('A' for Active; 'I' for Inactive)
REMARK    1  A    between atoms: C6_6  and  C8_8 
REMARK    2  A    between atoms: C6_6  and  C9_9 
REMARK    3  A    between atoms: C7_7  and  O11_11 
REMARK    4  A    between atoms: C8_8  and  O11_11 
ROOT
HETATM    1  C1  UNL     1     -32.392   6.319   1.649  1.00 20.00     0.091 C 
HETATM    2  C8  UNL     1     -32.335   7.653   2.271  1.00 20.00     0.228 C 
HETATM    3  N10 UNL     1     -32.435   5.268   1.160  1.00 20.00    -0.195 NA
ENDROOT
BRANCH   2   4
HETATM    4  C6  UNL     1     -33.135   8.665   1.433  1.00 20.00     0.055 C 
BRANCH   4   5
HETATM    5  C9  UNL     1     -32.320   9.629   0.520  1.00 20.00    -0.048 C 
HETATM    6  C3  UNL     1     -32.997   9.651  -0.866  1.00 20.00     0.014 C 
HETATM    7  C4  UNL     1     -32.329  11.061   1.084  1.00 20.00     0.014 C 
HETATM    8  C5  UNL     1     -30.866   9.169   0.338  1.00 20.00     0.014 C 
ENDBRANCH   4   5
ENDBRANCH   2   4
BRANCH   2   9
HETATM    9  O11 UNL     1     -32.887   7.575   3.580  1.00 20.00    -0.372 OA
BRANCH   9  10
HETATM   10  C7  UNL     1     -34.303   7.690   3.555  1.00 20.00     0.165 C 
HETATM   11  C2  UNL     1     -34.913   6.383   4.015  1.00 20.00     0.033 C 
ENDBRANCH   9  10
ENDBRANCH   2   9
TORSDOF 4
ENDMDL
MODEL 9
REMARK VINA RESULT:       1.0      2.081      3.651
REMARK  4 active torsions:
REMARK  status: ('A' for Active; 'I' for Inactive)
REMARK    1  A    between atoms: C6_6  and  C8_8 
REMARK    2  A    between atoms: C6_6  and  C9_9 
REMARK    3  A    between atoms: C7_7  and  O11_11 
REMARK    4  A    between atoms: C8_8  and  O11_11 
ROOT
HETATM    1  C1  UNL     1     -33.301   7.760   3.604  1.00 20.00     0.091 C 
HETATM    2  C8  UNL     1     -32.388   7.699   2.451  1.00 20.00     0.228 C 
HETATM    3  N10 UNL     1     -34.019   7.807   4.515  1.00 20.00    -0.195 NA
ENDROOT
BRANCH   2   4
HETATM    4  C6  UNL     1     -33.007   6.854   1.325  1.00 20.00     0.055 C 
BRANCH   4   5
HETATM    5  C9  UNL     1     -32.818   5.310   1.415  1.00 20.00    -0.048 C 
HETATM    6  C3  UNL     1     -33.531   4.676   0.202  1.00 20.00     0.014 C 
HETATM    7  C4  UNL     1     -31.328   4.933   1.349  1.00 20.00     0.014 C 
HETATM    8  C5  UNL     1     -33.429   4.720   2.695  1.00 20.00     0.014 C 
ENDBRANCH   4   5
ENDBRANCH   2   4
BRANCH   2   9
HETATM    9  O11 UNL     1     -32.153   9.021   1.980  1.00 20.00    -0.372 OA
BRANCH   9  10
HETATM   10  C7  UNL     1     -32.080   9.063   0.562  1.00 20.00     0.165 C 
HETATM   11  C2  UNL     1     -32.624  10.390   0.078  1.00 20.00     0.033 C 
ENDBRANCH   9  10
ENDBRANCH   2   9
TORSDOF 4
ENDMDL
