MODEL 1
REMARK VINA RESULT:      -2.9      0.000      0.000
REMARK  5 active torsions:
REMARK  status: ('A' for Active; 'I' for Inactive)
REMARK    1  A    between atoms: C2_2  and  C4_4 
REMARK    2  A    between atoms: C2_2  and  C5_5 
REMARK    3  A    between atoms: C5_5  and  C6_6 
REMARK    4  A    between atoms: C6_6  and  C7_7 
REMARK    5  A    between atoms: C7_7  and  C8_8 
ROOT
HETATM    1  C5  UNL     1     -33.599   7.164   3.575  1.00 20.00     0.033 C 
ENDROOT
BRANCH   1   2
HETATM    2  C2  UNL     1     -32.788   7.094   2.299  1.00 20.00    -0.090 C 
HETATM    3  C1  UNL     1     -32.901   6.044   1.470  1.00 20.00     0.014 C 
BRANCH   2   4
HETATM    4  C4  UNL     1     -31.847   8.233   1.981  1.00 20.00     0.029 C 
HETATM    5  C3  UNL     1     -32.316   9.084   0.808  1.00 20.00     0.010 C 
ENDBRANCH   2   4
ENDBRANCH   1   2
BRANCH   1   6
HETATM    6  C6  UNL     1     -34.855   6.287   3.530  1.00 20.00     0.005 C 
BRANCH   6   7
HETATM    7  C7  UNL     1     -34.733   5.096   4.485  1.00 20.00     0.015 C 
BRANCH   7   8
HETATM    8  C8  UNL     1     -33.969   3.949   3.836  1.00 20.00     0.114 C 
HETATM    9 CL9  UNL     1     -33.097   3.008   5.068  1.00 20.00    -0.130 Cl
ENDBRANCH   7   8
ENDBRANCH   6   7
ENDBRANCH   1   6
TORSDOF 5
ENDMDL
MODEL 2
REMARK VINA RESULT:      -2.8      3.136      5.230
REMARK  5 active torsions:
REMARK  status: ('A' for Active; 'I' for Inactive)
REMARK    1  A    between atoms: C2_2  and  C4_4 
REMARK    2  A    between atoms: C2_2  and  C5_5 
REMARK    3  A    between atoms: C5_5  and  C6_6 
REMARK    4  A    between atoms: C6_6  and  C7_7 
REMARK    5  A    between atoms: C7_7  and  C8_8 
ROOT
HETATM    1  C5  UNL     1     -33.286   6.626   2.340  1.00 20.00     0.033 C 
ENDROOT
BRANCH   1   2
HETATM    2  C2  UNL     1     -34.126   6.698   3.596  1.00 20.00    -0.090 C 
HETATM    3  C1  UNL     1     -34.153   7.814   4.342  1.00 20.00     0.014 C 
BRANCH   2   4
HETATM    4  C4  UNL     1     -34.933   5.483   3.994  1.00 20.00     0.029 C 
HETATM    5  C3  UNL     1     -34.090   4.221   4.115  1.00 20.00     0.010 C 
ENDBRANCH   2   4
ENDBRANCH   1   2
BRANCH   1   6
HETATM    6  C6  UNL     1     -32.126   7.626   2.342  1.00 20.00     0.005 C 
BRANCH   6   7
HETATM    7  C7  UNL     1     -31.882   8.196   0.941  1.00 20.00     0.015 C 
BRANCH   7   8
HETATM    8  C8  UNL     1     -32.325   9.651   0.857  1.00 20.00     0.114 C 
HETATM    9 CL9  UNL     1     -32.877  10.038  -0.789  1.00 20.00    -0.130 Cl
ENDBRANCH   7   8
ENDBRANCH   6   7
ENDBRANCH   1   6
TORSDOF 5
ENDMDL
MODEL 3
REMARK VINA RESULT:      -2.8      3.059      5.120
REMARK  5 active torsions:
REMARK  status: ('A' for Active; 'I' for Inactive)
REMARK    1  A    between atoms: C2_2  and  C4_4 
REMARK    2  A    between atoms: C2_2  and  C5_5 
REMARK    3  A    between atoms: C5_5  and  C6_6 
REMARK    4  A    between atoms: C6_6  and  C7_7 
REMARK    5  A    between atoms: C7_7  and  C8_8 
ROOT
HETATM    1  C5  UNL     1     -33.471   7.373   3.122  1.00 20.00     0.033 C 
ENDROOT
BRANCH   1   2
HETATM    2  C2  UNL     1     -34.243   6.138   3.533  1.00 20.00    -0.090 C 
HETATM    3  C1  UNL     1     -35.451   6.244   4.112  1.00 20.00     0.014 C 
BRANCH   2   4
HETATM    4  C4  UNL     1     -33.624   4.783   3.280  1.00 20.00     0.029 C 
HETATM    5  C3  UNL     1     -33.879   3.791   4.408  1.00 20.00     0.010 C 
ENDBRANCH   2   4
ENDBRANCH   1   2
BRANCH   1   6
HETATM    6  C6  UNL     1     -32.574   7.135   1.902  1.00 20.00     0.005 C 
BRANCH   6   7
HETATM    7  C7  UNL     1     -31.694   8.355   1.616  1.00 20.00     0.015 C 
BRANCH   7   8
HETATM    8  C8  UNL     1     -32.054   8.987   0.278  1.00 20.00     0.114 C 
HETATM    9 CL9  UNL     1     -32.683  10.634   0.519  1.00 20.00    -0.130 Cl
ENDBRANCH   7   8
ENDBRANCH   6   7
ENDBRANCH   1   6
TORSDOF 5
ENDMDL
MODEL 4
REMARK VINA RESULT:      -2.7      0.544      1.748
REMARK  5 active torsions:
REMARK  status: ('A' for Active; 'I' for Inactive)
REMARK    1  A    between atoms: C2_2  and  C4_4 
REMARK    2  A    between atoms: C2_2  and  C5_5 
REMARK    3  A    between atoms: C5_5  and  C6_6 
REMARK    4  A    between atoms: C6_6  and  C7_7 
REMARK    5  A    between atoms: C7_7  and  C8_8 
ROOT
HETATM    1  C5  UNL     1     -33.675   7.165   3.701  1.00 20.00     0.033 C 
ENDROOT
BRANCH   1   2
HETATM    2  C2  UNL     1     -32.923   7.168   2.388  1.00 20.00    -0.090 C 
HETATM    3  C1  UNL     1     -32.111   8.188   2.064  1.00 20.00     0.014 C 
BRANCH   2   4
HETATM    4  C4  UNL     1     -33.107   5.998   1.448  1.00 20.00     0.029 C 
HETATM    5  C3  UNL     1     -31.807   5.266   1.146  1.00 20.00     0.010 C 
ENDBRANCH   2   4
ENDBRANCH   1   2
BRANCH   1   6
HETATM    6  C6  UNL     1     -34.964   6.338   3.646  1.00 20.00     0.005 C 
BRANCH   6   7
HETATM    7  C7  UNL     1     -34.863   5.094   4.533  1.00 20.00     0.015 C 
BRANCH   7   8
HETATM    8  C8  UNL     1     -34.035   4.007   3.858  1.00 20.00     0.114 C 
HETATM    9 CL9  UNL     1     -33.140   3.065   5.073  1.00 20.00    -0.130 Cl
ENDBRANCH   7   8
ENDBRANCH   6   7
ENDBRANCH   1   6
TORSDOF 5
ENDMDL
MODEL 5
REMARK VINA RESULT:      -2.7      1.020      1.629
REMARK  5 active torsions:
REMARK  status: ('A' for Active; 'I' for Inactive)
REMARK    1  A    between atoms: C2_2  and  C4_4 
REMARK    2  A    between atoms: C2_2  and  C5_5 
REMARK    3  A    between atoms: C5_5  and  C6_6 
REMARK    4  A    between atoms: C6_6  and  C7_7 
REMARK    5  A    between atoms: C7_7  and  C8_8 
ROOT
HETATM    1  C5  UNL     1     -34.199   6.564   3.043  1.00 20.00     0.033 C 
ENDROOT
BRANCH   1   2
HETATM    2  C2  UNL     1     -33.300   7.670   3.552  1.00 20.00    -0.090 C 
HETATM    3  C1  UNL     1     -33.425   8.133   4.806  1.00 20.00     0.014 C 
BRANCH   2   4
HETATM    4  C4  UNL     1     -32.260   8.242   2.616  1.00 20.00     0.029 C 
HETATM    5  C3  UNL     1     -31.941   7.321   1.446  1.00 20.00     0.010 C 
ENDBRANCH   2   4
ENDBRANCH   1   2
BRANCH   1   6
HETATM    6  C6  UNL     1     -35.291   6.175   4.045  1.00 20.00     0.005 C 
BRANCH   6   7
HETATM    7  C7  UNL     1     -35.040   4.779   4.622  1.00 20.00     0.015 C 
BRANCH   7   8
HETATM    8  C8  UNL     1     -33.913   4.073   3.879  1.00 20.00     0.114 C 
HETATM    9 CL9  UNL     1     -33.115   2.891   4.941  1.00 20.00    -0.130 Cl
ENDBRANCH   7   8
ENDBRANCH   6   7
ENDBRANCH   1   6
TORSDOF 5
ENDMDL
MODEL 6
REMARK VINA RESULT:      -2.7      1.019      1.246
REMARK  5 active torsions:
REMARK  status: ('A' for Active; 'I' for Inactive)
REMARK    1  A    between atoms: C2_2  and  C4_4 
REMARK    2  A    between atoms: C2_2  and  C5_5 
REMARK    3  A    between atoms: C5_5  and  C6_6 
REMARK    4  A    between atoms: C6_6  and  C7_7 
REMARK    5  A    between atoms: C7_7  and  C8_8 
ROOT
HETATM    1  C5  UNL     1     -33.433   7.994   2.886  1.00 20.00     0.033 C 
ENDROOT
BRANCH   1   2
HETATM    2  C2  UNL     1     -32.493   7.488   1.814  1.00 20.00    -0.090 C 
HETATM    3  C1  UNL     1     -32.417   6.178   1.529  1.00 20.00     0.014 C 
BRANCH   2   4
HETATM    4  C4  UNL     1     -31.638   8.490   1.072  1.00 20.00     0.029 C 
HETATM    5  C3  UNL     1     -32.449   9.613   0.440  1.00 20.00     0.010 C 
ENDBRANCH   2   4
ENDBRANCH   1   2
BRANCH   1   6
HETATM    6  C6  UNL     1     -33.739   6.940   3.955  1.00 20.00     0.005 C 
BRANCH   6   7
HETATM    7  C7  UNL     1     -35.186   6.450   3.851  1.00 20.00     0.015 C 
BRANCH   7   8
HETATM    8  C8  UNL     1     -35.353   5.090   4.517  1.00 20.00     0.114 C 
HETATM    9 CL9  UNL     1     -33.977   4.034   4.123  1.00 20.00    -0.130 Cl
ENDBRANCH   7   8
ENDBRANCH   6   7
ENDBRANCH   1   6
TORSDOF 5
ENDMDL
MODEL 7
REMARK VINA RESULT:      -2.5      3.017      4.705
REMARK  5 active torsions:
REMARK  status: ('A' for Active; 'I' for Inactive)
REMARK    1  A    between atoms: C2_2  and  C4_4 
REMARK    2  A    between atoms: C2_2  and  C5_5 
REMARK    3  A    between atoms: C5_5  and  C6_6 
REMARK    4  A    between atoms: C6_6  and  C7_7 
REMARK    5  A    between atoms: C7_7  and  C8_8 
ROOT
HETATM    1  C5  UNL     1     -33.379   6.011   1.716  1.00 20.00     0.033 C 
ENDROOT
BRANCH   1   2
HETATM    2  C2  UNL     1     -33.942   5.712   3.088  1.00 20.00    -0.090 C 
HETATM    3  C1  UNL     1     -33.686   4.543   3.696  1.00 20.00     0.014 C 
BRANCH   2   4
HETATM    4  C4  UNL     1     -34.802   6.760   3.758  1.00 20.00     0.029 C 
HETATM    5  C3  UNL     1     -33.998   7.741   4.601  1.00 20.00     0.010 C 
ENDBRANCH   2   4
ENDBRANCH   1   2
BRANCH   1   6
HETATM    6  C6  UNL     1     -31.958   6.580   1.767  1.00 20.00     0.005 C 
BRANCH   6   7
HETATM    7  C7  UNL     1     -31.975   8.110   1.832  1.00 20.00     0.015 C 
BRANCH   7   8
HETATM    8  C8  UNL     1     -31.848   8.719   0.441  1.00 20.00     0.114 C 
HETATM    9 CL9  UNL     1     -32.625  10.318   0.391  1.00 20.00    -0.130 Cl
ENDBRANCH   7   8
ENDBRANCH   6   7
ENDBRANCH   1   6
TORSDOF 5
ENDMDL
MODEL 8
REMARK VINA RESULT:      -2.4      1.014      1.766
REMARK  5 active torsions:
REMARK  status: ('A' for Active; 'I' for Inactive)
REMARK    1  A    between atoms: C2_2  and  C4_4 
REMARK    2  A    between atoms: C2_2  and  C5_5 
REMARK    3  A    between atoms: C5_5  and  C6_6 
REMARK    4  A    between atoms: C6_6  and  C7_7 
REMARK    5  A    between atoms: C7_7  and  C8_8 
ROOT
HETATM    1  C5  UNL     1     -33.169   6.937   2.287  1.00 20.00     0.033 C 
ENDROOT
BRANCH   1   2
HETATM    2  C2  UNL     1     -32.198   8.063   2.005  1.00 20.00    -0.090 C 
HETATM    3  C1  UNL     1     -31.489   8.623   2.999  1.00 20.00     0.014 C 
BRANCH   2   4
HETATM    4  C4  UNL     1     -32.047   8.546   0.581  1.00 20.00     0.029 C 
HETATM    5  C3  UNL     1     -32.492   9.990   0.390  1.00 20.00     0.010 C 
ENDBRANCH   2   4
ENDBRANCH   1   2
BRANCH   1   6
HETATM    6  C6  UNL     1     -33.840   7.059   3.659  1.00 20.00     0.005 C 
BRANCH   6   7
HETATM    7  C7  UNL     1     -35.222   6.399   3.660  1.00 20.00     0.015 C 
BRANCH   7   8
HETATM    8  C8  UNL     1     -35.249   5.185   4.580  1.00 20.00     0.114 C 
HETATM    9 CL9  UNL     1     -33.986   4.024   4.112  1.00 20.00    -0.130 Cl
ENDBRANCH   7   8
ENDBRANCH   6   7
ENDBRANCH   1   6
TORSDOF 5
ENDMDL
MODEL 9
REMARK VINA RESULT:      -2.2      1.032      2.058
REMARK  5 active torsions:
REMARK  status: ('A' for Active; 'I' for Inactive)
REMARK    1  A    between atoms: C2_2  and  C4_4 
REMARK    2  A    between atoms: C2_2  and  C5_5 
REMARK    3  A    between atoms: C5_5  and  C6_6 
REMARK    4  A    between atoms: C6_6  and  C7_7 
REMARK    5  A    between atoms: C7_7  and  C8_8 
ROOT
HETATM    1  C5  UNL     1     -33.417   8.100   2.961  1.00 20.00     0.033 C 
ENDROOT
BRANCH   1   2
HETATM    2  C2  UNL     1     -32.406   7.671   1.920  1.00 20.00    -0.090 C 
HETATM    3  C1  UNL     1     -31.840   8.571   1.100  1.00 20.00     0.014 C 
BRANCH   2   4
HETATM    4  C4  UNL     1     -32.051   6.204   1.822  1.00 20.00     0.029 C 
HETATM    5  C3  UNL     1     -32.925   5.445   0.833  1.00 20.00     0.010 C 
ENDBRANCH   2   4
ENDBRANCH   1   2
BRANCH   1   6
HETATM    6  C6  UNL     1     -33.719   7.002   3.985  1.00 20.00     0.005 C 
BRANCH   6   7
HETATM    7  C7  UNL     1     -35.134   6.446   3.800  1.00 20.00     0.015 C 
BRANCH   7   8
HETATM    8  C8  UNL     1     -35.300   5.117   4.527  1.00 20.00     0.114 C 
HETATM    9 CL9  UNL     1     -33.966   4.015   4.115  1.00 20.00    -0.130 Cl
ENDBRANCH   7   8
ENDBRANCH   6   7
ENDBRANCH   1   6
TORSDOF 5
ENDMDL
