MODEL 1
REMARK VINA RESULT:       1.4      0.000      0.000
REMARK  1 active torsions:
REMARK  status: ('A' for Active; 'I' for Inactive)
REMARK    1  A    between atoms: C7_7  and  C9_9 
ROOT
HETATM    1  C1  UNL     1     -31.211   7.017   1.860  1.00 20.00     0.005 C 
HETATM    2  C2  UNL     1     -32.187   6.011   1.231  1.00 20.00     0.006 C 
HETATM    3  C3  UNL     1     -33.297   8.079   1.423  1.00 20.00     0.010 C 
HETATM    4  C4  UNL     1     -32.829   7.560   3.705  1.00 20.00     0.015 C 
HETATM    5  C5  UNL     1     -32.148   8.098   2.429  1.00 20.00    -0.013 C 
HETATM    6  C6  UNL     1     -33.564   6.580   1.621  1.00 20.00    -0.005 C 
HETATM    7  C7  UNL     1     -33.812   6.486   3.161  1.00 20.00    -0.028 C 
HETATM    8  C8  UNL     1     -35.269   6.852   3.501  1.00 20.00     0.016 C 
ENDROOT
BRANCH   7   9
HETATM    9  C9  UNL     1     -33.526   5.103   3.759  1.00 20.00     0.124 C 
HETATM   10 CL10 UNL     1     -34.959   4.505   4.607  1.00 20.00    -0.130 Cl
ENDBRANCH   7   9
TORSDOF 1
ENDMDL
MODEL 2
REMARK VINA RESULT:       1.5      1.799      3.333
REMARK  1 active torsions:
REMARK  status: ('A' for Active; 'I' for Inactive)
REMARK    1  A    between atoms: C7_7  and  C9_9 
ROOT
HETATM    1  C1  UNL     1     -35.395   6.168   3.933  1.00 20.00     0.005 C 
HETATM    2  C2  UNL     1     -34.137   5.286   3.911  1.00 20.00     0.006 C 
HETATM    3  C3  UNL     1     -33.507   7.431   4.647  1.00 20.00     0.010 C 
HETATM    4  C4  UNL     1     -34.317   7.885   2.448  1.00 20.00     0.015 C 
HETATM    5  C5  UNL     1     -34.816   7.594   3.879  1.00 20.00    -0.013 C 
HETATM    6  C6  UNL     1     -33.003   6.311   3.728  1.00 20.00    -0.005 C 
HETATM    7  C7  UNL     1     -33.057   6.985   2.319  1.00 20.00    -0.028 C 
HETATM    8  C8  UNL     1     -31.796   7.835   2.073  1.00 20.00     0.016 C 
ENDROOT
BRANCH   7   9
HETATM    9  C9  UNL     1     -33.187   5.995   1.154  1.00 20.00     0.124 C 
HETATM   10 CL10 UNL     1     -31.709   5.031   1.016  1.00 20.00    -0.130 Cl
ENDBRANCH   7   9
TORSDOF 1
ENDMDL
MODEL 3
REMARK VINA RESULT:       2.0      2.202      3.490
REMARK  1 active torsions:
REMARK  status: ('A' for Active; 'I' for Inactive)
REMARK    1  A    between atoms: C7_7  and  C9_9 
ROOT
HETATM    1  C1  UNL     1     -33.886   7.248   4.904  1.00 20.00     0.005 C 
HETATM    2  C2  UNL     1     -33.953   8.280   3.768  1.00 20.00     0.006 C 
HETATM    3  C3  UNL     1     -35.404   6.507   3.227  1.00 20.00     0.010 C 
HETATM    4  C4  UNL     1     -33.290   5.403   3.305  1.00 20.00     0.015 C 
HETATM    5  C5  UNL     1     -34.392   5.960   4.230  1.00 20.00    -0.013 C 
HETATM    6  C6  UNL     1     -34.376   7.429   2.556  1.00 20.00    -0.005 C 
HETATM    7  C7  UNL     1     -33.254   6.426   2.136  1.00 20.00    -0.028 C 
HETATM    8  C8  UNL     1     -33.604   5.746   0.799  1.00 20.00     0.016 C 
ENDROOT
BRANCH   7   9
HETATM    9  C9  UNL     1     -31.867   7.064   1.986  1.00 20.00     0.124 C 
HETATM   10 CL10 UNL     1     -31.990   8.559   1.046  1.00 20.00    -0.130 Cl
ENDBRANCH   7   9
TORSDOF 1
ENDMDL
MODEL 4
REMARK VINA RESULT:       2.0      0.829      1.948
REMARK  1 active torsions:
REMARK  status: ('A' for Active; 'I' for Inactive)
REMARK    1  A    between atoms: C7_7  and  C9_9 
ROOT
HETATM    1  C1  UNL     1     -33.131   5.363   0.793  1.00 20.00     0.005 C 
HETATM    2  C2  UNL     1     -33.877   6.703   0.706  1.00 20.00     0.006 C 
HETATM    3  C3  UNL     1     -31.819   7.084   1.785  1.00 20.00     0.010 C 
HETATM    4  C4  UNL     1     -32.886   5.566   3.286  1.00 20.00     0.015 C 
HETATM    5  C5  UNL     1     -32.132   5.598   1.940  1.00 20.00    -0.013 C 
HETATM    6  C6  UNL     1     -33.294   7.497   1.890  1.00 20.00    -0.005 C 
HETATM    7  C7  UNL     1     -33.716   6.879   3.262  1.00 20.00    -0.028 C 
HETATM    8  C8  UNL     1     -33.313   7.806   4.424  1.00 20.00     0.016 C 
ENDROOT
BRANCH   7   9
HETATM    9  C9  UNL     1     -35.219   6.600   3.388  1.00 20.00     0.124 C 
HETATM   10 CL10 UNL     1     -35.490   5.251   4.501  1.00 20.00    -0.130 Cl
ENDBRANCH   7   9
TORSDOF 1
ENDMDL
MODEL 5
REMARK VINA RESULT:       2.2      1.165      1.524
REMARK  1 active torsions:
REMARK  status: ('A' for Active; 'I' for Inactive)
REMARK    1  A    between atoms: C7_7  and  C9_9 
ROOT
HETATM    1  C1  UNL     1     -32.325   7.715   2.544  1.00 20.00     0.005 C 
HETATM    2  C2  UNL     1     -33.092   6.726   1.654  1.00 20.00     0.006 C 
HETATM    3  C3  UNL     1     -34.658   7.866   2.992  1.00 20.00     0.010 C 
HETATM    4  C4  UNL     1     -33.335   6.747   4.632  1.00 20.00     0.015 C 
HETATM    5  C5  UNL     1     -33.310   7.976   3.699  1.00 20.00    -0.013 C 
HETATM    6  C6  UNL     1     -34.371   6.453   2.468  1.00 20.00    -0.005 C 
HETATM    7  C7  UNL     1     -34.059   5.667   3.782  1.00 20.00    -0.028 C 
HETATM    8  C8  UNL     1     -35.362   5.212   4.466  1.00 20.00     0.016 C 
ENDROOT
BRANCH   7   9
HETATM    9  C9  UNL     1     -33.181   4.425   3.578  1.00 20.00     0.124 C 
HETATM   10 CL10 UNL     1     -33.569   3.205   4.799  1.00 20.00    -0.130 Cl
ENDBRANCH   7   9
TORSDOF 1
ENDMDL
MODEL 6
REMARK VINA RESULT:       2.3      1.571      2.986
REMARK  1 active torsions:
REMARK  status: ('A' for Active; 'I' for Inactive)
REMARK    1  A    between atoms: C7_7  and  C9_9 
ROOT
HETATM    1  C1  UNL     1     -33.069   5.009   2.906  1.00 20.00     0.005 C 
HETATM    2  C2  UNL     1     -34.019   6.154   3.288  1.00 20.00     0.006 C 
HETATM    3  C3  UNL     1     -33.770   6.165   0.947  1.00 20.00     0.010 C 
HETATM    4  C4  UNL     1     -31.537   6.578   1.680  1.00 20.00     0.015 C 
HETATM    5  C5  UNL     1     -32.558   5.433   1.517  1.00 20.00    -0.013 C 
HETATM    6  C6  UNL     1     -33.843   7.147   2.124  1.00 20.00    -0.005 C 
HETATM    7  C7  UNL     1     -32.415   7.782   2.119  1.00 20.00    -0.028 C 
HETATM    8  C8  UNL     1     -32.332   8.927   1.092  1.00 20.00     0.016 C 
ENDROOT
BRANCH   7   9
HETATM    9  C9  UNL     1     -31.972   8.340   3.478  1.00 20.00     0.124 C 
HETATM   10 CL10 UNL     1     -33.320   8.280   4.622  1.00 20.00    -0.130 Cl
ENDBRANCH   7   9
TORSDOF 1
ENDMDL
MODEL 7
REMARK VINA RESULT:       2.5      1.464      2.457
REMARK  1 active torsions:
REMARK  status: ('A' for Active; 'I' for Inactive)
REMARK    1  A    between atoms: C7_7  and  C9_9 
ROOT
HETATM    1  C1  UNL     1     -32.538   7.893   0.841  1.00 20.00     0.005 C 
HETATM    2  C2  UNL     1     -31.972   7.978   2.267  1.00 20.00     0.006 C 
HETATM    3  C3  UNL     1     -31.891   5.726   1.586  1.00 20.00     0.010 C 
HETATM    4  C4  UNL     1     -34.235   6.172   1.528  1.00 20.00     0.015 C 
HETATM    5  C5  UNL     1     -32.943   6.413   0.719  1.00 20.00    -0.013 C 
HETATM    6  C6  UNL     1     -32.233   6.566   2.824  1.00 20.00    -0.005 C 
HETATM    7  C7  UNL     1     -33.761   6.291   3.003  1.00 20.00    -0.028 C 
HETATM    8  C8  UNL     1     -33.991   4.970   3.762  1.00 20.00     0.016 C 
ENDROOT
BRANCH   7   9
HETATM    9  C9  UNL     1     -34.514   7.397   3.752  1.00 20.00     0.124 C 
HETATM   10 CL10 UNL     1     -33.528   7.996   5.094  1.00 20.00    -0.130 Cl
ENDBRANCH   7   9
TORSDOF 1
ENDMDL
MODEL 8
REMARK VINA RESULT:       2.6      0.968      2.248
REMARK  1 active torsions:
REMARK  status: ('A' for Active; 'I' for Inactive)
REMARK    1  A    between atoms: C7_7  and  C9_9 
ROOT
HETATM    1  C1  UNL     1     -32.487   8.571   1.026  1.00 20.00     0.005 C 
HETATM    2  C2  UNL     1     -32.007   8.489   2.483  1.00 20.00     0.006 C 
HETATM    3  C3  UNL     1     -31.441   6.468   1.416  1.00 20.00     0.010 C 
HETATM    4  C4  UNL     1     -33.823   6.455   1.261  1.00 20.00     0.015 C 
HETATM    5  C5  UNL     1     -32.577   7.092   0.609  1.00 20.00    -0.013 C 
HETATM    6  C6  UNL     1     -31.995   6.973   2.755  1.00 20.00    -0.005 C 
HETATM    7  C7  UNL     1     -33.440   6.379   2.764  1.00 20.00    -0.028 C 
HETATM    8  C8  UNL     1     -33.425   4.918   3.254  1.00 20.00     0.016 C 
ENDROOT
BRANCH   7   9
HETATM    9  C9  UNL     1     -34.433   7.154   3.640  1.00 20.00     0.124 C 
HETATM   10 CL10 UNL     1     -35.616   6.040   4.342  1.00 20.00    -0.130 Cl
ENDBRANCH   7   9
TORSDOF 1
ENDMDL
MODEL 9
REMARK VINA RESULT:       2.7      1.944      2.881
REMARK  1 active torsions:
REMARK  status: ('A' for Active; 'I' for Inactive)
REMARK    1  A    between atoms: C7_7  and  C9_9 
ROOT
HETATM    1  C1  UNL     1     -32.738   7.812   4.376  1.00 20.00     0.005 C 
HETATM    2  C2  UNL     1     -32.000   8.252   3.103  1.00 20.00     0.006 C 
HETATM    3  C3  UNL     1     -34.301   8.160   2.614  1.00 20.00     0.010 C 
HETATM    4  C4  UNL     1     -33.828   5.890   3.179  1.00 20.00     0.015 C 
HETATM    5  C5  UNL     1     -34.071   7.267   3.831  1.00 20.00    -0.013 C 
HETATM    6  C6  UNL     1     -32.951   7.797   1.980  1.00 20.00    -0.005 C 
HETATM    7  C7  UNL     1     -33.032   6.239   1.891  1.00 20.00    -0.028 C 
HETATM    8  C8  UNL     1     -33.807   5.806   0.632  1.00 20.00     0.016 C 
ENDROOT
BRANCH   7   9
HETATM    9  C9  UNL     1     -31.667   5.540   1.862  1.00 20.00     0.124 C 
HETATM   10 CL10 UNL     1     -31.534   4.536   0.411  1.00 20.00    -0.130 Cl
ENDBRANCH   7   9
TORSDOF 1
ENDMDL
