MODEL 1
REMARK VINA RESULT:      -2.3      0.000      0.000
REMARK  4 active torsions:
REMARK  status: ('A' for Active; 'I' for Inactive)
REMARK    1  A    between atoms: C4_4  and  C5_5 
REMARK    2  A    between atoms: C5_5  and  C7_7 
REMARK    3  A    between atoms: C6_6  and  O9_9 
REMARK    4  A    between atoms: C7_7  and  O9_9 
ROOT
HETATM    1  C1  UNL     1     -32.625   6.053   1.592  1.00 20.00     0.091 C 
HETATM    2  C7  UNL     1     -32.983   7.366   2.147  1.00 20.00     0.227 C 
HETATM    3  N8  UNL     1     -32.344   5.016   1.153  1.00 20.00    -0.195 NA
ENDROOT
BRANCH   2   4
HETATM    4  C5  UNL     1     -31.915   8.424   1.858  1.00 20.00     0.046 C 
BRANCH   4   5
HETATM    5  C4  UNL     1     -31.923   8.905   0.405  1.00 20.00    -0.001 C 
HETATM    6  C2  UNL     1     -32.589  10.267   0.275  1.00 20.00     0.005 C 
ENDBRANCH   4   5
ENDBRANCH   2   4
BRANCH   2   7
HETATM    7  O9  UNL     1     -33.114   7.259   3.564  1.00 20.00    -0.372 OA
BRANCH   7   8
HETATM    8  C6  UNL     1     -34.451   7.498   3.978  1.00 20.00     0.165 C 
HETATM    9  C3  UNL     1     -35.190   6.178   4.042  1.00 20.00     0.033 C 
ENDBRANCH   7   8
ENDBRANCH   2   7
TORSDOF 4
ENDMDL
MODEL 2
REMARK VINA RESULT:      -2.1      1.187      3.696
REMARK  4 active torsions:
REMARK  status: ('A' for Active; 'I' for Inactive)
REMARK    1  A    between atoms: C4_4  and  C5_5 
REMARK    2  A    between atoms: C5_5  and  C7_7 
REMARK    3  A    between atoms: C6_6  and  O9_9 
REMARK    4  A    between atoms: C7_7  and  O9_9 
ROOT
HETATM    1  C1  UNL     1     -32.363   6.114   1.543  1.00 20.00     0.091 C 
HETATM    2  C7  UNL     1     -32.212   7.433   2.171  1.00 20.00     0.227 C 
HETATM    3  N8  UNL     1     -32.481   5.070   1.048  1.00 20.00    -0.195 NA
ENDROOT
BRANCH   2   4
HETATM    4  C5  UNL     1     -33.545   7.980   2.688  1.00 20.00     0.046 C 
BRANCH   4   5
HETATM    5  C4  UNL     1     -33.956   7.386   4.038  1.00 20.00    -0.001 C 
HETATM    6  C2  UNL     1     -35.102   6.397   3.883  1.00 20.00     0.005 C 
ENDBRANCH   4   5
ENDBRANCH   2   4
BRANCH   2   7
HETATM    7  O9  UNL     1     -31.710   8.359   1.208  1.00 20.00    -0.372 OA
BRANCH   7   8
HETATM    8  C6  UNL     1     -32.548   9.499   1.102  1.00 20.00     0.165 C 
HETATM    9  C3  UNL     1     -32.600   9.940  -0.346  1.00 20.00     0.033 C 
ENDBRANCH   7   8
ENDBRANCH   2   7
TORSDOF 4
ENDMDL
MODEL 3
REMARK VINA RESULT:      -1.7      2.568      4.928
REMARK  4 active torsions:
REMARK  status: ('A' for Active; 'I' for Inactive)
REMARK    1  A    between atoms: C4_4  and  C5_5 
REMARK    2  A    between atoms: C5_5  and  C7_7 
REMARK    3  A    between atoms: C6_6  and  O9_9 
REMARK    4  A    between atoms: C7_7  and  O9_9 
ROOT
HETATM    1  C1  UNL     1     -34.144   7.222   4.096  1.00 20.00     0.091 C 
HETATM    2  C7  UNL     1     -34.323   5.970   3.350  1.00 20.00     0.227 C 
HETATM    3  N8  UNL     1     -34.004   8.213   4.684  1.00 20.00    -0.195 NA
ENDROOT
BRANCH   2   4
HETATM    4  C5  UNL     1     -34.552   4.774   4.278  1.00 20.00     0.046 C 
BRANCH   4   5
HETATM    5  C4  UNL     1     -33.692   3.560   3.918  1.00 20.00    -0.001 C 
HETATM    6  C2  UNL     1     -33.014   2.976   5.149  1.00 20.00     0.005 C 
ENDBRANCH   4   5
ENDBRANCH   2   4
BRANCH   2   7
HETATM    7  O9  UNL     1     -33.148   5.704   2.584  1.00 20.00    -0.372 OA
BRANCH   7   8
HETATM    8  C6  UNL     1     -33.044   6.587   1.478  1.00 20.00     0.165 C 
HETATM    9  C3  UNL     1     -31.871   7.519   1.700  1.00 20.00     0.033 C 
ENDBRANCH   7   8
ENDBRANCH   2   7
TORSDOF 4
ENDMDL
MODEL 4
REMARK VINA RESULT:      -1.7      2.063      3.826
REMARK  4 active torsions:
REMARK  status: ('A' for Active; 'I' for Inactive)
REMARK    1  A    between atoms: C4_4  and  C5_5 
REMARK    2  A    between atoms: C5_5  and  C7_7 
REMARK    3  A    between atoms: C6_6  and  O9_9 
REMARK    4  A    between atoms: C7_7  and  O9_9 
ROOT
HETATM    1  C1  UNL     1     -33.718   4.243   3.939  1.00 20.00     0.091 C 
HETATM    2  C7  UNL     1     -33.617   5.626   3.454  1.00 20.00     0.227 C 
HETATM    3  N8  UNL     1     -33.795   3.150   4.323  1.00 20.00    -0.195 NA
ENDROOT
BRANCH   2   4
HETATM    4  C5  UNL     1     -34.837   6.464   3.847  1.00 20.00     0.046 C 
BRANCH   4   5
HETATM    5  C4  UNL     1     -34.498   7.934   4.101  1.00 20.00    -0.001 C 
HETATM    6  C2  UNL     1     -33.253   8.076   4.964  1.00 20.00     0.005 C 
ENDBRANCH   4   5
ENDBRANCH   2   4
BRANCH   2   7
HETATM    7  O9  UNL     1     -33.536   5.621   2.029  1.00 20.00    -0.372 OA
BRANCH   7   8
HETATM    8  C6  UNL     1     -32.214   5.888   1.587  1.00 20.00     0.165 C 
HETATM    9  C3  UNL     1     -31.972   7.382   1.629  1.00 20.00     0.033 C 
ENDBRANCH   7   8
ENDBRANCH   2   7
TORSDOF 4
ENDMDL
MODEL 5
REMARK VINA RESULT:      -1.6      2.182      3.450
REMARK  4 active torsions:
REMARK  status: ('A' for Active; 'I' for Inactive)
REMARK    1  A    between atoms: C4_4  and  C5_5 
REMARK    2  A    between atoms: C5_5  and  C7_7 
REMARK    3  A    between atoms: C6_6  and  O9_9 
REMARK    4  A    between atoms: C7_7  and  O9_9 
ROOT
HETATM    1  C1  UNL     1     -32.784   6.710   2.052  1.00 20.00     0.091 C 
HETATM    2  C7  UNL     1     -33.799   5.818   2.628  1.00 20.00     0.227 C 
HETATM    3  N8  UNL     1     -31.983   7.415   1.594  1.00 20.00    -0.195 NA
ENDROOT
BRANCH   2   4
HETATM    4  C5  UNL     1     -34.566   6.484   3.774  1.00 20.00     0.046 C 
BRANCH   4   5
HETATM    5  C4  UNL     1     -34.175   7.947   3.989  1.00 20.00    -0.001 C 
HETATM    6  C2  UNL     1     -33.245   8.103   5.183  1.00 20.00     0.005 C 
ENDBRANCH   4   5
ENDBRANCH   2   4
BRANCH   2   7
HETATM    7  O9  UNL     1     -33.160   4.655   3.154  1.00 20.00    -0.372 OA
BRANCH   7   8
HETATM    8  C6  UNL     1     -33.972   4.016   4.127  1.00 20.00     0.165 C 
HETATM    9  C3  UNL     1     -33.173   2.913   4.789  1.00 20.00     0.033 C 
ENDBRANCH   7   8
ENDBRANCH   2   7
TORSDOF 4
ENDMDL
MODEL 6
REMARK VINA RESULT:      -1.6      2.474      4.750
REMARK  4 active torsions:
REMARK  status: ('A' for Active; 'I' for Inactive)
REMARK    1  A    between atoms: C4_4  and  C5_5 
REMARK    2  A    between atoms: C5_5  and  C7_7 
REMARK    3  A    between atoms: C6_6  and  O9_9 
REMARK    4  A    between atoms: C7_7  and  O9_9 
ROOT
HETATM    1  C1  UNL     1     -33.979   7.007   3.580  1.00 20.00     0.091 C 
HETATM    2  C7  UNL     1     -33.693   6.024   2.526  1.00 20.00     0.227 C 
HETATM    3  N8  UNL     1     -34.206   7.784   4.412  1.00 20.00    -0.195 NA
ENDROOT
BRANCH   2   4
HETATM    4  C5  UNL     1     -33.077   4.740   3.089  1.00 20.00     0.046 C 
BRANCH   4   5
HETATM    5  C4  UNL     1     -33.956   4.064   4.144  1.00 20.00    -0.001 C 
HETATM    6  C2  UNL     1     -33.228   2.909   4.814  1.00 20.00     0.005 C 
ENDBRANCH   4   5
ENDBRANCH   2   4
BRANCH   2   7
HETATM    7  O9  UNL     1     -32.761   6.582   1.601  1.00 20.00    -0.372 OA
BRANCH   7   8
HETATM    8  C6  UNL     1     -32.172   7.767   2.114  1.00 20.00     0.165 C 
HETATM    9  C3  UNL     1     -32.064   8.787   0.999  1.00 20.00     0.033 C 
ENDBRANCH   7   8
ENDBRANCH   2   7
TORSDOF 4
ENDMDL
MODEL 7
REMARK VINA RESULT:      -1.6      2.516      2.994
REMARK  4 active torsions:
REMARK  status: ('A' for Active; 'I' for Inactive)
REMARK    1  A    between atoms: C4_4  and  C5_5 
REMARK    2  A    between atoms: C5_5  and  C7_7 
REMARK    3  A    between atoms: C6_6  and  O9_9 
REMARK    4  A    between atoms: C7_7  and  O9_9 
ROOT
HETATM    1  C1  UNL     1     -34.671   6.338   3.570  1.00 20.00     0.091 C 
HETATM    2  C7  UNL     1     -33.306   5.967   3.172  1.00 20.00     0.227 C 
HETATM    3  N8  UNL     1     -35.748   6.632   3.886  1.00 20.00    -0.195 NA
ENDROOT
BRANCH   2   4
HETATM    4  C5  UNL     1     -32.939   6.517   1.792  1.00 20.00     0.046 C 
BRANCH   4   5
HETATM    5  C4  UNL     1     -31.908   7.647   1.850  1.00 20.00    -0.001 C 
HETATM    6  C2  UNL     1     -32.327   8.826   0.984  1.00 20.00     0.005 C 
ENDBRANCH   4   5
ENDBRANCH   2   4
BRANCH   2   7
HETATM    7  O9  UNL     1     -33.203   4.544   3.112  1.00 20.00    -0.372 OA
BRANCH   7   8
HETATM    8  C6  UNL     1     -33.926   3.930   4.167  1.00 20.00     0.165 C 
HETATM    9  C3  UNL     1     -33.059   2.864   4.804  1.00 20.00     0.033 C 
ENDBRANCH   7   8
ENDBRANCH   2   7
TORSDOF 4
ENDMDL
MODEL 8
REMARK VINA RESULT:      -1.6      2.051      3.730
REMARK  4 active torsions:
REMARK  status: ('A' for Active; 'I' for Inactive)
REMARK    1  A    between atoms: C4_4  and  C5_5 
REMARK    2  A    between atoms: C5_5  and  C7_7 
REMARK    3  A    between atoms: C6_6  and  O9_9 
REMARK    4  A    between atoms: C7_7  and  O9_9 
ROOT
HETATM    1  C1  UNL     1     -32.503   8.971   1.087  1.00 20.00     0.091 C 
HETATM    2  C7  UNL     1     -32.654   7.723   1.849  1.00 20.00     0.227 C 
HETATM    3  N8  UNL     1     -32.386   9.956   0.485  1.00 20.00    -0.195 NA
ENDROOT
BRANCH   2   4
HETATM    4  C5  UNL     1     -32.637   7.966   3.360  1.00 20.00     0.046 C 
BRANCH   4   5
HETATM    5  C4  UNL     1     -34.025   7.881   3.998  1.00 20.00    -0.001 C 
HETATM    6  C2  UNL     1     -34.639   6.502   3.808  1.00 20.00     0.005 C 
ENDBRANCH   4   5
ENDBRANCH   2   4
BRANCH   2   7
HETATM    7  O9  UNL     1     -31.570   6.848   1.539  1.00 20.00    -0.372 OA
BRANCH   7   8
HETATM    8  C6  UNL     1     -31.987   5.491   1.538  1.00 20.00     0.165 C 
HETATM    9  C3  UNL     1     -33.194   5.347   0.634  1.00 20.00     0.033 C 
ENDBRANCH   7   8
ENDBRANCH   2   7
TORSDOF 4
ENDMDL
MODEL 9
REMARK VINA RESULT:      -1.4      1.924      3.057
REMARK  4 active torsions:
REMARK  status: ('A' for Active; 'I' for Inactive)
REMARK    1  A    between atoms: C4_4  and  C5_5 
REMARK    2  A    between atoms: C5_5  and  C7_7 
REMARK    3  A    between atoms: C6_6  and  O9_9 
REMARK    4  A    between atoms: C7_7  and  O9_9 
ROOT
HETATM    1  C1  UNL     1     -32.360   9.096   1.032  1.00 20.00     0.091 C 
HETATM    2  C7  UNL     1     -32.358   8.114   2.124  1.00 20.00     0.227 C 
HETATM    3  N8  UNL     1     -32.361   9.874   0.170  1.00 20.00    -0.195 NA
ENDROOT
BRANCH   2   4
HETATM    4  C5  UNL     1     -31.698   6.795   1.711  1.00 20.00     0.046 C 
BRANCH   4   5
HETATM    5  C4  UNL     1     -32.701   5.751   1.215  1.00 20.00    -0.001 C 
HETATM    6  C2  UNL     1     -31.999   4.595   0.517  1.00 20.00     0.005 C 
ENDBRANCH   4   5
ENDBRANCH   2   4
BRANCH   2   7
HETATM    7  O9  UNL     1     -33.704   7.824   2.501  1.00 20.00    -0.372 OA
BRANCH   7   8
HETATM    8  C6  UNL     1     -33.796   7.505   3.880  1.00 20.00     0.165 C 
HETATM    9  C3  UNL     1     -34.925   6.516   4.084  1.00 20.00     0.033 C 
ENDBRANCH   7   8
ENDBRANCH   2   7
TORSDOF 4
ENDMDL
