MODEL 1
REMARK VINA RESULT:      -2.8      0.000      0.000
REMARK  4 active torsions:
REMARK  status: ('A' for Active; 'I' for Inactive)
REMARK    1  A    between atoms: C3_3  and  C5_5 
REMARK    2  A    between atoms: C4_4  and  C7_7 
REMARK    3  A    between atoms: C5_5  and  C7_7 
REMARK    4  A    between atoms: C6_6  and  C7_7 
ROOT
HETATM    1  C7  UNL     1     -33.292   7.210   2.213  1.00 20.00    -0.001 C 
ENDROOT
BRANCH   1   2
HETATM    2  C4  UNL     1     -33.854   7.431   3.637  1.00 20.00     0.001 C 
HETATM    3  C2  UNL     1     -35.014   6.508   3.988  1.00 20.00     0.005 C 
ENDBRANCH   1   2
BRANCH   1   4
HETATM    4  C5  UNL     1     -32.001   8.029   1.981  1.00 20.00     0.005 C 
BRANCH   4   5
HETATM    5  C3  UNL     1     -31.878   8.716   0.617  1.00 20.00    -0.004 C 
HETATM    6  C1  UNL     1     -32.598  10.053   0.544  1.00 20.00     0.005 C 
ENDBRANCH   4   5
ENDBRANCH   1   4
BRANCH   1   7
HETATM    7  C6  UNL     1     -33.131   5.704   1.928  1.00 20.00     0.119 C 
HETATM    8 CL8  UNL     1     -31.632   5.301   1.055  1.00 20.00    -0.130 Cl
ENDBRANCH   1   7
TORSDOF 4
ENDMDL
MODEL 2
REMARK VINA RESULT:      -2.6      1.774      3.999
REMARK  4 active torsions:
REMARK  status: ('A' for Active; 'I' for Inactive)
REMARK    1  A    between atoms: C3_3  and  C5_5 
REMARK    2  A    between atoms: C4_4  and  C7_7 
REMARK    3  A    between atoms: C5_5  and  C7_7 
REMARK    4  A    between atoms: C6_6  and  C7_7 
ROOT
HETATM    1  C7  UNL     1     -33.272   7.141   2.138  1.00 20.00    -0.001 C 
ENDROOT
BRANCH   1   2
HETATM    2  C4  UNL     1     -33.101   5.685   1.644  1.00 20.00     0.001 C 
HETATM    3  C2  UNL     1     -31.711   5.384   1.097  1.00 20.00     0.005 C 
ENDBRANCH   1   2
BRANCH   1   4
HETATM    4  C5  UNL     1     -33.743   7.187   3.610  1.00 20.00     0.005 C 
BRANCH   4   5
HETATM    5  C3  UNL     1     -35.134   6.606   3.888  1.00 20.00    -0.004 C 
HETATM    6  C1  UNL     1     -35.101   5.185   4.427  1.00 20.00     0.005 C 
ENDBRANCH   4   5
ENDBRANCH   1   4
BRANCH   1   7
HETATM    7  C6  UNL     1     -31.988   7.952   1.872  1.00 20.00     0.119 C 
HETATM    8 CL8  UNL     1     -32.212   9.272   0.697  1.00 20.00    -0.130 Cl
ENDBRANCH   1   7
TORSDOF 4
ENDMDL
MODEL 3
REMARK VINA RESULT:      -2.6      1.778      2.573
REMARK  4 active torsions:
REMARK  status: ('A' for Active; 'I' for Inactive)
REMARK    1  A    between atoms: C3_3  and  C5_5 
REMARK    2  A    between atoms: C4_4  and  C7_7 
REMARK    3  A    between atoms: C5_5  and  C7_7 
REMARK    4  A    between atoms: C6_6  and  C7_7 
ROOT
HETATM    1  C7  UNL     1     -32.690   7.201   2.739  1.00 20.00    -0.001 C 
ENDROOT
BRANCH   1   2
HETATM    2  C4  UNL     1     -33.190   6.186   1.684  1.00 20.00     0.001 C 
HETATM    3  C2  UNL     1     -32.119   5.204   1.224  1.00 20.00     0.005 C 
ENDBRANCH   1   2
BRANCH   1   4
HETATM    4  C5  UNL     1     -31.935   8.377   2.078  1.00 20.00     0.005 C 
BRANCH   4   5
HETATM    5  C3  UNL     1     -32.356   8.726   0.646  1.00 20.00    -0.004 C 
HETATM    6  C1  UNL     1     -32.528  10.218   0.410  1.00 20.00     0.005 C 
ENDBRANCH   4   5
ENDBRANCH   1   4
BRANCH   1   7
HETATM    7  C6  UNL     1     -33.852   7.643   3.651  1.00 20.00     0.119 C 
HETATM    8 CL8  UNL     1     -35.091   6.385   3.885  1.00 20.00    -0.130 Cl
ENDBRANCH   1   7
TORSDOF 4
ENDMDL
MODEL 4
REMARK VINA RESULT:      -2.4      2.486      3.245
REMARK  4 active torsions:
REMARK  status: ('A' for Active; 'I' for Inactive)
REMARK    1  A    between atoms: C3_3  and  C5_5 
REMARK    2  A    between atoms: C4_4  and  C7_7 
REMARK    3  A    between atoms: C5_5  and  C7_7 
REMARK    4  A    between atoms: C6_6  and  C7_7 
ROOT
HETATM    1  C7  UNL     1     -33.694   5.549   3.445  1.00 20.00    -0.001 C 
ENDROOT
BRANCH   1   2
HETATM    2  C4  UNL     1     -34.227   4.161   3.873  1.00 20.00     0.001 C 
HETATM    3  C2  UNL     1     -33.187   3.295   4.572  1.00 20.00     0.005 C 
ENDBRANCH   1   2
BRANCH   1   4
HETATM    4  C5  UNL     1     -33.341   5.579   1.940  1.00 20.00     0.005 C 
BRANCH   4   5
HETATM    5  C3  UNL     1     -31.993   6.211   1.578  1.00 20.00    -0.004 C 
HETATM    6  C1  UNL     1     -31.988   7.729   1.675  1.00 20.00     0.005 C 
ENDBRANCH   4   5
ENDBRANCH   1   4
BRANCH   1   7
HETATM    7  C6  UNL     1     -34.675   6.657   3.875  1.00 20.00     0.119 C 
HETATM    8 CL8  UNL     1     -33.887   8.026   4.698  1.00 20.00    -0.130 Cl
ENDBRANCH   1   7
TORSDOF 4
ENDMDL
MODEL 5
REMARK VINA RESULT:      -2.3      1.951      2.661
REMARK  4 active torsions:
REMARK  status: ('A' for Active; 'I' for Inactive)
REMARK    1  A    between atoms: C3_3  and  C5_5 
REMARK    2  A    between atoms: C4_4  and  C7_7 
REMARK    3  A    between atoms: C5_5  and  C7_7 
REMARK    4  A    between atoms: C6_6  and  C7_7 
ROOT
HETATM    1  C7  UNL     1     -34.460   6.110   3.386  1.00 20.00    -0.001 C 
ENDROOT
BRANCH   1   2
HETATM    2  C4  UNL     1     -34.625   7.491   4.065  1.00 20.00     0.001 C 
HETATM    3  C2  UNL     1     -33.410   7.923   4.877  1.00 20.00     0.005 C 
ENDBRANCH   1   2
BRANCH   1   4
HETATM    4  C5  UNL     1     -33.034   5.927   2.818  1.00 20.00     0.005 C 
BRANCH   4   5
HETATM    5  C3  UNL     1     -32.758   6.599   1.468  1.00 20.00    -0.004 C 
HETATM    6  C1  UNL     1     -31.894   7.845   1.575  1.00 20.00     0.005 C 
ENDBRANCH   4   5
ENDBRANCH   1   4
BRANCH   1   7
HETATM    7  C6  UNL     1     -34.894   4.985   4.346  1.00 20.00     0.119 C 
HETATM    8 CL8  UNL     1     -33.786   3.591   4.356  1.00 20.00    -0.130 Cl
ENDBRANCH   1   7
TORSDOF 4
ENDMDL
MODEL 6
REMARK VINA RESULT:      -2.3      2.218      4.273
REMARK  4 active torsions:
REMARK  status: ('A' for Active; 'I' for Inactive)
REMARK    1  A    between atoms: C3_3  and  C5_5 
REMARK    2  A    between atoms: C4_4  and  C7_7 
REMARK    3  A    between atoms: C5_5  and  C7_7 
REMARK    4  A    between atoms: C6_6  and  C7_7 
ROOT
HETATM    1  C7  UNL     1     -33.389   5.973   3.089  1.00 20.00    -0.001 C 
ENDROOT
BRANCH   1   2
HETATM    2  C4  UNL     1     -34.444   6.952   3.657  1.00 20.00     0.001 C 
HETATM    3  C2  UNL     1     -33.879   7.940   4.669  1.00 20.00     0.005 C 
ENDBRANCH   1   2
BRANCH   1   4
HETATM    4  C5  UNL     1     -33.879   4.509   3.162  1.00 20.00     0.005 C 
BRANCH   4   5
HETATM    5  C3  UNL     1     -34.012   3.915   4.569  1.00 20.00    -0.004 C 
HETATM    6  C1  UNL     1     -33.027   2.791   4.850  1.00 20.00     0.005 C 
ENDBRANCH   4   5
ENDBRANCH   1   4
BRANCH   1   7
HETATM    7  C6  UNL     1     -32.954   6.412   1.677  1.00 20.00     0.119 C 
HETATM    8 CL8  UNL     1     -31.864   7.820   1.673  1.00 20.00    -0.130 Cl
ENDBRANCH   1   7
TORSDOF 4
ENDMDL
MODEL 7
REMARK VINA RESULT:      -2.1      0.720      3.657
REMARK  4 active torsions:
REMARK  status: ('A' for Active; 'I' for Inactive)
REMARK    1  A    between atoms: C3_3  and  C5_5 
REMARK    2  A    between atoms: C4_4  and  C7_7 
REMARK    3  A    between atoms: C5_5  and  C7_7 
REMARK    4  A    between atoms: C6_6  and  C7_7 
ROOT
HETATM    1  C7  UNL     1     -32.815   7.096   2.891  1.00 20.00    -0.001 C 
ENDROOT
BRANCH   1   2
HETATM    2  C4  UNL     1     -32.070   8.386   2.474  1.00 20.00     0.001 C 
HETATM    3  C2  UNL     1     -32.223   8.731   0.998  1.00 20.00     0.005 C 
ENDBRANCH   1   2
BRANCH   1   4
HETATM    4  C5  UNL     1     -34.017   7.410   3.812  1.00 20.00     0.005 C 
BRANCH   4   5
HETATM    5  C3  UNL     1     -35.221   6.469   3.689  1.00 20.00    -0.004 C 
HETATM    6  C1  UNL     1     -35.053   5.165   4.453  1.00 20.00     0.005 C 
ENDBRANCH   4   5
ENDBRANCH   1   4
BRANCH   1   7
HETATM    7  C6  UNL     1     -33.187   6.265   1.648  1.00 20.00     0.119 C 
HETATM    8 CL8  UNL     1     -31.915   5.122   1.150  1.00 20.00    -0.130 Cl
ENDBRANCH   1   7
TORSDOF 4
ENDMDL
MODEL 8
REMARK VINA RESULT:      -2.1      2.623      4.753
REMARK  4 active torsions:
REMARK  status: ('A' for Active; 'I' for Inactive)
REMARK    1  A    between atoms: C3_3  and  C5_5 
REMARK    2  A    between atoms: C4_4  and  C7_7 
REMARK    3  A    between atoms: C5_5  and  C7_7 
REMARK    4  A    between atoms: C6_6  and  C7_7 
ROOT
HETATM    1  C7  UNL     1     -34.272   6.299   3.205  1.00 20.00    -0.001 C 
ENDROOT
BRANCH   1   2
HETATM    2  C4  UNL     1     -33.040   6.095   2.292  1.00 20.00     0.001 C 
HETATM    3  C2  UNL     1     -32.399   7.397   1.828  1.00 20.00     0.005 C 
ENDBRANCH   1   2
BRANCH   1   4
HETATM    4  C5  UNL     1     -34.385   5.175   4.260  1.00 20.00     0.005 C 
BRANCH   4   5
HETATM    5  C3  UNL     1     -33.824   3.809   3.849  1.00 20.00    -0.004 C 
HETATM    6  C1  UNL     1     -33.134   3.069   4.985  1.00 20.00     0.005 C 
ENDBRANCH   4   5
ENDBRANCH   1   4
BRANCH   1   7
HETATM    7  C6  UNL     1     -34.263   7.717   3.808  1.00 20.00     0.119 C 
HETATM    8 CL8  UNL     1     -33.181   7.888   5.212  1.00 20.00    -0.130 Cl
ENDBRANCH   1   7
TORSDOF 4
ENDMDL
MODEL 9
REMARK VINA RESULT:      -1.8      2.391      3.720
REMARK  4 active torsions:
REMARK  status: ('A' for Active; 'I' for Inactive)
REMARK    1  A    between atoms: C3_3  and  C5_5 
REMARK    2  A    between atoms: C4_4  and  C7_7 
REMARK    3  A    between atoms: C5_5  and  C7_7 
REMARK    4  A    between atoms: C6_6  and  C7_7 
ROOT
HETATM    1  C7  UNL     1     -33.678   5.387   3.445  1.00 20.00    -0.001 C 
ENDROOT
BRANCH   1   2
HETATM    2  C4  UNL     1     -33.304   5.559   1.953  1.00 20.00     0.001 C 
HETATM    3  C2  UNL     1     -32.197   6.579   1.714  1.00 20.00     0.005 C 
ENDBRANCH   1   2
BRANCH   1   4
HETATM    4  C5  UNL     1     -34.799   6.365   3.863  1.00 20.00     0.005 C 
BRANCH   4   5
HETATM    5  C3  UNL     1     -34.382   7.830   4.034  1.00 20.00    -0.004 C 
HETATM    6  C1  UNL     1     -33.219   8.022   4.994  1.00 20.00     0.005 C 
ENDBRANCH   4   5
ENDBRANCH   1   4
BRANCH   1   7
HETATM    7  C6  UNL     1     -33.997   3.910   3.751  1.00 20.00     0.119 C 
HETATM    8 CL8  UNL     1     -32.922   3.188   4.973  1.00 20.00    -0.130 Cl
ENDBRANCH   1   7
TORSDOF 4
ENDMDL
