MODEL 1
REMARK VINA RESULT:      -2.6      0.000      0.000
REMARK  5 active torsions:
REMARK  status: ('A' for Active; 'I' for Inactive)
REMARK    1  A    between atoms: C4_4  and  C7_7 
REMARK    2  A    between atoms: C4_4  and  C8_8 
REMARK    3  A    between atoms: C6_6  and  C9_9 
REMARK    4  A    between atoms: C8_8  and  N10_10 
REMARK    5  A    between atoms: C9_9  and  N10_10 
ROOT
HETATM    1  C1  UNL     1     -32.667  10.143  -0.234  1.00 20.00     0.012 C 
HETATM    2  C2  UNL     1     -32.358   9.452   0.698  1.00 20.00    -0.116 C 
HETATM    3  C6  UNL     1     -31.981   8.609   1.843  1.00 20.00     0.123 C 
ENDROOT
BRANCH   3   4
HETATM    4  C9  UNL     1     -31.856   7.139   1.454  1.00 20.00     0.282 C 
BRANCH   4   5
HETATM    5  N10 UNL     1     -33.150   6.475   1.512  1.00 20.00     0.088 N 
HETATM    6  H25 UNL     1     -33.366   6.076   0.601  1.00 20.00     0.316 HD
BRANCH   5   7
HETATM    7  C8  UNL     1     -33.143   5.410   2.510  1.00 20.00     0.302 C 
BRANCH   7   8
HETATM    8  C4  UNL     1     -34.151   5.632   3.612  1.00 20.00    -0.062 C 
HETATM    9  C3  UNL     1     -34.669   6.850   3.836  1.00 20.00     0.016 C 
BRANCH   8  10
HETATM   10  C7  UNL     1     -34.565   4.447   4.458  1.00 20.00     0.030 C 
HETATM   11  C5  UNL     1     -33.542   3.319   4.437  1.00 20.00     0.010 C 
ENDBRANCH   8  10
ENDBRANCH   7   8
ENDBRANCH   5   7
ENDBRANCH   4   5
ENDBRANCH   3   4
TORSDOF 5
ENDMDL
MODEL 2
REMARK VINA RESULT:      -2.4      1.034      1.949
REMARK  5 active torsions:
REMARK  status: ('A' for Active; 'I' for Inactive)
REMARK    1  A    between atoms: C4_4  and  C7_7 
REMARK    2  A    between atoms: C4_4  and  C8_8 
REMARK    3  A    between atoms: C6_6  and  C9_9 
REMARK    4  A    between atoms: C8_8  and  N10_10 
REMARK    5  A    between atoms: C9_9  and  N10_10 
ROOT
HETATM    1  C1  UNL     1     -32.653   9.907  -0.171  1.00 20.00     0.012 C 
HETATM    2  C2  UNL     1     -32.190   9.229   0.706  1.00 20.00    -0.116 C 
HETATM    3  C6  UNL     1     -31.624   8.403   1.782  1.00 20.00     0.123 C 
ENDROOT
BRANCH   3   4
HETATM    4  C9  UNL     1     -31.805   6.912   1.514  1.00 20.00     0.282 C 
BRANCH   4   5
HETATM    5  N10 UNL     1     -33.209   6.537   1.601  1.00 20.00     0.088 N 
HETATM    6  H25 UNL     1     -33.483   6.053   0.748  1.00 20.00     0.316 HD
BRANCH   5   7
HETATM    7  C8  UNL     1     -33.442   5.658   2.743  1.00 20.00     0.302 C 
BRANCH   7   8
HETATM    8  C4  UNL     1     -34.445   6.222   3.721  1.00 20.00    -0.062 C 
HETATM    9  C3  UNL     1     -35.332   5.422   4.334  1.00 20.00     0.016 C 
BRANCH   8  10
HETATM   10  C7  UNL     1     -34.427   7.711   3.994  1.00 20.00     0.030 C 
HETATM   11  C5  UNL     1     -33.350   8.115   4.992  1.00 20.00     0.010 C 
ENDBRANCH   8  10
ENDBRANCH   7   8
ENDBRANCH   5   7
ENDBRANCH   4   5
ENDBRANCH   3   4
TORSDOF 5
ENDMDL
MODEL 3
REMARK VINA RESULT:      -2.4      1.179      5.315
REMARK  5 active torsions:
REMARK  status: ('A' for Active; 'I' for Inactive)
REMARK    1  A    between atoms: C4_4  and  C7_7 
REMARK    2  A    between atoms: C4_4  and  C8_8 
REMARK    3  A    between atoms: C6_6  and  C9_9 
REMARK    4  A    between atoms: C8_8  and  N10_10 
REMARK    5  A    between atoms: C9_9  and  N10_10 
ROOT
HETATM    1  C1  UNL     1     -33.514   3.469   4.236  1.00 20.00     0.012 C 
HETATM    2  C2  UNL     1     -34.359   4.314   4.353  1.00 20.00    -0.116 C 
HETATM    3  C6  UNL     1     -35.394   5.348   4.500  1.00 20.00     0.123 C 
ENDROOT
BRANCH   3   4
HETATM    4  C9  UNL     1     -35.046   6.619   3.732  1.00 20.00     0.282 C 
BRANCH   4   5
HETATM    5  N10 UNL     1     -33.639   6.955   3.897  1.00 20.00     0.088 N 
HETATM    6  H25 UNL     1     -33.070   6.133   3.704  1.00 20.00     0.316 HD
BRANCH   5   7
HETATM    7  C8  UNL     1     -33.251   8.027   2.984  1.00 20.00     0.302 C 
BRANCH   7   8
HETATM    8  C4  UNL     1     -32.415   7.537   1.826  1.00 20.00    -0.062 C 
HETATM    9  C3  UNL     1     -32.394   6.236   1.494  1.00 20.00     0.016 C 
BRANCH   8  10
HETATM   10  C7  UNL     1     -31.601   8.548   1.048  1.00 20.00     0.030 C 
HETATM   11  C5  UNL     1     -32.464   9.585   0.341  1.00 20.00     0.010 C 
ENDBRANCH   8  10
ENDBRANCH   7   8
ENDBRANCH   5   7
ENDBRANCH   4   5
ENDBRANCH   3   4
TORSDOF 5
ENDMDL
MODEL 4
REMARK VINA RESULT:      -2.1      0.927      5.377
REMARK  5 active torsions:
REMARK  status: ('A' for Active; 'I' for Inactive)
REMARK    1  A    between atoms: C4_4  and  C7_7 
REMARK    2  A    between atoms: C4_4  and  C8_8 
REMARK    3  A    between atoms: C6_6  and  C9_9 
REMARK    4  A    between atoms: C8_8  and  N10_10 
REMARK    5  A    between atoms: C9_9  and  N10_10 
ROOT
HETATM    1  C1  UNL     1     -33.487   3.302   4.438  1.00 20.00     0.012 C 
HETATM    2  C2  UNL     1     -34.242   4.234   4.369  1.00 20.00    -0.116 C 
HETATM    3  C6  UNL     1     -35.169   5.372   4.287  1.00 20.00     0.123 C 
ENDROOT
BRANCH   3   4
HETATM    4  C9  UNL     1     -34.542   6.569   3.579  1.00 20.00     0.282 C 
BRANCH   4   5
HETATM    5  N10 UNL     1     -33.249   6.217   3.010  1.00 20.00     0.088 N 
HETATM    6  H25 UNL     1     -33.187   5.205   2.914  1.00 20.00     0.316 HD
BRANCH   5   7
HETATM    7  C8  UNL     1     -33.074   6.833   1.698  1.00 20.00     0.302 C 
BRANCH   7   8
HETATM    8  C4  UNL     1     -32.153   8.029   1.730  1.00 20.00    -0.062 C 
HETATM    9  C3  UNL     1     -31.619   8.455   2.886  1.00 20.00     0.016 C 
BRANCH   8  10
HETATM   10  C7  UNL     1     -31.848   8.738   0.428  1.00 20.00     0.030 C 
HETATM   11  C5  UNL     1     -32.554  10.082   0.306  1.00 20.00     0.010 C 
ENDBRANCH   8  10
ENDBRANCH   7   8
ENDBRANCH   5   7
ENDBRANCH   4   5
ENDBRANCH   3   4
TORSDOF 5
ENDMDL
MODEL 5
REMARK VINA RESULT:      -2.1      1.336      4.793
REMARK  5 active torsions:
REMARK  status: ('A' for Active; 'I' for Inactive)
REMARK    1  A    between atoms: C4_4  and  C7_7 
REMARK    2  A    between atoms: C4_4  and  C8_8 
REMARK    3  A    between atoms: C6_6  and  C9_9 
REMARK    4  A    between atoms: C8_8  and  N10_10 
REMARK    5  A    between atoms: C9_9  and  N10_10 
ROOT
HETATM    1  C1  UNL     1     -33.544   3.495   4.225  1.00 20.00     0.012 C 
HETATM    2  C2  UNL     1     -34.364   4.367   4.326  1.00 20.00    -0.116 C 
HETATM    3  C6  UNL     1     -35.368   5.433   4.453  1.00 20.00     0.123 C 
ENDROOT
BRANCH   3   4
HETATM    4  C9  UNL     1     -34.968   6.689   3.685  1.00 20.00     0.282 C 
BRANCH   4   5
HETATM    5  N10 UNL     1     -33.568   7.015   3.916  1.00 20.00     0.088 N 
HETATM    6  H25 UNL     1     -32.992   6.206   3.692  1.00 20.00     0.316 HD
BRANCH   5   7
HETATM    7  C8  UNL     1     -33.153   8.141   3.085  1.00 20.00     0.302 C 
BRANCH   7   8
HETATM    8  C4  UNL     1     -32.323   7.717   1.896  1.00 20.00    -0.062 C 
HETATM    9  C3  UNL     1     -31.939   8.611   0.971  1.00 20.00     0.016 C 
BRANCH   8  10
HETATM   10  C7  UNL     1     -31.935   6.259   1.773  1.00 20.00     0.030 C 
HETATM   11  C5  UNL     1     -32.876   5.471   0.872  1.00 20.00     0.010 C 
ENDBRANCH   8  10
ENDBRANCH   7   8
ENDBRANCH   5   7
ENDBRANCH   4   5
ENDBRANCH   3   4
TORSDOF 5
ENDMDL
MODEL 6
REMARK VINA RESULT:      -1.9      1.166      1.348
REMARK  5 active torsions:
REMARK  status: ('A' for Active; 'I' for Inactive)
REMARK    1  A    between atoms: C4_4  and  C7_7 
REMARK    2  A    between atoms: C4_4  and  C8_8 
REMARK    3  A    between atoms: C6_6  and  C9_9 
REMARK    4  A    between atoms: C8_8  and  N10_10 
REMARK    5  A    between atoms: C9_9  and  N10_10 
ROOT
HETATM    1  C1  UNL     1     -32.498  10.261   0.114  1.00 20.00     0.012 C 
HETATM    2  C2  UNL     1     -32.335   9.260   0.757  1.00 20.00    -0.116 C 
HETATM    3  C6  UNL     1     -32.133   8.033   1.541  1.00 20.00     0.123 C 
ENDROOT
BRANCH   3   4
HETATM    4  C9  UNL     1     -32.153   8.304   3.043  1.00 20.00     0.282 C 
BRANCH   4   5
HETATM    5  N10 UNL     1     -33.335   7.720   3.660  1.00 20.00     0.088 N 
HETATM    6  H25 UNL     1     -34.040   8.443   3.790  1.00 20.00     0.316 HD
BRANCH   5   7
HETATM    7  C8  UNL     1     -33.888   6.661   2.821  1.00 20.00     0.302 C 
BRANCH   7   8
HETATM    8  C4  UNL     1     -34.300   5.442   3.612  1.00 20.00    -0.062 C 
HETATM    9  C3  UNL     1     -35.400   5.460   4.380  1.00 20.00     0.016 C 
BRANCH   8  10
HETATM   10  C7  UNL     1     -33.442   4.199   3.517  1.00 20.00     0.030 C 
HETATM   11  C5  UNL     1     -33.531   3.322   4.759  1.00 20.00     0.010 C 
ENDBRANCH   8  10
ENDBRANCH   7   8
ENDBRANCH   5   7
ENDBRANCH   4   5
ENDBRANCH   3   4
TORSDOF 5
ENDMDL
MODEL 7
REMARK VINA RESULT:      -1.8      1.866      5.165
REMARK  5 active torsions:
REMARK  status: ('A' for Active; 'I' for Inactive)
REMARK    1  A    between atoms: C4_4  and  C7_7 
REMARK    2  A    between atoms: C4_4  and  C8_8 
REMARK    3  A    between atoms: C6_6  and  C9_9 
REMARK    4  A    between atoms: C8_8  and  N10_10 
REMARK    5  A    between atoms: C9_9  and  N10_10 
ROOT
HETATM    1  C1  UNL     1     -32.752   2.677   5.299  1.00 20.00     0.012 C 
HETATM    2  C2  UNL     1     -33.419   3.389   4.598  1.00 20.00    -0.116 C 
HETATM    3  C6  UNL     1     -34.235   4.257   3.736  1.00 20.00     0.123 C 
ENDROOT
BRANCH   3   4
HETATM    4  C9  UNL     1     -35.252   5.063   4.537  1.00 20.00     0.282 C 
BRANCH   4   5
HETATM    5  N10 UNL     1     -35.310   6.440   4.066  1.00 20.00     0.088 N 
HETATM    6  H25 UNL     1     -35.193   7.072   4.855  1.00 20.00     0.316 HD
BRANCH   5   7
HETATM    7  C8  UNL     1     -34.257   6.698   3.088  1.00 20.00     0.302 C 
BRANCH   7   8
HETATM    8  C4  UNL     1     -33.265   7.736   3.556  1.00 20.00    -0.062 C 
HETATM    9  C3  UNL     1     -33.304   8.209   4.812  1.00 20.00     0.016 C 
BRANCH   8  10
HETATM   10  C7  UNL     1     -32.224   8.231   2.574  1.00 20.00     0.030 C 
HETATM   11  C5  UNL     1     -31.940   7.231   1.460  1.00 20.00     0.010 C 
ENDBRANCH   8  10
ENDBRANCH   7   8
ENDBRANCH   5   7
ENDBRANCH   4   5
ENDBRANCH   3   4
TORSDOF 5
ENDMDL
MODEL 8
REMARK VINA RESULT:      -1.4      1.187      4.689
REMARK  5 active torsions:
REMARK  status: ('A' for Active; 'I' for Inactive)
REMARK    1  A    between atoms: C4_4  and  C7_7 
REMARK    2  A    between atoms: C4_4  and  C8_8 
REMARK    3  A    between atoms: C6_6  and  C9_9 
REMARK    4  A    between atoms: C8_8  and  N10_10 
REMARK    5  A    between atoms: C9_9  and  N10_10 
ROOT
HETATM    1  C1  UNL     1     -33.847   8.302   4.875  1.00 20.00     0.012 C 
HETATM    2  C2  UNL     1     -34.228   7.312   4.312  1.00 20.00    -0.116 C 
HETATM    3  C6  UNL     1     -34.699   6.102   3.621  1.00 20.00     0.123 C 
ENDROOT
BRANCH   3   4
HETATM    4  C9  UNL     1     -33.582   5.420   2.838  1.00 20.00     0.282 C 
BRANCH   4   5
HETATM    5  N10 UNL     1     -33.343   6.102   1.574  1.00 20.00     0.088 N 
HETATM    6  H25 UNL     1     -33.949   6.917   1.511  1.00 20.00     0.316 HD
BRANCH   5   7
HETATM    7  C8  UNL     1     -31.952   6.532   1.471  1.00 20.00     0.302 C 
BRANCH   7   8
HETATM    8  C4  UNL     1     -31.802   8.035   1.469  1.00 20.00    -0.062 C 
HETATM    9  C3  UNL     1     -31.404   8.689   2.572  1.00 20.00     0.016 C 
BRANCH   8  10
HETATM   10  C7  UNL     1     -32.112   8.787   0.192  1.00 20.00     0.030 C 
HETATM   11  C5  UNL     1     -32.543  10.226   0.444  1.00 20.00     0.010 C 
ENDBRANCH   8  10
ENDBRANCH   7   8
ENDBRANCH   5   7
ENDBRANCH   4   5
ENDBRANCH   3   4
TORSDOF 5
ENDMDL
MODEL 9
REMARK VINA RESULT:      -1.0      1.647      2.486
REMARK  5 active torsions:
REMARK  status: ('A' for Active; 'I' for Inactive)
REMARK    1  A    between atoms: C4_4  and  C7_7 
REMARK    2  A    between atoms: C4_4  and  C8_8 
REMARK    3  A    between atoms: C6_6  and  C9_9 
REMARK    4  A    between atoms: C8_8  and  N10_10 
REMARK    5  A    between atoms: C9_9  and  N10_10 
ROOT
HETATM    1  C1  UNL     1     -32.547   5.261   1.075  1.00 20.00     0.012 C 
HETATM    2  C2  UNL     1     -32.263   6.401   1.325  1.00 20.00    -0.116 C 
HETATM    3  C6  UNL     1     -31.913   7.797   1.625  1.00 20.00     0.123 C 
ENDROOT
BRANCH   3   4
HETATM    4  C9  UNL     1     -32.778   8.375   2.741  1.00 20.00     0.282 C 
BRANCH   4   5
HETATM    5  N10 UNL     1     -32.897   7.434   3.846  1.00 20.00     0.088 N 
HETATM    6  H25 UNL     1     -32.199   7.655   4.554  1.00 20.00     0.316 HD
BRANCH   5   7
HETATM    7  C8  UNL     1     -34.225   7.505   4.447  1.00 20.00     0.302 C 
BRANCH   7   8
HETATM    8  C4  UNL     1     -35.143   6.404   3.971  1.00 20.00    -0.062 C 
HETATM    9  C3  UNL     1     -36.005   6.615   2.964  1.00 20.00     0.016 C 
BRANCH   8  10
HETATM   10  C7  UNL     1     -35.068   5.057   4.658  1.00 20.00     0.030 C 
HETATM   11  C5  UNL     1     -34.018   4.140   4.046  1.00 20.00     0.010 C 
ENDBRANCH   8  10
ENDBRANCH   7   8
ENDBRANCH   5   7
ENDBRANCH   4   5
ENDBRANCH   3   4
TORSDOF 5
ENDMDL
