MODEL 1
REMARK VINA RESULT:      -1.6      0.000      0.000
REMARK  4 active torsions:
REMARK  status: ('A' for Active; 'I' for Inactive)
REMARK    1  A    between atoms: C3_3  and  C6_6 
REMARK    2  A    between atoms: C3_3  and  C7_7 
REMARK    3  A    between atoms: C6_6  and  C9_9 
REMARK    4  A    between atoms: C8_8  and  C9_9 
ROOT
HETATM    1  C1  UNL     1     -32.052   5.396   0.971  1.00 20.00     0.011 A 
HETATM    2  C2  UNL     1     -33.290   6.168   0.615  1.00 20.00     0.011 A 
HETATM    3  C3  UNL     1     -32.496   6.547   1.842  1.00 20.00    -0.027 A 
ENDROOT
BRANCH   3   4
HETATM    4  C6  UNL     1     -33.090   6.222   3.206  1.00 20.00     0.015 C 
BRANCH   4   5
HETATM    5  C9  UNL     1     -34.217   7.183   3.642  1.00 20.00    -0.018 C 
HETATM    6  C5  UNL     1     -33.759   8.117   4.765  1.00 20.00     0.010 C 
BRANCH   5   7
HETATM    7  C8  UNL     1     -35.447   6.350   4.060  1.00 20.00    -0.000 C 
HETATM    8  C4  UNL     1     -35.118   4.912   4.436  1.00 20.00     0.005 C 
ENDBRANCH   5   7
ENDBRANCH   4   5
ENDBRANCH   3   4
BRANCH   3   9
HETATM    9  C7  UNL     1     -31.692   7.817   1.798  1.00 20.00     0.124 C 
HETATM   10 CL10 UNL     1     -32.459   9.015   0.726  1.00 20.00    -0.130 Cl
ENDBRANCH   3   9
TORSDOF 4
ENDMDL
MODEL 2
REMARK VINA RESULT:      -1.5      2.285      4.475
REMARK  4 active torsions:
REMARK  status: ('A' for Active; 'I' for Inactive)
REMARK    1  A    between atoms: C3_3  and  C6_6 
REMARK    2  A    between atoms: C3_3  and  C7_7 
REMARK    3  A    between atoms: C6_6  and  C9_9 
REMARK    4  A    between atoms: C8_8  and  C9_9 
ROOT
HETATM    1  C1  UNL     1     -34.468   7.411   4.421  1.00 20.00     0.011 A 
HETATM    2  C2  UNL     1     -35.209   7.096   3.153  1.00 20.00     0.011 A 
HETATM    3  C3  UNL     1     -34.290   6.063   3.763  1.00 20.00    -0.027 A 
ENDROOT
BRANCH   3   4
HETATM    4  C6  UNL     1     -32.968   5.781   3.061  1.00 20.00     0.015 C 
BRANCH   4   5
HETATM    5  C9  UNL     1     -32.864   6.402   1.652  1.00 20.00    -0.018 C 
HETATM    6  C5  UNL     1     -32.481   5.355   0.601  1.00 20.00     0.010 C 
BRANCH   5   7
HETATM    7  C8  UNL     1     -31.850   7.564   1.693  1.00 20.00    -0.000 C 
HETATM    8  C4  UNL     1     -32.323   8.819   0.972  1.00 20.00     0.005 C 
ENDBRANCH   5   7
ENDBRANCH   4   5
ENDBRANCH   3   4
BRANCH   3   9
HETATM    9  C7  UNL     1     -34.915   4.866   4.424  1.00 20.00     0.124 C 
HETATM   10 CL10 UNL     1     -33.796   3.481   4.413  1.00 20.00    -0.130 Cl
ENDBRANCH   3   9
TORSDOF 4
ENDMDL
MODEL 3
REMARK VINA RESULT:      -1.1      0.871      1.345
REMARK  4 active torsions:
REMARK  status: ('A' for Active; 'I' for Inactive)
REMARK    1  A    between atoms: C3_3  and  C6_6 
REMARK    2  A    between atoms: C3_3  and  C7_7 
REMARK    3  A    between atoms: C6_6  and  C9_9 
REMARK    4  A    between atoms: C8_8  and  C9_9 
ROOT
HETATM    1  C1  UNL     1     -31.992   5.499   1.451  1.00 20.00     0.011 A 
HETATM    2  C2  UNL     1     -33.202   6.156   0.850  1.00 20.00     0.011 A 
HETATM    3  C3  UNL     1     -32.521   6.785   2.042  1.00 20.00    -0.027 A 
ENDROOT
BRANCH   3   4
HETATM    4  C6  UNL     1     -33.228   6.713   3.389  1.00 20.00     0.015 C 
BRANCH   4   5
HETATM    5  C9  UNL     1     -34.512   5.855   3.375  1.00 20.00    -0.018 C 
HETATM    6  C5  UNL     1     -35.768   6.718   3.524  1.00 20.00     0.010 C 
BRANCH   5   7
HETATM    7  C8  UNL     1     -34.414   4.794   4.491  1.00 20.00    -0.000 C 
HETATM    8  C4  UNL     1     -33.631   3.551   4.091  1.00 20.00     0.005 C 
ENDBRANCH   5   7
ENDBRANCH   4   5
ENDBRANCH   3   4
BRANCH   3   9
HETATM    9  C7  UNL     1     -31.727   8.042   1.820  1.00 20.00     0.124 C 
HETATM   10 CL10 UNL     1     -32.542   9.106   0.647  1.00 20.00    -0.130 Cl
ENDBRANCH   3   9
TORSDOF 4
ENDMDL
MODEL 4
REMARK VINA RESULT:      -0.9      2.068      3.808
REMARK  4 active torsions:
REMARK  status: ('A' for Active; 'I' for Inactive)
REMARK    1  A    between atoms: C3_3  and  C6_6 
REMARK    2  A    between atoms: C3_3  and  C7_7 
REMARK    3  A    between atoms: C6_6  and  C9_9 
REMARK    4  A    between atoms: C8_8  and  C9_9 
ROOT
HETATM    1  C1  UNL     1     -33.201   5.069   0.664  1.00 20.00     0.011 A 
HETATM    2  C2  UNL     1     -31.911   5.163   1.428  1.00 20.00     0.011 A 
HETATM    3  C3  UNL     1     -33.111   5.959   1.881  1.00 20.00    -0.027 A 
ENDROOT
BRANCH   3   4
HETATM    4  C6  UNL     1     -33.092   7.466   1.662  1.00 20.00     0.015 C 
BRANCH   4   5
HETATM    5  C9  UNL     1     -31.680   8.087   1.713  1.00 20.00    -0.018 C 
HETATM    6  C5  UNL     1     -31.433   8.819   3.035  1.00 20.00     0.010 C 
BRANCH   5   7
HETATM    7  C8  UNL     1     -31.504   9.025   0.501  1.00 20.00    -0.000 C 
HETATM    8  C4  UNL     1     -32.650  10.010   0.314  1.00 20.00     0.005 C 
ENDBRANCH   5   7
ENDBRANCH   4   5
ENDBRANCH   3   4
BRANCH   3   9
HETATM    9  C7  UNL     1     -33.819   5.518   3.131  1.00 20.00     0.124 C 
HETATM   10 CL10 UNL     1     -34.610   6.898   3.932  1.00 20.00    -0.130 Cl
ENDBRANCH   3   9
TORSDOF 4
ENDMDL
MODEL 5
REMARK VINA RESULT:      -0.8      2.380      4.296
REMARK  4 active torsions:
REMARK  status: ('A' for Active; 'I' for Inactive)
REMARK    1  A    between atoms: C3_3  and  C6_6 
REMARK    2  A    between atoms: C3_3  and  C7_7 
REMARK    3  A    between atoms: C6_6  and  C9_9 
REMARK    4  A    between atoms: C8_8  and  C9_9 
ROOT
HETATM    1  C1  UNL     1     -34.222   7.248   4.466  1.00 20.00     0.011 A 
HETATM    2  C2  UNL     1     -35.290   6.516   3.704  1.00 20.00     0.011 A 
HETATM    3  C3  UNL     1     -33.866   6.502   3.201  1.00 20.00    -0.027 A 
ENDROOT
BRANCH   3   4
HETATM    4  C6  UNL     1     -33.539   7.320   1.959  1.00 20.00     0.015 C 
BRANCH   4   5
HETATM    5  C9  UNL     1     -32.057   7.739   1.860  1.00 20.00    -0.018 C 
HETATM    6  C5  UNL     1     -31.634   8.603   3.051  1.00 20.00     0.010 C 
BRANCH   5   7
HETATM    7  C8  UNL     1     -31.834   8.470   0.519  1.00 20.00    -0.000 C 
HETATM    8  C4  UNL     1     -32.471   9.851   0.459  1.00 20.00     0.005 C 
ENDBRANCH   5   7
ENDBRANCH   4   5
ENDBRANCH   3   4
BRANCH   3   9
HETATM    9  C7  UNL     1     -33.085   5.224   3.332  1.00 20.00     0.124 C 
HETATM   10 CL10 UNL     1     -34.055   3.968   4.139  1.00 20.00    -0.130 Cl
ENDBRANCH   3   9
TORSDOF 4
ENDMDL
MODEL 6
REMARK VINA RESULT:      -0.8      1.623      4.097
REMARK  4 active torsions:
REMARK  status: ('A' for Active; 'I' for Inactive)
REMARK    1  A    between atoms: C3_3  and  C6_6 
REMARK    2  A    between atoms: C3_3  and  C7_7 
REMARK    3  A    between atoms: C6_6  and  C9_9 
REMARK    4  A    between atoms: C8_8  and  C9_9 
ROOT
HETATM    1  C1  UNL     1     -35.827   6.234   3.238  1.00 20.00     0.011 A 
HETATM    2  C2  UNL     1     -35.359   5.798   4.596  1.00 20.00     0.011 A 
HETATM    3  C3  UNL     1     -34.452   6.629   3.721  1.00 20.00    -0.027 A 
ENDROOT
BRANCH   3   4
HETATM    4  C6  UNL     1     -33.249   5.945   3.085  1.00 20.00     0.015 C 
BRANCH   4   5
HETATM    5  C9  UNL     1     -32.907   6.468   1.674  1.00 20.00    -0.018 C 
HETATM    6  C5  UNL     1     -32.407   5.344   0.762  1.00 20.00     0.010 C 
BRANCH   5   7
HETATM    7  C8  UNL     1     -31.868   7.602   1.801  1.00 20.00    -0.000 C 
HETATM    8  C4  UNL     1     -32.214   8.846   0.994  1.00 20.00     0.005 C 
ENDBRANCH   5   7
ENDBRANCH   4   5
ENDBRANCH   3   4
BRANCH   3   9
HETATM    9  C7  UNL     1     -34.224   8.065   4.104  1.00 20.00     0.124 C 
HETATM   10 CL10 UNL     1     -32.873   8.207   5.255  1.00 20.00    -0.130 Cl
ENDBRANCH   3   9
TORSDOF 4
ENDMDL
MODEL 7
REMARK VINA RESULT:      -0.8      1.693      2.474
REMARK  4 active torsions:
REMARK  status: ('A' for Active; 'I' for Inactive)
REMARK    1  A    between atoms: C3_3  and  C6_6 
REMARK    2  A    between atoms: C3_3  and  C7_7 
REMARK    3  A    between atoms: C6_6  and  C9_9 
REMARK    4  A    between atoms: C8_8  and  C9_9 
ROOT
HETATM    1  C1  UNL     1     -32.657   8.418   1.432  1.00 20.00     0.011 A 
HETATM    2  C2  UNL     1     -31.388   7.802   1.947  1.00 20.00     0.011 A 
HETATM    3  C3  UNL     1     -32.685   7.031   2.030  1.00 20.00    -0.027 A 
ENDROOT
BRANCH   3   4
HETATM    4  C6  UNL     1     -33.326   6.858   3.401  1.00 20.00     0.015 C 
BRANCH   4   5
HETATM    5  C9  UNL     1     -34.517   5.876   3.413  1.00 20.00    -0.018 C 
HETATM    6  C5  UNL     1     -35.850   6.607   3.595  1.00 20.00     0.010 C 
BRANCH   5   7
HETATM    7  C8  UNL     1     -34.286   4.828   4.522  1.00 20.00    -0.000 C 
HETATM    8  C4  UNL     1     -33.620   3.550   4.031  1.00 20.00     0.005 C 
ENDBRANCH   5   7
ENDBRANCH   4   5
ENDBRANCH   3   4
BRANCH   3   9
HETATM    9  C7  UNL     1     -32.873   5.865   1.100  1.00 20.00     0.124 C 
HETATM   10 CL10 UNL     1     -31.443   4.805   1.116  1.00 20.00    -0.130 Cl
ENDBRANCH   3   9
TORSDOF 4
ENDMDL
MODEL 8
REMARK VINA RESULT:      -0.6      0.737      1.865
REMARK  4 active torsions:
REMARK  status: ('A' for Active; 'I' for Inactive)
REMARK    1  A    between atoms: C3_3  and  C6_6 
REMARK    2  A    between atoms: C3_3  and  C7_7 
REMARK    3  A    between atoms: C6_6  and  C9_9 
REMARK    4  A    between atoms: C8_8  and  C9_9 
ROOT
HETATM    1  C1  UNL     1     -31.881   5.045   1.943  1.00 20.00     0.011 A 
HETATM    2  C2  UNL     1     -32.297   5.429   0.552  1.00 20.00     0.011 A 
HETATM    3  C3  UNL     1     -32.539   6.382   1.698  1.00 20.00    -0.027 A 
ENDROOT
BRANCH   3   4
HETATM    4  C6  UNL     1     -33.971   6.572   2.179  1.00 20.00     0.015 C 
BRANCH   4   5
HETATM    5  C9  UNL     1     -34.123   6.542   3.715  1.00 20.00    -0.018 C 
HETATM    6  C5  UNL     1     -35.365   5.757   4.144  1.00 20.00     0.010 C 
BRANCH   5   7
HETATM    7  C8  UNL     1     -34.156   7.992   4.241  1.00 20.00    -0.000 C 
HETATM    8  C4  UNL     1     -33.006   8.333   5.178  1.00 20.00     0.005 C 
ENDBRANCH   5   7
ENDBRANCH   4   5
ENDBRANCH   3   4
BRANCH   3   9
HETATM    9  C7  UNL     1     -31.683   7.615   1.782  1.00 20.00     0.124 C 
HETATM   10 CL10 UNL     1     -32.441   8.974   0.916  1.00 20.00    -0.130 Cl
ENDBRANCH   3   9
TORSDOF 4
ENDMDL
MODEL 9
REMARK VINA RESULT:      -0.5      1.840      4.053
REMARK  4 active torsions:
REMARK  status: ('A' for Active; 'I' for Inactive)
REMARK    1  A    between atoms: C3_3  and  C6_6 
REMARK    2  A    between atoms: C3_3  and  C7_7 
REMARK    3  A    between atoms: C6_6  and  C9_9 
REMARK    4  A    between atoms: C8_8  and  C9_9 
ROOT
HETATM    1  C1  UNL     1     -34.157   7.231   4.487  1.00 20.00     0.011 A 
HETATM    2  C2  UNL     1     -35.249   6.704   3.600  1.00 20.00     0.011 A 
HETATM    3  C3  UNL     1     -33.830   6.766   3.088  1.00 20.00    -0.027 A 
ENDROOT
BRANCH   3   4
HETATM    4  C6  UNL     1     -33.492   7.824   2.045  1.00 20.00     0.015 C 
BRANCH   4   5
HETATM    5  C9  UNL     1     -31.977   8.014   1.818  1.00 20.00    -0.018 C 
HETATM    6  C5  UNL     1     -31.316   8.736   2.995  1.00 20.00     0.010 C 
BRANCH   5   7
HETATM    7  C8  UNL     1     -31.764   8.774   0.491  1.00 20.00    -0.000 C 
HETATM    8  C4  UNL     1     -32.591  10.047   0.373  1.00 20.00     0.005 C 
ENDBRANCH   5   7
ENDBRANCH   4   5
ENDBRANCH   3   4
BRANCH   3   9
HETATM    9  C7  UNL     1     -33.080   5.472   2.931  1.00 20.00     0.124 C 
HETATM   10 CL10 UNL     1     -32.668   5.181   1.223  1.00 20.00    -0.130 Cl
ENDBRANCH   3   9
TORSDOF 4
ENDMDL
