MODEL 1
REMARK VINA RESULT:      -0.1      0.000      0.000
REMARK  3 active torsions:
REMARK  status: ('A' for Active; 'I' for Inactive)
REMARK    1  A    between atoms: C6_6  and  C8_8 
REMARK    2  A    between atoms: C7_7  and  C8_8 
REMARK    3  A    between atoms: C7_7  and  C9_9 
ROOT
HETATM    1  C8  UNL     1     -32.174   7.731   2.112  1.00 20.00     0.042 C 
ENDROOT
BRANCH   1   2
HETATM    2  C6  UNL     1     -32.658   8.610   0.975  1.00 20.00     0.122 C 
HETATM    3  C2  UNL     1     -32.977  10.032   1.402  1.00 20.00     0.034 C 
HETATM    4  C1  UNL     1     -32.781  10.785   0.110  1.00 20.00     0.029 C 
HETATM    5  C5  UNL     1     -31.586  10.072  -0.489  1.00 20.00     0.168 C 
HETATM    6  O10 UNL     1     -31.637   8.713  -0.031  1.00 20.00    -0.386 OA
ENDBRANCH   1   2
BRANCH   1   7
HETATM    7  C7  UNL     1     -32.813   6.376   2.088  1.00 20.00    -0.025 A 
HETATM    8  C3  UNL     1     -33.108   5.755   0.744  1.00 20.00     0.011 A 
HETATM    9  C4  UNL     1     -31.990   5.213   1.587  1.00 20.00     0.011 A 
BRANCH   7  10
HETATM   10  C9  UNL     1     -33.782   6.123   3.211  1.00 20.00     0.124 C 
HETATM   11 CL11 UNL     1     -34.126   7.627   4.100  1.00 20.00    -0.130 Cl
ENDBRANCH   7  10
ENDBRANCH   1   7
TORSDOF 3
ENDMDL
MODEL 2
REMARK VINA RESULT:       0.1      2.465      4.625
REMARK  3 active torsions:
REMARK  status: ('A' for Active; 'I' for Inactive)
REMARK    1  A    between atoms: C6_6  and  C8_8 
REMARK    2  A    between atoms: C7_7  and  C8_8 
REMARK    3  A    between atoms: C7_7  and  C9_9 
ROOT
HETATM    1  C8  UNL     1     -33.071   6.643   1.654  1.00 20.00     0.042 C 
ENDROOT
BRANCH   1   2
HETATM    2  C6  UNL     1     -33.515   6.355   3.075  1.00 20.00     0.122 C 
HETATM    3  C2  UNL     1     -34.983   6.654   3.323  1.00 20.00     0.034 C 
HETATM    4  C1  UNL     1     -35.289   5.726   4.471  1.00 20.00     0.029 C 
HETATM    5  C5  UNL     1     -34.477   4.500   4.108  1.00 20.00     0.168 C 
HETATM    6  O10 UNL     1     -33.336   4.959   3.368  1.00 20.00    -0.386 OA
ENDBRANCH   1   2
BRANCH   1   7
HETATM    7  C7  UNL     1     -32.264   7.902   1.561  1.00 20.00    -0.025 A 
HETATM    8  C3  UNL     1     -31.944   8.635   2.842  1.00 20.00     0.011 A 
HETATM    9  C4  UNL     1     -30.860   7.888   2.119  1.00 20.00     0.011 A 
BRANCH   7  10
HETATM   10  C9  UNL     1     -32.525   8.721   0.326  1.00 20.00     0.124 C 
HETATM   11 CL11 UNL     1     -32.679  10.447   0.732  1.00 20.00    -0.130 Cl
ENDBRANCH   7  10
ENDBRANCH   1   7
TORSDOF 3
ENDMDL
MODEL 3
REMARK VINA RESULT:       0.4      2.495      4.691
REMARK  3 active torsions:
REMARK  status: ('A' for Active; 'I' for Inactive)
REMARK    1  A    between atoms: C6_6  and  C8_8 
REMARK    2  A    between atoms: C7_7  and  C8_8 
REMARK    3  A    between atoms: C7_7  and  C9_9 
ROOT
HETATM    1  C8  UNL     1     -33.835   7.329   2.351  1.00 20.00     0.042 C 
ENDROOT
BRANCH   1   2
HETATM    2  C6  UNL     1     -33.990   6.512   3.619  1.00 20.00     0.122 C 
HETATM    3  C2  UNL     1     -35.437   6.225   3.982  1.00 20.00     0.034 C 
HETATM    4  C1  UNL     1     -35.299   4.957   4.786  1.00 20.00     0.029 C 
HETATM    5  C5  UNL     1     -34.202   4.229   4.037  1.00 20.00     0.168 C 
HETATM    6  O10 UNL     1     -33.357   5.232   3.454  1.00 20.00    -0.386 OA
ENDBRANCH   1   2
BRANCH   1   7
HETATM    7  C7  UNL     1     -32.434   7.288   1.822  1.00 20.00    -0.025 A 
HETATM    8  C3  UNL     1     -31.937   8.478   1.038  1.00 20.00     0.011 A 
HETATM    9  C4  UNL     1     -31.420   8.231   2.426  1.00 20.00     0.011 A 
BRANCH   7  10
HETATM   10  C9  UNL     1     -31.965   5.920   1.404  1.00 20.00     0.124 C 
HETATM   11 CL11 UNL     1     -33.169   5.132   0.356  1.00 20.00    -0.130 Cl
ENDBRANCH   7  10
ENDBRANCH   1   7
TORSDOF 3
ENDMDL
MODEL 4
REMARK VINA RESULT:       0.5      1.777      2.471
REMARK  3 active torsions:
REMARK  status: ('A' for Active; 'I' for Inactive)
REMARK    1  A    between atoms: C6_6  and  C8_8 
REMARK    2  A    between atoms: C7_7  and  C8_8 
REMARK    3  A    between atoms: C7_7  and  C9_9 
ROOT
HETATM    1  C8  UNL     1     -33.090   7.620   3.244  1.00 20.00     0.042 C 
ENDROOT
BRANCH   1   2
HETATM    2  C6  UNL     1     -32.886   7.972   1.783  1.00 20.00     0.122 C 
HETATM    3  C2  UNL     1     -33.074   9.449   1.483  1.00 20.00     0.034 C 
HETATM    4  C1  UNL     1     -32.223   9.615   0.249  1.00 20.00     0.029 C 
HETATM    5  C5  UNL     1     -31.048   8.709   0.554  1.00 20.00     0.168 C 
HETATM    6  O10 UNL     1     -31.542   7.650   1.388  1.00 20.00    -0.386 OA
ENDBRANCH   1   2
BRANCH   1   7
HETATM    7  C7  UNL     1     -34.054   6.487   3.421  1.00 20.00    -0.025 A 
HETATM    8  C3  UNL     1     -34.947   6.500   4.639  1.00 20.00     0.011 A 
HETATM    9  C4  UNL     1     -35.529   6.783   3.283  1.00 20.00     0.011 A 
BRANCH   7  10
HETATM   10  C9  UNL     1     -33.552   5.157   2.928  1.00 20.00     0.124 C 
HETATM   11 CL11 UNL     1     -33.856   3.881   4.132  1.00 20.00    -0.130 Cl
ENDBRANCH   7  10
ENDBRANCH   1   7
TORSDOF 3
ENDMDL
MODEL 5
REMARK VINA RESULT:       0.6      2.637      4.916
REMARK  3 active torsions:
REMARK  status: ('A' for Active; 'I' for Inactive)
REMARK    1  A    between atoms: C6_6  and  C8_8 
REMARK    2  A    between atoms: C7_7  and  C8_8 
REMARK    3  A    between atoms: C7_7  and  C9_9 
ROOT
HETATM    1  C8  UNL     1     -33.379   7.384   3.044  1.00 20.00     0.042 C 
ENDROOT
BRANCH   1   2
HETATM    2  C6  UNL     1     -34.165   6.093   3.158  1.00 20.00     0.122 C 
HETATM    3  C2  UNL     1     -33.379   4.959   3.793  1.00 20.00     0.034 C 
HETATM    4  C1  UNL     1     -34.486   4.107   4.361  1.00 20.00     0.029 C 
HETATM    5  C5  UNL     1     -35.468   5.153   4.847  1.00 20.00     0.168 C 
HETATM    6  O10 UNL     1     -35.319   6.296   3.991  1.00 20.00    -0.386 OA
ENDBRANCH   1   2
BRANCH   1   7
HETATM    7  C7  UNL     1     -32.582   7.449   1.777  1.00 20.00    -0.025 A 
HETATM    8  C3  UNL     1     -32.327   8.807   1.169  1.00 20.00     0.011 A 
HETATM    9  C4  UNL     1     -31.205   8.066   1.837  1.00 20.00     0.011 A 
BRANCH   7  10
HETATM   10  C9  UNL     1     -32.795   6.287   0.845  1.00 20.00     0.124 C 
HETATM   11 CL11 UNL     1     -31.509   5.072   1.045  1.00 20.00    -0.130 Cl
ENDBRANCH   7  10
ENDBRANCH   1   7
TORSDOF 3
ENDMDL
MODEL 6
REMARK VINA RESULT:       0.8      1.553      2.236
REMARK  3 active torsions:
REMARK  status: ('A' for Active; 'I' for Inactive)
REMARK    1  A    between atoms: C6_6  and  C8_8 
REMARK    2  A    between atoms: C7_7  and  C8_8 
REMARK    3  A    between atoms: C7_7  and  C9_9 
ROOT
HETATM    1  C8  UNL     1     -32.196   8.106   2.489  1.00 20.00     0.042 C 
ENDROOT
BRANCH   1   2
HETATM    2  C6  UNL     1     -32.621   8.681   1.152  1.00 20.00     0.122 C 
HETATM    3  C2  UNL     1     -32.961  10.160   1.208  1.00 20.00     0.034 C 
HETATM    4  C1  UNL     1     -32.698  10.583  -0.215  1.00 20.00     0.029 C 
HETATM    5  C5  UNL     1     -31.474   9.762  -0.565  1.00 20.00     0.168 C 
HETATM    6  O10 UNL     1     -31.549   8.551   0.203  1.00 20.00    -0.386 OA
ENDBRANCH   1   2
BRANCH   1   7
HETATM    7  C7  UNL     1     -33.270   7.264   3.107  1.00 20.00    -0.025 A 
HETATM    8  C3  UNL     1     -33.504   7.393   4.594  1.00 20.00     0.011 A 
HETATM    9  C4  UNL     1     -34.505   7.961   3.628  1.00 20.00     0.011 A 
BRANCH   7  10
HETATM   10  C9  UNL     1     -33.438   5.906   2.481  1.00 20.00     0.124 C 
HETATM   11 CL11 UNL     1     -32.038   5.505   1.457  1.00 20.00    -0.130 Cl
ENDBRANCH   7  10
ENDBRANCH   1   7
TORSDOF 3
ENDMDL
MODEL 7
REMARK VINA RESULT:       0.8      2.047      4.394
REMARK  3 active torsions:
REMARK  status: ('A' for Active; 'I' for Inactive)
REMARK    1  A    between atoms: C6_6  and  C8_8 
REMARK    2  A    between atoms: C7_7  and  C8_8 
REMARK    3  A    between atoms: C7_7  and  C9_9 
ROOT
HETATM    1  C8  UNL     1     -32.943   6.772   1.690  1.00 20.00     0.042 C 
ENDROOT
BRANCH   1   2
HETATM    2  C6  UNL     1     -33.420   6.410   3.083  1.00 20.00     0.122 C 
HETATM    3  C2  UNL     1     -34.884   6.734   3.326  1.00 20.00     0.034 C 
HETATM    4  C1  UNL     1     -35.235   5.746   4.409  1.00 20.00     0.029 C 
HETATM    5  C5  UNL     1     -34.450   4.522   3.983  1.00 20.00     0.168 C 
HETATM    6  O10 UNL     1     -33.283   4.994   3.291  1.00 20.00    -0.386 OA
ENDBRANCH   1   2
BRANCH   1   7
HETATM    7  C7  UNL     1     -32.115   8.021   1.686  1.00 20.00    -0.025 A 
HETATM    8  C3  UNL     1     -31.576   8.509   0.363  1.00 20.00     0.011 A 
HETATM    9  C4  UNL     1     -32.694   9.254   1.034  1.00 20.00     0.011 A 
BRANCH   7  10
HETATM   10  C9  UNL     1     -31.258   8.206   2.909  1.00 20.00     0.124 C 
HETATM   11 CL11 UNL     1     -32.245   8.707   4.303  1.00 20.00    -0.130 Cl
ENDBRANCH   7  10
ENDBRANCH   1   7
TORSDOF 3
ENDMDL
MODEL 8
REMARK VINA RESULT:       1.0      1.390      2.288
REMARK  3 active torsions:
REMARK  status: ('A' for Active; 'I' for Inactive)
REMARK    1  A    between atoms: C6_6  and  C8_8 
REMARK    2  A    between atoms: C7_7  and  C8_8 
REMARK    3  A    between atoms: C7_7  and  C9_9 
ROOT
HETATM    1  C8  UNL     1     -33.289   6.793   2.005  1.00 20.00     0.042 C 
ENDROOT
BRANCH   1   2
HETATM    2  C6  UNL     1     -32.353   7.960   1.761  1.00 20.00     0.122 C 
HETATM    3  C2  UNL     1     -31.387   7.734   0.611  1.00 20.00     0.034 C 
HETATM    4  C1  UNL     1     -31.091   9.149   0.183  1.00 20.00     0.029 C 
HETATM    5  C5  UNL     1     -32.440   9.816   0.353  1.00 20.00     0.168 C 
HETATM    6  O10 UNL     1     -33.114   9.132   1.420  1.00 20.00    -0.386 OA
ENDBRANCH   1   2
BRANCH   1   7
HETATM    7  C7  UNL     1     -33.745   6.725   3.430  1.00 20.00    -0.025 A 
HETATM    8  C3  UNL     1     -35.225   6.586   3.695  1.00 20.00     0.011 A 
HETATM    9  C4  UNL     1     -34.311   5.417   3.932  1.00 20.00     0.011 A 
BRANCH   7  10
HETATM   10  C9  UNL     1     -32.931   7.554   4.386  1.00 20.00     0.124 C 
HETATM   11 CL11 UNL     1     -33.989   8.531   5.434  1.00 20.00    -0.130 Cl
ENDBRANCH   7  10
ENDBRANCH   1   7
TORSDOF 3
ENDMDL
MODEL 9
REMARK VINA RESULT:       1.1      2.638      4.627
REMARK  3 active torsions:
REMARK  status: ('A' for Active; 'I' for Inactive)
REMARK    1  A    between atoms: C6_6  and  C8_8 
REMARK    2  A    between atoms: C7_7  and  C8_8 
REMARK    3  A    between atoms: C7_7  and  C9_9 
ROOT
HETATM    1  C8  UNL     1     -33.798   7.231   2.435  1.00 20.00     0.042 C 
ENDROOT
BRANCH   1   2
HETATM    2  C6  UNL     1     -33.952   6.394   3.689  1.00 20.00     0.122 C 
HETATM    3  C2  UNL     1     -35.399   6.165   4.091  1.00 20.00     0.034 C 
HETATM    4  C1  UNL     1     -35.296   4.875   4.865  1.00 20.00     0.029 C 
HETATM    5  C5  UNL     1     -34.257   4.114   4.068  1.00 20.00     0.168 C 
HETATM    6  O10 UNL     1     -33.384   5.090   3.479  1.00 20.00    -0.386 OA
ENDBRANCH   1   2
BRANCH   1   7
HETATM    7  C7  UNL     1     -32.553   6.883   1.676  1.00 20.00    -0.025 A 
HETATM    8  C3  UNL     1     -32.010   5.481   1.810  1.00 20.00     0.011 A 
HETATM    9  C4  UNL     1     -32.671   5.907   0.530  1.00 20.00     0.011 A 
BRANCH   7  10
HETATM   10  C9  UNL     1     -31.567   8.012   1.543  1.00 20.00     0.124 C 
HETATM   11 CL11 UNL     1     -32.275   9.365   0.627  1.00 20.00    -0.130 Cl
ENDBRANCH   7  10
ENDBRANCH   1   7
TORSDOF 3
ENDMDL
