MODEL 1
REMARK VINA RESULT:      -1.8      0.000      0.000
REMARK  5 active torsions:
REMARK  status: ('A' for Active; 'I' for Inactive)
REMARK    1  A    between atoms: C5_5  and  C6_6 
REMARK    2  A    between atoms: C6_6  and  C9_9 
REMARK    3  A    between atoms: C7_7  and  O11_11 
REMARK    4  A    between atoms: C8_8  and  C9_9 
REMARK    5  A    between atoms: C8_8  and  O11_11 
ROOT
HETATM    1  C1  UNL     1     -32.692   6.181   1.615  1.00 20.00     0.091 C 
HETATM    2  C8  UNL     1     -32.550   7.279   2.583  1.00 20.00     0.231 C 
HETATM    3  N10 UNL     1     -32.802   5.313   0.853  1.00 20.00    -0.195 NA
ENDROOT
BRANCH   2   4
HETATM    4  C9  UNL     1     -33.418   7.093   3.848  1.00 20.00     0.024 C 
HETATM    5  C4  UNL     1     -33.489   8.368   4.704  1.00 20.00     0.014 C 
BRANCH   4   6
HETATM    6  C6  UNL     1     -34.848   6.589   3.555  1.00 20.00     0.007 C 
BRANCH   6   7
HETATM    7  C5  UNL     1     -35.232   5.335   4.344  1.00 20.00    -0.004 C 
HETATM    8  C2  UNL     1     -34.174   4.251   4.211  1.00 20.00     0.005 C 
ENDBRANCH   6   7
ENDBRANCH   4   6
ENDBRANCH   2   4
BRANCH   2   9
HETATM    9  O11 UNL     1     -32.908   8.514   1.963  1.00 20.00    -0.372 OA
BRANCH   9  10
HETATM   10  C7  UNL     1     -31.968   8.880   0.964  1.00 20.00     0.165 C 
HETATM   11  C3  UNL     1     -32.544  10.009   0.135  1.00 20.00     0.033 C 
ENDBRANCH   9  10
ENDBRANCH   2   9
TORSDOF 5
ENDMDL
MODEL 2
REMARK VINA RESULT:      -1.3      2.124      5.075
REMARK  5 active torsions:
REMARK  status: ('A' for Active; 'I' for Inactive)
REMARK    1  A    between atoms: C5_5  and  C6_6 
REMARK    2  A    between atoms: C6_6  and  C9_9 
REMARK    3  A    between atoms: C7_7  and  O11_11 
REMARK    4  A    between atoms: C8_8  and  C9_9 
REMARK    5  A    between atoms: C8_8  and  O11_11 
ROOT
HETATM    1  C1  UNL     1     -34.582   6.348   3.549  1.00 20.00     0.091 C 
HETATM    2  C8  UNL     1     -33.235   5.800   3.331  1.00 20.00     0.231 C 
HETATM    3  N10 UNL     1     -35.644   6.782   3.724  1.00 20.00    -0.195 NA
ENDROOT
BRANCH   2   4
HETATM    4  C9  UNL     1     -32.533   6.388   2.086  1.00 20.00     0.024 C 
HETATM    5  C4  UNL     1     -33.026   5.749   0.778  1.00 20.00     0.014 C 
BRANCH   4   6
HETATM    6  C6  UNL     1     -32.634   7.926   1.978  1.00 20.00     0.007 C 
BRANCH   6   7
HETATM    7  C5  UNL     1     -31.796   8.520   0.844  1.00 20.00    -0.004 C 
HETATM    8  C2  UNL     1     -32.436   9.782   0.285  1.00 20.00     0.005 C 
ENDBRANCH   6   7
ENDBRANCH   4   6
ENDBRANCH   2   4
BRANCH   2   9
HETATM    9  O11 UNL     1     -33.311   4.382   3.184  1.00 20.00    -0.372 OA
BRANCH   9  10
HETATM   10  C7  UNL     1     -33.926   3.780   4.312  1.00 20.00     0.165 C 
HETATM   11  C3  UNL     1     -32.963   2.786   4.926  1.00 20.00     0.033 C 
ENDBRANCH   9  10
ENDBRANCH   2   9
TORSDOF 5
ENDMDL
MODEL 3
REMARK VINA RESULT:      -1.2      1.504      4.430
REMARK  5 active torsions:
REMARK  status: ('A' for Active; 'I' for Inactive)
REMARK    1  A    between atoms: C5_5  and  C6_6 
REMARK    2  A    between atoms: C6_6  and  C9_9 
REMARK    3  A    between atoms: C7_7  and  O11_11 
REMARK    4  A    between atoms: C8_8  and  C9_9 
REMARK    5  A    between atoms: C8_8  and  O11_11 
ROOT
HETATM    1  C1  UNL     1     -32.586   5.441   1.640  1.00 20.00     0.091 C 
HETATM    2  C8  UNL     1     -33.628   6.014   2.506  1.00 20.00     0.231 C 
HETATM    3  N10 UNL     1     -31.766   4.989   0.954  1.00 20.00    -0.195 NA
ENDROOT
BRANCH   2   4
HETATM    4  C9  UNL     1     -33.492   7.542   2.692  1.00 20.00     0.024 C 
HETATM    5  C4  UNL     1     -33.788   7.986   4.134  1.00 20.00     0.014 C 
BRANCH   4   6
HETATM    6  C6  UNL     1     -32.124   8.106   2.250  1.00 20.00     0.007 C 
BRANCH   6   7
HETATM    7  C5  UNL     1     -32.117   8.656   0.822  1.00 20.00    -0.004 C 
HETATM    8  C2  UNL     1     -32.640  10.083   0.774  1.00 20.00     0.005 C 
ENDBRANCH   6   7
ENDBRANCH   4   6
ENDBRANCH   2   4
BRANCH   2   9
HETATM    9  O11 UNL     1     -33.578   5.392   3.790  1.00 20.00    -0.372 OA
BRANCH   9  10
HETATM   10  C7  UNL     1     -34.071   4.063   3.738  1.00 20.00     0.165 C 
HETATM   11  C3  UNL     1     -33.280   3.205   4.702  1.00 20.00     0.033 C 
ENDBRANCH   9  10
ENDBRANCH   2   9
TORSDOF 5
ENDMDL
MODEL 4
REMARK VINA RESULT:      -1.2      1.249      4.374
REMARK  5 active torsions:
REMARK  status: ('A' for Active; 'I' for Inactive)
REMARK    1  A    between atoms: C5_5  and  C6_6 
REMARK    2  A    between atoms: C6_6  and  C9_9 
REMARK    3  A    between atoms: C7_7  and  O11_11 
REMARK    4  A    between atoms: C8_8  and  C9_9 
REMARK    5  A    between atoms: C8_8  and  O11_11 
ROOT
HETATM    1  C1  UNL     1     -32.639   5.951   1.575  1.00 20.00     0.091 C 
HETATM    2  C8  UNL     1     -33.160   7.182   2.189  1.00 20.00     0.231 C 
HETATM    3  N10 UNL     1     -32.232   4.980   1.088  1.00 20.00    -0.195 NA
ENDROOT
BRANCH   2   4
HETATM    4  C9  UNL     1     -32.276   8.420   1.915  1.00 20.00     0.024 C 
HETATM    5  C4  UNL     1     -31.070   8.503   2.866  1.00 20.00     0.014 C 
BRANCH   4   6
HETATM    6  C6  UNL     1     -31.787   8.527   0.454  1.00 20.00     0.007 C 
BRANCH   6   7
HETATM    7  C5  UNL     1     -32.470   9.641  -0.343  1.00 20.00    -0.004 C 
HETATM    8  C2  UNL     1     -32.798  10.835   0.542  1.00 20.00     0.005 C 
ENDBRANCH   6   7
ENDBRANCH   4   6
ENDBRANCH   2   4
BRANCH   2   9
HETATM    9  O11 UNL     1     -33.268   7.004   3.602  1.00 20.00    -0.372 OA
BRANCH   9  10
HETATM   10  C7  UNL     1     -34.578   7.302   4.059  1.00 20.00     0.165 C 
HETATM   11  C3  UNL     1     -35.388   6.023   4.103  1.00 20.00     0.033 C 
ENDBRANCH   9  10
ENDBRANCH   2   9
TORSDOF 5
ENDMDL
MODEL 5
REMARK VINA RESULT:      -0.9      1.806      2.643
REMARK  5 active torsions:
REMARK  status: ('A' for Active; 'I' for Inactive)
REMARK    1  A    between atoms: C5_5  and  C6_6 
REMARK    2  A    between atoms: C6_6  and  C9_9 
REMARK    3  A    between atoms: C7_7  and  O11_11 
REMARK    4  A    between atoms: C8_8  and  C9_9 
REMARK    5  A    between atoms: C8_8  and  O11_11 
ROOT
HETATM    1  C1  UNL     1     -33.633   7.638   3.643  1.00 20.00     0.091 C 
HETATM    2  C8  UNL     1     -33.370   7.186   2.268  1.00 20.00     0.231 C 
HETATM    3  N10 UNL     1     -33.843   7.995   4.727  1.00 20.00    -0.195 NA
ENDROOT
BRANCH   2   4
HETATM    4  C9  UNL     1     -33.268   5.650   2.141  1.00 20.00     0.024 C 
HETATM    5  C4  UNL     1     -32.305   5.215   1.025  1.00 20.00     0.014 C 
BRANCH   4   6
HETATM    6  C6  UNL     1     -32.885   4.938   3.458  1.00 20.00     0.007 C 
BRANCH   6   7
HETATM    7  C5  UNL     1     -33.925   3.920   3.932  1.00 20.00    -0.004 C 
HETATM    8  C2  UNL     1     -33.280   2.804   4.739  1.00 20.00     0.005 C 
ENDBRANCH   6   7
ENDBRANCH   4   6
ENDBRANCH   2   4
BRANCH   2   9
HETATM    9  O11 UNL     1     -32.151   7.763   1.799  1.00 20.00    -0.372 OA
BRANCH   9  10
HETATM   10  C7  UNL     1     -32.292   9.159   1.583  1.00 20.00     0.165 C 
HETATM   11  C3  UNL     1     -32.260   9.433   0.095  1.00 20.00     0.033 C 
ENDBRANCH   9  10
ENDBRANCH   2   9
TORSDOF 5
ENDMDL
MODEL 6
REMARK VINA RESULT:      -0.9      1.776      2.559
REMARK  5 active torsions:
REMARK  status: ('A' for Active; 'I' for Inactive)
REMARK    1  A    between atoms: C5_5  and  C6_6 
REMARK    2  A    between atoms: C6_6  and  C9_9 
REMARK    3  A    between atoms: C7_7  and  O11_11 
REMARK    4  A    between atoms: C8_8  and  C9_9 
REMARK    5  A    between atoms: C8_8  and  O11_11 
ROOT
HETATM    1  C1  UNL     1     -32.299   7.893   1.876  1.00 20.00     0.091 C 
HETATM    2  C8  UNL     1     -33.466   7.019   2.068  1.00 20.00     0.231 C 
HETATM    3  N10 UNL     1     -31.380   8.585   1.723  1.00 20.00    -0.195 NA
ENDROOT
BRANCH   2   4
HETATM    4  C9  UNL     1     -33.797   6.765   3.556  1.00 20.00     0.024 C 
HETATM    5  C4  UNL     1     -33.707   8.044   4.405  1.00 20.00     0.014 C 
BRANCH   4   6
HETATM    6  C6  UNL     1     -35.167   6.090   3.785  1.00 20.00     0.007 C 
BRANCH   6   7
HETATM    7  C5  UNL     1     -35.097   4.834   4.658  1.00 20.00    -0.004 C 
HETATM    8  C2  UNL     1     -33.952   3.928   4.234  1.00 20.00     0.005 C 
ENDBRANCH   6   7
ENDBRANCH   4   6
ENDBRANCH   2   4
BRANCH   2   9
HETATM    9  O11 UNL     1     -33.233   5.762   1.432  1.00 20.00    -0.372 OA
BRANCH   9  10
HETATM   10  C7  UNL     1     -31.864   5.396   1.500  1.00 20.00     0.165 C 
HETATM   11  C3  UNL     1     -31.560   4.415   0.388  1.00 20.00     0.033 C 
ENDBRANCH   9  10
ENDBRANCH   2   9
TORSDOF 5
ENDMDL
MODEL 7
REMARK VINA RESULT:      -0.6      1.588      4.298
REMARK  5 active torsions:
REMARK  status: ('A' for Active; 'I' for Inactive)
REMARK    1  A    between atoms: C5_5  and  C6_6 
REMARK    2  A    between atoms: C6_6  and  C9_9 
REMARK    3  A    between atoms: C7_7  and  O11_11 
REMARK    4  A    between atoms: C8_8  and  C9_9 
REMARK    5  A    between atoms: C8_8  and  O11_11 
ROOT
HETATM    1  C1  UNL     1     -34.105   5.211   3.478  1.00 20.00     0.091 C 
HETATM    2  C8  UNL     1     -33.885   6.372   2.603  1.00 20.00     0.231 C 
HETATM    3  N10 UNL     1     -34.281   4.293   4.166  1.00 20.00    -0.195 NA
ENDROOT
BRANCH   2   4
HETATM    4  C9  UNL     1     -32.412   6.530   2.161  1.00 20.00     0.024 C 
HETATM    5  C4  UNL     1     -32.080   5.689   0.918  1.00 20.00     0.014 C 
BRANCH   4   6
HETATM    6  C6  UNL     1     -31.985   7.995   1.920  1.00 20.00     0.007 C 
BRANCH   6   7
HETATM    7  C5  UNL     1     -32.075   8.429   0.455  1.00 20.00    -0.004 C 
HETATM    8  C2  UNL     1     -32.442   9.901   0.335  1.00 20.00     0.005 C 
ENDBRANCH   6   7
ENDBRANCH   4   6
ENDBRANCH   2   4
BRANCH   2   9
HETATM    9  O11 UNL     1     -34.287   7.565   3.278  1.00 20.00    -0.372 OA
BRANCH   9  10
HETATM   10  C7  UNL     1     -34.220   7.407   4.686  1.00 20.00     0.165 C 
HETATM   11  C3  UNL     1     -33.172   8.349   5.239  1.00 20.00     0.033 C 
ENDBRANCH   9  10
ENDBRANCH   2   9
TORSDOF 5
ENDMDL
MODEL 8
REMARK VINA RESULT:      -0.4      2.008      4.922
REMARK  5 active torsions:
REMARK  status: ('A' for Active; 'I' for Inactive)
REMARK    1  A    between atoms: C5_5  and  C6_6 
REMARK    2  A    between atoms: C6_6  and  C9_9 
REMARK    3  A    between atoms: C7_7  and  O11_11 
REMARK    4  A    between atoms: C8_8  and  C9_9 
REMARK    5  A    between atoms: C8_8  and  O11_11 
ROOT
HETATM    1  C1  UNL     1     -33.362   7.707   4.425  1.00 20.00     0.091 C 
HETATM    2  C8  UNL     1     -33.202   6.563   3.515  1.00 20.00     0.231 C 
HETATM    3  N10 UNL     1     -33.487   8.608   5.145  1.00 20.00    -0.195 NA
ENDROOT
BRANCH   2   4
HETATM    4  C9  UNL     1     -32.423   6.914   2.227  1.00 20.00     0.024 C 
HETATM    5  C4  UNL     1     -32.880   6.082   1.018  1.00 20.00     0.014 C 
BRANCH   4   6
HETATM    6  C6  UNL     1     -32.462   8.415   1.863  1.00 20.00     0.007 C 
BRANCH   6   7
HETATM    7  C5  UNL     1     -31.904   8.726   0.472  1.00 20.00    -0.004 C 
HETATM    8  C2  UNL     1     -32.562   9.960  -0.126  1.00 20.00     0.005 C 
ENDBRANCH   6   7
ENDBRANCH   4   6
ENDBRANCH   2   4
BRANCH   2   9
HETATM    9  O11 UNL     1     -34.486   6.058   3.147  1.00 20.00    -0.372 OA
BRANCH   9  10
HETATM   10  C7  UNL     1     -34.974   5.140   4.112  1.00 20.00     0.165 C 
HETATM   11  C3  UNL     1     -33.986   4.002   4.254  1.00 20.00     0.033 C 
ENDBRANCH   9  10
ENDBRANCH   2   9
TORSDOF 5
ENDMDL
MODEL 9
REMARK VINA RESULT:      -0.3      1.699      2.561
REMARK  5 active torsions:
REMARK  status: ('A' for Active; 'I' for Inactive)
REMARK    1  A    between atoms: C5_5  and  C6_6 
REMARK    2  A    between atoms: C6_6  and  C9_9 
REMARK    3  A    between atoms: C7_7  and  O11_11 
REMARK    4  A    between atoms: C8_8  and  C9_9 
REMARK    5  A    between atoms: C8_8  and  O11_11 
ROOT
HETATM    1  C1  UNL     1     -33.166   7.854   3.665  1.00 20.00     0.091 C 
HETATM    2  C8  UNL     1     -33.188   7.411   2.263  1.00 20.00     0.231 C 
HETATM    3  N10 UNL     1     -33.151   8.206   4.770  1.00 20.00    -0.195 NA
ENDROOT
BRANCH   2   4
HETATM    4  C9  UNL     1     -33.273   5.875   2.112  1.00 20.00     0.024 C 
HETATM    5  C4  UNL     1     -32.306   5.336   1.045  1.00 20.00     0.014 C 
BRANCH   4   6
HETATM    6  C6  UNL     1     -33.063   5.104   3.434  1.00 20.00     0.007 C 
BRANCH   6   7
HETATM    7  C5  UNL     1     -34.317   4.381   3.930  1.00 20.00    -0.004 C 
HETATM    8  C2  UNL     1     -35.388   5.367   4.372  1.00 20.00     0.005 C 
ENDBRANCH   6   7
ENDBRANCH   4   6
ENDBRANCH   2   4
BRANCH   2   9
HETATM    9  O11 UNL     1     -32.012   7.870   1.595  1.00 20.00    -0.372 OA
BRANCH   9  10
HETATM   10  C7  UNL     1     -32.065   9.268   1.362  1.00 20.00     0.165 C 
HETATM   11  C3  UNL     1     -32.441   9.514  -0.083  1.00 20.00     0.033 C 
ENDBRANCH   9  10
ENDBRANCH   2   9
TORSDOF 5
ENDMDL
