MODEL 1
REMARK VINA RESULT:      -2.1      0.000      0.000
REMARK  5 active torsions:
REMARK  status: ('A' for Active; 'I' for Inactive)
REMARK    1  A    between atoms: C2_2  and  C5_5 
REMARK    2  A    between atoms: C2_2  and  C6_6 
REMARK    3  A    between atoms: C6_6  and  C7_7 
REMARK    4  A    between atoms: C7_7  and  C8_8 
REMARK    5  A    between atoms: C8_8  and  C9_9 
ROOT
HETATM    1  C6  UNL     1     -31.766   6.632   1.361  1.00 20.00     0.033 C 
ENDROOT
BRANCH   1   2
HETATM    2  C2  UNL     1     -31.795   8.141   1.515  1.00 20.00    -0.090 C 
HETATM    3  C1  UNL     1     -31.631   8.692   2.730  1.00 20.00     0.014 C 
BRANCH   2   4
HETATM    4  C5  UNL     1     -32.052   8.925   0.244  1.00 20.00     0.029 C 
HETATM    5  C3  UNL     1     -32.635  10.326   0.398  1.00 20.00     0.010 C 
ENDBRANCH   2   4
ENDBRANCH   1   2
BRANCH   1   6
HETATM    6  C7  UNL     1     -33.156   5.999   1.487  1.00 20.00     0.006 C 
BRANCH   6   7
HETATM    7  C8  UNL     1     -33.435   5.565   2.931  1.00 20.00     0.020 C 
BRANCH   7   8
HETATM    8  C9  UNL     1     -34.681   6.224   3.537  1.00 20.00     0.078 C 
HETATM    9  C4  UNL     1     -34.319   7.507   4.274  1.00 20.00     0.026 C 
HETATM   10 CL10 UNL     1     -35.506   5.117   4.675  1.00 20.00    -0.125 Cl
ENDBRANCH   7   8
ENDBRANCH   6   7
ENDBRANCH   1   6
TORSDOF 5
ENDMDL
MODEL 2
REMARK VINA RESULT:      -2.0      2.629      5.050
REMARK  5 active torsions:
REMARK  status: ('A' for Active; 'I' for Inactive)
REMARK    1  A    between atoms: C2_2  and  C5_5 
REMARK    2  A    between atoms: C2_2  and  C6_6 
REMARK    3  A    between atoms: C6_6  and  C7_7 
REMARK    4  A    between atoms: C7_7  and  C8_8 
REMARK    5  A    between atoms: C8_8  and  C9_9 
ROOT
HETATM    1  C6  UNL     1     -33.390   7.497   3.086  1.00 20.00     0.033 C 
ENDROOT
BRANCH   1   2
HETATM    2  C2  UNL     1     -34.180   6.265   3.483  1.00 20.00    -0.090 C 
HETATM    3  C1  UNL     1     -35.410   6.401   4.009  1.00 20.00     0.014 C 
BRANCH   2   4
HETATM    4  C5  UNL     1     -33.475   4.940   3.278  1.00 20.00     0.029 C 
HETATM    5  C3  UNL     1     -33.828   3.809   4.239  1.00 20.00     0.010 C 
ENDBRANCH   2   4
ENDBRANCH   1   2
BRANCH   1   6
HETATM    6  C7  UNL     1     -32.395   7.222   1.953  1.00 20.00     0.006 C 
BRANCH   6   7
HETATM    7  C8  UNL     1     -31.741   8.520   1.467  1.00 20.00     0.020 C 
BRANCH   7   8
HETATM    8  C9  UNL     1     -32.687   9.409   0.648  1.00 20.00     0.078 C 
HETATM    9  C4  UNL     1     -32.367   9.327  -0.839  1.00 20.00     0.026 C 
HETATM   10 CL10 UNL     1     -32.577  11.117   1.169  1.00 20.00    -0.125 Cl
ENDBRANCH   7   8
ENDBRANCH   6   7
ENDBRANCH   1   6
TORSDOF 5
ENDMDL
MODEL 3
REMARK VINA RESULT:      -1.9      2.276      4.924
REMARK  5 active torsions:
REMARK  status: ('A' for Active; 'I' for Inactive)
REMARK    1  A    between atoms: C2_2  and  C5_5 
REMARK    2  A    between atoms: C2_2  and  C6_6 
REMARK    3  A    between atoms: C6_6  and  C7_7 
REMARK    4  A    between atoms: C7_7  and  C8_8 
REMARK    5  A    between atoms: C8_8  and  C9_9 
ROOT
HETATM    1  C6  UNL     1     -33.768   6.258   2.957  1.00 20.00     0.033 C 
ENDROOT
BRANCH   1   2
HETATM    2  C2  UNL     1     -34.365   5.138   3.787  1.00 20.00    -0.090 C 
HETATM    3  C1  UNL     1     -35.416   5.387   4.588  1.00 20.00     0.014 C 
BRANCH   2   4
HETATM    4  C5  UNL     1     -33.677   3.793   3.666  1.00 20.00     0.029 C 
HETATM    5  C3  UNL     1     -33.223   3.126   4.960  1.00 20.00     0.010 C 
ENDBRANCH   2   4
ENDBRANCH   1   2
BRANCH   1   6
HETATM    6  C7  UNL     1     -32.877   5.741   1.821  1.00 20.00     0.006 C 
BRANCH   6   7
HETATM    7  C8  UNL     1     -31.958   6.849   1.294  1.00 20.00     0.020 C 
BRANCH   7   8
HETATM    8  C9  UNL     1     -32.346   8.249   1.789  1.00 20.00     0.078 C 
HETATM    9  C4  UNL     1     -32.183   9.285   0.684  1.00 20.00     0.026 C 
HETATM   10 CL10 UNL     1     -31.346   8.736   3.190  1.00 20.00    -0.125 Cl
ENDBRANCH   7   8
ENDBRANCH   6   7
ENDBRANCH   1   6
TORSDOF 5
ENDMDL
MODEL 4
REMARK VINA RESULT:      -1.8      2.687      4.879
REMARK  5 active torsions:
REMARK  status: ('A' for Active; 'I' for Inactive)
REMARK    1  A    between atoms: C2_2  and  C5_5 
REMARK    2  A    between atoms: C2_2  and  C6_6 
REMARK    3  A    between atoms: C6_6  and  C7_7 
REMARK    4  A    between atoms: C7_7  and  C8_8 
REMARK    5  A    between atoms: C8_8  and  C9_9 
ROOT
HETATM    1  C6  UNL     1     -33.193   6.605   2.397  1.00 20.00     0.033 C 
ENDROOT
BRANCH   1   2
HETATM    2  C2  UNL     1     -34.104   6.683   3.607  1.00 20.00    -0.090 C 
HETATM    3  C1  UNL     1     -34.183   7.826   4.310  1.00 20.00     0.014 C 
BRANCH   2   4
HETATM    4  C5  UNL     1     -34.846   5.409   3.953  1.00 20.00     0.029 C 
HETATM    5  C3  UNL     1     -34.017   4.135   4.082  1.00 20.00     0.010 C 
ENDBRANCH   2   4
ENDBRANCH   1   2
BRANCH   1   6
HETATM    6  C7  UNL     1     -32.235   7.797   2.300  1.00 20.00     0.006 C 
BRANCH   6   7
HETATM    7  C8  UNL     1     -31.902   8.119   0.838  1.00 20.00     0.020 C 
BRANCH   7   8
HETATM    8  C9  UNL     1     -32.046   9.607   0.494  1.00 20.00     0.078 C 
HETATM    9  C4  UNL     1     -32.851  10.341   1.559  1.00 20.00     0.026 C 
HETATM   10 CL10 UNL     1     -32.850   9.826  -1.089  1.00 20.00    -0.125 Cl
ENDBRANCH   7   8
ENDBRANCH   6   7
ENDBRANCH   1   6
TORSDOF 5
ENDMDL
MODEL 5
REMARK VINA RESULT:      -1.8      2.583      4.917
REMARK  5 active torsions:
REMARK  status: ('A' for Active; 'I' for Inactive)
REMARK    1  A    between atoms: C2_2  and  C5_5 
REMARK    2  A    between atoms: C2_2  and  C6_6 
REMARK    3  A    between atoms: C6_6  and  C7_7 
REMARK    4  A    between atoms: C7_7  and  C8_8 
REMARK    5  A    between atoms: C8_8  and  C9_9 
ROOT
HETATM    1  C6  UNL     1     -33.144   6.941   2.445  1.00 20.00     0.033 C 
ENDROOT
BRANCH   1   2
HETATM    2  C2  UNL     1     -34.014   7.014   3.685  1.00 20.00    -0.090 C 
HETATM    3  C1  UNL     1     -33.880   8.046   4.536  1.00 20.00     0.014 C 
BRANCH   2   4
HETATM    4  C5  UNL     1     -34.970   5.855   3.885  1.00 20.00     0.029 C 
HETATM    5  C3  UNL     1     -34.355   4.486   4.161  1.00 20.00     0.010 C 
ENDBRANCH   2   4
ENDBRANCH   1   2
BRANCH   1   6
HETATM    6  C7  UNL     1     -32.032   7.996   2.441  1.00 20.00     0.006 C 
BRANCH   6   7
HETATM    7  C8  UNL     1     -31.749   8.493   1.019  1.00 20.00     0.020 C 
BRANCH   7   8
HETATM    8  C9  UNL     1     -32.747   9.553   0.534  1.00 20.00     0.078 C 
HETATM    9  C4  UNL     1     -32.623   9.777  -0.968  1.00 20.00     0.026 C 
HETATM   10 CL10 UNL     1     -32.487  11.112   1.374  1.00 20.00    -0.125 Cl
ENDBRANCH   7   8
ENDBRANCH   6   7
ENDBRANCH   1   6
TORSDOF 5
ENDMDL
MODEL 6
REMARK VINA RESULT:      -1.6      1.095      1.213
REMARK  5 active torsions:
REMARK  status: ('A' for Active; 'I' for Inactive)
REMARK    1  A    between atoms: C2_2  and  C5_5 
REMARK    2  A    between atoms: C2_2  and  C6_6 
REMARK    3  A    between atoms: C6_6  and  C7_7 
REMARK    4  A    between atoms: C7_7  and  C8_8 
REMARK    5  A    between atoms: C8_8  and  C9_9 
ROOT
HETATM    1  C6  UNL     1     -31.872   6.683   1.186  1.00 20.00     0.033 C 
ENDROOT
BRANCH   1   2
HETATM    2  C2  UNL     1     -32.055   8.149   1.528  1.00 20.00    -0.090 C 
HETATM    3  C1  UNL     1     -32.406   8.505   2.776  1.00 20.00     0.014 C 
BRANCH   2   4
HETATM    4  C5  UNL     1     -31.855   9.120   0.382  1.00 20.00     0.029 C 
HETATM    5  C3  UNL     1     -32.694  10.394   0.396  1.00 20.00     0.010 C 
ENDBRANCH   2   4
ENDBRANCH   1   2
BRANCH   1   6
HETATM    6  C7  UNL     1     -33.100   5.836   1.536  1.00 20.00     0.006 C 
BRANCH   6   7
HETATM    7  C8  UNL     1     -32.811   4.913   2.726  1.00 20.00     0.020 C 
BRANCH   7   8
HETATM    8  C9  UNL     1     -34.070   4.520   3.512  1.00 20.00     0.078 C 
HETATM    9  C4  UNL     1     -34.754   5.747   4.100  1.00 20.00     0.026 C 
HETATM   10 CL10 UNL     1     -33.672   3.388   4.839  1.00 20.00    -0.125 Cl
ENDBRANCH   7   8
ENDBRANCH   6   7
ENDBRANCH   1   6
TORSDOF 5
ENDMDL
MODEL 7
REMARK VINA RESULT:      -1.6      1.881      4.812
REMARK  5 active torsions:
REMARK  status: ('A' for Active; 'I' for Inactive)
REMARK    1  A    between atoms: C2_2  and  C5_5 
REMARK    2  A    between atoms: C2_2  and  C6_6 
REMARK    3  A    between atoms: C6_6  and  C7_7 
REMARK    4  A    between atoms: C7_7  and  C8_8 
REMARK    5  A    between atoms: C8_8  and  C9_9 
ROOT
HETATM    1  C6  UNL     1     -34.079   7.202   4.491  1.00 20.00     0.033 C 
ENDROOT
BRANCH   1   2
HETATM    2  C2  UNL     1     -35.139   6.231   4.008  1.00 20.00    -0.090 C 
HETATM    3  C1  UNL     1     -36.102   6.654   3.170  1.00 20.00     0.014 C 
BRANCH   2   4
HETATM    4  C5  UNL     1     -35.040   4.823   4.560  1.00 20.00     0.029 C 
HETATM    5  C3  UNL     1     -33.851   3.982   4.108  1.00 20.00     0.010 C 
ENDBRANCH   2   4
ENDBRANCH   1   2
BRANCH   1   6
HETATM    6  C7  UNL     1     -33.700   8.239   3.428  1.00 20.00     0.006 C 
BRANCH   6   7
HETATM    7  C8  UNL     1     -32.190   8.228   3.163  1.00 20.00     0.020 C 
BRANCH   7   8
HETATM    8  C9  UNL     1     -31.824   7.765   1.746  1.00 20.00     0.078 C 
HETATM    9  C4  UNL     1     -32.223   8.807   0.708  1.00 20.00     0.026 C 
HETATM   10 CL10 UNL     1     -32.627   6.217   1.348  1.00 20.00    -0.125 Cl
ENDBRANCH   7   8
ENDBRANCH   6   7
ENDBRANCH   1   6
TORSDOF 5
ENDMDL
MODEL 8
REMARK VINA RESULT:      -1.5      1.029      1.359
REMARK  5 active torsions:
REMARK  status: ('A' for Active; 'I' for Inactive)
REMARK    1  A    between atoms: C2_2  and  C5_5 
REMARK    2  A    between atoms: C2_2  and  C6_6 
REMARK    3  A    between atoms: C6_6  and  C7_7 
REMARK    4  A    between atoms: C7_7  and  C8_8 
REMARK    5  A    between atoms: C8_8  and  C9_9 
ROOT
HETATM    1  C6  UNL     1     -32.026   6.819   0.753  1.00 20.00     0.033 C 
ENDROOT
BRANCH   1   2
HETATM    2  C2  UNL     1     -32.011   8.231   1.303  1.00 20.00    -0.090 C 
HETATM    3  C1  UNL     1     -32.010   8.431   2.632  1.00 20.00     0.014 C 
BRANCH   2   4
HETATM    4  C5  UNL     1     -32.035   9.339   0.269  1.00 20.00     0.029 C 
HETATM    5  C3  UNL     1     -32.791  10.613   0.633  1.00 20.00     0.010 C 
ENDBRANCH   2   4
ENDBRANCH   1   2
BRANCH   1   6
HETATM    6  C7  UNL     1     -32.138   5.757   1.853  1.00 20.00     0.006 C 
BRANCH   6   7
HETATM    7  C8  UNL     1     -33.605   5.442   2.168  1.00 20.00     0.020 C 
BRANCH   7   8
HETATM    8  C9  UNL     1     -33.913   5.413   3.671  1.00 20.00     0.078 C 
HETATM    9  C4  UNL     1     -33.990   3.982   4.188  1.00 20.00     0.026 C 
HETATM   10 CL10 UNL     1     -35.459   6.240   4.026  1.00 20.00    -0.125 Cl
ENDBRANCH   7   8
ENDBRANCH   6   7
ENDBRANCH   1   6
TORSDOF 5
ENDMDL
MODEL 9
REMARK VINA RESULT:      -1.5      1.100      2.045
REMARK  5 active torsions:
REMARK  status: ('A' for Active; 'I' for Inactive)
REMARK    1  A    between atoms: C2_2  and  C5_5 
REMARK    2  A    between atoms: C2_2  and  C6_6 
REMARK    3  A    between atoms: C6_6  and  C7_7 
REMARK    4  A    between atoms: C7_7  and  C8_8 
REMARK    5  A    between atoms: C8_8  and  C9_9 
ROOT
HETATM    1  C6  UNL     1     -32.380   8.239   2.927  1.00 20.00     0.033 C 
ENDROOT
BRANCH   1   2
HETATM    2  C2  UNL     1     -32.076   7.668   1.555  1.00 20.00    -0.090 C 
HETATM    3  C1  UNL     1     -32.187   6.345   1.342  1.00 20.00     0.014 C 
BRANCH   2   4
HETATM    4  C5  UNL     1     -31.622   8.670   0.514  1.00 20.00     0.029 C 
HETATM    5  C3  UNL     1     -32.478   9.919   0.331  1.00 20.00     0.010 C 
ENDBRANCH   2   4
ENDBRANCH   1   2
BRANCH   1   6
HETATM    6  C7  UNL     1     -33.870   8.163   3.282  1.00 20.00     0.006 C 
BRANCH   6   7
HETATM    7  C8  UNL     1     -34.095   7.302   4.530  1.00 20.00     0.020 C 
BRANCH   7   8
HETATM    8  C9  UNL     1     -35.126   6.184   4.321  1.00 20.00     0.078 C 
HETATM    9  C4  UNL     1     -34.444   4.872   3.956  1.00 20.00     0.026 C 
HETATM   10 CL10 UNL     1     -36.285   6.612   3.028  1.00 20.00    -0.125 Cl
ENDBRANCH   7   8
ENDBRANCH   6   7
ENDBRANCH   1   6
TORSDOF 5
ENDMDL
