MODEL 1
REMARK VINA RESULT:      -0.7      0.000      0.000
REMARK  2 active torsions:
REMARK  status: ('A' for Active; 'I' for Inactive)
REMARK    1  A    between atoms: C5_5  and  O9_9 
REMARK    2  A    between atoms: C7_7  and  O9_9 
ROOT
HETATM    1  C1  UNL     1     -32.470   6.246   1.561  1.00 20.00     0.098 C 
HETATM    2  C2  UNL     1     -31.435   8.985   0.881  1.00 20.00     0.008 C 
HETATM    3  C3  UNL     1     -31.233   8.342   2.265  1.00 20.00     0.054 C 
HETATM    4  C4  UNL     1     -32.937   8.673   1.008  1.00 20.00     0.054 C 
HETATM    5  C5  UNL     1     -32.585   7.596   2.073  1.00 20.00     0.148 C 
HETATM    6  N8  UNL     1     -32.377   5.165   1.150  1.00 20.00    -0.194 NA
ENDROOT
BRANCH   5   7
HETATM    7  O9  UNL     1     -33.445   7.568   3.231  1.00 20.00    -0.366 OA
BRANCH   7   8
HETATM    8  C7  UNL     1     -33.964   6.270   3.437  1.00 20.00     0.165 C 
HETATM    9  C6  UNL     1     -35.367   6.382   3.993  1.00 20.00     0.033 C 
ENDBRANCH   7   8
ENDBRANCH   5   7
TORSDOF 2
ENDMDL
MODEL 2
REMARK VINA RESULT:      -0.7      1.964      4.096
REMARK  2 active torsions:
REMARK  status: ('A' for Active; 'I' for Inactive)
REMARK    1  A    between atoms: C5_5  and  O9_9 
REMARK    2  A    between atoms: C7_7  and  O9_9 
ROOT
HETATM    1  C1  UNL     1     -33.395   7.634   4.325  1.00 20.00     0.098 C 
HETATM    2  C2  UNL     1     -35.384   5.381   4.370  1.00 20.00     0.008 C 
HETATM    3  C3  UNL     1     -33.937   5.199   3.880  1.00 20.00     0.054 C 
HETATM    4  C4  UNL     1     -35.508   6.578   3.410  1.00 20.00     0.054 C 
HETATM    5  C5  UNL     1     -33.956   6.676   3.393  1.00 20.00     0.148 C 
HETATM    6  N8  UNL     1     -32.946   8.400   5.071  1.00 20.00    -0.194 NA
ENDROOT
BRANCH   5   7
HETATM    7  O9  UNL     1     -33.366   6.907   2.098  1.00 20.00    -0.366 OA
BRANCH   7   8
HETATM    8  C7  UNL     1     -32.210   7.714   2.211  1.00 20.00     0.165 C 
HETATM    9  C6  UNL     1     -32.160   8.671   1.041  1.00 20.00     0.033 C 
ENDBRANCH   7   8
ENDBRANCH   5   7
TORSDOF 2
ENDMDL
MODEL 3
REMARK VINA RESULT:      -0.5      2.515      3.193
REMARK  2 active torsions:
REMARK  status: ('A' for Active; 'I' for Inactive)
REMARK    1  A    between atoms: C5_5  and  O9_9 
REMARK    2  A    between atoms: C7_7  and  O9_9 
ROOT
HETATM    1  C1  UNL     1     -33.423   5.732   2.429  1.00 20.00     0.098 C 
HETATM    2  C2  UNL     1     -34.649   8.118   3.786  1.00 20.00     0.008 C 
HETATM    3  C3  UNL     1     -33.670   7.169   4.501  1.00 20.00     0.054 C 
HETATM    4  C4  UNL     1     -35.471   6.884   3.375  1.00 20.00     0.054 C 
HETATM    5  C5  UNL     1     -34.209   6.009   3.615  1.00 20.00     0.148 C 
HETATM    6  N8  UNL     1     -32.795   5.511   1.479  1.00 20.00    -0.194 NA
ENDROOT
BRANCH   5   7
HETATM    7  O9  UNL     1     -34.441   4.763   4.303  1.00 20.00    -0.366 OA
BRANCH   7   8
HETATM    8  C7  UNL     1     -33.600   3.747   3.797  1.00 20.00     0.165 C 
HETATM    9  C6  UNL     1     -33.105   2.897   4.947  1.00 20.00     0.033 C 
ENDBRANCH   7   8
ENDBRANCH   5   7
TORSDOF 2
ENDMDL
MODEL 4
REMARK VINA RESULT:      -0.4      0.963      3.451
REMARK  2 active torsions:
REMARK  status: ('A' for Active; 'I' for Inactive)
REMARK    1  A    between atoms: C5_5  and  O9_9 
REMARK    2  A    between atoms: C7_7  and  O9_9 
ROOT
HETATM    1  C1  UNL     1     -32.952   6.029   1.972  1.00 20.00     0.098 C 
HETATM    2  C2  UNL     1     -35.142   6.292   4.014  1.00 20.00     0.008 C 
HETATM    3  C3  UNL     1     -35.005   7.250   2.817  1.00 20.00     0.054 C 
HETATM    4  C4  UNL     1     -33.664   6.567   4.343  1.00 20.00     0.054 C 
HETATM    5  C5  UNL     1     -33.464   7.040   2.875  1.00 20.00     0.148 C 
HETATM    6  N8  UNL     1     -32.542   5.219   1.250  1.00 20.00    -0.194 NA
ENDROOT
BRANCH   5   7
HETATM    7  O9  UNL     1     -32.672   8.233   2.713  1.00 20.00    -0.366 OA
BRANCH   7   8
HETATM    8  C7  UNL     1     -31.946   8.192   1.501  1.00 20.00     0.165 C 
HETATM    9  C6  UNL     1     -32.309   9.401   0.667  1.00 20.00     0.033 C 
ENDBRANCH   7   8
ENDBRANCH   5   7
TORSDOF 2
ENDMDL
MODEL 5
REMARK VINA RESULT:      -0.4      2.036      3.517
REMARK  2 active torsions:
REMARK  status: ('A' for Active; 'I' for Inactive)
REMARK    1  A    between atoms: C5_5  and  O9_9 
REMARK    2  A    between atoms: C7_7  and  O9_9 
ROOT
HETATM    1  C1  UNL     1     -33.287   7.318   2.960  1.00 20.00     0.098 C 
HETATM    2  C2  UNL     1     -32.889   5.000   1.089  1.00 20.00     0.008 C 
HETATM    3  C3  UNL     1     -31.718   5.704   1.798  1.00 20.00     0.054 C 
HETATM    4  C4  UNL     1     -33.366   6.382   0.608  1.00 20.00     0.054 C 
HETATM    5  C5  UNL     1     -32.537   7.026   1.755  1.00 20.00     0.148 C 
HETATM    6  N8  UNL     1     -33.888   7.552   3.925  1.00 20.00    -0.194 NA
ENDROOT
BRANCH   5   7
HETATM    7  O9  UNL     1     -31.790   8.204   1.391  1.00 20.00    -0.366 OA
BRANCH   7   8
HETATM    8  C7  UNL     1     -32.649   9.318   1.249  1.00 20.00     0.165 C 
HETATM    9  C6  UNL     1     -32.443   9.929  -0.120  1.00 20.00     0.033 C 
ENDBRANCH   7   8
ENDBRANCH   5   7
TORSDOF 2
ENDMDL
MODEL 6
REMARK VINA RESULT:      -0.1      1.738      3.615
REMARK  2 active torsions:
REMARK  status: ('A' for Active; 'I' for Inactive)
REMARK    1  A    between atoms: C5_5  and  O9_9 
REMARK    2  A    between atoms: C7_7  and  O9_9 
ROOT
HETATM    1  C1  UNL     1     -33.858   4.723   3.751  1.00 20.00     0.098 C 
HETATM    2  C2  UNL     1     -34.627   7.509   4.579  1.00 20.00     0.008 C 
HETATM    3  C3  UNL     1     -35.274   6.792   3.381  1.00 20.00     0.054 C 
HETATM    4  C4  UNL     1     -33.251   7.172   3.976  1.00 20.00     0.054 C 
HETATM    5  C5  UNL     1     -33.931   6.042   3.153  1.00 20.00     0.148 C 
HETATM    6  N8  UNL     1     -33.801   3.669   4.230  1.00 20.00    -0.194 NA
ENDROOT
BRANCH   5   7
HETATM    7  O9  UNL     1     -33.507   5.938   1.778  1.00 20.00    -0.366 OA
BRANCH   7   8
HETATM    8  C7  UNL     1     -32.109   6.117   1.670  1.00 20.00     0.165 C 
HETATM    9  C6  UNL     1     -31.819   7.569   1.361  1.00 20.00     0.033 C 
ENDBRANCH   7   8
ENDBRANCH   5   7
TORSDOF 2
ENDMDL
MODEL 7
REMARK VINA RESULT:      -0.0      1.652      2.790
REMARK  2 active torsions:
REMARK  status: ('A' for Active; 'I' for Inactive)
REMARK    1  A    between atoms: C5_5  and  O9_9 
REMARK    2  A    between atoms: C7_7  and  O9_9 
ROOT
HETATM    1  C1  UNL     1     -32.344   7.354   1.742  1.00 20.00     0.098 C 
HETATM    2  C2  UNL     1     -32.089   4.763   0.240  1.00 20.00     0.008 C 
HETATM    3  C3  UNL     1     -33.439   5.294   0.754  1.00 20.00     0.054 C 
HETATM    4  C4  UNL     1     -31.526   4.958   1.659  1.00 20.00     0.054 C 
HETATM    5  C5  UNL     1     -32.683   5.959   1.939  1.00 20.00     0.148 C 
HETATM    6  N8  UNL     1     -32.072   8.470   1.583  1.00 20.00    -0.194 NA
ENDROOT
BRANCH   5   7
HETATM    7  O9  UNL     1     -33.316   5.826   3.228  1.00 20.00    -0.366 OA
BRANCH   7   8
HETATM    8  C7  UNL     1     -34.203   6.901   3.463  1.00 20.00     0.165 C 
HETATM    9  C6  UNL     1     -35.502   6.358   4.016  1.00 20.00     0.033 C 
ENDBRANCH   7   8
ENDBRANCH   5   7
TORSDOF 2
ENDMDL
MODEL 8
REMARK VINA RESULT:       0.1      2.360      3.009
REMARK  2 active torsions:
REMARK  status: ('A' for Active; 'I' for Inactive)
REMARK    1  A    between atoms: C5_5  and  O9_9 
REMARK    2  A    between atoms: C7_7  and  O9_9 
ROOT
HETATM    1  C1  UNL     1     -34.675   6.306   3.462  1.00 20.00     0.098 C 
HETATM    2  C2  UNL     1     -32.717   7.812   1.750  1.00 20.00     0.008 C 
HETATM    3  C3  UNL     1     -33.211   6.398   1.397  1.00 20.00     0.054 C 
HETATM    4  C4  UNL     1     -32.360   7.285   3.151  1.00 20.00     0.054 C 
HETATM    5  C5  UNL     1     -33.346   6.106   2.919  1.00 20.00     0.148 C 
HETATM    6  N8  UNL     1     -35.738   6.466   3.897  1.00 20.00    -0.194 NA
ENDROOT
BRANCH   5   7
HETATM    7  O9  UNL     1     -32.874   4.812   3.344  1.00 20.00    -0.366 OA
BRANCH   7   8
HETATM    8  C7  UNL     1     -33.881   4.120   4.055  1.00 20.00     0.165 C 
HETATM    9  C6  UNL     1     -33.264   2.925   4.748  1.00 20.00     0.033 C 
ENDBRANCH   7   8
ENDBRANCH   5   7
TORSDOF 2
ENDMDL
MODEL 9
REMARK VINA RESULT:       0.4      2.357      2.711
REMARK  2 active torsions:
REMARK  status: ('A' for Active; 'I' for Inactive)
REMARK    1  A    between atoms: C5_5  and  O9_9 
REMARK    2  A    between atoms: C7_7  and  O9_9 
ROOT
HETATM    1  C1  UNL     1     -33.689   4.901   3.236  1.00 20.00     0.098 C 
HETATM    2  C2  UNL     1     -32.251   4.818   0.598  1.00 20.00     0.008 C 
HETATM    3  C3  UNL     1     -31.713   5.596   1.812  1.00 20.00     0.054 C 
HETATM    4  C4  UNL     1     -33.594   5.545   0.788  1.00 20.00     0.054 C 
HETATM    5  C5  UNL     1     -33.182   5.843   2.257  1.00 20.00     0.148 C 
HETATM    6  N8  UNL     1     -34.094   4.147   4.019  1.00 20.00    -0.194 NA
ENDROOT
BRANCH   5   7
HETATM    7  O9  UNL     1     -33.472   7.176   2.722  1.00 20.00    -0.366 OA
BRANCH   7   8
HETATM    8  C7  UNL     1     -34.275   7.139   3.885  1.00 20.00     0.165 C 
HETATM    9  C6  UNL     1     -33.694   8.081   4.917  1.00 20.00     0.033 C 
ENDBRANCH   7   8
ENDBRANCH   5   7
TORSDOF 2
ENDMDL
