MODEL 1
REMARK VINA RESULT:       0.1      0.000      0.000
REMARK  2 active torsions:
REMARK  status: ('A' for Active; 'I' for Inactive)
REMARK    1  A    between atoms: C6_6  and  O10_10 
REMARK    2  A    between atoms: C8_8  and  O10_10 
ROOT
HETATM    1  C1  UNL     1     -33.356   7.551   4.372  1.00 20.00     0.098 C 
HETATM    2  C2  UNL     1     -34.216   4.572   4.359  1.00 20.00     0.004 C 
HETATM    3  C3  UNL     1     -35.533   5.347   4.424  1.00 20.00     0.004 C 
HETATM    4  C4  UNL     1     -33.351   5.293   3.327  1.00 20.00     0.053 C 
HETATM    5  C5  UNL     1     -35.398   6.497   3.428  1.00 20.00     0.053 C 
HETATM    6  C6  UNL     1     -33.894   6.719   3.285  1.00 20.00     0.148 C 
HETATM    7  N9  UNL     1     -32.933   8.207   5.230  1.00 20.00    -0.194 NA
ENDROOT
BRANCH   6   8
HETATM    8  O10 UNL     1     -33.613   7.328   2.035  1.00 20.00    -0.366 OA
BRANCH   8   9
HETATM    9  C8  UNL     1     -32.216   7.517   1.844  1.00 20.00     0.165 C 
HETATM   10  C7  UNL     1     -31.991   8.801   1.077  1.00 20.00     0.033 C 
ENDBRANCH   8   9
ENDBRANCH   6   8
TORSDOF 2
ENDMDL
MODEL 2
REMARK VINA RESULT:       0.6      1.952      2.703
REMARK  2 active torsions:
REMARK  status: ('A' for Active; 'I' for Inactive)
REMARK    1  A    between atoms: C6_6  and  O10_10 
REMARK    2  A    between atoms: C8_8  and  O10_10 
ROOT
HETATM    1  C1  UNL     1     -33.557   7.308   3.109  1.00 20.00     0.098 C 
HETATM    2  C2  UNL     1     -32.011   5.155   1.499  1.00 20.00     0.004 C 
HETATM    3  C3  UNL     1     -33.277   5.407   0.679  1.00 20.00     0.004 C 
HETATM    4  C4  UNL     1     -31.506   6.530   1.932  1.00 20.00     0.053 C 
HETATM    5  C5  UNL     1     -33.474   6.921   0.657  1.00 20.00     0.053 C 
HETATM    6  C6  UNL     1     -32.738   7.432   1.893  1.00 20.00     0.148 C 
HETATM    7  N9  UNL     1     -34.203   7.209   4.068  1.00 20.00    -0.194 NA
ENDROOT
BRANCH   6   8
HETATM    8  O10 UNL     1     -32.364   8.787   1.707  1.00 20.00    -0.366 OA
BRANCH   8   9
HETATM    9  C8  UNL     1     -32.062   9.066   0.345  1.00 20.00     0.165 C 
HETATM   10  C7  UNL     1     -32.644  10.413  -0.025  1.00 20.00     0.033 C 
ENDBRANCH   8   9
ENDBRANCH   6   8
TORSDOF 2
ENDMDL
MODEL 3
REMARK VINA RESULT:       0.7      2.075      3.847
REMARK  2 active torsions:
REMARK  status: ('A' for Active; 'I' for Inactive)
REMARK    1  A    between atoms: C6_6  and  O10_10 
REMARK    2  A    between atoms: C8_8  and  O10_10 
ROOT
HETATM    1  C1  UNL     1     -35.575   6.556   3.216  1.00 20.00     0.098 C 
HETATM    2  C2  UNL     1     -32.865   7.085   1.805  1.00 20.00     0.004 C 
HETATM    3  C3  UNL     1     -32.875   8.057   2.986  1.00 20.00     0.004 C 
HETATM    4  C4  UNL     1     -33.385   5.755   2.348  1.00 20.00     0.053 C 
HETATM    5  C5  UNL     1     -33.400   7.267   4.182  1.00 20.00     0.053 C 
HETATM    6  C6  UNL     1     -34.214   6.127   3.574  1.00 20.00     0.148 C 
HETATM    7  N9  UNL     1     -36.648   6.894   2.934  1.00 20.00    -0.194 NA
ENDROOT
BRANCH   6   8
HETATM    8  O10 UNL     1     -34.281   5.042   4.486  1.00 20.00    -0.366 OA
BRANCH   8   9
HETATM    9  C8  UNL     1     -33.839   3.828   3.890  1.00 20.00     0.165 C 
HETATM   10  C7  UNL     1     -33.124   2.997   4.933  1.00 20.00     0.033 C 
ENDBRANCH   8   9
ENDBRANCH   6   8
TORSDOF 2
ENDMDL
MODEL 4
REMARK VINA RESULT:       0.7      2.074      4.275
REMARK  2 active torsions:
REMARK  status: ('A' for Active; 'I' for Inactive)
REMARK    1  A    between atoms: C6_6  and  O10_10 
REMARK    2  A    between atoms: C8_8  and  O10_10 
ROOT
HETATM    1  C1  UNL     1     -32.742   6.379   1.549  1.00 20.00     0.098 C 
HETATM    2  C2  UNL     1     -31.107   8.893   0.761  1.00 20.00     0.004 C 
HETATM    3  C3  UNL     1     -32.559   9.279   0.474  1.00 20.00     0.004 C 
HETATM    4  C4  UNL     1     -31.117   8.178   2.111  1.00 20.00     0.053 C 
HETATM    5  C5  UNL     1     -33.374   8.779   1.665  1.00 20.00     0.053 C 
HETATM    6  C6  UNL     1     -32.540   7.648   2.265  1.00 20.00     0.148 C 
HETATM    7  N9  UNL     1     -32.901   5.379   0.984  1.00 20.00    -0.194 NA
ENDROOT
BRANCH   6   8
HETATM    8  O10 UNL     1     -32.870   7.481   3.634  1.00 20.00    -0.366 OA
BRANCH   8   9
HETATM    9  C8  UNL     1     -34.256   7.698   3.872  1.00 20.00     0.165 C 
HETATM   10  C7  UNL     1     -34.943   6.361   4.043  1.00 20.00     0.033 C 
ENDBRANCH   8   9
ENDBRANCH   6   8
TORSDOF 2
ENDMDL
MODEL 5
REMARK VINA RESULT:       0.8      2.207      2.999
REMARK  2 active torsions:
REMARK  status: ('A' for Active; 'I' for Inactive)
REMARK    1  A    between atoms: C6_6  and  O10_10 
REMARK    2  A    between atoms: C8_8  and  O10_10 
ROOT
HETATM    1  C1  UNL     1     -32.281   6.195   1.781  1.00 20.00     0.098 C 
HETATM    2  C2  UNL     1     -34.141   7.258   4.023  1.00 20.00     0.004 C 
HETATM    3  C3  UNL     1     -32.769   7.845   4.358  1.00 20.00     0.004 C 
HETATM    4  C4  UNL     1     -34.316   7.425   2.515  1.00 20.00     0.053 C 
HETATM    5  C5  UNL     1     -32.183   8.336   3.036  1.00 20.00     0.053 C 
HETATM    6  C6  UNL     1     -32.897   7.519   1.961  1.00 20.00     0.148 C 
HETATM    7  N9  UNL     1     -31.796   5.151   1.640  1.00 20.00    -0.194 NA
ENDROOT
BRANCH   6   8
HETATM    8  O10 UNL     1     -32.881   8.223   0.730  1.00 20.00    -0.366 OA
BRANCH   8   9
HETATM    9  C8  UNL     1     -32.031   9.362   0.787  1.00 20.00     0.165 C 
HETATM   10  C7  UNL     1     -32.654  10.484  -0.015  1.00 20.00     0.033 C 
ENDBRANCH   8   9
ENDBRANCH   6   8
TORSDOF 2
ENDMDL
MODEL 6
REMARK VINA RESULT:       1.1      2.288      2.802
REMARK  2 active torsions:
REMARK  status: ('A' for Active; 'I' for Inactive)
REMARK    1  A    between atoms: C6_6  and  O10_10 
REMARK    2  A    between atoms: C8_8  and  O10_10 
ROOT
HETATM    1  C1  UNL     1     -33.770   5.762   0.872  1.00 20.00     0.098 C 
HETATM    2  C2  UNL     1     -34.901   6.097   3.740  1.00 20.00     0.004 C 
HETATM    3  C3  UNL     1     -34.159   4.760   3.778  1.00 20.00     0.004 C 
HETATM    4  C4  UNL     1     -33.993   7.064   2.981  1.00 20.00     0.053 C 
HETATM    5  C5  UNL     1     -32.841   4.985   3.040  1.00 20.00     0.053 C 
HETATM    6  C6  UNL     1     -33.104   6.173   2.118  1.00 20.00     0.148 C 
HETATM    7  N9  UNL     1     -34.295   5.438  -0.110  1.00 20.00    -0.194 NA
ENDROOT
BRANCH   6   8
HETATM    8  O10 UNL     1     -31.882   6.826   1.812  1.00 20.00    -0.366 OA
BRANCH   8   9
HETATM    9  C8  UNL     1     -31.968   8.230   2.031  1.00 20.00     0.165 C 
HETATM   10  C7  UNL     1     -31.967   8.939   0.695  1.00 20.00     0.033 C 
ENDBRANCH   8   9
ENDBRANCH   6   8
TORSDOF 2
ENDMDL
MODEL 7
REMARK VINA RESULT:       1.1      0.692      1.016
REMARK  2 active torsions:
REMARK  status: ('A' for Active; 'I' for Inactive)
REMARK    1  A    between atoms: C6_6  and  O10_10 
REMARK    2  A    between atoms: C8_8  and  O10_10 
ROOT
HETATM    1  C1  UNL     1     -33.410   7.455   4.327  1.00 20.00     0.098 C 
HETATM    2  C2  UNL     1     -34.331   4.504   4.575  1.00 20.00     0.004 C 
HETATM    3  C3  UNL     1     -35.633   5.308   4.558  1.00 20.00     0.004 C 
HETATM    4  C4  UNL     1     -33.444   5.112   3.490  1.00 20.00     0.053 C 
HETATM    5  C5  UNL     1     -35.466   6.361   3.464  1.00 20.00     0.053 C 
HETATM    6  C6  UNL     1     -33.957   6.538   3.314  1.00 20.00     0.148 C 
HETATM    7  N9  UNL     1     -32.980   8.178   5.126  1.00 20.00    -0.194 NA
ENDROOT
BRANCH   6   8
HETATM    8  O10 UNL     1     -33.654   7.027   2.017  1.00 20.00    -0.366 OA
BRANCH   8   9
HETATM    9  C8  UNL     1     -32.259   6.967   1.746  1.00 20.00     0.165 C 
HETATM   10  C7  UNL     1     -31.957   5.694   0.986  1.00 20.00     0.033 C 
ENDBRANCH   8   9
ENDBRANCH   6   8
TORSDOF 2
ENDMDL
MODEL 8
REMARK VINA RESULT:       1.2      2.351      3.277
REMARK  2 active torsions:
REMARK  status: ('A' for Active; 'I' for Inactive)
REMARK    1  A    between atoms: C6_6  and  O10_10 
REMARK    2  A    between atoms: C8_8  and  O10_10 
ROOT
HETATM    1  C1  UNL     1     -32.581   8.793   1.262  1.00 20.00     0.098 C 
HETATM    2  C2  UNL     1     -32.903   8.402   4.322  1.00 20.00     0.004 C 
HETATM    3  C3  UNL     1     -34.162   7.772   3.724  1.00 20.00     0.004 C 
HETATM    4  C4  UNL     1     -31.741   7.940   3.444  1.00 20.00     0.053 C 
HETATM    5  C5  UNL     1     -33.698   6.962   2.515  1.00 20.00     0.053 C 
HETATM    6  C6  UNL     1     -32.375   7.600   2.098  1.00 20.00     0.148 C 
HETATM    7  N9  UNL     1     -32.745   9.734   0.604  1.00 20.00    -0.194 NA
ENDROOT
BRANCH   6   8
HETATM    8  O10 UNL     1     -31.585   6.655   1.393  1.00 20.00    -0.366 OA
BRANCH   8   9
HETATM    9  C8  UNL     1     -32.172   5.360   1.414  1.00 20.00     0.165 C 
HETATM   10  C7  UNL     1     -31.495   4.494   0.374  1.00 20.00     0.033 C 
ENDBRANCH   8   9
ENDBRANCH   6   8
TORSDOF 2
ENDMDL
MODEL 9
REMARK VINA RESULT:       1.3      2.372      3.837
REMARK  2 active torsions:
REMARK  status: ('A' for Active; 'I' for Inactive)
REMARK    1  A    between atoms: C6_6  and  O10_10 
REMARK    2  A    between atoms: C8_8  and  O10_10 
ROOT
HETATM    1  C1  UNL     1     -33.288   5.825   1.873  1.00 20.00     0.098 C 
HETATM    2  C2  UNL     1     -34.285   7.966   3.882  1.00 20.00     0.004 C 
HETATM    3  C3  UNL     1     -35.518   7.107   3.600  1.00 20.00     0.004 C 
HETATM    4  C4  UNL     1     -33.123   6.992   4.065  1.00 20.00     0.053 C 
HETATM    5  C5  UNL     1     -35.040   5.657   3.626  1.00 20.00     0.053 C 
HETATM    6  C6  UNL     1     -33.546   5.729   3.318  1.00 20.00     0.148 C 
HETATM    7  N9  UNL     1     -33.085   5.900   0.733  1.00 20.00    -0.194 NA
ENDROOT
BRANCH   6   8
HETATM    8  O10 UNL     1     -32.889   4.588   3.845  1.00 20.00    -0.366 OA
BRANCH   8   9
HETATM    9  C8  UNL     1     -33.813   3.657   4.396  1.00 20.00     0.165 C 
HETATM   10  C7  UNL     1     -33.050   2.482   4.967  1.00 20.00     0.033 C 
ENDBRANCH   8   9
ENDBRANCH   6   8
TORSDOF 2
ENDMDL
