MODEL 1
REMARK VINA RESULT:      -1.4      0.000      0.000
REMARK  3 active torsions:
REMARK  status: ('A' for Active; 'I' for Inactive)
REMARK    1  A    between atoms: C1_1  and  C6_6 
REMARK    2  A    between atoms: C5_5  and  C6_6 
REMARK    3  A    between atoms: C6_6  and  O8_8 
ROOT
HETATM    1  C4  UNL     1     -35.547   6.765   3.354  1.00 20.00     0.054 C 
HETATM    2  C6  UNL     1     -34.040   6.508   3.416  1.00 20.00     0.110 C 
ENDROOT
BRANCH   2   3
HETATM    3  C1  UNL     1     -33.811   5.085   3.909  1.00 20.00     0.268 C 
HETATM    4  O7  UNL     1     -34.689   4.366   4.375  1.00 20.00    -0.304 OA
ENDBRANCH   2   3
BRANCH   2   5
HETATM    5  C5  UNL     1     -33.329   6.770   2.064  1.00 20.00     0.018 C 
HETATM    6  C2  UNL     1     -32.684   5.529   1.439  1.00 20.00     0.013 C 
HETATM    7  C3  UNL     1     -32.284   7.893   2.162  1.00 20.00     0.013 C 
ENDBRANCH   2   5
BRANCH   2   8
HETATM    8  O8  UNL     1     -33.484   7.394   4.386  1.00 20.00    -0.383 OA
HETATM    9  H20 UNL     1     -32.720   6.938   4.770  1.00 20.00     0.211 HD
ENDBRANCH   2   8
TORSDOF 3
ENDMDL
MODEL 2
REMARK VINA RESULT:      -0.9      2.328      3.979
REMARK  3 active torsions:
REMARK  status: ('A' for Active; 'I' for Inactive)
REMARK    1  A    between atoms: C1_1  and  C6_6 
REMARK    2  A    between atoms: C5_5  and  C6_6 
REMARK    3  A    between atoms: C6_6  and  O8_8 
ROOT
HETATM    1  C4  UNL     1     -32.061   6.540   1.526  1.00 20.00     0.054 C 
HETATM    2  C6  UNL     1     -32.465   7.832   2.239  1.00 20.00     0.110 C 
ENDROOT
BRANCH   2   3
HETATM    3  C1  UNL     1     -32.771   8.891   1.188  1.00 20.00     0.268 C 
HETATM    4  O7  UNL     1     -31.964   9.288   0.353  1.00 20.00    -0.304 OA
ENDBRANCH   2   3
BRANCH   2   5
HETATM    5  C5  UNL     1     -33.652   7.633   3.217  1.00 20.00     0.018 C 
HETATM    6  C2  UNL     1     -33.399   8.163   4.631  1.00 20.00     0.013 C 
HETATM    7  C3  UNL     1     -34.104   6.166   3.295  1.00 20.00     0.013 C 
ENDBRANCH   2   5
BRANCH   2   8
HETATM    8  O8  UNL     1     -31.343   8.285   2.994  1.00 20.00    -0.383 OA
HETATM    9  H20 UNL     1     -30.590   8.306   2.385  1.00 20.00     0.211 HD
ENDBRANCH   2   8
TORSDOF 3
ENDMDL
MODEL 3
REMARK VINA RESULT:      -0.7      1.195      1.627
REMARK  3 active torsions:
REMARK  status: ('A' for Active; 'I' for Inactive)
REMARK    1  A    between atoms: C1_1  and  C6_6 
REMARK    2  A    between atoms: C5_5  and  C6_6 
REMARK    3  A    between atoms: C6_6  and  O8_8 
ROOT
HETATM    1  C4  UNL     1     -33.134   7.684   4.325  1.00 20.00     0.054 C 
HETATM    2  C6  UNL     1     -33.661   6.634   3.344  1.00 20.00     0.110 C 
ENDROOT
BRANCH   2   3
HETATM    3  C1  UNL     1     -35.183   6.636   3.403  1.00 20.00     0.268 C 
HETATM    4  O7  UNL     1     -35.843   5.985   4.207  1.00 20.00    -0.304 OA
ENDBRANCH   2   3
BRANCH   2   5
HETATM    5  C5  UNL     1     -33.142   6.847   1.898  1.00 20.00     0.018 C 
HETATM    6  C2  UNL     1     -32.593   5.582   1.232  1.00 20.00     0.013 C 
HETATM    7  C3  UNL     1     -32.090   7.965   1.815  1.00 20.00     0.013 C 
ENDBRANCH   2   5
BRANCH   2   8
HETATM    8  O8  UNL     1     -33.214   5.355   3.789  1.00 20.00    -0.383 OA
HETATM    9  H20 UNL     1     -33.498   4.715   3.119  1.00 20.00     0.211 HD
ENDBRANCH   2   8
TORSDOF 3
ENDMDL
MODEL 4
REMARK VINA RESULT:      -0.6      1.918      3.582
REMARK  3 active torsions:
REMARK  status: ('A' for Active; 'I' for Inactive)
REMARK    1  A    between atoms: C1_1  and  C6_6 
REMARK    2  A    between atoms: C5_5  and  C6_6 
REMARK    3  A    between atoms: C6_6  and  O8_8 
ROOT
HETATM    1  C4  UNL     1     -33.532   6.201   0.463  1.00 20.00     0.054 C 
HETATM    2  C6  UNL     1     -32.963   6.317   1.879  1.00 20.00     0.110 C 
ENDROOT
BRANCH   2   3
HETATM    3  C1  UNL     1     -32.130   7.589   1.964  1.00 20.00     0.268 C 
HETATM    4  O7  UNL     1     -32.203   8.517   1.165  1.00 20.00    -0.304 OA
ENDBRANCH   2   3
BRANCH   2   5
HETATM    5  C5  UNL     1     -34.060   6.274   2.973  1.00 20.00     0.018 C 
HETATM    6  C2  UNL     1     -34.003   7.435   3.971  1.00 20.00     0.013 C 
HETATM    7  C3  UNL     1     -34.067   4.942   3.740  1.00 20.00     0.013 C 
ENDBRANCH   2   5
BRANCH   2   8
HETATM    8  O8  UNL     1     -32.085   5.213   2.091  1.00 20.00    -0.383 OA
HETATM    9  H20 UNL     1     -32.580   4.417   1.844  1.00 20.00     0.211 HD
ENDBRANCH   2   8
TORSDOF 3
ENDMDL
MODEL 5
REMARK VINA RESULT:      -0.6      1.245      2.019
REMARK  3 active torsions:
REMARK  status: ('A' for Active; 'I' for Inactive)
REMARK    1  A    between atoms: C1_1  and  C6_6 
REMARK    2  A    between atoms: C5_5  and  C6_6 
REMARK    3  A    between atoms: C6_6  and  O8_8 
ROOT
HETATM    1  C4  UNL     1     -33.834   5.081   3.803  1.00 20.00     0.054 C 
HETATM    2  C6  UNL     1     -33.921   6.501   3.241  1.00 20.00     0.110 C 
ENDROOT
BRANCH   2   3
HETATM    3  C1  UNL     1     -33.353   7.467   4.272  1.00 20.00     0.268 C 
HETATM    4  O7  UNL     1     -34.035   8.118   5.058  1.00 20.00    -0.304 OA
ENDBRANCH   2   3
BRANCH   2   5
HETATM    5  C5  UNL     1     -33.218   6.648   1.867  1.00 20.00     0.018 C 
HETATM    6  C2  UNL     1     -32.552   5.365   1.359  1.00 20.00     0.013 C 
HETATM    7  C3  UNL     1     -32.193   7.794   1.855  1.00 20.00     0.013 C 
ENDBRANCH   2   5
BRANCH   2   8
HETATM    8  O8  UNL     1     -35.300   6.820   3.066  1.00 20.00    -0.383 OA
HETATM    9  H20 UNL     1     -35.330   7.682   2.624  1.00 20.00     0.211 HD
ENDBRANCH   2   8
TORSDOF 3
ENDMDL
MODEL 6
REMARK VINA RESULT:      -0.3      2.229      3.353
REMARK  3 active torsions:
REMARK  status: ('A' for Active; 'I' for Inactive)
REMARK    1  A    between atoms: C1_1  and  C6_6 
REMARK    2  A    between atoms: C5_5  and  C6_6 
REMARK    3  A    between atoms: C6_6  and  O8_8 
ROOT
HETATM    1  C4  UNL     1     -32.210   7.839   1.872  1.00 20.00     0.054 C 
HETATM    2  C6  UNL     1     -33.027   6.546   1.872  1.00 20.00     0.110 C 
ENDROOT
BRANCH   2   3
HETATM    3  C1  UNL     1     -32.069   5.365   1.941  1.00 20.00     0.268 C 
HETATM    4  O7  UNL     1     -31.446   4.925   0.979  1.00 20.00    -0.304 OA
ENDBRANCH   2   3
BRANCH   2   5
HETATM    5  C5  UNL     1     -34.079   6.500   3.011  1.00 20.00     0.018 C 
HETATM    6  C2  UNL     1     -33.913   7.596   4.068  1.00 20.00     0.013 C 
HETATM    7  C3  UNL     1     -34.130   5.128   3.702  1.00 20.00     0.013 C 
ENDBRANCH   2   5
BRANCH   2   8
HETATM    8  O8  UNL     1     -33.722   6.466   0.629  1.00 20.00    -0.383 OA
HETATM    9  H20 UNL     1     -33.988   5.541   0.521  1.00 20.00     0.211 HD
ENDBRANCH   2   8
TORSDOF 3
ENDMDL
MODEL 7
REMARK VINA RESULT:      -0.2      1.262      2.121
REMARK  3 active torsions:
REMARK  status: ('A' for Active; 'I' for Inactive)
REMARK    1  A    between atoms: C1_1  and  C6_6 
REMARK    2  A    between atoms: C5_5  and  C6_6 
REMARK    3  A    between atoms: C6_6  and  O8_8 
ROOT
HETATM    1  C4  UNL     1     -33.407   5.743   1.612  1.00 20.00     0.054 C 
HETATM    2  C6  UNL     1     -33.821   6.063   3.050  1.00 20.00     0.110 C 
ENDROOT
BRANCH   2   3
HETATM    3  C1  UNL     1     -33.704   4.794   3.882  1.00 20.00     0.268 C 
HETATM    4  O7  UNL     1     -34.649   4.246   4.442  1.00 20.00    -0.304 OA
ENDBRANCH   2   3
BRANCH   2   5
HETATM    5  C5  UNL     1     -33.006   7.231   3.664  1.00 20.00     0.018 C 
HETATM    6  C2  UNL     1     -33.805   8.127   4.614  1.00 20.00     0.013 C 
HETATM    7  C3  UNL     1     -32.331   8.099   2.590  1.00 20.00     0.013 C 
ENDBRANCH   2   5
BRANCH   2   8
HETATM    8  O8  UNL     1     -35.195   6.445   3.036  1.00 20.00    -0.383 OA
HETATM    9  H20 UNL     1     -35.213   7.408   2.934  1.00 20.00     0.211 HD
ENDBRANCH   2   8
TORSDOF 3
ENDMDL
MODEL 8
REMARK VINA RESULT:      -0.1      1.326      2.447
REMARK  3 active torsions:
REMARK  status: ('A' for Active; 'I' for Inactive)
REMARK    1  A    between atoms: C1_1  and  C6_6 
REMARK    2  A    between atoms: C5_5  and  C6_6 
REMARK    3  A    between atoms: C6_6  and  O8_8 
ROOT
HETATM    1  C4  UNL     1     -34.339   5.293   4.130  1.00 20.00     0.054 C 
HETATM    2  C6  UNL     1     -34.098   6.618   3.404  1.00 20.00     0.110 C 
ENDROOT
BRANCH   2   3
HETATM    3  C1  UNL     1     -34.027   7.733   4.438  1.00 20.00     0.268 C 
HETATM    4  O7  UNL     1     -33.023   8.009   5.088  1.00 20.00    -0.304 OA
ENDBRANCH   2   3
BRANCH   2   5
HETATM    5  C5  UNL     1     -32.838   6.589   2.501  1.00 20.00     0.018 C 
HETATM    6  C2  UNL     1     -32.442   7.952   1.926  1.00 20.00     0.013 C 
HETATM    7  C3  UNL     1     -32.961   5.568   1.359  1.00 20.00     0.013 C 
ENDBRANCH   2   5
BRANCH   2   8
HETATM    8  O8  UNL     1     -35.229   6.873   2.572  1.00 20.00    -0.383 OA
HETATM    9  H20 UNL     1     -35.375   7.831   2.592  1.00 20.00     0.211 HD
ENDBRANCH   2   8
TORSDOF 3
ENDMDL
MODEL 9
REMARK VINA RESULT:      -0.1      1.904      3.199
REMARK  3 active torsions:
REMARK  status: ('A' for Active; 'I' for Inactive)
REMARK    1  A    between atoms: C1_1  and  C6_6 
REMARK    2  A    between atoms: C5_5  and  C6_6 
REMARK    3  A    between atoms: C6_6  and  O8_8 
ROOT
HETATM    1  C4  UNL     1     -32.872   8.242   4.828  1.00 20.00     0.054 C 
HETATM    2  C6  UNL     1     -33.337   7.727   3.463  1.00 20.00     0.110 C 
ENDROOT
BRANCH   2   3
HETATM    3  C1  UNL     1     -32.204   7.913   2.463  1.00 20.00     0.268 C 
HETATM    4  O7  UNL     1     -32.272   8.629   1.468  1.00 20.00    -0.304 OA
ENDBRANCH   2   3
BRANCH   2   5
HETATM    5  C5  UNL     1     -33.827   6.257   3.510  1.00 20.00     0.018 C 
HETATM    6  C2  UNL     1     -33.575   5.467   2.223  1.00 20.00     0.013 C 
HETATM    7  C3  UNL     1     -35.311   6.149   3.893  1.00 20.00     0.013 C 
ENDBRANCH   2   5
BRANCH   2   8
HETATM    8  O8  UNL     1     -34.427   8.542   3.036  1.00 20.00    -0.383 OA
HETATM    9  H20 UNL     1     -35.119   7.937   2.729  1.00 20.00     0.211 HD
ENDBRANCH   2   8
TORSDOF 3
ENDMDL
