MODEL 1
REMARK VINA RESULT:      -1.9      0.000      0.000
REMARK  4 active torsions:
REMARK  status: ('A' for Active; 'I' for Inactive)
REMARK    1  A    between atoms: C3_3  and  C5_5 
REMARK    2  A    between atoms: C3_3  and  C6_6 
REMARK    3  A    between atoms: C5_5  and  C7_7 
REMARK    4  A    between atoms: C7_7  and  O8_8 
ROOT
HETATM    1  C1  UNL     1     -33.104   5.829   0.765  1.00 20.00     0.011 A 
HETATM    2  C2  UNL     1     -32.056   5.239   1.664  1.00 20.00     0.011 A 
HETATM    3  C3  UNL     1     -32.902   6.392   2.152  1.00 20.00    -0.026 A 
ENDROOT
BRANCH   3   4
HETATM    4  C5  UNL     1     -32.249   7.741   2.278  1.00 20.00     0.037 C 
BRANCH   4   5
HETATM    5  C7  UNL     1     -31.929   8.359   0.920  1.00 20.00     0.167 C 
BRANCH   5   6
HETATM    6  O8  UNL     1     -32.429   9.689   0.878  1.00 20.00    -0.396 OA
HETATM    7  C4  UNL     1     -32.671  10.114  -0.457  1.00 20.00     0.201 C 
ENDBRANCH   5   6
ENDBRANCH   4   5
ENDBRANCH   3   4
BRANCH   3   8
HETATM    8  C6  UNL     1     -33.953   6.105   3.189  1.00 20.00     0.124 C 
HETATM    9 CL9  UNL     1     -34.293   7.557   4.162  1.00 20.00    -0.130 Cl
ENDBRANCH   3   8
TORSDOF 4
ENDMDL
MODEL 2
REMARK VINA RESULT:      -1.4      1.794      2.601
REMARK  4 active torsions:
REMARK  status: ('A' for Active; 'I' for Inactive)
REMARK    1  A    between atoms: C3_3  and  C5_5 
REMARK    2  A    between atoms: C3_3  and  C6_6 
REMARK    3  A    between atoms: C5_5  and  C7_7 
REMARK    4  A    between atoms: C7_7  and  O8_8 
ROOT
HETATM    1  C1  UNL     1     -34.998   6.477   4.631  1.00 20.00     0.011 A 
HETATM    2  C2  UNL     1     -35.587   6.719   3.271  1.00 20.00     0.011 A 
HETATM    3  C3  UNL     1     -34.108   6.443   3.410  1.00 20.00    -0.026 A 
ENDROOT
BRANCH   3   4
HETATM    4  C5  UNL     1     -33.155   7.588   3.200  1.00 20.00     0.037 C 
BRANCH   4   5
HETATM    5  C7  UNL     1     -32.451   7.516   1.848  1.00 20.00     0.167 C 
BRANCH   5   6
HETATM    6  O8  UNL     1     -31.837   8.767   1.570  1.00 20.00    -0.396 OA
HETATM    7  C4  UNL     1     -32.427   9.398   0.440  1.00 20.00     0.201 C 
ENDBRANCH   5   6
ENDBRANCH   4   5
ENDBRANCH   3   4
BRANCH   3   8
HETATM    8  C6  UNL     1     -33.593   5.108   2.948  1.00 20.00     0.124 C 
HETATM    9 CL9  UNL     1     -33.877   3.859   4.185  1.00 20.00    -0.130 Cl
ENDBRANCH   3   8
TORSDOF 4
ENDMDL
MODEL 3
REMARK VINA RESULT:      -1.4      2.055      3.095
REMARK  4 active torsions:
REMARK  status: ('A' for Active; 'I' for Inactive)
REMARK    1  A    between atoms: C3_3  and  C5_5 
REMARK    2  A    between atoms: C3_3  and  C6_6 
REMARK    3  A    between atoms: C5_5  and  C7_7 
REMARK    4  A    between atoms: C7_7  and  O8_8 
ROOT
HETATM    1  C1  UNL     1     -34.186   7.241   4.144  1.00 20.00     0.011 A 
HETATM    2  C2  UNL     1     -35.485   6.949   3.448  1.00 20.00     0.011 A 
HETATM    3  C3  UNL     1     -34.431   5.871   3.555  1.00 20.00    -0.026 A 
ENDROOT
BRANCH   3   4
HETATM    4  C5  UNL     1     -33.680   5.494   2.308  1.00 20.00     0.037 C 
BRANCH   4   5
HETATM    5  C7  UNL     1     -32.346   6.228   2.190  1.00 20.00     0.167 C 
BRANCH   5   6
HETATM    6  O8  UNL     1     -32.423   7.178   1.136  1.00 20.00    -0.396 OA
HETATM    7  C4  UNL     1     -31.890   8.436   1.529  1.00 20.00     0.201 C 
ENDBRANCH   5   6
ENDBRANCH   4   5
ENDBRANCH   3   4
BRANCH   3   8
HETATM    8  C6  UNL     1     -34.683   4.730   4.503  1.00 20.00     0.124 C 
HETATM    9 CL9  UNL     1     -33.539   3.399   4.207  1.00 20.00    -0.130 Cl
ENDBRANCH   3   8
TORSDOF 4
ENDMDL
MODEL 4
REMARK VINA RESULT:      -1.4      3.332      5.005
REMARK  4 active torsions:
REMARK  status: ('A' for Active; 'I' for Inactive)
REMARK    1  A    between atoms: C3_3  and  C5_5 
REMARK    2  A    between atoms: C3_3  and  C6_6 
REMARK    3  A    between atoms: C5_5  and  C7_7 
REMARK    4  A    between atoms: C7_7  and  O8_8 
ROOT
HETATM    1  C1  UNL     1     -34.380   8.322   3.701  1.00 20.00     0.011 A 
HETATM    2  C2  UNL     1     -33.274   7.806   4.576  1.00 20.00     0.011 A 
HETATM    3  C3  UNL     1     -33.845   6.926   3.488  1.00 20.00    -0.026 A 
ENDROOT
BRANCH   3   4
HETATM    4  C5  UNL     1     -34.711   5.768   3.901  1.00 20.00     0.037 C 
BRANCH   4   5
HETATM    5  C7  UNL     1     -34.073   4.420   3.572  1.00 20.00     0.167 C 
BRANCH   5   6
HETATM    6  O8  UNL     1     -34.163   3.568   4.705  1.00 20.00    -0.396 OA
HETATM    7  C4  UNL     1     -32.964   2.828   4.898  1.00 20.00     0.201 C 
ENDBRANCH   5   6
ENDBRANCH   4   5
ENDBRANCH   3   4
BRANCH   3   8
HETATM    8  C6  UNL     1     -33.000   6.672   2.270  1.00 20.00     0.124 C 
HETATM    9 CL9  UNL     1     -32.068   8.125   1.833  1.00 20.00    -0.130 Cl
ENDBRANCH   3   8
TORSDOF 4
ENDMDL
MODEL 5
REMARK VINA RESULT:      -1.3      1.696      2.343
REMARK  4 active torsions:
REMARK  status: ('A' for Active; 'I' for Inactive)
REMARK    1  A    between atoms: C3_3  and  C5_5 
REMARK    2  A    between atoms: C3_3  and  C6_6 
REMARK    3  A    between atoms: C5_5  and  C7_7 
REMARK    4  A    between atoms: C7_7  and  O8_8 
ROOT
HETATM    1  C1  UNL     1     -33.813   5.871   3.876  1.00 20.00     0.011 A 
HETATM    2  C2  UNL     1     -34.802   6.832   3.281  1.00 20.00     0.011 A 
HETATM    3  C3  UNL     1     -33.433   6.680   2.658  1.00 20.00    -0.026 A 
ENDROOT
BRANCH   3   4
HETATM    4  C5  UNL     1     -32.450   7.804   2.836  1.00 20.00     0.037 C 
BRANCH   4   5
HETATM    5  C7  UNL     1     -31.948   8.352   1.503  1.00 20.00     0.167 C 
BRANCH   5   6
HETATM    6  O8  UNL     1     -32.637   9.557   1.200  1.00 20.00    -0.396 OA
HETATM    7  C4  UNL     1     -32.441   9.944  -0.154  1.00 20.00     0.201 C 
ENDBRANCH   5   6
ENDBRANCH   4   5
ENDBRANCH   3   4
BRANCH   3   8
HETATM    8  C6  UNL     1     -33.335   5.965   1.339  1.00 20.00     0.124 C 
HETATM    9 CL9  UNL     1     -31.830   5.018   1.244  1.00 20.00    -0.130 Cl
ENDBRANCH   3   8
TORSDOF 4
ENDMDL
MODEL 6
REMARK VINA RESULT:      -1.2      1.842      2.514
REMARK  4 active torsions:
REMARK  status: ('A' for Active; 'I' for Inactive)
REMARK    1  A    between atoms: C3_3  and  C5_5 
REMARK    2  A    between atoms: C3_3  and  C6_6 
REMARK    3  A    between atoms: C5_5  and  C7_7 
REMARK    4  A    between atoms: C7_7  and  O8_8 
ROOT
HETATM    1  C1  UNL     1     -33.735   7.358   4.371  1.00 20.00     0.011 A 
HETATM    2  C2  UNL     1     -35.007   6.900   3.717  1.00 20.00     0.011 A 
HETATM    3  C3  UNL     1     -33.688   6.720   3.003  1.00 20.00    -0.026 A 
ENDROOT
BRANCH   3   4
HETATM    4  C5  UNL     1     -33.400   7.605   1.821  1.00 20.00     0.037 C 
BRANCH   4   5
HETATM    5  C7  UNL     1     -32.050   8.308   1.939  1.00 20.00     0.167 C 
BRANCH   5   6
HETATM    6  O8  UNL     1     -31.683   8.838   0.673  1.00 20.00    -0.396 OA
HETATM    7  C4  UNL     1     -32.479   9.965   0.328  1.00 20.00     0.201 C 
ENDBRANCH   5   6
ENDBRANCH   4   5
ENDBRANCH   3   4
BRANCH   3   8
HETATM    8  C6  UNL     1     -33.131   5.327   2.892  1.00 20.00     0.124 C 
HETATM    9 CL9  UNL     1     -32.379   5.071   1.299  1.00 20.00    -0.130 Cl
ENDBRANCH   3   8
TORSDOF 4
ENDMDL
MODEL 7
REMARK VINA RESULT:      -1.2      2.659      3.978
REMARK  4 active torsions:
REMARK  status: ('A' for Active; 'I' for Inactive)
REMARK    1  A    between atoms: C3_3  and  C5_5 
REMARK    2  A    between atoms: C3_3  and  C6_6 
REMARK    3  A    between atoms: C5_5  and  C7_7 
REMARK    4  A    between atoms: C7_7  and  O8_8 
ROOT
HETATM    1  C1  UNL     1     -32.364   5.589   2.241  1.00 20.00     0.011 A 
HETATM    2  C2  UNL     1     -33.019   5.888   0.923  1.00 20.00     0.011 A 
HETATM    3  C3  UNL     1     -32.751   7.009   1.901  1.00 20.00    -0.026 A 
ENDROOT
BRANCH   3   4
HETATM    4  C5  UNL     1     -33.927   7.611   2.620  1.00 20.00     0.037 C 
BRANCH   4   5
HETATM    5  C7  UNL     1     -34.111   7.028   4.019  1.00 20.00     0.167 C 
BRANCH   5   6
HETATM    6  O8  UNL     1     -35.328   6.295   4.067  1.00 20.00    -0.396 OA
HETATM    7  C4  UNL     1     -35.112   4.953   4.483  1.00 20.00     0.201 C 
ENDBRANCH   5   6
ENDBRANCH   4   5
ENDBRANCH   3   4
BRANCH   3   8
HETATM    8  C6  UNL     1     -31.652   7.981   1.574  1.00 20.00     0.124 C 
HETATM    9 CL9  UNL     1     -32.285   9.364   0.649  1.00 20.00    -0.130 Cl
ENDBRANCH   3   8
TORSDOF 4
ENDMDL
MODEL 8
REMARK VINA RESULT:      -1.0      2.777      4.188
REMARK  4 active torsions:
REMARK  status: ('A' for Active; 'I' for Inactive)
REMARK    1  A    between atoms: C3_3  and  C5_5 
REMARK    2  A    between atoms: C3_3  and  C6_6 
REMARK    3  A    between atoms: C5_5  and  C7_7 
REMARK    4  A    between atoms: C7_7  and  O8_8 
ROOT
HETATM    1  C1  UNL     1     -32.655   8.647   1.537  1.00 20.00     0.011 A 
HETATM    2  C2  UNL     1     -31.485   7.962   2.182  1.00 20.00     0.011 A 
HETATM    3  C3  UNL     1     -32.848   7.310   2.212  1.00 20.00    -0.026 A 
ENDROOT
BRANCH   3   4
HETATM    4  C5  UNL     1     -33.585   7.281   3.522  1.00 20.00     0.037 C 
BRANCH   4   5
HETATM    5  C7  UNL     1     -34.939   6.584   3.410  1.00 20.00     0.167 C 
BRANCH   5   6
HETATM    6  O8  UNL     1     -35.078   5.652   4.474  1.00 20.00    -0.396 OA
HETATM    7  C4  UNL     1     -34.355   4.455   4.216  1.00 20.00     0.201 C 
ENDBRANCH   5   6
ENDBRANCH   4   5
ENDBRANCH   3   4
BRANCH   3   8
HETATM    8  C6  UNL     1     -33.072   6.105   1.341  1.00 20.00     0.124 C 
HETATM    9 CL9  UNL     1     -31.649   5.035   1.363  1.00 20.00    -0.130 Cl
ENDBRANCH   3   8
TORSDOF 4
ENDMDL
MODEL 9
REMARK VINA RESULT:      -1.0      1.277      1.962
REMARK  4 active torsions:
REMARK  status: ('A' for Active; 'I' for Inactive)
REMARK    1  A    between atoms: C3_3  and  C5_5 
REMARK    2  A    between atoms: C3_3  and  C6_6 
REMARK    3  A    between atoms: C5_5  and  C7_7 
REMARK    4  A    between atoms: C7_7  and  O8_8 
ROOT
HETATM    1  C1  UNL     1     -35.073   6.598   3.543  1.00 20.00     0.011 A 
HETATM    2  C2  UNL     1     -34.074   5.489   3.712  1.00 20.00     0.011 A 
HETATM    3  C3  UNL     1     -33.606   6.865   3.297  1.00 20.00    -0.026 A 
ENDROOT
BRANCH   3   4
HETATM    4  C5  UNL     1     -33.152   7.056   1.875  1.00 20.00     0.037 C 
BRANCH   4   5
HETATM    5  C7  UNL     1     -32.025   8.079   1.759  1.00 20.00     0.167 C 
BRANCH   5   6
HETATM    6  O8  UNL     1     -32.024   8.630   0.449  1.00 20.00    -0.396 OA
HETATM    7  C4  UNL     1     -32.500   9.970   0.446  1.00 20.00     0.201 C 
ENDBRANCH   5   6
ENDBRANCH   4   5
ENDBRANCH   3   4
BRANCH   3   8
HETATM    8  C6  UNL     1     -32.860   7.691   4.308  1.00 20.00     0.124 C 
HETATM    9 CL9  UNL     1     -33.989   8.491   5.428  1.00 20.00    -0.130 Cl
ENDBRANCH   3   8
TORSDOF 4
ENDMDL
