MODEL 1
REMARK VINA RESULT:      -2.4      0.000      0.000
REMARK  5 active torsions:
REMARK  status: ('A' for Active; 'I' for Inactive)
REMARK    1  A    between atoms: C4_4  and  C5_5 
REMARK    2  A    between atoms: C5_5  and  C8_8 
REMARK    3  A    between atoms: C6_6  and  C8_8 
REMARK    4  A    between atoms: C6_6  and  C9_9 
REMARK    5  A    between atoms: C7_7  and  C9_9 
ROOT
HETATM    1  C6  UNL     1     -33.360   8.022   2.520  1.00 20.00     0.009 C 
ENDROOT
BRANCH   1   2
HETATM    2  C8  UNL     1     -33.686   7.234   3.806  1.00 20.00    -0.018 C 
HETATM    3  C2  UNL     1     -33.572   8.103   5.060  1.00 20.00     0.010 C 
BRANCH   2   4
HETATM    4  C5  UNL     1     -35.068   6.547   3.717  1.00 20.00     0.004 C 
BRANCH   4   5
HETATM    5  C4  UNL     1     -35.181   5.197   4.430  1.00 20.00    -0.004 C 
HETATM    6  C1  UNL     1     -34.052   4.263   4.022  1.00 20.00     0.005 C 
ENDBRANCH   4   5
ENDBRANCH   2   4
ENDBRANCH   1   2
BRANCH   1   7
HETATM    7  C9  UNL     1     -32.042   7.636   1.809  1.00 20.00    -0.004 C 
HETATM    8  C3  UNL     1     -32.101   6.162   1.386  1.00 20.00     0.011 C 
BRANCH   7   9
HETATM    9  C7  UNL     1     -31.666   8.539   0.624  1.00 20.00     0.119 C 
HETATM   10 CL10 UNL     1     -32.634  10.030   0.531  1.00 20.00    -0.130 Cl
ENDBRANCH   7   9
ENDBRANCH   1   7
TORSDOF 5
ENDMDL
MODEL 2
REMARK VINA RESULT:      -2.3      2.429      5.019
REMARK  5 active torsions:
REMARK  status: ('A' for Active; 'I' for Inactive)
REMARK    1  A    between atoms: C4_4  and  C5_5 
REMARK    2  A    between atoms: C5_5  and  C8_8 
REMARK    3  A    between atoms: C6_6  and  C8_8 
REMARK    4  A    between atoms: C6_6  and  C9_9 
REMARK    5  A    between atoms: C7_7  and  C9_9 
ROOT
HETATM    1  C6  UNL     1     -33.516   7.618   2.522  1.00 20.00     0.009 C 
ENDROOT
BRANCH   1   2
HETATM    2  C8  UNL     1     -32.193   7.137   1.887  1.00 20.00    -0.018 C 
HETATM    3  C2  UNL     1     -32.334   5.758   1.237  1.00 20.00     0.010 C 
BRANCH   2   4
HETATM    4  C5  UNL     1     -31.628   8.177   0.894  1.00 20.00     0.004 C 
BRANCH   4   5
HETATM    5  C4  UNL     1     -32.335   9.535   0.887  1.00 20.00    -0.004 C 
HETATM    6  C1  UNL     1     -32.716   9.950  -0.526  1.00 20.00     0.005 C 
ENDBRANCH   4   5
ENDBRANCH   2   4
ENDBRANCH   1   2
BRANCH   1   7
HETATM    7  C9  UNL     1     -33.840   7.044   3.921  1.00 20.00    -0.004 C 
HETATM    8  C3  UNL     1     -33.744   8.162   4.968  1.00 20.00     0.011 C 
BRANCH   7   9
HETATM    9  C7  UNL     1     -35.186   6.309   4.014  1.00 20.00     0.119 C 
HETATM   10 CL10 UNL     1     -35.033   4.602   4.495  1.00 20.00    -0.130 Cl
ENDBRANCH   7   9
ENDBRANCH   1   7
TORSDOF 5
ENDMDL
MODEL 3
REMARK VINA RESULT:      -1.9      2.774      4.912
REMARK  5 active torsions:
REMARK  status: ('A' for Active; 'I' for Inactive)
REMARK    1  A    between atoms: C4_4  and  C5_5 
REMARK    2  A    between atoms: C5_5  and  C8_8 
REMARK    3  A    between atoms: C6_6  and  C8_8 
REMARK    4  A    between atoms: C6_6  and  C9_9 
REMARK    5  A    between atoms: C7_7  and  C9_9 
ROOT
HETATM    1  C6  UNL     1     -33.485   6.225   2.461  1.00 20.00     0.009 C 
ENDROOT
BRANCH   1   2
HETATM    2  C8  UNL     1     -33.069   7.702   2.625  1.00 20.00    -0.018 C 
HETATM    3  C2  UNL     1     -32.898   8.093   4.095  1.00 20.00     0.010 C 
BRANCH   2   4
HETATM    4  C5  UNL     1     -31.805   8.032   1.800  1.00 20.00     0.004 C 
BRANCH   4   5
HETATM    5  C4  UNL     1     -32.056   8.713   0.452  1.00 20.00    -0.004 C 
HETATM    6  C1  UNL     1     -32.580  10.129   0.640  1.00 20.00     0.005 C 
ENDBRANCH   4   5
ENDBRANCH   2   4
ENDBRANCH   1   2
BRANCH   1   7
HETATM    7  C9  UNL     1     -34.025   5.531   3.733  1.00 20.00    -0.004 C 
HETATM    8  C3  UNL     1     -35.423   6.074   4.059  1.00 20.00     0.011 C 
BRANCH   7   9
HETATM    9  C7  UNL     1     -34.025   3.996   3.673  1.00 20.00     0.119 C 
HETATM   10 CL10 UNL     1     -33.105   3.231   4.992  1.00 20.00    -0.130 Cl
ENDBRANCH   7   9
ENDBRANCH   1   7
TORSDOF 5
ENDMDL
MODEL 4
REMARK VINA RESULT:      -1.8      1.165      1.740
REMARK  5 active torsions:
REMARK  status: ('A' for Active; 'I' for Inactive)
REMARK    1  A    between atoms: C4_4  and  C5_5 
REMARK    2  A    between atoms: C5_5  and  C8_8 
REMARK    3  A    between atoms: C6_6  and  C8_8 
REMARK    4  A    between atoms: C6_6  and  C9_9 
REMARK    5  A    between atoms: C7_7  and  C9_9 
ROOT
HETATM    1  C6  UNL     1     -33.080   6.770   1.841  1.00 20.00     0.009 C 
ENDROOT
BRANCH   1   2
HETATM    2  C8  UNL     1     -33.519   6.186   3.200  1.00 20.00    -0.018 C 
HETATM    3  C2  UNL     1     -34.824   6.808   3.701  1.00 20.00     0.010 C 
BRANCH   2   4
HETATM    4  C5  UNL     1     -33.607   4.644   3.154  1.00 20.00     0.004 C 
BRANCH   4   5
HETATM    5  C4  UNL     1     -34.031   3.968   4.462  1.00 20.00    -0.004 C 
HETATM    6  C1  UNL     1     -33.120   2.796   4.795  1.00 20.00     0.005 C 
ENDBRANCH   4   5
ENDBRANCH   2   4
ENDBRANCH   1   2
BRANCH   1   7
HETATM    7  C9  UNL     1     -32.541   8.219   1.872  1.00 20.00    -0.004 C 
HETATM    8  C3  UNL     1     -31.570   8.379   3.050  1.00 20.00     0.011 C 
BRANCH   7   9
HETATM    9  C7  UNL     1     -31.901   8.692   0.558  1.00 20.00     0.119 C 
HETATM   10 CL10 UNL     1     -32.618  10.190  -0.085  1.00 20.00    -0.130 Cl
ENDBRANCH   7   9
ENDBRANCH   1   7
TORSDOF 5
ENDMDL
MODEL 5
REMARK VINA RESULT:      -1.7      1.072      1.568
REMARK  5 active torsions:
REMARK  status: ('A' for Active; 'I' for Inactive)
REMARK    1  A    between atoms: C4_4  and  C5_5 
REMARK    2  A    between atoms: C5_5  and  C8_8 
REMARK    3  A    between atoms: C6_6  and  C8_8 
REMARK    4  A    between atoms: C6_6  and  C9_9 
REMARK    5  A    between atoms: C7_7  and  C9_9 
ROOT
HETATM    1  C6  UNL     1     -33.534   7.424   2.909  1.00 20.00     0.009 C 
ENDROOT
BRANCH   1   2
HETATM    2  C8  UNL     1     -34.126   6.358   3.856  1.00 20.00    -0.018 C 
HETATM    3  C2  UNL     1     -35.656   6.369   3.852  1.00 20.00     0.010 C 
BRANCH   2   4
HETATM    4  C5  UNL     1     -33.568   4.950   3.546  1.00 20.00     0.004 C 
BRANCH   4   5
HETATM    5  C4  UNL     1     -34.083   3.824   4.447  1.00 20.00    -0.004 C 
HETATM    6  C1  UNL     1     -32.969   2.850   4.799  1.00 20.00     0.005 C 
ENDBRANCH   4   5
ENDBRANCH   2   4
ENDBRANCH   1   2
BRANCH   1   7
HETATM    7  C9  UNL     1     -32.299   6.986   2.089  1.00 20.00    -0.004 C 
HETATM    8  C3  UNL     1     -32.733   6.004   0.993  1.00 20.00     0.011 C 
BRANCH   7   9
HETATM    9  C7  UNL     1     -31.477   8.145   1.502  1.00 20.00     0.119 C 
HETATM   10 CL10 UNL     1     -32.469   9.381   0.691  1.00 20.00    -0.130 Cl
ENDBRANCH   7   9
ENDBRANCH   1   7
TORSDOF 5
ENDMDL
MODEL 6
REMARK VINA RESULT:      -1.4      1.948      2.626
REMARK  5 active torsions:
REMARK  status: ('A' for Active; 'I' for Inactive)
REMARK    1  A    between atoms: C4_4  and  C5_5 
REMARK    2  A    between atoms: C5_5  and  C8_8 
REMARK    3  A    between atoms: C6_6  and  C8_8 
REMARK    4  A    between atoms: C6_6  and  C9_9 
REMARK    5  A    between atoms: C7_7  and  C9_9 
ROOT
HETATM    1  C6  UNL     1     -33.298   6.604   3.570  1.00 20.00     0.009 C 
ENDROOT
BRANCH   1   2
HETATM    2  C8  UNL     1     -34.708   6.307   4.124  1.00 20.00    -0.018 C 
HETATM    3  C2  UNL     1     -35.811   6.788   3.179  1.00 20.00     0.010 C 
BRANCH   2   4
HETATM    4  C5  UNL     1     -34.877   4.812   4.478  1.00 20.00     0.004 C 
BRANCH   4   5
HETATM    5  C4  UNL     1     -33.820   3.872   3.890  1.00 20.00    -0.004 C 
HETATM    6  C1  UNL     1     -33.179   3.019   4.974  1.00 20.00     0.005 C 
ENDBRANCH   4   5
ENDBRANCH   2   4
ENDBRANCH   1   2
BRANCH   1   7
HETATM    7  C9  UNL     1     -33.227   6.971   2.070  1.00 20.00    -0.004 C 
HETATM    8  C3  UNL     1     -32.116   8.007   1.847  1.00 20.00     0.011 C 
BRANCH   7   9
HETATM    9  C7  UNL     1     -33.063   5.770   1.125  1.00 20.00     0.119 C 
HETATM   10 CL10 UNL     1     -31.474   4.977   1.250  1.00 20.00    -0.130 Cl
ENDBRANCH   7   9
ENDBRANCH   1   7
TORSDOF 5
ENDMDL
MODEL 7
REMARK VINA RESULT:      -1.3      1.702      2.021
REMARK  5 active torsions:
REMARK  status: ('A' for Active; 'I' for Inactive)
REMARK    1  A    between atoms: C4_4  and  C5_5 
REMARK    2  A    between atoms: C5_5  and  C8_8 
REMARK    3  A    between atoms: C6_6  and  C8_8 
REMARK    4  A    between atoms: C6_6  and  C9_9 
REMARK    5  A    between atoms: C7_7  and  C9_9 
ROOT
HETATM    1  C6  UNL     1     -32.344   8.366   3.099  1.00 20.00     0.009 C 
ENDROOT
BRANCH   1   2
HETATM    2  C8  UNL     1     -33.219   7.554   4.077  1.00 20.00    -0.018 C 
HETATM    3  C2  UNL     1     -33.446   8.293   5.397  1.00 20.00     0.010 C 
BRANCH   2   4
HETATM    4  C5  UNL     1     -34.556   7.131   3.427  1.00 20.00     0.004 C 
BRANCH   4   5
HETATM    5  C4  UNL     1     -35.311   6.007   4.143  1.00 20.00    -0.004 C 
HETATM    6  C1  UNL     1     -34.487   4.729   4.183  1.00 20.00     0.005 C 
ENDBRANCH   4   5
ENDBRANCH   2   4
ENDBRANCH   1   2
BRANCH   1   7
HETATM    7  C9  UNL     1     -32.493   8.005   1.602  1.00 20.00    -0.004 C 
HETATM    8  C3  UNL     1     -32.213   9.246   0.745  1.00 20.00     0.011 C 
BRANCH   7   9
HETATM    9  C7  UNL     1     -31.642   6.810   1.145  1.00 20.00     0.119 C 
HETATM   10 CL10 UNL     1     -32.501   5.252   1.224  1.00 20.00    -0.130 Cl
ENDBRANCH   7   9
ENDBRANCH   1   7
TORSDOF 5
ENDMDL
MODEL 8
REMARK VINA RESULT:      -1.2      1.156      2.669
REMARK  5 active torsions:
REMARK  status: ('A' for Active; 'I' for Inactive)
REMARK    1  A    between atoms: C4_4  and  C5_5 
REMARK    2  A    between atoms: C5_5  and  C8_8 
REMARK    3  A    between atoms: C6_6  and  C8_8 
REMARK    4  A    between atoms: C6_6  and  C9_9 
REMARK    5  A    between atoms: C7_7  and  C9_9 
ROOT
HETATM    1  C6  UNL     1     -31.878   6.772   1.508  1.00 20.00     0.009 C 
ENDROOT
BRANCH   1   2
HETATM    2  C8  UNL     1     -33.124   5.861   1.554  1.00 20.00    -0.018 C 
HETATM    3  C2  UNL     1     -32.982   4.644   0.638  1.00 20.00     0.010 C 
BRANCH   2   4
HETATM    4  C5  UNL     1     -33.470   5.445   3.001  1.00 20.00     0.004 C 
BRANCH   4   5
HETATM    5  C4  UNL     1     -34.717   6.104   3.597  1.00 20.00    -0.004 C 
HETATM    6  C1  UNL     1     -34.373   7.425   4.270  1.00 20.00     0.005 C 
ENDBRANCH   4   5
ENDBRANCH   2   4
ENDBRANCH   1   2
BRANCH   1   7
HETATM    7  C9  UNL     1     -32.144   8.286   1.670  1.00 20.00    -0.004 C 
HETATM    8  C3  UNL     1     -31.380   8.813   2.893  1.00 20.00     0.011 C 
BRANCH   7   9
HETATM    9  C7  UNL     1     -31.838   9.127   0.420  1.00 20.00     0.119 C 
HETATM   10 CL10 UNL     1     -32.778  10.636   0.329  1.00 20.00    -0.130 Cl
ENDBRANCH   7   9
ENDBRANCH   1   7
TORSDOF 5
ENDMDL
MODEL 9
REMARK VINA RESULT:      -1.2      1.996      4.585
REMARK  5 active torsions:
REMARK  status: ('A' for Active; 'I' for Inactive)
REMARK    1  A    between atoms: C4_4  and  C5_5 
REMARK    2  A    between atoms: C5_5  and  C8_8 
REMARK    3  A    between atoms: C6_6  and  C8_8 
REMARK    4  A    between atoms: C6_6  and  C9_9 
REMARK    5  A    between atoms: C7_7  and  C9_9 
ROOT
HETATM    1  C6  UNL     1     -32.815   5.892   2.985  1.00 20.00     0.009 C 
ENDROOT
BRANCH   1   2
HETATM    2  C8  UNL     1     -32.372   5.794   1.510  1.00 20.00    -0.018 C 
HETATM    3  C2  UNL     1     -33.523   5.385   0.588  1.00 20.00     0.010 C 
BRANCH   2   4
HETATM    4  C5  UNL     1     -31.698   7.100   1.031  1.00 20.00     0.004 C 
BRANCH   4   5
HETATM    5  C4  UNL     1     -32.278   8.393   1.613  1.00 20.00    -0.004 C 
HETATM    6  C1  UNL     1     -32.313   9.499   0.568  1.00 20.00     0.005 C 
ENDBRANCH   4   5
ENDBRANCH   2   4
ENDBRANCH   1   2
BRANCH   1   7
HETATM    7  C9  UNL     1     -34.187   5.261   3.320  1.00 20.00    -0.004 C 
HETATM    8  C3  UNL     1     -33.978   4.006   4.178  1.00 20.00     0.011 C 
BRANCH   7   9
HETATM    9  C7  UNL     1     -35.189   6.223   3.977  1.00 20.00     0.119 C 
HETATM   10 CL10 UNL     1     -34.488   7.804   4.399  1.00 20.00    -0.130 Cl
ENDBRANCH   7   9
ENDBRANCH   1   7
TORSDOF 5
ENDMDL
