MODEL 1
REMARK VINA RESULT:      -1.7      0.000      0.000
REMARK  5 active torsions:
REMARK  status: ('A' for Active; 'I' for Inactive)
REMARK    1  A    between atoms: C2_2  and  C8_8 
REMARK    2  A    between atoms: C2_2  and  C9_9 
REMARK    3  A    between atoms: C6_6  and  C10_10 
REMARK    4  A    between atoms: C9_9  and  C10_10 
REMARK    5  A    between atoms: C10_10  and  O11_11 
ROOT
HETATM    1  C10 UNL     1     -33.218   6.229   1.804  1.00 20.00     0.126 C 
ENDROOT
BRANCH   1   2
HETATM    2  C6  UNL     1     -33.389   6.137   3.313  1.00 20.00     0.015 C 
HETATM    3  C4  UNL     1     -34.398   5.077   3.820  1.00 20.00     0.007 C 
HETATM    4  C3  UNL     1     -35.459   6.193   3.879  1.00 20.00     0.001 C 
HETATM    5  C5  UNL     1     -34.303   7.208   3.960  1.00 20.00     0.007 C 
ENDBRANCH   1   2
BRANCH   1   6
HETATM    6  C9  UNL     1     -31.847   6.830   1.470  1.00 20.00     0.065 C 
BRANCH   6   7
HETATM    7  C2  UNL     1     -31.822   8.346   1.547  1.00 20.00    -0.087 C 
HETATM    8  C1  UNL     1     -31.456   8.952   2.690  1.00 20.00     0.014 C 
BRANCH   7   9
HETATM    9  C8  UNL     1     -32.189   9.074   0.270  1.00 20.00     0.029 C 
HETATM   10  C7  UNL     1     -32.612  10.533   0.400  1.00 20.00     0.010 C 
ENDBRANCH   7   9
ENDBRANCH   6   7
ENDBRANCH   1   6
BRANCH   1  11
HETATM   11  O11 UNL     1     -33.294   4.912   1.264  1.00 20.00    -0.395 OA
HETATM   12  H29 UNL     1     -32.605   4.852   0.584  1.00 20.00     0.210 HD
ENDBRANCH   1  11
TORSDOF 5
ENDMDL
MODEL 2
REMARK VINA RESULT:      -1.3      1.683      2.169
REMARK  5 active torsions:
REMARK  status: ('A' for Active; 'I' for Inactive)
REMARK    1  A    between atoms: C2_2  and  C8_8 
REMARK    2  A    between atoms: C2_2  and  C9_9 
REMARK    3  A    between atoms: C6_6  and  C10_10 
REMARK    4  A    between atoms: C9_9  and  C10_10 
REMARK    5  A    between atoms: C10_10  and  O11_11 
ROOT
HETATM    1  C10 UNL     1     -33.175   7.387   3.719  1.00 20.00     0.126 C 
ENDROOT
BRANCH   1   2
HETATM    2  C6  UNL     1     -34.264   6.494   3.145  1.00 20.00     0.015 C 
HETATM    3  C4  UNL     1     -35.489   6.242   4.060  1.00 20.00     0.007 C 
HETATM    4  C3  UNL     1     -34.812   4.935   4.517  1.00 20.00     0.001 C 
HETATM    5  C5  UNL     1     -33.996   4.969   3.210  1.00 20.00     0.007 C 
ENDBRANCH   1   2
BRANCH   1   6
HETATM    6  C9  UNL     1     -32.808   8.479   2.707  1.00 20.00     0.065 C 
BRANCH   6   7
HETATM    7  C2  UNL     1     -32.018   7.955   1.521  1.00 20.00    -0.087 C 
HETATM    8  C1  UNL     1     -31.590   6.681   1.511  1.00 20.00     0.014 C 
BRANCH   7   9
HETATM    9  C8  UNL     1     -31.804   8.940   0.388  1.00 20.00     0.029 C 
HETATM   10  C7  UNL     1     -32.653  10.206   0.400  1.00 20.00     0.010 C 
ENDBRANCH   7   9
ENDBRANCH   6   7
ENDBRANCH   1   6
BRANCH   1  11
HETATM   11  O11 UNL     1     -33.677   8.001   4.904  1.00 20.00    -0.395 OA
HETATM   12  H29 UNL     1     -33.091   8.749   5.098  1.00 20.00     0.210 HD
ENDBRANCH   1  11
TORSDOF 5
ENDMDL
MODEL 3
REMARK VINA RESULT:      -1.1      1.114      4.498
REMARK  5 active torsions:
REMARK  status: ('A' for Active; 'I' for Inactive)
REMARK    1  A    between atoms: C2_2  and  C8_8 
REMARK    2  A    between atoms: C2_2  and  C9_9 
REMARK    3  A    between atoms: C6_6  and  C10_10 
REMARK    4  A    between atoms: C9_9  and  C10_10 
REMARK    5  A    between atoms: C10_10  and  O11_11 
ROOT
HETATM    1  C10 UNL     1     -32.191   7.517   2.165  1.00 20.00     0.126 C 
ENDROOT
BRANCH   1   2
HETATM    2  C6  UNL     1     -31.646   8.803   1.564  1.00 20.00     0.015 C 
HETATM    3  C4  UNL     1     -32.700   9.862   1.155  1.00 20.00     0.007 C 
HETATM    4  C3  UNL     1     -32.636   9.296  -0.277  1.00 20.00     0.001 C 
HETATM    5  C5  UNL     1     -31.242   8.737   0.069  1.00 20.00     0.007 C 
ENDBRANCH   1   2
BRANCH   1   6
HETATM    6  C9  UNL     1     -33.698   7.655   2.415  1.00 20.00     0.065 C 
BRANCH   6   7
HETATM    7  C2  UNL     1     -34.099   7.341   3.845  1.00 20.00    -0.087 C 
HETATM    8  C1  UNL     1     -33.581   8.057   4.858  1.00 20.00     0.014 C 
BRANCH   7   9
HETATM    9  C8  UNL     1     -35.118   6.231   4.012  1.00 20.00     0.029 C 
HETATM   10  C7  UNL     1     -34.581   4.810   4.137  1.00 20.00     0.010 C 
ENDBRANCH   7   9
ENDBRANCH   6   7
ENDBRANCH   1   6
BRANCH   1  11
HETATM   11  O11 UNL     1     -31.968   6.459   1.237  1.00 20.00    -0.395 OA
HETATM   12  H29 UNL     1     -31.737   6.875   0.392  1.00 20.00     0.210 HD
ENDBRANCH   1  11
TORSDOF 5
ENDMDL
MODEL 4
REMARK VINA RESULT:      -1.1      1.390      4.648
REMARK  5 active torsions:
REMARK  status: ('A' for Active; 'I' for Inactive)
REMARK    1  A    between atoms: C2_2  and  C8_8 
REMARK    2  A    between atoms: C2_2  and  C9_9 
REMARK    3  A    between atoms: C6_6  and  C10_10 
REMARK    4  A    between atoms: C9_9  and  C10_10 
REMARK    5  A    between atoms: C10_10  and  O11_11 
ROOT
HETATM    1  C10 UNL     1     -32.248   8.114   1.951  1.00 20.00     0.126 C 
ENDROOT
BRANCH   1   2
HETATM    2  C6  UNL     1     -33.016   8.899   0.898  1.00 20.00     0.015 C 
HETATM    3  C4  UNL     1     -32.285   9.127  -0.448  1.00 20.00     0.007 C 
HETATM    4  C3  UNL     1     -31.836  10.501   0.090  1.00 20.00     0.001 C 
HETATM    5  C5  UNL     1     -33.024  10.439   1.070  1.00 20.00     0.007 C 
ENDBRANCH   1   2
BRANCH   1   6
HETATM    6  C9  UNL     1     -33.091   6.928   2.436  1.00 20.00     0.065 C 
BRANCH   6   7
HETATM    7  C2  UNL     1     -33.891   7.235   3.689  1.00 20.00    -0.087 C 
HETATM    8  C1  UNL     1     -33.480   8.203   4.526  1.00 20.00     0.014 C 
BRANCH   7   9
HETATM    9  C8  UNL     1     -35.154   6.418   3.877  1.00 20.00     0.029 C 
HETATM   10  C7  UNL     1     -34.986   4.981   4.358  1.00 20.00     0.010 C 
ENDBRANCH   7   9
ENDBRANCH   6   7
ENDBRANCH   1   6
BRANCH   1  11
HETATM   11  O11 UNL     1     -31.050   7.621   1.356  1.00 20.00    -0.395 OA
HETATM   12  H29 UNL     1     -30.355   7.699   2.027  1.00 20.00     0.210 HD
ENDBRANCH   1  11
TORSDOF 5
ENDMDL
MODEL 5
REMARK VINA RESULT:      -0.9      1.583      4.640
REMARK  5 active torsions:
REMARK  status: ('A' for Active; 'I' for Inactive)
REMARK    1  A    between atoms: C2_2  and  C8_8 
REMARK    2  A    between atoms: C2_2  and  C9_9 
REMARK    3  A    between atoms: C6_6  and  C10_10 
REMARK    4  A    between atoms: C9_9  and  C10_10 
REMARK    5  A    between atoms: C10_10  and  O11_11 
ROOT
HETATM    1  C10 UNL     1     -32.297   8.274   2.019  1.00 20.00     0.126 C 
ENDROOT
BRANCH   1   2
HETATM    2  C6  UNL     1     -31.658   9.270   1.064  1.00 20.00     0.015 C 
HETATM    3  C4  UNL     1     -32.503  10.522   0.721  1.00 20.00     0.007 C 
HETATM    4  C3  UNL     1     -32.984   9.786  -0.544  1.00 20.00     0.001 C 
HETATM    5  C5  UNL     1     -31.723   8.906  -0.441  1.00 20.00     0.007 C 
ENDBRANCH   1   2
BRANCH   1   6
HETATM    6  C9  UNL     1     -31.860   6.849   1.658  1.00 20.00     0.065 C 
BRANCH   6   7
HETATM    7  C2  UNL     1     -32.996   5.843   1.707  1.00 20.00    -0.087 C 
HETATM    8  C1  UNL     1     -33.439   5.278   0.571  1.00 20.00     0.014 C 
BRANCH   7   9
HETATM    9  C8  UNL     1     -33.527   5.521   3.090  1.00 20.00     0.029 C 
HETATM   10  C7  UNL     1     -34.664   6.390   3.616  1.00 20.00     0.010 C 
ENDBRANCH   7   9
ENDBRANCH   6   7
ENDBRANCH   1   6
BRANCH   1  11
HETATM   11  O11 UNL     1     -31.857   8.575   3.341  1.00 20.00    -0.395 OA
HETATM   12  H29 UNL     1     -31.398   9.427   3.293  1.00 20.00     0.210 HD
ENDBRANCH   1  11
TORSDOF 5
ENDMDL
MODEL 6
REMARK VINA RESULT:      -0.8      1.114      4.677
REMARK  5 active torsions:
REMARK  status: ('A' for Active; 'I' for Inactive)
REMARK    1  A    between atoms: C2_2  and  C8_8 
REMARK    2  A    between atoms: C2_2  and  C9_9 
REMARK    3  A    between atoms: C6_6  and  C10_10 
REMARK    4  A    between atoms: C9_9  and  C10_10 
REMARK    5  A    between atoms: C10_10  and  O11_11 
ROOT
HETATM    1  C10 UNL     1     -32.749   6.095   1.931  1.00 20.00     0.126 C 
ENDROOT
BRANCH   1   2
HETATM    2  C6  UNL     1     -31.706   7.199   1.845  1.00 20.00     0.015 C 
HETATM    3  C4  UNL     1     -32.065   8.530   2.551  1.00 20.00     0.007 C 
HETATM    4  C3  UNL     1     -32.570   9.053   1.192  1.00 20.00     0.001 C 
HETATM    5  C5  UNL     1     -31.671   7.999   0.518  1.00 20.00     0.007 C 
ENDBRANCH   1   2
BRANCH   1   6
HETATM    6  C9  UNL     1     -33.847   6.492   2.924  1.00 20.00     0.065 C 
BRANCH   6   7
HETATM    7  C2  UNL     1     -34.364   5.324   3.745  1.00 20.00    -0.087 C 
HETATM    8  C1  UNL     1     -35.447   5.481   4.525  1.00 20.00     0.014 C 
BRANCH   7   9
HETATM    9  C8  UNL     1     -33.608   4.021   3.580  1.00 20.00     0.029 C 
HETATM   10  C7  UNL     1     -33.382   3.186   4.835  1.00 20.00     0.010 C 
ENDBRANCH   7   9
ENDBRANCH   6   7
ENDBRANCH   1   6
BRANCH   1  11
HETATM   11  O11 UNL     1     -33.328   5.924   0.640  1.00 20.00    -0.395 OA
HETATM   12  H29 UNL     1     -33.854   5.110   0.679  1.00 20.00     0.210 HD
ENDBRANCH   1  11
TORSDOF 5
ENDMDL
MODEL 7
REMARK VINA RESULT:      -0.7      2.116      3.409
REMARK  5 active torsions:
REMARK  status: ('A' for Active; 'I' for Inactive)
REMARK    1  A    between atoms: C2_2  and  C8_8 
REMARK    2  A    between atoms: C2_2  and  C9_9 
REMARK    3  A    between atoms: C6_6  and  C10_10 
REMARK    4  A    between atoms: C9_9  and  C10_10 
REMARK    5  A    between atoms: C10_10  and  O11_11 
ROOT
HETATM    1  C10 UNL     1     -34.424   5.140   4.346  1.00 20.00     0.126 C 
ENDROOT
BRANCH   1   2
HETATM    2  C6  UNL     1     -33.759   3.880   3.814  1.00 20.00     0.015 C 
HETATM    3  C4  UNL     1     -33.745   2.662   4.771  1.00 20.00     0.007 C 
HETATM    4  C3  UNL     1     -32.330   3.090   5.208  1.00 20.00     0.001 C 
HETATM    5  C5  UNL     1     -32.212   3.851   3.873  1.00 20.00     0.007 C 
ENDBRANCH   1   2
BRANCH   1   6
HETATM    6  C9  UNL     1     -34.462   6.213   3.251  1.00 20.00     0.065 C 
BRANCH   6   7
HETATM    7  C2  UNL     1     -33.581   7.411   3.556  1.00 20.00    -0.087 C 
HETATM    8  C1  UNL     1     -33.687   8.037   4.741  1.00 20.00     0.014 C 
BRANCH   7   9
HETATM    9  C8  UNL     1     -32.592   7.791   2.472  1.00 20.00     0.029 C 
HETATM   10  C7  UNL     1     -32.184   6.698   1.490  1.00 20.00     0.010 C 
ENDBRANCH   7   9
ENDBRANCH   6   7
ENDBRANCH   1   6
BRANCH   1  11
HETATM   11  O11 UNL     1     -35.759   4.816   4.726  1.00 20.00    -0.395 OA
HETATM   12  H29 UNL     1     -36.121   5.602   5.163  1.00 20.00     0.210 HD
ENDBRANCH   1  11
TORSDOF 5
ENDMDL
MODEL 8
REMARK VINA RESULT:      -0.6      1.693      4.912
REMARK  5 active torsions:
REMARK  status: ('A' for Active; 'I' for Inactive)
REMARK    1  A    between atoms: C2_2  and  C8_8 
REMARK    2  A    between atoms: C2_2  and  C9_9 
REMARK    3  A    between atoms: C6_6  and  C10_10 
REMARK    4  A    between atoms: C9_9  and  C10_10 
REMARK    5  A    between atoms: C10_10  and  O11_11 
ROOT
HETATM    1  C10 UNL     1     -33.240   7.718   3.247  1.00 20.00     0.126 C 
ENDROOT
BRANCH   1   2
HETATM    2  C6  UNL     1     -31.985   8.116   2.484  1.00 20.00     0.015 C 
HETATM    3  C4  UNL     1     -32.098   9.388   1.608  1.00 20.00     0.007 C 
HETATM    4  C3  UNL     1     -32.402   8.471   0.408  1.00 20.00     0.001 C 
HETATM    5  C5  UNL     1     -31.707   7.331   1.178  1.00 20.00     0.007 C 
ENDBRANCH   1   2
BRANCH   1   6
HETATM    6  C9  UNL     1     -33.465   6.205   3.129  1.00 20.00     0.065 C 
BRANCH   6   7
HETATM    7  C2  UNL     1     -34.729   5.731   3.823  1.00 20.00    -0.087 C 
HETATM    8  C1  UNL     1     -35.857   6.456   3.727  1.00 20.00     0.014 C 
BRANCH   7   9
HETATM    9  C8  UNL     1     -34.617   4.412   4.561  1.00 20.00     0.029 C 
HETATM   10  C7  UNL     1     -33.467   3.492   4.168  1.00 20.00     0.010 C 
ENDBRANCH   7   9
ENDBRANCH   6   7
ENDBRANCH   1   6
BRANCH   1  11
HETATM   11  O11 UNL     1     -33.057   8.056   4.619  1.00 20.00    -0.395 OA
HETATM   12  H29 UNL     1     -32.253   7.599   4.912  1.00 20.00     0.210 HD
ENDBRANCH   1  11
TORSDOF 5
ENDMDL
MODEL 9
REMARK VINA RESULT:      -0.3      1.385      4.386
REMARK  5 active torsions:
REMARK  status: ('A' for Active; 'I' for Inactive)
REMARK    1  A    between atoms: C2_2  and  C8_8 
REMARK    2  A    between atoms: C2_2  and  C9_9 
REMARK    3  A    between atoms: C6_6  and  C10_10 
REMARK    4  A    between atoms: C9_9  and  C10_10 
REMARK    5  A    between atoms: C10_10  and  O11_11 
ROOT
HETATM    1  C10 UNL     1     -32.501   5.603   2.244  1.00 20.00     0.126 C 
ENDROOT
BRANCH   1   2
HETATM    2  C6  UNL     1     -32.897   7.035   1.917  1.00 20.00     0.015 C 
HETATM    3  C4  UNL     1     -31.869   7.854   1.098  1.00 20.00     0.007 C 
HETATM    4  C3  UNL     1     -31.341   8.422   2.430  1.00 20.00     0.001 C 
HETATM    5  C5  UNL     1     -32.705   8.069   3.054  1.00 20.00     0.007 C 
ENDBRANCH   1   2
BRANCH   1   6
HETATM    6  C9  UNL     1     -33.756   4.737   2.406  1.00 20.00     0.065 C 
BRANCH   6   7
HETATM    7  C2  UNL     1     -33.997   4.292   3.837  1.00 20.00    -0.087 C 
HETATM    8  C1  UNL     1     -33.233   3.325   4.374  1.00 20.00     0.014 C 
BRANCH   7   9
HETATM    9  C8  UNL     1     -35.094   5.029   4.579  1.00 20.00     0.029 C 
HETATM   10  C7  UNL     1     -35.551   6.362   3.996  1.00 20.00     0.010 C 
ENDBRANCH   7   9
ENDBRANCH   6   7
ENDBRANCH   1   6
BRANCH   1  11
HETATM   11  O11 UNL     1     -31.722   5.096   1.164  1.00 20.00    -0.395 OA
HETATM   12  H29 UNL     1     -32.203   5.312   0.350  1.00 20.00     0.210 HD
ENDBRANCH   1  11
TORSDOF 5
ENDMDL
