MODEL 1
REMARK VINA RESULT:      -1.6      0.000      0.000
REMARK  3 active torsions:
REMARK  status: ('A' for Active; 'I' for Inactive)
REMARK    1  A    between atoms: C5_5  and  C6_6 
REMARK    2  A    between atoms: C5_5  and  C7_7 
REMARK    3  A    between atoms: C6_6  and  O9_9 
ROOT
HETATM    1  C1  UNL     1     -33.509   3.604   4.304  1.00 20.00     0.091 C 
HETATM    2  C6  UNL     1     -34.170   4.654   3.518  1.00 20.00     0.227 C 
HETATM    3  N8  UNL     1     -32.988   2.773   4.925  1.00 20.00    -0.195 NA
ENDROOT
BRANCH   2   4
HETATM    4  C5  UNL     1     -33.265   5.870   3.288  1.00 20.00     0.050 C 
BRANCH   4   5
HETATM    5  C7  UNL     1     -32.949   6.196   1.815  1.00 20.00    -0.019 C 
HETATM    6  C2  UNL     1     -32.209   7.534   1.729  1.00 20.00     0.009 C 
HETATM    7  C3  UNL     1     -32.117   5.103   1.142  1.00 20.00     0.009 C 
ENDBRANCH   4   5
ENDBRANCH   2   4
BRANCH   2   8
HETATM    8  O9  UNL     1     -35.344   5.087   4.204  1.00 20.00    -0.376 OA
HETATM    9  C4  UNL     1     -35.496   6.496   4.126  1.00 20.00     0.203 C 
ENDBRANCH   2   8
TORSDOF 3
ENDMDL
MODEL 2
REMARK VINA RESULT:      -1.4      2.929      4.247
REMARK  3 active torsions:
REMARK  status: ('A' for Active; 'I' for Inactive)
REMARK    1  A    between atoms: C5_5  and  C6_6 
REMARK    2  A    between atoms: C5_5  and  C7_7 
REMARK    3  A    between atoms: C6_6  and  O9_9 
ROOT
HETATM    1  C1  UNL     1     -32.041   6.258   1.472  1.00 20.00     0.091 C 
HETATM    2  C6  UNL     1     -32.050   7.688   1.809  1.00 20.00     0.227 C 
HETATM    3  N8  UNL     1     -32.032   5.128   1.206  1.00 20.00    -0.195 NA
ENDROOT
BRANCH   2   4
HETATM    4  C5  UNL     1     -33.312   8.100   2.577  1.00 20.00     0.050 C 
BRANCH   4   5
HETATM    5  C7  UNL     1     -33.633   7.258   3.828  1.00 20.00    -0.019 C 
HETATM    6  C2  UNL     1     -33.547   8.139   5.079  1.00 20.00     0.009 C 
HETATM    7  C3  UNL     1     -35.013   6.604   3.753  1.00 20.00     0.009 C 
ENDBRANCH   4   5
ENDBRANCH   2   4
BRANCH   2   8
HETATM    8  O9  UNL     1     -31.982   8.455   0.607  1.00 20.00    -0.376 OA
HETATM    9  C4  UNL     1     -32.506   9.760   0.798  1.00 20.00     0.203 C 
ENDBRANCH   2   8
TORSDOF 3
ENDMDL
MODEL 3
REMARK VINA RESULT:      -1.2      3.575      5.026
REMARK  3 active torsions:
REMARK  status: ('A' for Active; 'I' for Inactive)
REMARK    1  A    between atoms: C5_5  and  C6_6 
REMARK    2  A    between atoms: C5_5  and  C7_7 
REMARK    3  A    between atoms: C6_6  and  O9_9 
ROOT
HETATM    1  C1  UNL     1     -32.410   8.869   0.850  1.00 20.00     0.091 C 
HETATM    2  C6  UNL     1     -32.631   7.660   1.654  1.00 20.00     0.227 C 
HETATM    3  N8  UNL     1     -32.236   9.825   0.214  1.00 20.00    -0.195 NA
ENDROOT
BRANCH   2   4
HETATM    4  C5  UNL     1     -32.583   7.942   3.161  1.00 20.00     0.050 C 
BRANCH   4   5
HETATM    5  C7  UNL     1     -33.932   7.835   3.900  1.00 20.00    -0.019 C 
HETATM    6  C2  UNL     1     -34.506   6.426   3.726  1.00 20.00     0.009 C 
HETATM    7  C3  UNL     1     -33.807   8.160   5.389  1.00 20.00     0.009 C 
ENDBRANCH   4   5
ENDBRANCH   2   4
BRANCH   2   8
HETATM    8  O9  UNL     1     -31.624   6.697   1.343  1.00 20.00    -0.376 OA
HETATM    9  C4  UNL     1     -32.184   5.406   1.160  1.00 20.00     0.203 C 
ENDBRANCH   2   8
TORSDOF 3
ENDMDL
MODEL 4
REMARK VINA RESULT:      -1.2      3.006      4.498
REMARK  3 active torsions:
REMARK  status: ('A' for Active; 'I' for Inactive)
REMARK    1  A    between atoms: C5_5  and  C6_6 
REMARK    2  A    between atoms: C5_5  and  C7_7 
REMARK    3  A    between atoms: C6_6  and  O9_9 
ROOT
HETATM    1  C1  UNL     1     -32.329   7.608   1.509  1.00 20.00     0.091 C 
HETATM    2  C6  UNL     1     -32.761   6.211   1.646  1.00 20.00     0.227 C 
HETATM    3  N8  UNL     1     -31.987   8.713   1.399  1.00 20.00    -0.195 NA
ENDROOT
BRANCH   2   4
HETATM    4  C5  UNL     1     -33.295   5.899   3.049  1.00 20.00     0.050 C 
BRANCH   4   5
HETATM    5  C7  UNL     1     -34.386   6.854   3.573  1.00 20.00    -0.019 C 
HETATM    6  C2  UNL     1     -35.535   6.042   4.178  1.00 20.00     0.009 C 
HETATM    7  C3  UNL     1     -33.849   7.839   4.612  1.00 20.00     0.009 C 
ENDBRANCH   4   5
ENDBRANCH   2   4
BRANCH   2   8
HETATM    8  O9  UNL     1     -31.656   5.348   1.380  1.00 20.00    -0.376 OA
HETATM    9  C4  UNL     1     -31.956   4.432   0.339  1.00 20.00     0.203 C 
ENDBRANCH   2   8
TORSDOF 3
ENDMDL
MODEL 5
REMARK VINA RESULT:      -1.1      2.449      3.387
REMARK  3 active torsions:
REMARK  status: ('A' for Active; 'I' for Inactive)
REMARK    1  A    between atoms: C5_5  and  C6_6 
REMARK    2  A    between atoms: C5_5  and  C7_7 
REMARK    3  A    between atoms: C6_6  and  O9_9 
ROOT
HETATM    1  C1  UNL     1     -32.723   6.067   1.694  1.00 20.00     0.091 C 
HETATM    2  C6  UNL     1     -33.207   7.382   2.135  1.00 20.00     0.227 C 
HETATM    3  N8  UNL     1     -32.341   5.027   1.345  1.00 20.00    -0.195 NA
ENDROOT
BRANCH   2   4
HETATM    4  C5  UNL     1     -32.207   8.505   1.834  1.00 20.00     0.050 C 
BRANCH   4   5
HETATM    5  C7  UNL     1     -32.333   9.150   0.440  1.00 20.00    -0.019 C 
HETATM    6  C2  UNL     1     -32.701  10.630   0.588  1.00 20.00     0.009 C 
HETATM    7  C3  UNL     1     -31.050   9.019  -0.381  1.00 20.00     0.009 C 
ENDBRANCH   4   5
ENDBRANCH   2   4
BRANCH   2   8
HETATM    8  O9  UNL     1     -33.440   7.349   3.544  1.00 20.00    -0.376 OA
HETATM    9  C4  UNL     1     -34.635   6.651   3.852  1.00 20.00     0.203 C 
ENDBRANCH   2   8
TORSDOF 3
ENDMDL
MODEL 6
REMARK VINA RESULT:      -1.1      0.490      1.173
REMARK  3 active torsions:
REMARK  status: ('A' for Active; 'I' for Inactive)
REMARK    1  A    between atoms: C5_5  and  C6_6 
REMARK    2  A    between atoms: C5_5  and  C7_7 
REMARK    3  A    between atoms: C6_6  and  O9_9 
ROOT
HETATM    1  C1  UNL     1     -33.475   3.625   4.310  1.00 20.00     0.091 C 
HETATM    2  C6  UNL     1     -34.144   4.662   3.513  1.00 20.00     0.227 C 
HETATM    3  N8  UNL     1     -32.947   2.804   4.939  1.00 20.00    -0.195 NA
ENDROOT
BRANCH   2   4
HETATM    4  C5  UNL     1     -33.258   5.895   3.295  1.00 20.00     0.050 C 
BRANCH   4   5
HETATM    5  C7  UNL     1     -32.499   5.938   1.954  1.00 20.00    -0.019 C 
HETATM    6  C2  UNL     1     -33.387   5.376   0.839  1.00 20.00     0.009 C 
HETATM    7  C3  UNL     1     -32.045   7.352   1.587  1.00 20.00     0.009 C 
ENDBRANCH   4   5
ENDBRANCH   2   4
BRANCH   2   8
HETATM    8  O9  UNL     1     -35.336   5.075   4.183  1.00 20.00    -0.376 OA
HETATM    9  C4  UNL     1     -35.525   6.477   4.080  1.00 20.00     0.203 C 
ENDBRANCH   2   8
TORSDOF 3
ENDMDL
MODEL 7
REMARK VINA RESULT:      -0.9      2.762      3.777
REMARK  3 active torsions:
REMARK  status: ('A' for Active; 'I' for Inactive)
REMARK    1  A    between atoms: C5_5  and  C6_6 
REMARK    2  A    between atoms: C5_5  and  C7_7 
REMARK    3  A    between atoms: C6_6  and  O9_9 
ROOT
HETATM    1  C1  UNL     1     -33.746   7.232   3.456  1.00 20.00     0.091 C 
HETATM    2  C6  UNL     1     -32.598   7.142   2.543  1.00 20.00     0.227 C 
HETATM    3  N8  UNL     1     -34.652   7.302   4.178  1.00 20.00    -0.195 NA
ENDROOT
BRANCH   2   4
HETATM    4  C5  UNL     1     -32.055   8.520   2.148  1.00 20.00     0.050 C 
BRANCH   4   5
HETATM    5  C7  UNL     1     -32.329   8.950   0.693  1.00 20.00    -0.019 C 
HETATM    6  C2  UNL     1     -32.783  10.412   0.663  1.00 20.00     0.009 C 
HETATM    7  C3  UNL     1     -31.105   8.773  -0.207  1.00 20.00     0.009 C 
ENDBRANCH   4   5
ENDBRANCH   2   4
BRANCH   2   8
HETATM    8  O9  UNL     1     -32.994   6.454   1.356  1.00 20.00    -0.376 OA
HETATM    9  C4  UNL     1     -32.285   5.234   1.207  1.00 20.00     0.203 C 
ENDBRANCH   2   8
TORSDOF 3
ENDMDL
MODEL 8
REMARK VINA RESULT:      -0.7      2.543      3.960
REMARK  3 active torsions:
REMARK  status: ('A' for Active; 'I' for Inactive)
REMARK    1  A    between atoms: C5_5  and  C6_6 
REMARK    2  A    between atoms: C5_5  and  C7_7 
REMARK    3  A    between atoms: C6_6  and  O9_9 
ROOT
HETATM    1  C1  UNL     1     -33.502   7.531   3.718  1.00 20.00     0.091 C 
HETATM    2  C6  UNL     1     -33.463   6.780   2.456  1.00 20.00     0.227 C 
HETATM    3  N8  UNL     1     -33.535   8.125   4.715  1.00 20.00    -0.195 NA
ENDROOT
BRANCH   2   4
HETATM    4  C5  UNL     1     -33.691   5.278   2.661  1.00 20.00     0.050 C 
BRANCH   4   5
HETATM    5  C7  UNL     1     -33.951   4.837   4.115  1.00 20.00    -0.019 C 
HETATM    6  C2  UNL     1     -35.422   5.070   4.470  1.00 20.00     0.009 C 
HETATM    7  C3  UNL     1     -33.590   3.370   4.353  1.00 20.00     0.009 C 
ENDBRANCH   4   5
ENDBRANCH   2   4
BRANCH   2   8
HETATM    8  O9  UNL     1     -32.187   6.963   1.840  1.00 20.00    -0.376 OA
HETATM    9  C4  UNL     1     -31.983   8.318   1.472  1.00 20.00     0.203 C 
ENDBRANCH   2   8
TORSDOF 3
ENDMDL
MODEL 9
REMARK VINA RESULT:      -0.6      2.003      2.885
REMARK  3 active torsions:
REMARK  status: ('A' for Active; 'I' for Inactive)
REMARK    1  A    between atoms: C5_5  and  C6_6 
REMARK    2  A    between atoms: C5_5  and  C7_7 
REMARK    3  A    between atoms: C6_6  and  O9_9 
ROOT
HETATM    1  C1  UNL     1     -34.645   6.259   3.573  1.00 20.00     0.091 C 
HETATM    2  C6  UNL     1     -33.294   5.927   3.101  1.00 20.00     0.227 C 
HETATM    3  N8  UNL     1     -35.712   6.521   3.948  1.00 20.00    -0.195 NA
ENDROOT
BRANCH   2   4
HETATM    4  C5  UNL     1     -32.965   6.589   1.757  1.00 20.00     0.050 C 
BRANCH   4   5
HETATM    5  C7  UNL     1     -31.946   7.744   1.817  1.00 20.00    -0.019 C 
HETATM    6  C2  UNL     1     -32.264   8.770   0.725  1.00 20.00     0.009 C 
HETATM    7  C3  UNL     1     -31.927   8.434   3.182  1.00 20.00     0.009 C 
ENDBRANCH   4   5
ENDBRANCH   2   4
BRANCH   2   8
HETATM    8  O9  UNL     1     -33.184   4.512   2.946  1.00 20.00    -0.376 OA
HETATM    9  C4  UNL     1     -33.718   3.829   4.069  1.00 20.00     0.203 C 
ENDBRANCH   2   8
TORSDOF 3
ENDMDL
