MODEL 1
REMARK VINA RESULT:      -2.3      0.000      0.000
REMARK  5 active torsions:
REMARK  status: ('A' for Active; 'I' for Inactive)
REMARK    1  A    between atoms: C4_4  and  C5_5 
REMARK    2  A    between atoms: C4_4  and  C8_8 
REMARK    3  A    between atoms: C5_5  and  O9_9 
REMARK    4  A    between atoms: C6_6  and  C8_8 
REMARK    5  A    between atoms: C7_7  and  C8_8 
ROOT
HETATM    1  C8  UNL     1     -33.409   7.079   2.361  1.00 20.00     0.005 C 
ENDROOT
BRANCH   1   2
HETATM    2  C4  UNL     1     -32.096   7.902   2.367  1.00 20.00     0.032 C 
BRANCH   2   3
HETATM    3  C5  UNL     1     -31.746   8.557   1.035  1.00 20.00     0.167 C 
BRANCH   3   4
HETATM    4  O9  UNL     1     -32.503   9.753   0.902  1.00 20.00    -0.396 OA
HETATM    5  C3  UNL     1     -32.739  10.071  -0.462  1.00 20.00     0.201 C 
ENDBRANCH   3   4
ENDBRANCH   2   3
ENDBRANCH   1   2
BRANCH   1   6
HETATM    6  C6  UNL     1     -33.154   5.564   2.208  1.00 20.00     0.119 C 
HETATM    7 CL10 UNL     1     -31.862   5.181   1.044  1.00 20.00    -0.130 Cl
ENDBRANCH   1   6
BRANCH   1   8
HETATM    8  C7  UNL     1     -34.305   7.429   3.595  1.00 20.00    -0.017 C 
HETATM    9  C1  UNL     1     -35.139   6.230   4.069  1.00 20.00     0.010 C 
HETATM   10  C2  UNL     1     -33.487   7.944   4.787  1.00 20.00     0.010 C 
ENDBRANCH   1   8
TORSDOF 5
ENDMDL
MODEL 2
REMARK VINA RESULT:      -2.2      0.403      1.183
REMARK  5 active torsions:
REMARK  status: ('A' for Active; 'I' for Inactive)
REMARK    1  A    between atoms: C4_4  and  C5_5 
REMARK    2  A    between atoms: C4_4  and  C8_8 
REMARK    3  A    between atoms: C5_5  and  O9_9 
REMARK    4  A    between atoms: C6_6  and  C8_8 
REMARK    5  A    between atoms: C7_7  and  C8_8 
ROOT
HETATM    1  C8  UNL     1     -33.364   6.985   2.289  1.00 20.00     0.005 C 
ENDROOT
BRANCH   1   2
HETATM    2  C4  UNL     1     -32.084   7.858   2.240  1.00 20.00     0.032 C 
BRANCH   2   3
HETATM    3  C5  UNL     1     -31.804   8.504   0.887  1.00 20.00     0.167 C 
BRANCH   3   4
HETATM    4  O9  UNL     1     -32.452   9.769   0.843  1.00 20.00    -0.396 OA
HETATM    5  C3  UNL     1     -32.765  10.147  -0.490  1.00 20.00     0.201 C 
ENDBRANCH   3   4
ENDBRANCH   2   3
ENDBRANCH   1   2
BRANCH   1   6
HETATM    6  C6  UNL     1     -33.202   5.658   1.516  1.00 20.00     0.119 C 
HETATM    7 CL10 UNL     1     -31.504   5.156   1.330  1.00 20.00    -0.130 Cl
ENDBRANCH   1   6
BRANCH   1   8
HETATM    8  C7  UNL     1     -33.856   6.781   3.761  1.00 20.00    -0.017 C 
HETATM    9  C1  UNL     1     -33.722   8.059   4.602  1.00 20.00     0.010 C 
HETATM   10  C2  UNL     1     -35.316   6.312   3.832  1.00 20.00     0.010 C 
ENDBRANCH   1   8
TORSDOF 5
ENDMDL
MODEL 3
REMARK VINA RESULT:      -1.6      2.123      2.663
REMARK  5 active torsions:
REMARK  status: ('A' for Active; 'I' for Inactive)
REMARK    1  A    between atoms: C4_4  and  C5_5 
REMARK    2  A    between atoms: C4_4  and  C8_8 
REMARK    3  A    between atoms: C5_5  and  O9_9 
REMARK    4  A    between atoms: C6_6  and  C8_8 
REMARK    5  A    between atoms: C7_7  and  C8_8 
ROOT
HETATM    1  C8  UNL     1     -33.463   6.322   3.327  1.00 20.00     0.005 C 
ENDROOT
BRANCH   1   2
HETATM    2  C4  UNL     1     -33.080   6.492   1.836  1.00 20.00     0.032 C 
BRANCH   2   3
HETATM    3  C5  UNL     1     -31.893   7.417   1.583  1.00 20.00     0.167 C 
BRANCH   3   4
HETATM    4  O9  UNL     1     -32.359   8.760   1.561  1.00 20.00    -0.396 OA
HETATM    5  C3  UNL     1     -32.205   9.343   0.275  1.00 20.00     0.201 C 
ENDBRANCH   3   4
ENDBRANCH   2   3
ENDBRANCH   1   2
BRANCH   1   6
HETATM    6  C6  UNL     1     -34.078   7.605   3.928  1.00 20.00     0.119 C 
HETATM    7 CL10 UNL     1     -33.097   8.308   5.237  1.00 20.00    -0.130 Cl
ENDBRANCH   1   6
BRANCH   1   8
HETATM    8  C7  UNL     1     -34.357   5.054   3.543  1.00 20.00    -0.017 C 
HETATM    9  C1  UNL     1     -33.561   3.871   4.114  1.00 20.00     0.010 C 
HETATM   10  C2  UNL     1     -35.545   5.326   4.476  1.00 20.00     0.010 C 
ENDBRANCH   1   8
TORSDOF 5
ENDMDL
MODEL 4
REMARK VINA RESULT:      -1.3      3.216      4.968
REMARK  5 active torsions:
REMARK  status: ('A' for Active; 'I' for Inactive)
REMARK    1  A    between atoms: C4_4  and  C5_5 
REMARK    2  A    between atoms: C4_4  and  C8_8 
REMARK    3  A    between atoms: C5_5  and  O9_9 
REMARK    4  A    between atoms: C6_6  and  C8_8 
REMARK    5  A    between atoms: C7_7  and  C8_8 
ROOT
HETATM    1  C8  UNL     1     -33.820   6.886   2.805  1.00 20.00     0.005 C 
ENDROOT
BRANCH   1   2
HETATM    2  C4  UNL     1     -33.909   5.341   2.873  1.00 20.00     0.032 C 
BRANCH   2   3
HETATM    3  C5  UNL     1     -34.347   4.786   4.226  1.00 20.00     0.167 C 
BRANCH   3   4
HETATM    4  O9  UNL     1     -34.134   3.379   4.231  1.00 20.00    -0.396 OA
HETATM    5  C3  UNL     1     -32.978   3.031   4.979  1.00 20.00     0.201 C 
ENDBRANCH   3   4
ENDBRANCH   2   3
ENDBRANCH   1   2
BRANCH   1   6
HETATM    6  C6  UNL     1     -34.201   7.558   4.141  1.00 20.00     0.119 C 
HETATM    7 CL10 UNL     1     -32.812   8.288   4.983  1.00 20.00    -0.130 Cl
ENDBRANCH   1   6
BRANCH   1   8
HETATM    8  C7  UNL     1     -32.427   7.351   2.260  1.00 20.00    -0.017 C 
HETATM    9  C1  UNL     1     -31.747   6.271   1.405  1.00 20.00     0.010 C 
HETATM   10  C2  UNL     1     -32.523   8.634   1.424  1.00 20.00     0.010 C 
ENDBRANCH   1   8
TORSDOF 5
ENDMDL
MODEL 5
REMARK VINA RESULT:      -1.3      2.604      4.438
REMARK  5 active torsions:
REMARK  status: ('A' for Active; 'I' for Inactive)
REMARK    1  A    between atoms: C4_4  and  C5_5 
REMARK    2  A    between atoms: C4_4  and  C8_8 
REMARK    3  A    between atoms: C5_5  and  O9_9 
REMARK    4  A    between atoms: C6_6  and  C8_8 
REMARK    5  A    between atoms: C7_7  and  C8_8 
ROOT
HETATM    1  C8  UNL     1     -33.527   6.332   3.060  1.00 20.00     0.005 C 
ENDROOT
BRANCH   1   2
HETATM    2  C4  UNL     1     -34.865   5.907   3.717  1.00 20.00     0.032 C 
BRANCH   2   3
HETATM    3  C5  UNL     1     -34.796   4.620   4.533  1.00 20.00     0.167 C 
BRANCH   3   4
HETATM    4  O9  UNL     1     -33.822   3.763   3.950  1.00 20.00    -0.396 OA
HETATM    5  C3  UNL     1     -33.169   2.973   4.934  1.00 20.00     0.201 C 
ENDBRANCH   3   4
ENDBRANCH   2   3
ENDBRANCH   1   2
BRANCH   1   6
HETATM    6  C6  UNL     1     -33.412   5.856   1.596  1.00 20.00     0.119 C 
HETATM    7 CL10 UNL     1     -31.828   5.141   1.212  1.00 20.00    -0.130 Cl
ENDBRANCH   1   6
BRANCH   1   8
HETATM    8  C7  UNL     1     -33.275   7.868   3.228  1.00 20.00    -0.017 C 
HETATM    9  C1  UNL     1     -33.024   8.261   4.691  1.00 20.00     0.010 C 
HETATM   10  C2  UNL     1     -32.089   8.362   2.389  1.00 20.00     0.010 C 
ENDBRANCH   1   8
TORSDOF 5
ENDMDL
MODEL 6
REMARK VINA RESULT:      -1.3      2.783      4.542
REMARK  5 active torsions:
REMARK  status: ('A' for Active; 'I' for Inactive)
REMARK    1  A    between atoms: C4_4  and  C5_5 
REMARK    2  A    between atoms: C4_4  and  C8_8 
REMARK    3  A    between atoms: C5_5  and  O9_9 
REMARK    4  A    between atoms: C6_6  and  C8_8 
REMARK    5  A    between atoms: C7_7  and  C8_8 
ROOT
HETATM    1  C8  UNL     1     -33.353   6.957   2.265  1.00 20.00     0.005 C 
ENDROOT
BRANCH   1   2
HETATM    2  C4  UNL     1     -33.875   6.721   3.704  1.00 20.00     0.032 C 
BRANCH   2   3
HETATM    3  C5  UNL     1     -35.303   6.189   3.786  1.00 20.00     0.167 C 
BRANCH   3   4
HETATM    4  O9  UNL     1     -35.304   5.005   4.575  1.00 20.00    -0.396 OA
HETATM    5  C3  UNL     1     -34.171   4.194   4.297  1.00 20.00     0.201 C 
ENDBRANCH   3   4
ENDBRANCH   2   3
ENDBRANCH   1   2
BRANCH   1   6
HETATM    6  C6  UNL     1     -32.161   7.937   2.224  1.00 20.00     0.119 C 
HETATM    7 CL10 UNL     1     -32.239   9.082   0.863  1.00 20.00    -0.130 Cl
ENDBRANCH   1   6
BRANCH   1   8
HETATM    8  C7  UNL     1     -33.058   5.601   1.538  1.00 20.00    -0.017 C 
HETATM    9  C1  UNL     1     -33.806   5.481   0.203  1.00 20.00     0.010 C 
HETATM   10  C2  UNL     1     -31.561   5.394   1.268  1.00 20.00     0.010 C 
ENDBRANCH   1   8
TORSDOF 5
ENDMDL
MODEL 7
REMARK VINA RESULT:      -1.2      3.310      5.128
REMARK  5 active torsions:
REMARK  status: ('A' for Active; 'I' for Inactive)
REMARK    1  A    between atoms: C4_4  and  C5_5 
REMARK    2  A    between atoms: C4_4  and  C8_8 
REMARK    3  A    between atoms: C5_5  and  O9_9 
REMARK    4  A    between atoms: C6_6  and  C8_8 
REMARK    5  A    between atoms: C7_7  and  C8_8 
ROOT
HETATM    1  C8  UNL     1     -33.897   6.498   2.874  1.00 20.00     0.005 C 
ENDROOT
BRANCH   1   2
HETATM    2  C4  UNL     1     -33.390   5.332   3.760  1.00 20.00     0.032 C 
BRANCH   2   3
HETATM    3  C5  UNL     1     -34.484   4.409   4.288  1.00 20.00     0.167 C 
BRANCH   3   4
HETATM    4  O9  UNL     1     -33.974   3.082   4.343  1.00 20.00    -0.396 OA
HETATM    5  C3  UNL     1     -32.752   3.026   5.065  1.00 20.00     0.201 C 
ENDBRANCH   3   4
ENDBRANCH   2   3
ENDBRANCH   1   2
BRANCH   1   6
HETATM    6  C6  UNL     1     -34.159   7.784   3.687  1.00 20.00     0.119 C 
HETATM    7 CL10 UNL     1     -33.158   7.905   5.154  1.00 20.00    -0.130 Cl
ENDBRANCH   1   6
BRANCH   1   8
HETATM    8  C7  UNL     1     -32.954   6.730   1.646  1.00 20.00    -0.017 C 
HETATM    9  C1  UNL     1     -31.986   7.902   1.867  1.00 20.00     0.010 C 
HETATM   10  C2  UNL     1     -32.127   5.485   1.298  1.00 20.00     0.010 C 
ENDBRANCH   1   8
TORSDOF 5
ENDMDL
MODEL 8
REMARK VINA RESULT:      -1.1      1.554      1.646
REMARK  5 active torsions:
REMARK  status: ('A' for Active; 'I' for Inactive)
REMARK    1  A    between atoms: C4_4  and  C5_5 
REMARK    2  A    between atoms: C4_4  and  C8_8 
REMARK    3  A    between atoms: C5_5  and  O9_9 
REMARK    4  A    between atoms: C6_6  and  C8_8 
REMARK    5  A    between atoms: C7_7  and  C8_8 
ROOT
HETATM    1  C8  UNL     1     -33.513   5.914   2.568  1.00 20.00     0.005 C 
ENDROOT
BRANCH   1   2
HETATM    2  C4  UNL     1     -32.557   6.568   1.538  1.00 20.00     0.032 C 
BRANCH   2   3
HETATM    3  C5  UNL     1     -32.160   8.006   1.858  1.00 20.00     0.167 C 
BRANCH   3   4
HETATM    4  O9  UNL     1     -31.738   8.640   0.657  1.00 20.00    -0.396 OA
HETATM    5  C3  UNL     1     -32.506   9.803   0.385  1.00 20.00     0.201 C 
ENDBRANCH   3   4
ENDBRANCH   2   3
ENDBRANCH   1   2
BRANCH   1   6
HETATM    6  C6  UNL     1     -32.790   4.903   3.484  1.00 20.00     0.119 C 
HETATM    7 CL10 UNL     1     -33.882   3.684   4.184  1.00 20.00    -0.130 Cl
ENDBRANCH   1   6
BRANCH   1   8
HETATM    8  C7  UNL     1     -34.317   6.997   3.364  1.00 20.00    -0.017 C 
HETATM    9  C1  UNL     1     -35.628   6.443   3.940  1.00 20.00     0.010 C 
HETATM   10  C2  UNL     1     -33.505   7.602   4.517  1.00 20.00     0.010 C 
ENDBRANCH   1   8
TORSDOF 5
ENDMDL
MODEL 9
REMARK VINA RESULT:      -0.9      2.751      4.554
REMARK  5 active torsions:
REMARK  status: ('A' for Active; 'I' for Inactive)
REMARK    1  A    between atoms: C4_4  and  C5_5 
REMARK    2  A    between atoms: C4_4  and  C8_8 
REMARK    3  A    between atoms: C5_5  and  O9_9 
REMARK    4  A    between atoms: C6_6  and  C8_8 
REMARK    5  A    between atoms: C7_7  and  C8_8 
ROOT
HETATM    1  C8  UNL     1     -33.058   7.033   1.909  1.00 20.00     0.005 C 
ENDROOT
BRANCH   1   2
HETATM    2  C4  UNL     1     -33.400   6.465   3.310  1.00 20.00     0.032 C 
BRANCH   2   3
HETATM    3  C5  UNL     1     -34.860   6.623   3.724  1.00 20.00     0.167 C 
BRANCH   3   4
HETATM    4  O9  UNL     1     -35.305   5.402   4.302  1.00 20.00    -0.396 OA
HETATM    5  C3  UNL     1     -34.306   4.395   4.221  1.00 20.00     0.201 C 
ENDBRANCH   3   4
ENDBRANCH   2   3
ENDBRANCH   1   2
BRANCH   1   6
HETATM    6  C6  UNL     1     -32.076   8.222   1.980  1.00 20.00     0.119 C 
HETATM    7 CL10 UNL     1     -32.294   9.392   0.655  1.00 20.00    -0.130 Cl
ENDBRANCH   1   6
BRANCH   1   8
HETATM    8  C7  UNL     1     -32.581   5.900   0.938  1.00 20.00    -0.017 C 
HETATM    9  C1  UNL     1     -31.582   4.943   1.605  1.00 20.00     0.010 C 
HETATM   10  C2  UNL     1     -33.748   5.069   0.390  1.00 20.00     0.010 C 
ENDBRANCH   1   8
TORSDOF 5
ENDMDL
