MODEL 1
REMARK VINA RESULT:      -0.1      0.000      0.000
REMARK  1 active torsions:
REMARK  status: ('A' for Active; 'I' for Inactive)
REMARK    1  A    between atoms: C5_5  and  C6_6 
ROOT
HETATM    1  C1  UNL     1     -33.386   7.508   3.554  1.00 20.00     0.218 C 
HETATM    2  C2  UNL     1     -32.180   8.234   3.011  1.00 20.00     0.110 C 
HETATM    3  C5  UNL     1     -32.138   7.814   1.529  1.00 20.00     0.026 C 
HETATM    4  C7  UNL     1     -32.773   6.401   1.545  1.00 20.00     0.030 C 
HETATM    5  C8  UNL     1     -31.704   5.336   1.852  1.00 20.00     0.038 C 
HETATM    6  C9  UNL     1     -33.512   6.009   0.264  1.00 20.00     0.038 C 
HETATM    7  N10 UNL     1     -33.694   6.488   2.663  1.00 20.00    -0.352 N 
HETATM    8  O11 UNL     1     -33.948   7.762   4.608  1.00 20.00    -0.274 OA
HETATM    9  H26 UNL     1     -34.486   5.862   2.783  1.00 20.00     0.163 HD
ENDROOT
BRANCH   3  10
HETATM   10  C6  UNL     1     -32.873   8.847   0.671  1.00 20.00    -0.008 A 
HETATM   11  C3  UNL     1     -32.611  10.310   0.870  1.00 20.00     0.005 A 
HETATM   12  C4  UNL     1     -32.126   9.619  -0.374  1.00 20.00     0.005 A 
ENDBRANCH   3  10
TORSDOF 1
ENDMDL
MODEL 2
REMARK VINA RESULT:       1.1      2.193      3.448
REMARK  1 active torsions:
REMARK  status: ('A' for Active; 'I' for Inactive)
REMARK    1  A    between atoms: C5_5  and  C6_6 
ROOT
HETATM    1  C1  UNL     1     -33.742   4.442   3.690  1.00 20.00     0.218 C 
HETATM    2  C2  UNL     1     -33.678   4.920   2.260  1.00 20.00     0.110 C 
HETATM    3  C5  UNL     1     -33.743   6.455   2.384  1.00 20.00     0.026 C 
HETATM    4  C7  UNL     1     -34.567   6.669   3.678  1.00 20.00     0.030 C 
HETATM    5  C8  UNL     1     -36.074   6.655   3.362  1.00 20.00     0.038 C 
HETATM    6  C9  UNL     1     -34.234   7.943   4.455  1.00 20.00     0.038 C 
HETATM    7  N10 UNL     1     -34.234   5.491   4.457  1.00 20.00    -0.352 N 
HETATM    8  O11 UNL     1     -33.449   3.320   4.072  1.00 20.00    -0.274 OA
HETATM    9  H26 UNL     1     -34.350   5.438   5.465  1.00 20.00     0.163 HD
ENDROOT
BRANCH   3  10
HETATM   10  C6  UNL     1     -32.327   7.038   2.412  1.00 20.00    -0.008 A 
HETATM   11  C3  UNL     1     -31.487   7.027   1.171  1.00 20.00     0.005 A 
HETATM   12  C4  UNL     1     -32.034   8.323   1.700  1.00 20.00     0.005 A 
ENDBRANCH   3  10
TORSDOF 1
ENDMDL
MODEL 3
REMARK VINA RESULT:       1.2      2.273      4.339
REMARK  1 active torsions:
REMARK  status: ('A' for Active; 'I' for Inactive)
REMARK    1  A    between atoms: C5_5  and  C6_6 
ROOT
HETATM    1  C1  UNL     1     -33.929   7.219   3.741  1.00 20.00     0.218 C 
HETATM    2  C2  UNL     1     -34.756   5.957   3.748  1.00 20.00     0.110 C 
HETATM    3  C5  UNL     1     -33.894   4.951   2.961  1.00 20.00     0.026 C 
HETATM    4  C7  UNL     1     -33.103   5.854   1.982  1.00 20.00     0.030 C 
HETATM    5  C8  UNL     1     -33.926   6.110   0.706  1.00 20.00     0.038 C 
HETATM    6  C9  UNL     1     -31.722   5.328   1.587  1.00 20.00     0.038 C 
HETATM    7  N10 UNL     1     -32.986   7.093   2.729  1.00 20.00    -0.352 N 
HETATM    8  O11 UNL     1     -34.102   8.180   4.475  1.00 20.00    -0.274 OA
HETATM    9  H26 UNL     1     -32.283   7.799   2.530  1.00 20.00     0.163 HD
ENDROOT
BRANCH   3  10
HETATM   10  C6  UNL     1     -33.034   4.131   3.927  1.00 20.00    -0.008 A 
HETATM   11  C3  UNL     1     -33.614   3.649   5.222  1.00 20.00     0.005 A 
HETATM   12  C4  UNL     1     -33.312   2.671   4.121  1.00 20.00     0.005 A 
ENDBRANCH   3  10
TORSDOF 1
ENDMDL
MODEL 4
REMARK VINA RESULT:       1.5      2.066      3.804
REMARK  1 active torsions:
REMARK  status: ('A' for Active; 'I' for Inactive)
REMARK    1  A    between atoms: C5_5  and  C6_6 
ROOT
HETATM    1  C1  UNL     1     -32.412   9.305   0.675  1.00 20.00     0.218 C 
HETATM    2  C2  UNL     1     -31.379   8.206   0.723  1.00 20.00     0.110 C 
HETATM    3  C5  UNL     1     -31.883   7.279   1.845  1.00 20.00     0.026 C 
HETATM    4  C7  UNL     1     -32.641   8.246   2.788  1.00 20.00     0.030 C 
HETATM    5  C8  UNL     1     -31.665   8.890   3.791  1.00 20.00     0.038 C 
HETATM    6  C9  UNL     1     -33.805   7.621   3.557  1.00 20.00     0.038 C 
HETATM    7  N10 UNL     1     -33.118   9.263   1.870  1.00 20.00    -0.352 N 
HETATM    8  O11 UNL     1     -32.555  10.099  -0.241  1.00 20.00    -0.274 OA
HETATM    9  H26 UNL     1     -33.894   9.885   2.081  1.00 20.00     0.163 HD
ENDROOT
BRANCH   3  10
HETATM   10  C6  UNL     1     -32.733   6.152   1.250  1.00 20.00    -0.008 A 
HETATM   11  C3  UNL     1     -32.074   4.913   0.726  1.00 20.00     0.005 A 
HETATM   12  C4  UNL     1     -32.884   4.859   1.991  1.00 20.00     0.005 A 
ENDBRANCH   3  10
TORSDOF 1
ENDMDL
MODEL 5
REMARK VINA RESULT:       1.5      1.883      3.469
REMARK  1 active torsions:
REMARK  status: ('A' for Active; 'I' for Inactive)
REMARK    1  A    between atoms: C5_5  and  C6_6 
ROOT
HETATM    1  C1  UNL     1     -32.636   8.720   1.515  1.00 20.00     0.218 C 
HETATM    2  C2  UNL     1     -31.643   7.633   1.843  1.00 20.00     0.110 C 
HETATM    3  C5  UNL     1     -32.453   6.650   2.711  1.00 20.00     0.026 C 
HETATM    4  C7  UNL     1     -33.493   7.565   3.404  1.00 20.00     0.030 C 
HETATM    5  C8  UNL     1     -32.901   8.174   4.688  1.00 20.00     0.038 C 
HETATM    6  C9  UNL     1     -34.825   6.893   3.740  1.00 20.00     0.038 C 
HETATM    7  N10 UNL     1     -33.682   8.617   2.422  1.00 20.00    -0.352 N 
HETATM    8  O11 UNL     1     -32.502   9.554   0.632  1.00 20.00    -0.274 OA
HETATM    9  H26 UNL     1     -34.500   9.220   2.402  1.00 20.00     0.163 HD
ENDROOT
BRANCH   3  10
HETATM   10  C6  UNL     1     -33.043   5.542   1.835  1.00 20.00    -0.008 A 
HETATM   11  C3  UNL     1     -33.226   5.767   0.364  1.00 20.00     0.005 A 
HETATM   12  C4  UNL     1     -32.170   4.818   0.856  1.00 20.00     0.005 A 
ENDBRANCH   3  10
TORSDOF 1
ENDMDL
MODEL 6
REMARK VINA RESULT:       1.7      1.833      2.877
REMARK  1 active torsions:
REMARK  status: ('A' for Active; 'I' for Inactive)
REMARK    1  A    between atoms: C5_5  and  C6_6 
ROOT
HETATM    1  C1  UNL     1     -32.555   5.641   1.685  1.00 20.00     0.218 C 
HETATM    2  C2  UNL     1     -33.325   6.663   0.885  1.00 20.00     0.110 C 
HETATM    3  C5  UNL     1     -33.484   7.845   1.861  1.00 20.00     0.026 C 
HETATM    4  C7  UNL     1     -33.499   7.158   3.249  1.00 20.00     0.030 C 
HETATM    5  C8  UNL     1     -34.927   6.703   3.605  1.00 20.00     0.038 C 
HETATM    6  C9  UNL     1     -32.945   8.003   4.396  1.00 20.00     0.038 C 
HETATM    7  N10 UNL     1     -32.670   5.989   3.025  1.00 20.00    -0.352 N 
HETATM    8  O11 UNL     1     -31.978   4.670   1.220  1.00 20.00    -0.274 OA
HETATM    9  H26 UNL     1     -32.217   5.474   3.775  1.00 20.00     0.163 HD
ENDROOT
BRANCH   3  10
HETATM   10  C6  UNL     1     -32.351   8.855   1.648  1.00 20.00    -0.008 A 
HETATM   11  C3  UNL     1     -31.554   8.830   0.380  1.00 20.00     0.005 A 
HETATM   12  C4  UNL     1     -32.511   9.957   0.646  1.00 20.00     0.005 A 
ENDBRANCH   3  10
TORSDOF 1
ENDMDL
MODEL 7
REMARK VINA RESULT:       2.3      2.085      3.747
REMARK  1 active torsions:
REMARK  status: ('A' for Active; 'I' for Inactive)
REMARK    1  A    between atoms: C5_5  and  C6_6 
ROOT
HETATM    1  C1  UNL     1     -32.892   5.686   0.972  1.00 20.00     0.218 C 
HETATM    2  C2  UNL     1     -32.664   5.655   2.464  1.00 20.00     0.110 C 
HETATM    3  C5  UNL     1     -32.735   7.139   2.874  1.00 20.00     0.026 C 
HETATM    4  C7  UNL     1     -32.243   7.880   1.606  1.00 20.00     0.030 C 
HETATM    5  C8  UNL     1     -30.706   7.979   1.607  1.00 20.00     0.038 C 
HETATM    6  C9  UNL     1     -32.832   9.277   1.403  1.00 20.00     0.038 C 
HETATM    7  N10 UNL     1     -32.662   6.986   0.543  1.00 20.00    -0.352 N 
HETATM    8  O11 UNL     1     -33.186   4.721   0.284  1.00 20.00    -0.274 OA
HETATM    9  H26 UNL     1     -32.774   7.283  -0.423  1.00 20.00     0.163 HD
ENDROOT
BRANCH   3  10
HETATM   10  C6  UNL     1     -34.158   7.489   3.321  1.00 20.00    -0.008 A 
HETATM   11  C3  UNL     1     -35.029   6.439   3.940  1.00 20.00     0.005 A 
HETATM   12  C4  UNL     1     -34.486   7.561   4.781  1.00 20.00     0.005 A 
ENDBRANCH   3  10
TORSDOF 1
ENDMDL
MODEL 8
REMARK VINA RESULT:       2.3      2.835      5.043
REMARK  1 active torsions:
REMARK  status: ('A' for Active; 'I' for Inactive)
REMARK    1  A    between atoms: C5_5  and  C6_6 
ROOT
HETATM    1  C1  UNL     1     -33.230   5.504   1.450  1.00 20.00     0.218 C 
HETATM    2  C2  UNL     1     -32.294   5.102   2.564  1.00 20.00     0.110 C 
HETATM    3  C5  UNL     1     -33.159   5.234   3.832  1.00 20.00     0.026 C 
HETATM    4  C7  UNL     1     -34.161   6.355   3.462  1.00 20.00     0.030 C 
HETATM    5  C8  UNL     1     -33.553   7.738   3.763  1.00 20.00     0.038 C 
HETATM    6  C9  UNL     1     -35.527   6.254   4.142  1.00 20.00     0.038 C 
HETATM    7  N10 UNL     1     -34.289   6.194   2.026  1.00 20.00    -0.352 N 
HETATM    8  O11 UNL     1     -33.048   5.286   0.263  1.00 20.00    -0.274 OA
HETATM    9  H26 UNL     1     -35.077   6.552   1.493  1.00 20.00     0.163 HD
ENDROOT
BRANCH   3  10
HETATM   10  C6  UNL     1     -33.793   3.882   4.175  1.00 20.00    -0.008 A 
HETATM   11  C3  UNL     1     -32.988   2.624   4.051  1.00 20.00     0.005 A 
HETATM   12  C4  UNL     1     -33.365   3.148   5.409  1.00 20.00     0.005 A 
ENDBRANCH   3  10
TORSDOF 1
ENDMDL
MODEL 9
REMARK VINA RESULT:       2.4      2.116      3.516
REMARK  1 active torsions:
REMARK  status: ('A' for Active; 'I' for Inactive)
REMARK    1  A    between atoms: C5_5  and  C6_6 
ROOT
HETATM    1  C1  UNL     1     -31.993   7.738   1.558  1.00 20.00     0.218 C 
HETATM    2  C2  UNL     1     -33.488   7.539   1.519  1.00 20.00     0.110 C 
HETATM    3  C5  UNL     1     -33.683   6.123   2.093  1.00 20.00     0.026 C 
HETATM    4  C7  UNL     1     -32.372   5.398   1.698  1.00 20.00     0.030 C 
HETATM    5  C8  UNL     1     -32.490   4.812   0.279  1.00 20.00     0.038 C 
HETATM    6  C9  UNL     1     -31.930   4.292   2.658  1.00 20.00     0.038 C 
HETATM    7  N10 UNL     1     -31.410   6.484   1.687  1.00 20.00    -0.352 N 
HETATM    8  O11 UNL     1     -31.421   8.812   1.453  1.00 20.00    -0.274 OA
HETATM    9  H26 UNL     1     -30.407   6.340   1.764  1.00 20.00     0.163 HD
ENDROOT
BRANCH   3  10
HETATM   10  C6  UNL     1     -33.954   6.202   3.598  1.00 20.00    -0.008 A 
HETATM   11  C3  UNL     1     -34.435   7.484   4.207  1.00 20.00     0.005 A 
HETATM   12  C4  UNL     1     -35.363   6.306   4.099  1.00 20.00     0.005 A 
ENDBRANCH   3  10
TORSDOF 1
ENDMDL
