MODEL 1
REMARK VINA RESULT:      -1.5      0.000      0.000
REMARK  2 active torsions:
REMARK  status: ('A' for Active; 'I' for Inactive)
REMARK    1  A    between atoms: C4_4  and  C7_7 
REMARK    2  A    between atoms: C7_7  and  C8_8 
ROOT
HETATM    1  C1  UNL     1     -32.828   7.486   2.483  1.00 20.00     0.218 C 
HETATM    2  C2  UNL     1     -33.479   6.125   2.556  1.00 20.00     0.113 C 
HETATM    3  C3  UNL     1     -33.896   7.358   4.578  1.00 20.00     0.132 C 
HETATM    4  C4  UNL     1     -34.515   6.273   3.689  1.00 20.00    -0.020 C 
HETATM    5  C5  UNL     1     -35.866   6.741   3.125  1.00 20.00     0.017 C 
HETATM    6  N9  UNL     1     -33.111   8.147   3.669  1.00 20.00    -0.360 N 
HETATM    7  O10 UNL     1     -32.149   7.893   1.553  1.00 20.00    -0.274 OA
HETATM    8  H25 UNL     1     -32.796   9.090   3.875  1.00 20.00     0.162 HD
ENDROOT
BRANCH   4   9
HETATM    9  C7  UNL     1     -34.705   4.962   4.452  1.00 20.00     0.011 C 
BRANCH   9  10
HETATM   10  C8  UNL     1     -33.834   3.862   3.865  1.00 20.00    -0.004 C 
HETATM   11  C6  UNL     1     -33.178   3.044   4.966  1.00 20.00     0.005 C 
ENDBRANCH   9  10
ENDBRANCH   4   9
TORSDOF 2
ENDMDL
MODEL 2
REMARK VINA RESULT:      -1.3      2.369      4.031
REMARK  2 active torsions:
REMARK  status: ('A' for Active; 'I' for Inactive)
REMARK    1  A    between atoms: C4_4  and  C7_7 
REMARK    2  A    between atoms: C7_7  and  C8_8 
ROOT
HETATM    1  C1  UNL     1     -34.258   4.583   4.140  1.00 20.00     0.218 C 
HETATM    2  C2  UNL     1     -33.337   5.481   3.349  1.00 20.00     0.113 C 
HETATM    3  C3  UNL     1     -35.427   6.593   3.768  1.00 20.00     0.132 C 
HETATM    4  C4  UNL     1     -33.941   6.887   3.541  1.00 20.00    -0.020 C 
HETATM    5  C5  UNL     1     -33.329   7.571   4.774  1.00 20.00     0.017 C 
HETATM    6  N9  UNL     1     -35.437   5.281   4.355  1.00 20.00    -0.360 N 
HETATM    7  O10 UNL     1     -34.002   3.438   4.484  1.00 20.00    -0.274 OA
HETATM    8  H25 UNL     1     -36.225   4.906   4.873  1.00 20.00     0.162 HD
ENDROOT
BRANCH   4   9
HETATM    9  C7  UNL     1     -33.723   7.765   2.308  1.00 20.00     0.011 C 
BRANCH   9  10
HETATM   10  C8  UNL     1     -32.244   7.863   1.967  1.00 20.00    -0.004 C 
HETATM   11  C6  UNL     1     -32.000   8.939   0.920  1.00 20.00     0.005 C 
ENDBRANCH   9  10
ENDBRANCH   4   9
TORSDOF 2
ENDMDL
MODEL 3
REMARK VINA RESULT:      -0.3      2.408      4.276
REMARK  2 active torsions:
REMARK  status: ('A' for Active; 'I' for Inactive)
REMARK    1  A    between atoms: C4_4  and  C7_7 
REMARK    2  A    between atoms: C7_7  and  C8_8 
ROOT
HETATM    1  C1  UNL     1     -34.561   5.922   3.655  1.00 20.00     0.218 C 
HETATM    2  C2  UNL     1     -33.954   7.006   2.796  1.00 20.00     0.113 C 
HETATM    3  C3  UNL     1     -32.606   5.017   2.702  1.00 20.00     0.132 C 
HETATM    4  C4  UNL     1     -32.990   6.242   1.866  1.00 20.00    -0.020 C 
HETATM    5  C5  UNL     1     -33.713   5.814   0.578  1.00 20.00     0.017 C 
HETATM    6  N9  UNL     1     -33.745   4.804   3.552  1.00 20.00    -0.360 N 
HETATM    7  O10 UNL     1     -35.568   6.042   4.336  1.00 20.00    -0.274 OA
HETATM    8  H25 UNL     1     -33.933   3.927   4.027  1.00 20.00     0.162 HD
ENDROOT
BRANCH   4   9
HETATM    9  C7  UNL     1     -31.766   7.087   1.509  1.00 20.00     0.011 C 
BRANCH   9  10
HETATM   10  C8  UNL     1     -32.033   8.562   1.764  1.00 20.00    -0.004 C 
HETATM   11  C6  UNL     1     -32.194   9.318   0.455  1.00 20.00     0.005 C 
ENDBRANCH   9  10
ENDBRANCH   4   9
TORSDOF 2
ENDMDL
MODEL 4
REMARK VINA RESULT:      -0.2      2.328      3.557
REMARK  2 active torsions:
REMARK  status: ('A' for Active; 'I' for Inactive)
REMARK    1  A    between atoms: C4_4  and  C7_7 
REMARK    2  A    between atoms: C7_7  and  C8_8 
ROOT
HETATM    1  C1  UNL     1     -32.249   9.610   0.504  1.00 20.00     0.218 C 
HETATM    2  C2  UNL     1     -33.233   9.058   1.509  1.00 20.00     0.113 C 
HETATM    3  C3  UNL     1     -31.411   7.520   1.195  1.00 20.00     0.132 C 
HETATM    4  C4  UNL     1     -32.431   7.968   2.248  1.00 20.00    -0.020 C 
HETATM    5  C5  UNL     1     -31.718   8.563   3.474  1.00 20.00     0.017 C 
HETATM    6  N9  UNL     1     -31.224   8.685   0.375  1.00 20.00    -0.360 N 
HETATM    7  O10 UNL     1     -32.375  10.665  -0.099  1.00 20.00    -0.274 OA
HETATM    8  H25 UNL     1     -30.424   8.816  -0.236  1.00 20.00     0.162 HD
ENDROOT
BRANCH   4   9
HETATM    9  C7  UNL     1     -33.329   6.812   2.689  1.00 20.00     0.011 C 
BRANCH   9  10
HETATM   10  C8  UNL     1     -34.226   7.232   3.843  1.00 20.00    -0.004 C 
HETATM   11  C6  UNL     1     -35.318   6.202   4.083  1.00 20.00     0.005 C 
ENDBRANCH   9  10
ENDBRANCH   4   9
TORSDOF 2
ENDMDL
MODEL 5
REMARK VINA RESULT:      -0.1      2.392      4.572
REMARK  2 active torsions:
REMARK  status: ('A' for Active; 'I' for Inactive)
REMARK    1  A    between atoms: C4_4  and  C7_7 
REMARK    2  A    between atoms: C7_7  and  C8_8 
ROOT
HETATM    1  C1  UNL     1     -34.288   6.854   3.480  1.00 20.00     0.218 C 
HETATM    2  C2  UNL     1     -34.044   6.873   1.990  1.00 20.00     0.113 C 
HETATM    3  C3  UNL     1     -32.236   7.960   3.144  1.00 20.00     0.132 C 
HETATM    4  C4  UNL     1     -32.534   7.165   1.869  1.00 20.00    -0.020 C 
HETATM    5  C5  UNL     1     -31.732   5.853   1.848  1.00 20.00     0.017 C 
HETATM    6  N9  UNL     1     -33.212   7.485   4.087  1.00 20.00    -0.360 N 
HETATM    7  O10 UNL     1     -35.280   6.394   4.026  1.00 20.00    -0.274 OA
HETATM    8  H25 UNL     1     -33.122   7.601   5.091  1.00 20.00     0.162 HD
ENDROOT
BRANCH   4   9
HETATM    9  C7  UNL     1     -32.218   7.977   0.613  1.00 20.00     0.011 C 
BRANCH   9  10
HETATM   10  C8  UNL     1     -32.314   9.469   0.894  1.00 20.00    -0.004 C 
HETATM   11  C6  UNL     1     -32.714  10.232  -0.359  1.00 20.00     0.005 C 
ENDBRANCH   9  10
ENDBRANCH   4   9
TORSDOF 2
ENDMDL
MODEL 6
REMARK VINA RESULT:       0.1      2.340      4.632
REMARK  2 active torsions:
REMARK  status: ('A' for Active; 'I' for Inactive)
REMARK    1  A    between atoms: C4_4  and  C7_7 
REMARK    2  A    between atoms: C7_7  and  C8_8 
ROOT
HETATM    1  C1  UNL     1     -33.669   5.666   3.248  1.00 20.00     0.218 C 
HETATM    2  C2  UNL     1     -32.938   5.999   1.968  1.00 20.00     0.113 C 
HETATM    3  C3  UNL     1     -33.911   7.985   2.912  1.00 20.00     0.132 C 
HETATM    4  C4  UNL     1     -32.731   7.526   2.049  1.00 20.00    -0.020 C 
HETATM    5  C5  UNL     1     -31.397   7.852   2.739  1.00 20.00     0.017 C 
HETATM    6  N9  UNL     1     -34.198   6.849   3.744  1.00 20.00    -0.360 N 
HETATM    7  O10 UNL     1     -33.790   4.546   3.719  1.00 20.00    -0.274 OA
HETATM    8  H25 UNL     1     -34.732   6.906   4.605  1.00 20.00     0.162 HD
ENDROOT
BRANCH   4   9
HETATM    9  C7  UNL     1     -32.763   8.171   0.664  1.00 20.00     0.011 C 
BRANCH   9  10
HETATM   10  C8  UNL     1     -32.007   9.490   0.663  1.00 20.00    -0.004 C 
HETATM   11  C6  UNL     1     -32.786  10.560  -0.086  1.00 20.00     0.005 C 
ENDBRANCH   9  10
ENDBRANCH   4   9
TORSDOF 2
ENDMDL
MODEL 7
REMARK VINA RESULT:       0.5      0.998      1.164
REMARK  2 active torsions:
REMARK  status: ('A' for Active; 'I' for Inactive)
REMARK    1  A    between atoms: C4_4  and  C7_7 
REMARK    2  A    between atoms: C7_7  and  C8_8 
ROOT
HETATM    1  C1  UNL     1     -32.539   8.189   1.818  1.00 20.00     0.218 C 
HETATM    2  C2  UNL     1     -33.043   6.792   1.540  1.00 20.00     0.113 C 
HETATM    3  C3  UNL     1     -32.695   7.097   3.900  1.00 20.00     0.132 C 
HETATM    4  C4  UNL     1     -33.558   6.307   2.910  1.00 20.00    -0.020 C 
HETATM    5  C5  UNL     1     -35.044   6.664   3.083  1.00 20.00     0.017 C 
HETATM    6  N9  UNL     1     -32.367   8.304   3.190  1.00 20.00    -0.360 N 
HETATM    7  O10 UNL     1     -32.299   9.033   0.969  1.00 20.00    -0.274 OA
HETATM    8  H25 UNL     1     -32.043   9.151   3.646  1.00 20.00     0.162 HD
ENDROOT
BRANCH   4   9
HETATM    9  C7  UNL     1     -33.371   4.799   3.080  1.00 20.00     0.011 C 
BRANCH   9  10
HETATM   10  C8  UNL     1     -34.087   4.301   4.325  1.00 20.00    -0.004 C 
HETATM   11  C6  UNL     1     -33.395   3.072   4.893  1.00 20.00     0.005 C 
ENDBRANCH   9  10
ENDBRANCH   4   9
TORSDOF 2
ENDMDL
MODEL 8
REMARK VINA RESULT:       0.6      2.610      4.805
REMARK  2 active torsions:
REMARK  status: ('A' for Active; 'I' for Inactive)
REMARK    1  A    between atoms: C4_4  and  C7_7 
REMARK    2  A    between atoms: C7_7  and  C8_8 
ROOT
HETATM    1  C1  UNL     1     -32.631   5.877   1.736  1.00 20.00     0.218 C 
HETATM    2  C2  UNL     1     -32.119   7.162   1.131  1.00 20.00     0.113 C 
HETATM    3  C3  UNL     1     -33.625   7.638   2.944  1.00 20.00     0.132 C 
HETATM    4  C4  UNL     1     -32.410   8.220   2.214  1.00 20.00    -0.020 C 
HETATM    5  C5  UNL     1     -31.214   8.352   3.172  1.00 20.00     0.017 C 
HETATM    6  N9  UNL     1     -33.484   6.217   2.777  1.00 20.00    -0.360 N 
HETATM    7  O10 UNL     1     -32.359   4.753   1.341  1.00 20.00    -0.274 OA
HETATM    8  H25 UNL     1     -33.959   5.535   3.359  1.00 20.00     0.162 HD
ENDROOT
BRANCH   4   9
HETATM    9  C7  UNL     1     -32.724   9.584   1.598  1.00 20.00     0.011 C 
BRANCH   9  10
HETATM   10  C8  UNL     1     -32.053   9.733   0.242  1.00 20.00    -0.004 C 
HETATM   11  C6  UNL     1     -32.999  10.368  -0.765  1.00 20.00     0.005 C 
ENDBRANCH   9  10
ENDBRANCH   4   9
TORSDOF 2
ENDMDL
MODEL 9
REMARK VINA RESULT:       0.7      1.205      1.814
REMARK  2 active torsions:
REMARK  status: ('A' for Active; 'I' for Inactive)
REMARK    1  A    between atoms: C4_4  and  C7_7 
REMARK    2  A    between atoms: C7_7  and  C8_8 
ROOT
HETATM    1  C1  UNL     1     -32.218   7.916   1.840  1.00 20.00     0.218 C 
HETATM    2  C2  UNL     1     -31.792   6.472   1.726  1.00 20.00     0.113 C 
HETATM    3  C3  UNL     1     -33.796   6.646   3.043  1.00 20.00     0.132 C 
HETATM    4  C4  UNL     1     -33.061   5.682   2.106  1.00 20.00    -0.020 C 
HETATM    5  C5  UNL     1     -33.908   5.391   0.856  1.00 20.00     0.017 C 
HETATM    6  N9  UNL     1     -33.378   7.949   2.600  1.00 20.00    -0.360 N 
HETATM    7  O10 UNL     1     -31.614   8.869   1.370  1.00 20.00    -0.274 OA
HETATM    8  H25 UNL     1     -33.880   8.803   2.822  1.00 20.00     0.162 HD
ENDROOT
BRANCH   4   9
HETATM    9  C7  UNL     1     -32.716   4.369   2.808  1.00 20.00     0.011 C 
BRANCH   9  10
HETATM   10  C8  UNL     1     -33.744   4.041   3.880  1.00 20.00    -0.004 C 
HETATM   11  C6  UNL     1     -33.256   2.910   4.771  1.00 20.00     0.005 C 
ENDBRANCH   9  10
ENDBRANCH   4   9
TORSDOF 2
ENDMDL
