MODEL 1
REMARK VINA RESULT:      -0.5      0.000      0.000
REMARK  1 active torsions:
REMARK  status: ('A' for Active; 'I' for Inactive)
REMARK    1  A    between atoms: C3_3  and  C8_8 
ROOT
HETATM    1  C1  UNL     1     -33.822   7.141   3.467  1.00 20.00     0.218 C 
HETATM    2  C2  UNL     1     -33.153   8.267   2.718  1.00 20.00     0.109 C 
HETATM    3  C3  UNL     1     -32.102   7.541   1.868  1.00 20.00     0.021 C 
HETATM    4  C4  UNL     1     -32.745   6.163   1.588  1.00 20.00     0.029 C 
HETATM    5  C5  UNL     1     -31.687   5.068   1.445  1.00 20.00     0.038 C 
HETATM    6  C6  UNL     1     -33.678   6.146   0.370  1.00 20.00     0.038 C 
HETATM    7  N9  UNL     1     -33.531   5.961   2.793  1.00 20.00    -0.352 N 
HETATM    8  O10 UNL     1     -34.520   7.271   4.461  1.00 20.00    -0.274 OA
HETATM    9  H25 UNL     1     -33.838   5.046   3.112  1.00 20.00     0.163 HD
ENDROOT
BRANCH   3  10
HETATM   10  C8  UNL     1     -31.679   8.349   0.650  1.00 20.00     0.003 C 
HETATM   11  C7  UNL     1     -32.432   9.637   0.547  1.00 20.00     0.005 C 
ENDBRANCH   3  10
TORSDOF 1
ENDMDL
MODEL 2
REMARK VINA RESULT:      -0.1      2.334      4.149
REMARK  1 active torsions:
REMARK  status: ('A' for Active; 'I' for Inactive)
REMARK    1  A    between atoms: C3_3  and  C8_8 
ROOT
HETATM    1  C1  UNL     1     -32.485   7.231   1.824  1.00 20.00     0.218 C 
HETATM    2  C2  UNL     1     -32.834   5.776   2.020  1.00 20.00     0.109 C 
HETATM    3  C3  UNL     1     -33.343   5.734   3.467  1.00 20.00     0.021 C 
HETATM    4  C4  UNL     1     -33.973   7.131   3.674  1.00 20.00     0.029 C 
HETATM    5  C5  UNL     1     -33.861   7.587   5.130  1.00 20.00     0.038 C 
HETATM    6  C6  UNL     1     -35.431   7.233   3.210  1.00 20.00     0.038 C 
HETATM    7  N9  UNL     1     -33.140   7.954   2.814  1.00 20.00    -0.352 N 
HETATM    8  O10 UNL     1     -31.784   7.675   0.928  1.00 20.00    -0.274 OA
HETATM    9  H25 UNL     1     -33.046   8.960   2.926  1.00 20.00     0.163 HD
ENDROOT
BRANCH   3  10
HETATM   10  C8  UNL     1     -34.248   4.540   3.730  1.00 20.00     0.003 C 
HETATM   11  C7  UNL     1     -33.535   3.450   4.465  1.00 20.00     0.005 C 
ENDBRANCH   3  10
TORSDOF 1
ENDMDL
MODEL 3
REMARK VINA RESULT:       0.1      2.185      3.633
REMARK  1 active torsions:
REMARK  status: ('A' for Active; 'I' for Inactive)
REMARK    1  A    between atoms: C3_3  and  C8_8 
ROOT
HETATM    1  C1  UNL     1     -32.069   5.724   1.264  1.00 20.00     0.218 C 
HETATM    2  C2  UNL     1     -33.312   5.743   2.120  1.00 20.00     0.109 C 
HETATM    3  C3  UNL     1     -33.055   6.913   3.079  1.00 20.00     0.021 C 
HETATM    4  C4  UNL     1     -32.188   7.885   2.246  1.00 20.00     0.029 C 
HETATM    5  C5  UNL     1     -31.231   8.683   3.132  1.00 20.00     0.038 C 
HETATM    6  C6  UNL     1     -32.998   8.843   1.363  1.00 20.00     0.038 C 
HETATM    7  N9  UNL     1     -31.453   6.963   1.398  1.00 20.00    -0.352 N 
HETATM    8  O10 UNL     1     -31.710   4.793   0.560  1.00 20.00    -0.274 OA
HETATM    9  H25 UNL     1     -30.574   7.200   0.947  1.00 20.00     0.163 HD
ENDROOT
BRANCH   3  10
HETATM   10  C8  UNL     1     -34.342   7.482   3.659  1.00 20.00     0.003 C 
HETATM   11  C7  UNL     1     -35.335   6.409   3.973  1.00 20.00     0.005 C 
ENDBRANCH   3  10
TORSDOF 1
ENDMDL
MODEL 4
REMARK VINA RESULT:       0.2      2.205      3.455
REMARK  1 active torsions:
REMARK  status: ('A' for Active; 'I' for Inactive)
REMARK    1  A    between atoms: C3_3  and  C8_8 
ROOT
HETATM    1  C1  UNL     1     -33.933   4.225   4.082  1.00 20.00     0.218 C 
HETATM    2  C2  UNL     1     -33.002   4.870   3.084  1.00 20.00     0.109 C 
HETATM    3  C3  UNL     1     -33.852   6.005   2.499  1.00 20.00     0.021 C 
HETATM    4  C4  UNL     1     -34.781   6.407   3.668  1.00 20.00     0.029 C 
HETATM    5  C5  UNL     1     -36.128   6.925   3.162  1.00 20.00     0.038 C 
HETATM    6  C6  UNL     1     -34.162   7.426   4.633  1.00 20.00     0.038 C 
HETATM    7  N9  UNL     1     -34.945   5.138   4.356  1.00 20.00    -0.352 N 
HETATM    8  O10 UNL     1     -33.784   3.118   4.574  1.00 20.00    -0.274 OA
HETATM    9  H25 UNL     1     -35.724   4.938   4.977  1.00 20.00     0.163 HD
ENDROOT
BRANCH   3  10
HETATM   10  C8  UNL     1     -33.004   7.116   1.897  1.00 20.00     0.003 C 
HETATM   11  C7  UNL     1     -31.670   6.615   1.444  1.00 20.00     0.005 C 
ENDBRANCH   3  10
TORSDOF 1
ENDMDL
MODEL 5
REMARK VINA RESULT:       0.5      1.712      2.965
REMARK  1 active torsions:
REMARK  status: ('A' for Active; 'I' for Inactive)
REMARK    1  A    between atoms: C3_3  and  C8_8 
ROOT
HETATM    1  C1  UNL     1     -33.977   5.039   3.619  1.00 20.00     0.218 C 
HETATM    2  C2  UNL     1     -32.859   5.458   2.695  1.00 20.00     0.109 C 
HETATM    3  C3  UNL     1     -33.205   6.917   2.372  1.00 20.00     0.021 C 
HETATM    4  C4  UNL     1     -33.922   7.415   3.648  1.00 20.00     0.029 C 
HETATM    5  C5  UNL     1     -34.964   8.487   3.324  1.00 20.00     0.038 C 
HETATM    6  C6  UNL     1     -32.972   7.927   4.738  1.00 20.00     0.038 C 
HETATM    7  N9  UNL     1     -34.566   6.198   4.110  1.00 20.00    -0.352 N 
HETATM    8  O10 UNL     1     -34.268   3.887   3.898  1.00 20.00    -0.274 OA
HETATM    9  H25 UNL     1     -35.370   6.194   4.732  1.00 20.00     0.163 HD
ENDROOT
BRANCH   3  10
HETATM   10  C8  UNL     1     -31.989   7.717   1.925  1.00 20.00     0.003 C 
HETATM   11  C7  UNL     1     -32.359   8.803   0.965  1.00 20.00     0.005 C 
ENDBRANCH   3  10
TORSDOF 1
ENDMDL
MODEL 6
REMARK VINA RESULT:       0.6      0.996      1.202
REMARK  1 active torsions:
REMARK  status: ('A' for Active; 'I' for Inactive)
REMARK    1  A    between atoms: C3_3  and  C8_8 
ROOT
HETATM    1  C1  UNL     1     -34.441   5.918   3.653  1.00 20.00     0.218 C 
HETATM    2  C2  UNL     1     -34.116   7.354   3.323  1.00 20.00     0.109 C 
HETATM    3  C3  UNL     1     -32.824   7.237   2.503  1.00 20.00     0.021 C 
HETATM    4  C4  UNL     1     -32.964   5.872   1.791  1.00 20.00     0.029 C 
HETATM    5  C5  UNL     1     -31.601   5.219   1.556  1.00 20.00     0.038 C 
HETATM    6  C6  UNL     1     -33.745   5.933   0.472  1.00 20.00     0.038 C 
HETATM    7  N9  UNL     1     -33.733   5.116   2.765  1.00 20.00    -0.352 N 
HETATM    8  O10 UNL     1     -35.218   5.551   4.521  1.00 20.00    -0.274 OA
HETATM    9  H25 UNL     1     -33.751   4.100   2.794  1.00 20.00     0.163 HD
ENDROOT
BRANCH   3  10
HETATM   10  C8  UNL     1     -32.594   8.445   1.606  1.00 20.00     0.003 C 
HETATM   11  C7  UNL     1     -31.186   8.508   1.107  1.00 20.00     0.005 C 
ENDBRANCH   3  10
TORSDOF 1
ENDMDL
MODEL 7
REMARK VINA RESULT:       0.7      1.150      2.884
REMARK  1 active torsions:
REMARK  status: ('A' for Active; 'I' for Inactive)
REMARK    1  A    between atoms: C3_3  and  C8_8 
ROOT
HETATM    1  C1  UNL     1     -34.245   6.873   3.518  1.00 20.00     0.218 C 
HETATM    2  C2  UNL     1     -33.506   5.734   2.861  1.00 20.00     0.109 C 
HETATM    3  C3  UNL     1     -32.836   6.405   1.655  1.00 20.00     0.021 C 
HETATM    4  C4  UNL     1     -32.575   7.850   2.138  1.00 20.00     0.029 C 
HETATM    5  C5  UNL     1     -32.629   8.848   0.980  1.00 20.00     0.038 C 
HETATM    6  C6  UNL     1     -31.260   8.022   2.909  1.00 20.00     0.038 C 
HETATM    7  N9  UNL     1     -33.690   8.057   3.046  1.00 20.00    -0.352 N 
HETATM    8  O10 UNL     1     -35.139   6.754   4.341  1.00 20.00    -0.274 OA
HETATM    9  H25 UNL     1     -34.031   8.977   3.309  1.00 20.00     0.163 HD
ENDROOT
BRANCH   3  10
HETATM   10  C8  UNL     1     -31.624   5.630   1.158  1.00 20.00     0.003 C 
HETATM   11  C7  UNL     1     -32.020   4.429   0.358  1.00 20.00     0.005 C 
ENDBRANCH   3  10
TORSDOF 1
ENDMDL
MODEL 8
REMARK VINA RESULT:       0.8      1.937      3.312
REMARK  1 active torsions:
REMARK  status: ('A' for Active; 'I' for Inactive)
REMARK    1  A    between atoms: C3_3  and  C8_8 
ROOT
HETATM    1  C1  UNL     1     -32.181   8.127   1.828  1.00 20.00     0.218 C 
HETATM    2  C2  UNL     1     -32.975   7.668   3.027  1.00 20.00     0.109 C 
HETATM    3  C3  UNL     1     -33.714   6.430   2.500  1.00 20.00     0.021 C 
HETATM    4  C4  UNL     1     -32.748   5.852   1.440  1.00 20.00     0.029 C 
HETATM    5  C5  UNL     1     -33.508   5.142   0.318  1.00 20.00     0.038 C 
HETATM    6  C6  UNL     1     -31.679   4.915   2.015  1.00 20.00     0.038 C 
HETATM    7  N9  UNL     1     -32.109   7.057   0.943  1.00 20.00    -0.352 N 
HETATM    8  O10 UNL     1     -31.672   9.229   1.698  1.00 20.00    -0.274 OA
HETATM    9  H25 UNL     1     -31.654   7.114   0.036  1.00 20.00     0.163 HD
ENDROOT
BRANCH   3  10
HETATM   10  C8  UNL     1     -34.135   5.486   3.617  1.00 20.00     0.003 C 
HETATM   11  C7  UNL     1     -35.401   5.931   4.275  1.00 20.00     0.005 C 
ENDBRANCH   3  10
TORSDOF 1
ENDMDL
MODEL 9
REMARK VINA RESULT:       1.4      1.826      2.916
REMARK  1 active torsions:
REMARK  status: ('A' for Active; 'I' for Inactive)
REMARK    1  A    between atoms: C3_3  and  C8_8 
ROOT
HETATM    1  C1  UNL     1     -32.214   5.853   1.664  1.00 20.00     0.218 C 
HETATM    2  C2  UNL     1     -31.900   7.211   1.087  1.00 20.00     0.109 C 
HETATM    3  C3  UNL     1     -33.042   8.087   1.619  1.00 20.00     0.021 C 
HETATM    4  C4  UNL     1     -33.395   7.442   2.979  1.00 20.00     0.029 C 
HETATM    5  C5  UNL     1     -34.876   7.622   3.318  1.00 20.00     0.038 C 
HETATM    6  C6  UNL     1     -32.532   7.936   4.146  1.00 20.00     0.038 C 
HETATM    7  N9  UNL     1     -33.095   6.044   2.723  1.00 20.00    -0.352 N 
HETATM    8  O10 UNL     1     -31.740   4.795   1.280  1.00 20.00    -0.274 OA
HETATM    9  H25 UNL     1     -33.491   5.280   3.264  1.00 20.00     0.163 HD
ENDROOT
BRANCH   3  10
HETATM   10  C8  UNL     1     -32.678   9.564   1.646  1.00 20.00     0.003 C 
HETATM   11  C7  UNL     1     -32.510  10.122   0.269  1.00 20.00     0.005 C 
ENDBRANCH   3  10
TORSDOF 1
ENDMDL
