MODEL 1
REMARK VINA RESULT:      -0.2      0.000      0.000
REMARK  1 active torsions:
REMARK  status: ('A' for Active; 'I' for Inactive)
REMARK    1  A    between atoms: C3_3  and  C8_8 
ROOT
HETATM    1  C1  UNL     1     -32.133   5.842   1.417  1.00 20.00     0.218 C 
HETATM    2  C2  UNL     1     -33.587   6.235   1.491  1.00 20.00     0.109 C 
HETATM    3  C3  UNL     1     -33.580   7.495   2.377  1.00 20.00     0.021 C 
HETATM    4  C4  UNL     1     -32.188   8.116   2.097  1.00 20.00     0.029 C 
HETATM    5  C5  UNL     1     -31.586   8.905   3.261  1.00 20.00     0.038 C 
HETATM    6  C6  UNL     1     -32.246   9.021   0.854  1.00 20.00     0.038 C 
HETATM    7  N9  UNL     1     -31.382   6.947   1.799  1.00 20.00    -0.352 N 
HETATM    8  O10 UNL     1     -31.713   4.755   1.049  1.00 20.00    -0.274 OA
HETATM    9  H25 UNL     1     -30.368   6.937   1.861  1.00 20.00     0.163 HD
ENDROOT
BRANCH   3  10
HETATM   10  C8  UNL     1     -33.837   7.110   3.837  1.00 20.00     0.003 C 
HETATM   11  C7  UNL     1     -35.112   6.345   3.995  1.00 20.00     0.005 C 
ENDBRANCH   3  10
TORSDOF 1
ENDMDL
MODEL 2
REMARK VINA RESULT:       0.4      2.058      2.749
REMARK  1 active torsions:
REMARK  status: ('A' for Active; 'I' for Inactive)
REMARK    1  A    between atoms: C3_3  and  C8_8 
ROOT
HETATM    1  C1  UNL     1     -33.938   4.713   3.694  1.00 20.00     0.218 C 
HETATM    2  C2  UNL     1     -34.809   5.944   3.645  1.00 20.00     0.109 C 
HETATM    3  C3  UNL     1     -33.957   6.963   2.866  1.00 20.00     0.021 C 
HETATM    4  C4  UNL     1     -33.100   6.070   1.935  1.00 20.00     0.029 C 
HETATM    5  C5  UNL     1     -31.726   6.638   1.576  1.00 20.00     0.038 C 
HETATM    6  C6  UNL     1     -33.867   5.757   0.638  1.00 20.00     0.038 C 
HETATM    7  N9  UNL     1     -32.964   4.852   2.713  1.00 20.00    -0.352 N 
HETATM    8  O10 UNL     1     -34.101   3.762   4.444  1.00 20.00    -0.274 OA
HETATM    9  H25 UNL     1     -32.230   4.168   2.555  1.00 20.00     0.163 HD
ENDROOT
BRANCH   3  10
HETATM   10  C8  UNL     1     -33.162   7.835   3.842  1.00 20.00     0.003 C 
HETATM   11  C7  UNL     1     -33.912   8.075   5.113  1.00 20.00     0.005 C 
ENDBRANCH   3  10
TORSDOF 1
ENDMDL
MODEL 3
REMARK VINA RESULT:       0.9      1.796      2.923
REMARK  1 active torsions:
REMARK  status: ('A' for Active; 'I' for Inactive)
REMARK    1  A    between atoms: C3_3  and  C8_8 
ROOT
HETATM    1  C1  UNL     1     -32.327   8.457   1.440  1.00 20.00     0.218 C 
HETATM    2  C2  UNL     1     -32.364   8.089   2.902  1.00 20.00     0.109 C 
HETATM    3  C3  UNL     1     -33.108   6.741   2.921  1.00 20.00     0.021 C 
HETATM    4  C4  UNL     1     -32.757   6.124   1.544  1.00 20.00     0.029 C 
HETATM    5  C5  UNL     1     -33.825   5.200   0.957  1.00 20.00     0.038 C 
HETATM    6  C6  UNL     1     -31.423   5.361   1.624  1.00 20.00     0.038 C 
HETATM    7  N9  UNL     1     -32.583   7.300   0.713  1.00 20.00    -0.352 N 
HETATM    8  O10 UNL     1     -32.077   9.568   0.997  1.00 20.00    -0.274 OA
HETATM    9  H25 UNL     1     -32.642   7.281  -0.301  1.00 20.00     0.163 HD
ENDROOT
BRANCH   3  10
HETATM   10  C8  UNL     1     -34.602   6.971   3.167  1.00 20.00     0.003 C 
HETATM   11  C7  UNL     1     -35.151   6.025   4.187  1.00 20.00     0.005 C 
ENDBRANCH   3  10
TORSDOF 1
ENDMDL
MODEL 4
REMARK VINA RESULT:       1.0      2.082      3.202
REMARK  1 active torsions:
REMARK  status: ('A' for Active; 'I' for Inactive)
REMARK    1  A    between atoms: C3_3  and  C8_8 
ROOT
HETATM    1  C1  UNL     1     -34.410   6.655   3.473  1.00 20.00     0.218 C 
HETATM    2  C2  UNL     1     -33.284   5.664   3.313  1.00 20.00     0.109 C 
HETATM    3  C3  UNL     1     -32.402   6.287   2.215  1.00 20.00     0.021 C 
HETATM    4  C4  UNL     1     -32.637   7.808   2.393  1.00 20.00     0.029 C 
HETATM    5  C5  UNL     1     -32.515   8.637   1.114  1.00 20.00     0.038 C 
HETATM    6  C6  UNL     1     -31.677   8.378   3.453  1.00 20.00     0.038 C 
HETATM    7  N9  UNL     1     -33.993   7.854   2.907  1.00 20.00    -0.352 N 
HETATM    8  O10 UNL     1     -35.472   6.434   4.036  1.00 20.00    -0.274 OA
HETATM    9  H25 UNL     1     -34.581   8.681   2.858  1.00 20.00     0.163 HD
ENDROOT
BRANCH   3  10
HETATM   10  C8  UNL     1     -32.797   5.725   0.846  1.00 20.00     0.003 C 
HETATM   11  C7  UNL     1     -31.946   4.559   0.457  1.00 20.00     0.005 C 
ENDBRANCH   3  10
TORSDOF 1
ENDMDL
MODEL 5
REMARK VINA RESULT:       1.3      2.080      3.625
REMARK  1 active torsions:
REMARK  status: ('A' for Active; 'I' for Inactive)
REMARK    1  A    between atoms: C3_3  and  C8_8 
ROOT
HETATM    1  C1  UNL     1     -32.405   8.084   3.337  1.00 20.00     0.218 C 
HETATM    2  C2  UNL     1     -32.716   7.761   1.896  1.00 20.00     0.109 C 
HETATM    3  C3  UNL     1     -33.356   6.362   1.965  1.00 20.00     0.021 C 
HETATM    4  C4  UNL     1     -34.024   6.347   3.362  1.00 20.00     0.029 C 
HETATM    5  C5  UNL     1     -34.114   4.970   4.023  1.00 20.00     0.038 C 
HETATM    6  C6  UNL     1     -35.434   6.960   3.288  1.00 20.00     0.038 C 
HETATM    7  N9  UNL     1     -33.162   7.227   4.128  1.00 20.00    -0.352 N 
HETATM    8  O10 UNL     1     -31.651   8.967   3.716  1.00 20.00    -0.274 OA
HETATM    9  H25 UNL     1     -33.115   7.220   5.143  1.00 20.00     0.163 HD
ENDROOT
BRANCH   3  10
HETATM   10  C8  UNL     1     -32.287   5.287   1.745  1.00 20.00     0.003 C 
HETATM   11  C7  UNL     1     -32.376   4.684   0.380  1.00 20.00     0.005 C 
ENDBRANCH   3  10
TORSDOF 1
ENDMDL
MODEL 6
REMARK VINA RESULT:       1.5      2.091      2.986
REMARK  1 active torsions:
REMARK  status: ('A' for Active; 'I' for Inactive)
REMARK    1  A    between atoms: C3_3  and  C8_8 
ROOT
HETATM    1  C1  UNL     1     -32.560   7.154   2.089  1.00 20.00     0.218 C 
HETATM    2  C2  UNL     1     -33.026   5.773   1.702  1.00 20.00     0.109 C 
HETATM    3  C3  UNL     1     -33.848   5.310   2.919  1.00 20.00     0.021 C 
HETATM    4  C4  UNL     1     -34.399   6.637   3.498  1.00 20.00     0.029 C 
HETATM    5  C5  UNL     1     -34.628   6.638   5.011  1.00 20.00     0.038 C 
HETATM    6  C6  UNL     1     -35.710   7.025   2.792  1.00 20.00     0.038 C 
HETATM    7  N9  UNL     1     -33.364   7.587   3.137  1.00 20.00    -0.352 N 
HETATM    8  O10 UNL     1     -31.661   7.775   1.542  1.00 20.00    -0.274 OA
HETATM    9  H25 UNL     1     -33.239   8.481   3.602  1.00 20.00     0.163 HD
ENDROOT
BRANCH   3  10
HETATM   10  C8  UNL     1     -32.961   4.504   3.873  1.00 20.00     0.003 C 
HETATM   11  C7  UNL     1     -33.644   3.263   4.354  1.00 20.00     0.005 C 
ENDBRANCH   3  10
TORSDOF 1
ENDMDL
MODEL 7
REMARK VINA RESULT:       1.5      2.601      3.610
REMARK  1 active torsions:
REMARK  status: ('A' for Active; 'I' for Inactive)
REMARK    1  A    between atoms: C3_3  and  C8_8 
ROOT
HETATM    1  C1  UNL     1     -34.987   5.474   4.218  1.00 20.00     0.218 C 
HETATM    2  C2  UNL     1     -33.591   5.023   3.870  1.00 20.00     0.109 C 
HETATM    3  C3  UNL     1     -33.015   6.203   3.065  1.00 20.00     0.021 C 
HETATM    4  C4  UNL     1     -33.764   7.428   3.649  1.00 20.00     0.029 C 
HETATM    5  C5  UNL     1     -33.978   8.583   2.670  1.00 20.00     0.038 C 
HETATM    6  C6  UNL     1     -33.034   7.956   4.896  1.00 20.00     0.038 C 
HETATM    7  N9  UNL     1     -35.035   6.853   4.048  1.00 20.00    -0.352 N 
HETATM    8  O10 UNL     1     -35.887   4.747   4.611  1.00 20.00    -0.274 OA
HETATM    9  H25 UNL     1     -35.876   7.403   4.191  1.00 20.00     0.163 HD
ENDROOT
BRANCH   3  10
HETATM   10  C8  UNL     1     -33.228   5.967   1.566  1.00 20.00     0.003 C 
HETATM   11  C7  UNL     1     -32.106   5.185   0.962  1.00 20.00     0.005 C 
ENDBRANCH   3  10
TORSDOF 1
ENDMDL
MODEL 8
REMARK VINA RESULT:       1.6      2.037      3.299
REMARK  1 active torsions:
REMARK  status: ('A' for Active; 'I' for Inactive)
REMARK    1  A    between atoms: C3_3  and  C8_8 
ROOT
HETATM    1  C1  UNL     1     -34.353   5.070   3.732  1.00 20.00     0.218 C 
HETATM    2  C2  UNL     1     -34.769   6.462   3.326  1.00 20.00     0.109 C 
HETATM    3  C3  UNL     1     -33.622   6.936   2.415  1.00 20.00     0.021 C 
HETATM    4  C4  UNL     1     -33.097   5.618   1.792  1.00 20.00     0.029 C 
HETATM    5  C5  UNL     1     -31.609   5.616   1.439  1.00 20.00     0.038 C 
HETATM    6  C6  UNL     1     -33.911   5.258   0.537  1.00 20.00     0.038 C 
HETATM    7  N9  UNL     1     -33.377   4.650   2.835  1.00 20.00    -0.352 N 
HETATM    8  O10 UNL     1     -34.827   4.433   4.660  1.00 20.00    -0.274 OA
HETATM    9  H25 UNL     1     -32.908   3.751   2.904  1.00 20.00     0.163 HD
ENDROOT
BRANCH   3  10
HETATM   10  C8  UNL     1     -32.593   7.721   3.235  1.00 20.00     0.003 C 
HETATM   11  C7  UNL     1     -31.772   8.629   2.377  1.00 20.00     0.005 C 
ENDBRANCH   3  10
TORSDOF 1
ENDMDL
MODEL 9
REMARK VINA RESULT:       1.6      1.291      3.014
REMARK  1 active torsions:
REMARK  status: ('A' for Active; 'I' for Inactive)
REMARK    1  A    between atoms: C3_3  and  C8_8 
ROOT
HETATM    1  C1  UNL     1     -32.293   6.067   1.724  1.00 20.00     0.218 C 
HETATM    2  C2  UNL     1     -31.445   7.309   1.610  1.00 20.00     0.109 C 
HETATM    3  C3  UNL     1     -32.389   8.439   2.060  1.00 20.00     0.021 C 
HETATM    4  C4  UNL     1     -33.339   7.730   3.058  1.00 20.00     0.029 C 
HETATM    5  C5  UNL     1     -34.750   8.315   3.136  1.00 20.00     0.038 C 
HETATM    6  C6  UNL     1     -32.723   7.717   4.468  1.00 20.00     0.038 C 
HETATM    7  N9  UNL     1     -33.374   6.374   2.541  1.00 20.00    -0.352 N 
HETATM    8  O10 UNL     1     -32.037   4.988   1.212  1.00 20.00    -0.274 OA
HETATM    9  H25 UNL     1     -34.115   5.714   2.756  1.00 20.00     0.163 HD
ENDROOT
BRANCH   3  10
HETATM   10  C8  UNL     1     -33.076   9.064   0.842  1.00 20.00     0.003 C 
HETATM   11  C7  UNL     1     -32.345  10.272   0.349  1.00 20.00     0.005 C 
ENDBRANCH   3  10
TORSDOF 1
ENDMDL
