MODEL 1
REMARK VINA RESULT:      -0.2      0.000      0.000
REMARK  1 active torsions:
REMARK  status: ('A' for Active; 'I' for Inactive)
REMARK    1  A    between atoms: C4_4  and  C8_8 
ROOT
HETATM    1  C1  UNL     1     -33.895   7.318   3.493  1.00 20.00     0.218 C 
HETATM    2  C2  UNL     1     -33.415   8.503   2.689  1.00 20.00     0.114 C 
HETATM    3  C3  UNL     1     -32.881   6.460   1.544  1.00 20.00     0.088 C 
HETATM    4  C4  UNL     1     -32.353   7.898   1.743  1.00 20.00    -0.016 C 
HETATM    5  C5  UNL     1     -31.853   5.402   1.173  1.00 20.00     0.033 C 
HETATM    6  C6  UNL     1     -30.968   7.957   2.414  1.00 20.00     0.018 C 
HETATM    7  N9  UNL     1     -33.530   6.169   2.800  1.00 20.00    -0.356 N 
HETATM    8  O10 UNL     1     -34.522   7.381   4.539  1.00 20.00    -0.274 OA
HETATM    9  H25 UNL     1     -33.702   5.229   3.140  1.00 20.00     0.162 HD
ENDROOT
BRANCH   4  10
HETATM   10  C8  UNL     1     -32.300   8.663   0.417  1.00 20.00     0.007 C 
HETATM   11  C7  UNL     1     -32.586  10.115   0.610  1.00 20.00     0.006 C 
ENDBRANCH   4  10
TORSDOF 1
ENDMDL
MODEL 2
REMARK VINA RESULT:      -0.1      1.229      3.046
REMARK  1 active torsions:
REMARK  status: ('A' for Active; 'I' for Inactive)
REMARK    1  A    between atoms: C4_4  and  C8_8 
ROOT
HETATM    1  C1  UNL     1     -34.309   6.530   3.548  1.00 20.00     0.218 C 
HETATM    2  C2  UNL     1     -33.627   5.341   2.914  1.00 20.00     0.114 C 
HETATM    3  C3  UNL     1     -32.446   7.359   2.363  1.00 20.00     0.088 C 
HETATM    4  C4  UNL     1     -32.777   5.966   1.784  1.00 20.00    -0.016 C 
HETATM    5  C5  UNL     1     -32.140   8.460   1.359  1.00 20.00     0.033 C 
HETATM    6  C6  UNL     1     -33.604   6.021   0.485  1.00 20.00     0.018 C 
HETATM    7  N9  UNL     1     -33.603   7.666   3.168  1.00 20.00    -0.356 N 
HETATM    8  O10 UNL     1     -35.279   6.476   4.288  1.00 20.00    -0.274 OA
HETATM    9  H25 UNL     1     -33.873   8.608   3.430  1.00 20.00     0.162 HD
ENDROOT
BRANCH   4  10
HETATM   10  C8  UNL     1     -31.507   5.147   1.535  1.00 20.00     0.007 C 
HETATM   11  C7  UNL     1     -31.609   4.346   0.280  1.00 20.00     0.006 C 
ENDBRANCH   4  10
TORSDOF 1
ENDMDL
MODEL 3
REMARK VINA RESULT:       0.9      2.319      3.427
REMARK  1 active torsions:
REMARK  status: ('A' for Active; 'I' for Inactive)
REMARK    1  A    between atoms: C4_4  and  C8_8 
ROOT
HETATM    1  C1  UNL     1     -33.955   4.175   4.157  1.00 20.00     0.218 C 
HETATM    2  C2  UNL     1     -32.848   5.056   3.628  1.00 20.00     0.114 C 
HETATM    3  C3  UNL     1     -34.883   6.317   3.820  1.00 20.00     0.088 C 
HETATM    4  C4  UNL     1     -33.601   6.231   2.964  1.00 20.00    -0.016 C 
HETATM    5  C5  UNL     1     -36.106   6.930   3.156  1.00 20.00     0.033 C 
HETATM    6  C6  UNL     1     -33.871   5.902   1.484  1.00 20.00     0.018 C 
HETATM    7  N9  UNL     1     -35.109   4.948   4.215  1.00 20.00    -0.356 N 
HETATM    8  O10 UNL     1     -33.827   3.011   4.503  1.00 20.00    -0.274 OA
HETATM    9  H25 UNL     1     -36.013   4.587   4.504  1.00 20.00     0.162 HD
ENDROOT
BRANCH   4  10
HETATM   10  C8  UNL     1     -32.783   7.524   3.048  1.00 20.00     0.007 C 
HETATM   11  C7  UNL     1     -32.036   7.783   1.782  1.00 20.00     0.006 C 
ENDBRANCH   4  10
TORSDOF 1
ENDMDL
MODEL 4
REMARK VINA RESULT:       1.2      2.395      3.706
REMARK  1 active torsions:
REMARK  status: ('A' for Active; 'I' for Inactive)
REMARK    1  A    between atoms: C4_4  and  C8_8 
ROOT
HETATM    1  C1  UNL     1     -33.002   5.742   1.817  1.00 20.00     0.218 C 
HETATM    2  C2  UNL     1     -33.272   7.093   2.436  1.00 20.00     0.114 C 
HETATM    3  C3  UNL     1     -33.821   5.351   3.994  1.00 20.00     0.088 C 
HETATM    4  C4  UNL     1     -34.247   6.779   3.593  1.00 20.00    -0.016 C 
HETATM    5  C5  UNL     1     -34.876   4.489   4.671  1.00 20.00     0.033 C 
HETATM    6  C6  UNL     1     -35.698   6.868   3.084  1.00 20.00     0.018 C 
HETATM    7  N9  UNL     1     -33.369   4.778   2.750  1.00 20.00    -0.356 N 
HETATM    8  O10 UNL     1     -32.515   5.554   0.714  1.00 20.00    -0.274 OA
HETATM    9  H25 UNL     1     -33.322   3.779   2.574  1.00 20.00     0.162 HD
ENDROOT
BRANCH   4  10
HETATM   10  C8  UNL     1     -34.062   7.766   4.750  1.00 20.00     0.007 C 
HETATM   11  C7  UNL     1     -32.706   8.389   4.727  1.00 20.00     0.006 C 
ENDBRANCH   4  10
TORSDOF 1
ENDMDL
MODEL 5
REMARK VINA RESULT:       1.4      2.256      4.015
REMARK  1 active torsions:
REMARK  status: ('A' for Active; 'I' for Inactive)
REMARK    1  A    between atoms: C4_4  and  C8_8 
ROOT
HETATM    1  C1  UNL     1     -32.235   7.660   1.778  1.00 20.00     0.218 C 
HETATM    2  C2  UNL     1     -33.429   6.736   1.751  1.00 20.00     0.114 C 
HETATM    3  C3  UNL     1     -33.390   7.971   3.810  1.00 20.00     0.088 C 
HETATM    4  C4  UNL     1     -33.824   6.604   3.239  1.00 20.00    -0.016 C 
HETATM    5  C5  UNL     1     -33.075   8.020   5.297  1.00 20.00     0.033 C 
HETATM    6  C6  UNL     1     -33.079   5.411   3.867  1.00 20.00     0.018 C 
HETATM    7  N9  UNL     1     -32.248   8.320   3.002  1.00 20.00    -0.356 N 
HETATM    8  O10 UNL     1     -31.439   7.813   0.865  1.00 20.00    -0.274 OA
HETATM    9  H25 UNL     1     -31.531   8.977   3.293  1.00 20.00     0.162 HD
ENDROOT
BRANCH   4  10
HETATM   10  C8  UNL     1     -35.333   6.386   3.389  1.00 20.00     0.007 C 
HETATM   11  C7  UNL     1     -35.639   5.377   4.444  1.00 20.00     0.006 C 
ENDBRANCH   4  10
TORSDOF 1
ENDMDL
MODEL 6
REMARK VINA RESULT:       1.4      2.063      3.369
REMARK  1 active torsions:
REMARK  status: ('A' for Active; 'I' for Inactive)
REMARK    1  A    between atoms: C4_4  and  C8_8 
ROOT
HETATM    1  C1  UNL     1     -32.220   8.351   1.450  1.00 20.00     0.218 C 
HETATM    2  C2  UNL     1     -33.385   7.852   2.273  1.00 20.00     0.114 C 
HETATM    3  C3  UNL     1     -31.837   6.061   1.867  1.00 20.00     0.088 C 
HETATM    4  C4  UNL     1     -33.345   6.320   2.074  1.00 20.00    -0.016 C 
HETATM    5  C5  UNL     1     -31.461   4.814   1.082  1.00 20.00     0.033 C 
HETATM    6  C6  UNL     1     -34.208   5.935   0.858  1.00 20.00     0.018 C 
HETATM    7  N9  UNL     1     -31.380   7.267   1.221  1.00 20.00    -0.356 N 
HETATM    8  O10 UNL     1     -32.049   9.507   1.096  1.00 20.00    -0.274 OA
HETATM    9  H25 UNL     1     -30.536   7.320   0.659  1.00 20.00     0.162 HD
ENDROOT
BRANCH   4  10
HETATM   10  C8  UNL     1     -33.875   5.592   3.314  1.00 20.00     0.007 C 
HETATM   11  C7  UNL     1     -35.007   6.333   3.943  1.00 20.00     0.006 C 
ENDBRANCH   4  10
TORSDOF 1
ENDMDL
MODEL 7
REMARK VINA RESULT:       1.6      2.079      3.740
REMARK  1 active torsions:
REMARK  status: ('A' for Active; 'I' for Inactive)
REMARK    1  A    between atoms: C4_4  and  C8_8 
ROOT
HETATM    1  C1  UNL     1     -32.452   7.848   3.038  1.00 20.00     0.218 C 
HETATM    2  C2  UNL     1     -33.372   7.274   4.090  1.00 20.00     0.114 C 
HETATM    3  C3  UNL     1     -33.237   5.782   2.213  1.00 20.00     0.088 C 
HETATM    4  C4  UNL     1     -34.219   6.241   3.313  1.00 20.00    -0.016 C 
HETATM    5  C5  UNL     1     -33.852   5.232   0.935  1.00 20.00     0.033 C 
HETATM    6  C6  UNL     1     -35.486   6.921   2.761  1.00 20.00     0.018 C 
HETATM    7  N9  UNL     1     -32.441   6.960   1.968  1.00 20.00    -0.356 N 
HETATM    8  O10 UNL     1     -31.815   8.884   3.145  1.00 20.00    -0.274 OA
HETATM    9  H25 UNL     1     -31.927   7.123   1.108  1.00 20.00     0.162 HD
ENDROOT
BRANCH   4  10
HETATM   10  C8  UNL     1     -34.631   5.076   4.219  1.00 20.00     0.007 C 
HETATM   11  C7  UNL     1     -33.693   3.923   4.089  1.00 20.00     0.006 C 
ENDBRANCH   4  10
TORSDOF 1
ENDMDL
MODEL 8
REMARK VINA RESULT:       1.6      2.236      3.499
REMARK  1 active torsions:
REMARK  status: ('A' for Active; 'I' for Inactive)
REMARK    1  A    between atoms: C4_4  and  C8_8 
ROOT
HETATM    1  C1  UNL     1     -33.915   4.363   3.984  1.00 20.00     0.218 C 
HETATM    2  C2  UNL     1     -34.970   5.396   4.298  1.00 20.00     0.114 C 
HETATM    3  C3  UNL     1     -33.618   6.134   2.455  1.00 20.00     0.088 C 
HETATM    4  C4  UNL     1     -34.422   6.689   3.651  1.00 20.00    -0.016 C 
HETATM    5  C5  UNL     1     -32.484   7.003   1.934  1.00 20.00     0.033 C 
HETATM    6  C6  UNL     1     -33.557   7.451   4.673  1.00 20.00     0.018 C 
HETATM    7  N9  UNL     1     -33.146   4.858   2.936  1.00 20.00    -0.356 N 
HETATM    8  O10 UNL     1     -33.800   3.280   4.536  1.00 20.00    -0.274 OA
HETATM    9  H25 UNL     1     -32.342   4.374   2.552  1.00 20.00     0.162 HD
ENDROOT
BRANCH   4  10
HETATM   10  C8  UNL     1     -35.564   7.597   3.186  1.00 20.00     0.007 C 
HETATM   11  C7  UNL     1     -36.789   6.812   2.858  1.00 20.00     0.006 C 
ENDBRANCH   4  10
TORSDOF 1
ENDMDL
MODEL 9
REMARK VINA RESULT:       1.7      2.132      3.550
REMARK  1 active torsions:
REMARK  status: ('A' for Active; 'I' for Inactive)
REMARK    1  A    between atoms: C4_4  and  C8_8 
ROOT
HETATM    1  C1  UNL     1     -32.028   5.845   1.621  1.00 20.00     0.218 C 
HETATM    2  C2  UNL     1     -33.090   5.841   2.695  1.00 20.00     0.114 C 
HETATM    3  C3  UNL     1     -33.043   7.974   1.592  1.00 20.00     0.088 C 
HETATM    4  C4  UNL     1     -33.340   7.341   2.969  1.00 20.00    -0.016 C 
HETATM    5  C5  UNL     1     -32.615   9.433   1.591  1.00 20.00     0.033 C 
HETATM    6  C6  UNL     1     -32.397   7.827   4.085  1.00 20.00     0.018 C 
HETATM    7  N9  UNL     1     -32.026   7.110   1.044  1.00 20.00    -0.356 N 
HETATM    8  O10 UNL     1     -31.337   4.889   1.307  1.00 20.00    -0.274 OA
HETATM    9  H25 UNL     1     -31.379   7.394   0.315  1.00 20.00     0.162 HD
ENDROOT
BRANCH   4  10
HETATM   10  C8  UNL     1     -34.790   7.586   3.398  1.00 20.00     0.007 C 
HETATM   11  C7  UNL     1     -35.404   6.359   3.983  1.00 20.00     0.006 C 
ENDBRANCH   4  10
TORSDOF 1
ENDMDL
