MODEL 1
REMARK VINA RESULT:      -1.2      0.000      0.000
REMARK  1 active torsions:
REMARK  status: ('A' for Active; 'I' for Inactive)
REMARK    1  A    between atoms: C3_3  and  C6_6 
ROOT
HETATM    1  C1  UNL     1     -33.194   7.573   3.198  1.00 20.00     0.131 A 
HETATM    2  C2  UNL     1     -31.833   7.399   1.486  1.00 20.00     0.166 A 
HETATM    3  C3  UNL     1     -33.497   6.281   2.822  1.00 20.00     0.005 A 
HETATM    4  N7  UNL     1     -32.240   8.216   2.434  1.00 20.00    -0.265 NA
HETATM    5  S8  UNL     1     -32.557   5.843   1.456  1.00 20.00    -0.085 SA
ENDROOT
BRANCH   3   6
HETATM    6  C6  UNL     1     -34.482   5.298   3.429  1.00 20.00     0.019 C 
HETATM    7  C4  UNL     1     -35.443   5.991   4.397  1.00 20.00     0.015 C 
HETATM    8  C5  UNL     1     -33.764   4.133   4.113  1.00 20.00     0.015 C 
ENDBRANCH   3   6
TORSDOF 1
ENDMDL
MODEL 2
REMARK VINA RESULT:      -1.1      1.318      1.451
REMARK  1 active torsions:
REMARK  status: ('A' for Active; 'I' for Inactive)
REMARK    1  A    between atoms: C3_3  and  C6_6 
ROOT
HETATM    1  C1  UNL     1     -32.696   5.907   1.716  1.00 20.00     0.131 A 
HETATM    2  C2  UNL     1     -32.141   7.973   2.200  1.00 20.00     0.166 A 
HETATM    3  C3  UNL     1     -33.509   6.088   2.815  1.00 20.00     0.005 A 
HETATM    4  N7  UNL     1     -31.911   6.987   1.361  1.00 20.00    -0.265 NA
HETATM    5  S8  UNL     1     -33.288   7.670   3.440  1.00 20.00    -0.085 SA
ENDROOT
BRANCH   3   6
HETATM    6  C6  UNL     1     -34.484   5.128   3.471  1.00 20.00     0.019 C 
HETATM    7  C4  UNL     1     -35.436   5.856   4.422  1.00 20.00     0.015 C 
HETATM    8  C5  UNL     1     -33.756   3.992   4.193  1.00 20.00     0.015 C 
ENDBRANCH   3   6
TORSDOF 1
ENDMDL
MODEL 3
REMARK VINA RESULT:      -1.1      1.715      2.146
REMARK  1 active torsions:
REMARK  status: ('A' for Active; 'I' for Inactive)
REMARK    1  A    between atoms: C3_3  and  C6_6 
ROOT
HETATM    1  C1  UNL     1     -33.169   5.680   2.126  1.00 20.00     0.131 A 
HETATM    2  C2  UNL     1     -31.592   6.819   1.114  1.00 20.00     0.166 A 
HETATM    3  C3  UNL     1     -33.385   6.905   2.721  1.00 20.00     0.005 A 
HETATM    4  N7  UNL     1     -32.142   5.628   1.204  1.00 20.00    -0.265 NA
HETATM    5  S8  UNL     1     -32.260   8.047   2.110  1.00 20.00    -0.085 SA
ENDROOT
BRANCH   3   6
HETATM    6  C6  UNL     1     -34.413   7.313   3.760  1.00 20.00     0.019 C 
HETATM    7  C4  UNL     1     -33.754   7.972   4.974  1.00 20.00     0.015 C 
HETATM    8  C5  UNL     1     -35.282   6.128   4.187  1.00 20.00     0.015 C 
ENDBRANCH   3   6
TORSDOF 1
ENDMDL
MODEL 4
REMARK VINA RESULT:      -1.0      1.310      1.787
REMARK  1 active torsions:
REMARK  status: ('A' for Active; 'I' for Inactive)
REMARK    1  A    between atoms: C3_3  and  C6_6 
ROOT
HETATM    1  C1  UNL     1     -32.309   8.068   2.328  1.00 20.00     0.131 A 
HETATM    2  C2  UNL     1     -31.834   6.306   1.112  1.00 20.00     0.166 A 
HETATM    3  C3  UNL     1     -33.292   7.222   2.797  1.00 20.00     0.005 A 
HETATM    4  N7  UNL     1     -31.472   7.545   1.362  1.00 20.00    -0.265 NA
HETATM    5  S8  UNL     1     -33.173   5.706   2.002  1.00 20.00    -0.085 SA
ENDROOT
BRANCH   3   6
HETATM    6  C6  UNL     1     -34.366   7.464   3.841  1.00 20.00     0.019 C 
HETATM    7  C4  UNL     1     -33.773   8.008   5.142  1.00 20.00     0.015 C 
HETATM    8  C5  UNL     1     -35.192   6.203   4.102  1.00 20.00     0.015 C 
ENDBRANCH   3   6
TORSDOF 1
ENDMDL
MODEL 5
REMARK VINA RESULT:      -0.9      0.512      1.355
REMARK  1 active torsions:
REMARK  status: ('A' for Active; 'I' for Inactive)
REMARK    1  A    between atoms: C3_3  and  C6_6 
ROOT
HETATM    1  C1  UNL     1     -32.892   7.871   3.059  1.00 20.00     0.131 A 
HETATM    2  C2  UNL     1     -31.908   7.202   1.217  1.00 20.00     0.166 A 
HETATM    3  C3  UNL     1     -33.343   6.568   3.044  1.00 20.00     0.005 A 
HETATM    4  N7  UNL     1     -32.068   8.236   2.012  1.00 20.00    -0.265 NA
HETATM    5  S8  UNL     1     -32.719   5.758   1.667  1.00 20.00    -0.085 SA
ENDROOT
BRANCH   3   6
HETATM    6  C6  UNL     1     -34.249   5.842   4.022  1.00 20.00     0.019 C 
HETATM    7  C4  UNL     1     -34.114   4.324   3.893  1.00 20.00     0.015 C 
HETATM    8  C5  UNL     1     -35.708   6.276   3.866  1.00 20.00     0.015 C 
ENDBRANCH   3   6
TORSDOF 1
ENDMDL
MODEL 6
REMARK VINA RESULT:      -0.9      2.334      3.881
REMARK  1 active torsions:
REMARK  status: ('A' for Active; 'I' for Inactive)
REMARK    1  A    between atoms: C3_3  and  C6_6 
ROOT
HETATM    1  C1  UNL     1     -33.697   4.570   3.388  1.00 20.00     0.131 A 
HETATM    2  C2  UNL     1     -35.293   5.404   4.640  1.00 20.00     0.166 A 
HETATM    3  C3  UNL     1     -33.732   5.843   2.859  1.00 20.00     0.005 A 
HETATM    4  N7  UNL     1     -34.591   4.316   4.409  1.00 20.00    -0.265 NA
HETATM    5  S8  UNL     1     -34.931   6.769   3.665  1.00 20.00    -0.085 SA
ENDROOT
BRANCH   3   6
HETATM    6  C6  UNL     1     -32.903   6.456   1.745  1.00 20.00     0.019 C 
HETATM    7  C4  UNL     1     -31.879   5.461   1.194  1.00 20.00     0.015 C 
HETATM    8  C5  UNL     1     -32.221   7.748   2.197  1.00 20.00     0.015 C 
ENDBRANCH   3   6
TORSDOF 1
ENDMDL
MODEL 7
REMARK VINA RESULT:      -0.7      2.261      3.667
REMARK  1 active torsions:
REMARK  status: ('A' for Active; 'I' for Inactive)
REMARK    1  A    between atoms: C3_3  and  C6_6 
ROOT
HETATM    1  C1  UNL     1     -33.946   4.721   3.471  1.00 20.00     0.131 A 
HETATM    2  C2  UNL     1     -35.361   6.076   4.456  1.00 20.00     0.166 A 
HETATM    3  C3  UNL     1     -33.468   5.916   2.975  1.00 20.00     0.005 A 
HETATM    4  N7  UNL     1     -35.031   4.811   4.320  1.00 20.00    -0.265 NA
HETATM    5  S8  UNL     1     -34.410   7.212   3.589  1.00 20.00    -0.085 SA
ENDROOT
BRANCH   3   6
HETATM    6  C6  UNL     1     -32.310   6.183   2.032  1.00 20.00     0.019 C 
HETATM    7  C4  UNL     1     -32.169   7.674   1.722  1.00 20.00     0.015 C 
HETATM    8  C5  UNL     1     -32.434   5.367   0.743  1.00 20.00     0.015 C 
ENDBRANCH   3   6
TORSDOF 1
ENDMDL
MODEL 8
REMARK VINA RESULT:      -0.7      2.070      3.597
REMARK  1 active torsions:
REMARK  status: ('A' for Active; 'I' for Inactive)
REMARK    1  A    between atoms: C3_3  and  C6_6 
ROOT
HETATM    1  C1  UNL     1     -34.641   6.903   3.486  1.00 20.00     0.131 A 
HETATM    2  C2  UNL     1     -34.970   4.987   4.501  1.00 20.00     0.166 A 
HETATM    3  C3  UNL     1     -33.720   6.143   2.797  1.00 20.00     0.005 A 
HETATM    4  N7  UNL     1     -35.359   6.242   4.464  1.00 20.00    -0.265 NA
HETATM    5  S8  UNL     1     -33.744   4.533   3.390  1.00 20.00    -0.085 SA
ENDROOT
BRANCH   3   6
HETATM    6  C6  UNL     1     -32.775   6.539   1.677  1.00 20.00     0.019 C 
HETATM    7  C4  UNL     1     -31.834   5.393   1.302  1.00 20.00     0.015 C 
HETATM    8  C5  UNL     1     -31.985   7.801   2.029  1.00 20.00     0.015 C 
ENDBRANCH   3   6
TORSDOF 1
ENDMDL
MODEL 9
REMARK VINA RESULT:      -0.7      2.072      3.449
REMARK  1 active torsions:
REMARK  status: ('A' for Active; 'I' for Inactive)
REMARK    1  A    between atoms: C3_3  and  C6_6 
ROOT
HETATM    1  C1  UNL     1     -34.444   6.938   3.444  1.00 20.00     0.131 A 
HETATM    2  C2  UNL     1     -35.193   5.132   4.438  1.00 20.00     0.166 A 
HETATM    3  C3  UNL     1     -33.503   6.042   2.981  1.00 20.00     0.005 A 
HETATM    4  N7  UNL     1     -35.414   6.418   4.279  1.00 20.00    -0.265 NA
HETATM    5  S8  UNL     1     -33.836   4.482   3.612  1.00 20.00    -0.085 SA
ENDROOT
BRANCH   3   6
HETATM    6  C6  UNL     1     -32.317   6.266   2.061  1.00 20.00     0.019 C 
HETATM    7  C4  UNL     1     -32.154   7.746   1.705  1.00 20.00     0.015 C 
HETATM    8  C5  UNL     1     -32.415   5.408   0.799  1.00 20.00     0.015 C 
ENDBRANCH   3   6
TORSDOF 1
ENDMDL
