MODEL 1
REMARK VINA RESULT:       0.8      0.000      0.000
REMARK  0 active torsions:
REMARK  status: ('A' for Active; 'I' for Inactive)
ROOT
HETATM    1  C1  UNL     1     -33.406   8.319   3.588  1.00 20.00     0.010 A 
HETATM    2  C2  UNL     1     -34.258   7.449   4.273  1.00 20.00     0.019 A 
HETATM    3  C3  UNL     1     -33.722   5.638   2.739  1.00 20.00     0.026 A 
HETATM    4  C4  UNL     1     -32.717   7.832   2.488  1.00 20.00    -0.033 A 
HETATM    5  C5  UNL     1     -32.870   6.503   2.072  1.00 20.00    -0.049 A 
HETATM    6  C6  UNL     1     -34.416   6.120   3.851  1.00 20.00     0.011 A 
HETATM    7  C7  UNL     1     -32.053   6.228   0.849  1.00 20.00     0.041 C 
HETATM    8  C8  UNL     1     -31.056   7.399   0.893  1.00 20.00     0.030 C 
HETATM    9  C9  UNL     1     -31.777   8.569   1.584  1.00 20.00     0.116 C 
HETATM   10 CL10 UNL     1     -32.689   9.549   0.417  1.00 20.00    -0.120 Cl
HETATM   11 BR11 UNL     1     -35.585   4.971   4.795  1.00 20.00    -0.051 Br
ENDROOT
TORSDOF 0
ENDMDL
MODEL 2
REMARK VINA RESULT:       1.0      2.630      3.883
REMARK  0 active torsions:
REMARK  status: ('A' for Active; 'I' for Inactive)
ROOT
HETATM    1  C1  UNL     1     -32.429   7.628   2.057  1.00 20.00     0.010 A 
HETATM    2  C2  UNL     1     -31.768   6.736   1.209  1.00 20.00     0.019 A 
HETATM    3  C3  UNL     1     -33.010   4.860   2.135  1.00 20.00     0.026 A 
HETATM    4  C4  UNL     1     -33.379   7.122   2.930  1.00 20.00    -0.033 A 
HETATM    5  C5  UNL     1     -33.670   5.752   2.964  1.00 20.00    -0.049 A 
HETATM    6  C6  UNL     1     -32.055   5.363   1.249  1.00 20.00     0.011 A 
HETATM    7  C7  UNL     1     -34.699   5.449   4.007  1.00 20.00     0.041 C 
HETATM    8  C8  UNL     1     -35.307   6.845   4.232  1.00 20.00     0.030 C 
HETATM    9  C9  UNL     1     -34.192   7.866   3.945  1.00 20.00     0.116 C 
HETATM   10 CL10 UNL     1     -33.219   8.188   5.395  1.00 20.00    -0.120 Cl
HETATM   11 BR11 UNL     1     -31.135   4.181   0.094  1.00 20.00    -0.051 Br
ENDROOT
TORSDOF 0
ENDMDL
MODEL 3
REMARK VINA RESULT:       2.8      3.005      4.471
REMARK  0 active torsions:
REMARK  status: ('A' for Active; 'I' for Inactive)
ROOT
HETATM    1  C1  UNL     1     -33.108   5.816   1.801  1.00 20.00     0.010 A 
HETATM    2  C2  UNL     1     -32.266   6.463   0.894  1.00 20.00     0.019 A 
HETATM    3  C3  UNL     1     -32.348   8.511   2.206  1.00 20.00     0.026 A 
HETATM    4  C4  UNL     1     -33.555   6.526   2.904  1.00 20.00    -0.033 A 
HETATM    5  C5  UNL     1     -33.174   7.859   3.107  1.00 20.00    -0.049 A 
HETATM    6  C6  UNL     1     -31.890   7.801   1.095  1.00 20.00     0.011 A 
HETATM    7  C7  UNL     1     -33.810   8.416   4.342  1.00 20.00     0.041 C 
HETATM    8  C8  UNL     1     -34.208   7.122   5.074  1.00 20.00     0.030 C 
HETATM    9  C9  UNL     1     -34.478   6.064   3.990  1.00 20.00     0.116 C 
HETATM   10 CL10 UNL     1     -36.162   6.122   3.431  1.00 20.00    -0.120 Cl
HETATM   11 BR11 UNL     1     -30.756   8.651  -0.158  1.00 20.00    -0.051 Br
ENDROOT
TORSDOF 0
ENDMDL
