MODEL 1
REMARK VINA RESULT:      -1.4      0.000      0.000
REMARK  4 active torsions:
REMARK  status: ('A' for Active; 'I' for Inactive)
REMARK    1  A    between atoms: C5_5  and  C6_6 
REMARK    2  A    between atoms: C6_6  and  S10_10 
REMARK    3  A    between atoms: C7_7  and  C8_8 
REMARK    4  A    between atoms: C7_7  and  S10_10 
ROOT
HETATM    1  C1  UNL     1     -33.543   4.641   3.633  1.00 20.00     0.074 C 
HETATM    2  C7  UNL     1     -33.180   6.038   3.340  1.00 20.00     0.157 C 
HETATM    3  N9  UNL     1     -33.827   3.541   3.868  1.00 20.00    -0.196 NA
ENDROOT
BRANCH   2   4
HETATM    4  C8  UNL     1     -34.313   7.042   3.668  1.00 20.00     0.005 C 
HETATM    5  C3  UNL     1     -33.893   7.994   4.797  1.00 20.00     0.011 C 
HETATM    6  C4  UNL     1     -35.660   6.397   4.020  1.00 20.00     0.011 C 
ENDBRANCH   2   4
BRANCH   2   7
HETATM    7  S10 UNL     1     -32.608   6.200   1.606  1.00 20.00    -0.149 SA
BRANCH   7   8
HETATM    8  C6  UNL     1     -31.982   7.890   1.710  1.00 20.00     0.075 C 
BRANCH   8   9
HETATM    9  C5  UNL     1     -31.979   8.545   0.334  1.00 20.00     0.006 C 
HETATM   10  C2  UNL     1     -32.491   9.977   0.408  1.00 20.00     0.006 C 
ENDBRANCH   8   9
ENDBRANCH   7   8
ENDBRANCH   2   7
TORSDOF 4
ENDMDL
MODEL 2
REMARK VINA RESULT:      -0.9      2.372      4.811
REMARK  4 active torsions:
REMARK  status: ('A' for Active; 'I' for Inactive)
REMARK    1  A    between atoms: C5_5  and  C6_6 
REMARK    2  A    between atoms: C6_6  and  S10_10 
REMARK    3  A    between atoms: C7_7  and  C8_8 
REMARK    4  A    between atoms: C7_7  and  S10_10 
ROOT
HETATM    1  C1  UNL     1     -33.105   7.762   4.409  1.00 20.00     0.074 C 
HETATM    2  C7  UNL     1     -33.452   6.671   3.483  1.00 20.00     0.157 C 
HETATM    3  N9  UNL     1     -32.827   8.620   5.140  1.00 20.00    -0.196 NA
ENDROOT
BRANCH   2   4
HETATM    4  C8  UNL     1     -33.106   6.993   2.008  1.00 20.00     0.005 C 
HETATM    5  C3  UNL     1     -32.699   5.722   1.249  1.00 20.00     0.011 C 
HETATM    6  C4  UNL     1     -32.024   8.066   1.821  1.00 20.00     0.011 C 
ENDBRANCH   2   4
BRANCH   2   7
HETATM    7  S10 UNL     1     -35.211   6.198   3.682  1.00 20.00    -0.149 SA
BRANCH   7   8
HETATM    8  C6  UNL     1     -34.951   4.663   4.594  1.00 20.00     0.075 C 
BRANCH   8   9
HETATM    9  C5  UNL     1     -33.838   3.842   3.953  1.00 20.00     0.006 C 
HETATM   10  C2  UNL     1     -33.139   2.968   4.984  1.00 20.00     0.006 C 
ENDBRANCH   8   9
ENDBRANCH   7   8
ENDBRANCH   2   7
TORSDOF 4
ENDMDL
MODEL 3
REMARK VINA RESULT:      -0.9      1.703      1.789
REMARK  4 active torsions:
REMARK  status: ('A' for Active; 'I' for Inactive)
REMARK    1  A    between atoms: C5_5  and  C6_6 
REMARK    2  A    between atoms: C6_6  and  S10_10 
REMARK    3  A    between atoms: C7_7  and  C8_8 
REMARK    4  A    between atoms: C7_7  and  S10_10 
ROOT
HETATM    1  C1  UNL     1     -32.940   6.171   1.766  1.00 20.00     0.074 C 
HETATM    2  C7  UNL     1     -32.759   7.096   2.898  1.00 20.00     0.157 C 
HETATM    3  N9  UNL     1     -33.082   5.439   0.877  1.00 20.00    -0.196 NA
ENDROOT
BRANCH   2   4
HETATM    4  C8  UNL     1     -34.082   7.418   3.637  1.00 20.00     0.005 C 
HETATM    5  C3  UNL     1     -33.806   8.107   4.981  1.00 20.00     0.011 C 
HETATM    6  C4  UNL     1     -35.001   6.211   3.863  1.00 20.00     0.011 C 
ENDBRANCH   2   4
BRANCH   2   7
HETATM    7  S10 UNL     1     -31.897   8.618   2.349  1.00 20.00    -0.149 SA
BRANCH   7   8
HETATM    8  C6  UNL     1     -31.945   8.300   0.573  1.00 20.00     0.075 C 
BRANCH   8   9
HETATM    9  C5  UNL     1     -32.353   9.558  -0.185  1.00 20.00     0.006 C 
HETATM   10  C2  UNL     1     -32.773  10.663   0.774  1.00 20.00     0.006 C 
ENDBRANCH   8   9
ENDBRANCH   7   8
ENDBRANCH   2   7
TORSDOF 4
ENDMDL
MODEL 4
REMARK VINA RESULT:      -0.9      1.659      2.028
REMARK  4 active torsions:
REMARK  status: ('A' for Active; 'I' for Inactive)
REMARK    1  A    between atoms: C5_5  and  C6_6 
REMARK    2  A    between atoms: C6_6  and  S10_10 
REMARK    3  A    between atoms: C7_7  and  C8_8 
REMARK    4  A    between atoms: C7_7  and  S10_10 
ROOT
HETATM    1  C1  UNL     1     -32.637   5.466   1.520  1.00 20.00     0.074 C 
HETATM    2  C7  UNL     1     -33.087   6.094   2.774  1.00 20.00     0.157 C 
HETATM    3  N9  UNL     1     -32.278   4.968   0.535  1.00 20.00    -0.196 NA
ENDROOT
BRANCH   2   4
HETATM    4  C8  UNL     1     -34.352   5.424   3.368  1.00 20.00     0.005 C 
HETATM    5  C3  UNL     1     -35.182   6.435   4.171  1.00 20.00     0.011 C 
HETATM    6  C4  UNL     1     -34.076   4.189   4.236  1.00 20.00     0.011 C 
ENDBRANCH   2   4
BRANCH   2   7
HETATM    7  S10 UNL     1     -33.319   7.896   2.539  1.00 20.00    -0.149 SA
BRANCH   7   8
HETATM    8  C6  UNL     1     -31.753   8.239   1.708  1.00 20.00     0.075 C 
BRANCH   8   9
HETATM    9  C5  UNL     1     -31.999   8.894   0.354  1.00 20.00     0.006 C 
HETATM   10  C2  UNL     1     -32.606  10.280   0.519  1.00 20.00     0.006 C 
ENDBRANCH   8   9
ENDBRANCH   7   8
ENDBRANCH   2   7
TORSDOF 4
ENDMDL
MODEL 5
REMARK VINA RESULT:      -0.9      1.704      2.326
REMARK  4 active torsions:
REMARK  status: ('A' for Active; 'I' for Inactive)
REMARK    1  A    between atoms: C5_5  and  C6_6 
REMARK    2  A    between atoms: C6_6  and  S10_10 
REMARK    3  A    between atoms: C7_7  and  C8_8 
REMARK    4  A    between atoms: C7_7  and  S10_10 
ROOT
HETATM    1  C1  UNL     1     -33.417   7.653   4.095  1.00 20.00     0.074 C 
HETATM    2  C7  UNL     1     -33.857   6.845   2.945  1.00 20.00     0.157 C 
HETATM    3  N9  UNL     1     -33.074   8.292   5.001  1.00 20.00    -0.196 NA
ENDROOT
BRANCH   2   4
HETATM    4  C8  UNL     1     -34.548   5.522   3.361  1.00 20.00     0.005 C 
HETATM    5  C3  UNL     1     -35.576   5.767   4.474  1.00 20.00     0.011 C 
HETATM    6  C4  UNL     1     -33.589   4.404   3.791  1.00 20.00     0.011 C 
ENDBRANCH   2   4
BRANCH   2   7
HETATM    7  S10 UNL     1     -32.458   6.551   1.797  1.00 20.00    -0.149 SA
BRANCH   7   8
HETATM    8  C6  UNL     1     -31.845   8.246   1.719  1.00 20.00     0.075 C 
BRANCH   8   9
HETATM    9  C5  UNL     1     -31.956   8.790   0.299  1.00 20.00     0.006 C 
HETATM   10  C2  UNL     1     -32.599  10.169   0.289  1.00 20.00     0.006 C 
ENDBRANCH   8   9
ENDBRANCH   7   8
ENDBRANCH   2   7
TORSDOF 4
ENDMDL
MODEL 6
REMARK VINA RESULT:      -0.7      1.741      4.306
REMARK  4 active torsions:
REMARK  status: ('A' for Active; 'I' for Inactive)
REMARK    1  A    between atoms: C5_5  and  C6_6 
REMARK    2  A    between atoms: C6_6  and  S10_10 
REMARK    3  A    between atoms: C7_7  and  C8_8 
REMARK    4  A    between atoms: C7_7  and  S10_10 
ROOT
HETATM    1  C1  UNL     1     -32.665   5.841   1.466  1.00 20.00     0.074 C 
HETATM    2  C7  UNL     1     -33.025   7.199   1.908  1.00 20.00     0.157 C 
HETATM    3  N9  UNL     1     -32.383   4.772   1.114  1.00 20.00    -0.196 NA
ENDROOT
BRANCH   2   4
HETATM    4  C8  UNL     1     -31.935   8.252   1.588  1.00 20.00     0.005 C 
HETATM    5  C3  UNL     1     -31.329   8.824   2.877  1.00 20.00     0.011 C 
HETATM    6  C4  UNL     1     -32.399   9.405   0.688  1.00 20.00     0.011 C 
ENDBRANCH   2   4
BRANCH   2   7
HETATM    7  S10 UNL     1     -33.467   7.196   3.687  1.00 20.00    -0.149 SA
BRANCH   7   8
HETATM    8  C6  UNL     1     -35.073   6.385   3.540  1.00 20.00     0.075 C 
BRANCH   8   9
HETATM    9  C5  UNL     1     -35.169   5.211   4.507  1.00 20.00     0.006 C 
HETATM   10  C2  UNL     1     -34.102   4.168   4.209  1.00 20.00     0.006 C 
ENDBRANCH   8   9
ENDBRANCH   7   8
ENDBRANCH   2   7
TORSDOF 4
ENDMDL
MODEL 7
REMARK VINA RESULT:      -0.4      2.037      4.512
REMARK  4 active torsions:
REMARK  status: ('A' for Active; 'I' for Inactive)
REMARK    1  A    between atoms: C5_5  and  C6_6 
REMARK    2  A    between atoms: C6_6  and  S10_10 
REMARK    3  A    between atoms: C7_7  and  C8_8 
REMARK    4  A    between atoms: C7_7  and  S10_10 
ROOT
HETATM    1  C1  UNL     1     -32.390   5.654   1.226  1.00 20.00     0.074 C 
HETATM    2  C7  UNL     1     -32.997   6.887   1.756  1.00 20.00     0.157 C 
HETATM    3  N9  UNL     1     -31.913   4.684   0.805  1.00 20.00    -0.196 NA
ENDROOT
BRANCH   2   4
HETATM    4  C8  UNL     1     -31.995   8.065   1.850  1.00 20.00     0.005 C 
HETATM    5  C3  UNL     1     -31.946   8.630   3.276  1.00 20.00     0.011 C 
HETATM    6  C4  UNL     1     -32.253   9.208   0.859  1.00 20.00     0.011 C 
ENDBRANCH   2   4
BRANCH   2   7
HETATM    7  S10 UNL     1     -33.814   6.558   3.363  1.00 20.00    -0.149 SA
BRANCH   7   8
HETATM    8  C6  UNL     1     -33.919   4.762   3.222  1.00 20.00     0.075 C 
BRANCH   8   9
HETATM    9  C5  UNL     1     -34.106   4.128   4.596  1.00 20.00     0.006 C 
HETATM   10  C2  UNL     1     -33.207   2.911   4.765  1.00 20.00     0.006 C 
ENDBRANCH   8   9
ENDBRANCH   7   8
ENDBRANCH   2   7
TORSDOF 4
ENDMDL
MODEL 8
REMARK VINA RESULT:      -0.4      1.832      4.474
REMARK  4 active torsions:
REMARK  status: ('A' for Active; 'I' for Inactive)
REMARK    1  A    between atoms: C5_5  and  C6_6 
REMARK    2  A    between atoms: C6_6  and  S10_10 
REMARK    3  A    between atoms: C7_7  and  C8_8 
REMARK    4  A    between atoms: C7_7  and  S10_10 
ROOT
HETATM    1  C1  UNL     1     -32.755   6.177   1.661  1.00 20.00     0.074 C 
HETATM    2  C7  UNL     1     -33.290   7.439   2.198  1.00 20.00     0.157 C 
HETATM    3  N9  UNL     1     -32.336   5.182   1.234  1.00 20.00    -0.196 NA
ENDROOT
BRANCH   2   4
HETATM    4  C8  UNL     1     -32.336   8.641   1.988  1.00 20.00     0.005 C 
HETATM    5  C3  UNL     1     -32.430   9.172   0.551  1.00 20.00     0.011 C 
HETATM    6  C4  UNL     1     -30.866   8.362   2.332  1.00 20.00     0.011 C 
ENDBRANCH   2   4
BRANCH   2   7
HETATM    7  S10 UNL     1     -33.756   7.239   3.960  1.00 20.00    -0.149 SA
BRANCH   7   8
HETATM    8  C6  UNL     1     -35.261   6.276   3.708  1.00 20.00     0.075 C 
BRANCH   8   9
HETATM    9  C5  UNL     1     -35.248   5.025   4.579  1.00 20.00     0.006 C 
HETATM   10  C2  UNL     1     -34.060   4.135   4.240  1.00 20.00     0.006 C 
ENDBRANCH   8   9
ENDBRANCH   7   8
ENDBRANCH   2   7
TORSDOF 4
ENDMDL
MODEL 9
REMARK VINA RESULT:      -0.3      1.893      2.829
REMARK  4 active torsions:
REMARK  status: ('A' for Active; 'I' for Inactive)
REMARK    1  A    between atoms: C5_5  and  C6_6 
REMARK    2  A    between atoms: C6_6  and  S10_10 
REMARK    3  A    between atoms: C7_7  and  C8_8 
REMARK    4  A    between atoms: C7_7  and  S10_10 
ROOT
HETATM    1  C1  UNL     1     -33.835   7.493   3.675  1.00 20.00     0.074 C 
HETATM    2  C7  UNL     1     -33.297   7.210   2.333  1.00 20.00     0.157 C 
HETATM    3  N9  UNL     1     -34.262   7.718   4.730  1.00 20.00    -0.196 NA
ENDROOT
BRANCH   2   4
HETATM    4  C8  UNL     1     -33.303   5.700   1.983  1.00 20.00     0.005 C 
HETATM    5  C3  UNL     1     -33.582   4.849   3.230  1.00 20.00     0.011 C 
HETATM    6  C4  UNL     1     -32.028   5.195   1.297  1.00 20.00     0.011 C 
ENDBRANCH   2   4
BRANCH   2   7
HETATM    7  S10 UNL     1     -31.629   7.945   2.145  1.00 20.00    -0.149 SA
BRANCH   7   8
HETATM    8  C6  UNL     1     -31.869   8.683   0.515  1.00 20.00     0.075 C 
BRANCH   8   9
HETATM    9  C5  UNL     1     -32.448  10.087   0.644  1.00 20.00     0.006 C 
HETATM   10  C2  UNL     1     -33.046  10.556  -0.675  1.00 20.00     0.006 C 
ENDBRANCH   8   9
ENDBRANCH   7   8
ENDBRANCH   2   7
TORSDOF 4
ENDMDL
