MODEL 1
REMARK VINA RESULT:       0.1      0.000      0.000
REMARK  1 active torsions:
REMARK  status: ('A' for Active; 'I' for Inactive)
REMARK    1  A    between atoms: C3_3  and  C7_7 
ROOT
HETATM    1  C1  UNL     1     -31.968   6.943   0.738  1.00 20.00     0.111 C 
HETATM    2  C2  UNL     1     -32.113   8.013   1.819  1.00 20.00     0.227 C 
HETATM    3  C3  UNL     1     -33.052   6.220   3.028  1.00 20.00     0.285 C 
HETATM    4  C4  UNL     1     -32.341   9.393   1.213  1.00 20.00     0.043 C 
HETATM    5  N8  UNL     1     -33.253   7.630   2.669  1.00 20.00     0.102 N 
HETATM    6  S9  UNL     1     -32.246   5.392   1.623  1.00 20.00    -0.131 SA
HETATM    7  H24 UNL     1     -33.292   8.211   3.505  1.00 20.00     0.317 HD
ENDROOT
BRANCH   3   8
HETATM    8  C7  UNL     1     -34.375   5.545   3.366  1.00 20.00     0.021 C 
HETATM    9  C5  UNL     1     -34.144   4.275   4.187  1.00 20.00     0.012 C 
HETATM   10  C6  UNL     1     -35.299   6.504   4.117  1.00 20.00     0.012 C 
ENDBRANCH   3   8
TORSDOF 1
ENDMDL
MODEL 2
REMARK VINA RESULT:       0.1      1.881      4.425
REMARK  1 active torsions:
REMARK  status: ('A' for Active; 'I' for Inactive)
REMARK    1  A    between atoms: C3_3  and  C7_7 
ROOT
HETATM    1  C1  UNL     1     -35.071   4.744   4.417  1.00 20.00     0.111 C 
HETATM    2  C2  UNL     1     -33.614   4.292   4.502  1.00 20.00     0.227 C 
HETATM    3  C3  UNL     1     -33.260   6.253   3.240  1.00 20.00     0.285 C 
HETATM    4  C4  UNL     1     -33.501   2.773   4.545  1.00 20.00     0.043 C 
HETATM    5  N8  UNL     1     -32.917   4.826   3.320  1.00 20.00     0.102 N 
HETATM    6  S9  UNL     1     -34.963   6.456   3.847  1.00 20.00    -0.131 SA
HETATM    7  H24 UNL     1     -31.910   4.704   3.407  1.00 20.00     0.317 HD
ENDROOT
BRANCH   3   8
HETATM    8  C7  UNL     1     -33.130   6.771   1.813  1.00 20.00     0.021 C 
HETATM    9  C5  UNL     1     -32.112   7.910   1.739  1.00 20.00     0.012 C 
HETATM   10  C6  UNL     1     -32.738   5.643   0.859  1.00 20.00     0.012 C 
ENDBRANCH   3   8
TORSDOF 1
ENDMDL
MODEL 3
REMARK VINA RESULT:       0.2      1.828      2.509
REMARK  1 active torsions:
REMARK  status: ('A' for Active; 'I' for Inactive)
REMARK    1  A    between atoms: C3_3  and  C7_7 
ROOT
HETATM    1  C1  UNL     1     -31.419   7.158   1.657  1.00 20.00     0.111 C 
HETATM    2  C2  UNL     1     -32.376   6.053   1.211  1.00 20.00     0.227 C 
HETATM    3  C3  UNL     1     -33.910   7.290   2.507  1.00 20.00     0.285 C 
HETATM    4  C4  UNL     1     -31.651   4.725   1.028  1.00 20.00     0.043 C 
HETATM    5  N8  UNL     1     -33.419   5.931   2.243  1.00 20.00     0.102 N 
HETATM    6  S9  UNL     1     -32.511   8.438   2.316  1.00 20.00    -0.131 SA
HETATM    7  H24 UNL     1     -34.178   5.333   1.921  1.00 20.00     0.317 HD
ENDROOT
BRANCH   3   8
HETATM    8  C7  UNL     1     -34.510   7.398   3.902  1.00 20.00     0.021 C 
HETATM    9  C5  UNL     1     -35.148   6.073   4.323  1.00 20.00     0.012 C 
HETATM   10  C6  UNL     1     -33.450   7.824   4.919  1.00 20.00     0.012 C 
ENDBRANCH   3   8
TORSDOF 1
ENDMDL
MODEL 4
REMARK VINA RESULT:       0.3      0.811      1.415
REMARK  1 active torsions:
REMARK  status: ('A' for Active; 'I' for Inactive)
REMARK    1  A    between atoms: C3_3  and  C7_7 
ROOT
HETATM    1  C1  UNL     1     -32.419   6.559   1.096  1.00 20.00     0.111 C 
HETATM    2  C2  UNL     1     -32.164   7.834   1.897  1.00 20.00     0.227 C 
HETATM    3  C3  UNL     1     -33.408   6.680   3.534  1.00 20.00     0.285 C 
HETATM    4  C4  UNL     1     -32.086   9.058   0.991  1.00 20.00     0.043 C 
HETATM    5  N8  UNL     1     -33.269   7.977   2.860  1.00 20.00     0.102 N 
HETATM    6  S9  UNL     1     -32.999   5.377   2.333  1.00 20.00    -0.131 SA
HETATM    7  H24 UNL     1     -33.067   8.712   3.535  1.00 20.00     0.317 HD
ENDROOT
BRANCH   3   8
HETATM    8  C7  UNL     1     -34.819   6.490   4.077  1.00 20.00     0.021 C 
HETATM    9  C5  UNL     1     -35.859   6.981   3.069  1.00 20.00     0.012 C 
HETATM   10  C6  UNL     1     -35.072   5.025   4.433  1.00 20.00     0.012 C 
ENDBRANCH   3   8
TORSDOF 1
ENDMDL
MODEL 5
REMARK VINA RESULT:       0.4      0.914      3.848
REMARK  1 active torsions:
REMARK  status: ('A' for Active; 'I' for Inactive)
REMARK    1  A    between atoms: C3_3  and  C7_7 
ROOT
HETATM    1  C1  UNL     1     -33.448   4.957   3.105  1.00 20.00     0.111 C 
HETATM    2  C2  UNL     1     -34.500   6.063   3.168  1.00 20.00     0.227 C 
HETATM    3  C3  UNL     1     -32.988   7.152   1.722  1.00 20.00     0.285 C 
HETATM    4  C4  UNL     1     -35.206   6.088   4.518  1.00 20.00     0.043 C 
HETATM    5  N8  UNL     1     -33.811   7.342   2.924  1.00 20.00     0.102 N 
HETATM    6  S9  UNL     1     -32.404   5.429   1.707  1.00 20.00    -0.131 SA
HETATM    7  H24 UNL     1     -34.483   8.094   2.784  1.00 20.00     0.317 HD
ENDROOT
BRANCH   3   8
HETATM    8  C7  UNL     1     -31.813   8.121   1.701  1.00 20.00     0.021 C 
HETATM    9  C5  UNL     1     -32.074   9.272   0.729  1.00 20.00     0.012 C 
HETATM   10  C6  UNL     1     -31.529   8.662   3.103  1.00 20.00     0.012 C 
ENDBRANCH   3   8
TORSDOF 1
ENDMDL
MODEL 6
REMARK VINA RESULT:       0.5      1.239      1.507
REMARK  1 active torsions:
REMARK  status: ('A' for Active; 'I' for Inactive)
REMARK    1  A    between atoms: C3_3  and  C7_7 
ROOT
HETATM    1  C1  UNL     1     -32.452   6.568   0.719  1.00 20.00     0.111 C 
HETATM    2  C2  UNL     1     -31.730   7.778   1.309  1.00 20.00     0.227 C 
HETATM    3  C3  UNL     1     -32.972   7.191   3.226  1.00 20.00     0.285 C 
HETATM    4  C4  UNL     1     -31.457   8.839   0.249  1.00 20.00     0.043 C 
HETATM    5  N8  UNL     1     -32.585   8.325   2.376  1.00 20.00     0.102 N 
HETATM    6  S9  UNL     1     -33.136   5.724   2.163  1.00 20.00    -0.131 SA
HETATM    7  H24 UNL     1     -32.082   9.025   2.919  1.00 20.00     0.317 HD
ENDROOT
BRANCH   3   8
HETATM    8  C7  UNL     1     -34.276   7.474   3.960  1.00 20.00     0.021 C 
HETATM    9  C5  UNL     1     -35.119   6.204   4.081  1.00 20.00     0.012 C 
HETATM   10  C6  UNL     1     -34.003   8.066   5.344  1.00 20.00     0.012 C 
ENDBRANCH   3   8
TORSDOF 1
ENDMDL
MODEL 7
REMARK VINA RESULT:       1.1      1.784      2.048
REMARK  1 active torsions:
REMARK  status: ('A' for Active; 'I' for Inactive)
REMARK    1  A    between atoms: C3_3  and  C7_7 
ROOT
HETATM    1  C1  UNL     1     -32.701   8.141   3.448  1.00 20.00     0.111 C 
HETATM    2  C2  UNL     1     -32.692   7.549   2.040  1.00 20.00     0.227 C 
HETATM    3  C3  UNL     1     -34.336   6.132   2.965  1.00 20.00     0.285 C 
HETATM    4  C4  UNL     1     -31.311   7.643   1.402  1.00 20.00     0.043 C 
HETATM    5  N8  UNL     1     -33.112   6.142   2.151  1.00 20.00     0.102 N 
HETATM    6  S9  UNL     1     -34.202   7.467   4.194  1.00 20.00    -0.131 SA
HETATM    7  H24 UNL     1     -33.291   5.744   1.231  1.00 20.00     0.317 HD
ENDROOT
BRANCH   3   8
HETATM    8  C7  UNL     1     -34.532   4.786   3.648  1.00 20.00     0.021 C 
HETATM    9  C5  UNL     1     -33.185   4.130   3.955  1.00 20.00     0.012 C 
HETATM   10  C6  UNL     1     -35.353   4.941   4.929  1.00 20.00     0.012 C 
ENDBRANCH   3   8
TORSDOF 1
ENDMDL
MODEL 8
REMARK VINA RESULT:       1.1      1.761      2.271
REMARK  1 active torsions:
REMARK  status: ('A' for Active; 'I' for Inactive)
REMARK    1  A    between atoms: C3_3  and  C7_7 
ROOT
HETATM    1  C1  UNL     1     -32.490   8.359   3.112  1.00 20.00     0.111 C 
HETATM    2  C2  UNL     1     -32.660   7.470   1.882  1.00 20.00     0.227 C 
HETATM    3  C3  UNL     1     -34.154   6.326   3.305  1.00 20.00     0.285 C 
HETATM    4  C4  UNL     1     -31.376   7.393   1.064  1.00 20.00     0.043 C 
HETATM    5  N8  UNL     1     -33.048   6.131   2.357  1.00 20.00     0.102 N 
HETATM    6  S9  UNL     1     -33.873   7.897   4.179  1.00 20.00    -0.131 SA
HETATM    7  H24 UNL     1     -33.343   5.542   1.580  1.00 20.00     0.317 HD
ENDROOT
BRANCH   3   8
HETATM    8  C7  UNL     1     -34.245   5.168   4.290  1.00 20.00     0.021 C 
HETATM    9  C5  UNL     1     -35.684   4.976   4.771  1.00 20.00     0.012 C 
HETATM   10  C6  UNL     1     -33.717   3.878   3.663  1.00 20.00     0.012 C 
ENDBRANCH   3   8
TORSDOF 1
ENDMDL
MODEL 9
REMARK VINA RESULT:       1.2      1.677      3.758
REMARK  1 active torsions:
REMARK  status: ('A' for Active; 'I' for Inactive)
REMARK    1  A    between atoms: C3_3  and  C7_7 
ROOT
HETATM    1  C1  UNL     1     -32.660   4.259   2.616  1.00 20.00     0.111 C 
HETATM    2  C2  UNL     1     -33.818   4.176   3.609  1.00 20.00     0.227 C 
HETATM    3  C3  UNL     1     -34.096   6.435   2.992  1.00 20.00     0.285 C 
HETATM    4  C4  UNL     1     -33.518   3.196   4.737  1.00 20.00     0.043 C 
HETATM    5  N8  UNL     1     -34.034   5.529   4.147  1.00 20.00     0.102 N 
HETATM    6  S9  UNL     1     -32.968   5.796   1.717  1.00 20.00    -0.131 SA
HETATM    7  H24 UNL     1     -34.900   5.571   4.682  1.00 20.00     0.317 HD
ENDROOT
BRANCH   3   8
HETATM    8  C7  UNL     1     -33.716   7.856   3.387  1.00 20.00     0.021 C 
HETATM    9  C5  UNL     1     -33.596   7.985   4.906  1.00 20.00     0.012 C 
HETATM   10  C6  UNL     1     -32.411   8.277   2.711  1.00 20.00     0.012 C 
ENDBRANCH   3   8
TORSDOF 1
ENDMDL
