MODEL 1
REMARK VINA RESULT:      -0.7      0.000      0.000
REMARK  1 active torsions:
REMARK  status: ('A' for Active; 'I' for Inactive)
REMARK    1  A    between atoms: C2_2  and  C6_6 
ROOT
HETATM    1  C1  UNL     1     -32.386   6.204   1.513  1.00 20.00     0.111 C 
HETATM    2  C2  UNL     1     -32.855   7.624   1.820  1.00 20.00     0.231 C 
HETATM    3  C3  UNL     1     -33.806   6.546   3.708  1.00 20.00     0.278 C 
HETATM    4  C4  UNL     1     -35.306   6.823   3.675  1.00 20.00     0.054 C 
HETATM    5  N7  UNL     1     -33.044   7.728   3.279  1.00 20.00     0.102 N 
HETATM    6  S8  UNL     1     -33.391   5.167   2.599  1.00 20.00    -0.132 SA
HETATM    7  H21 UNL     1     -32.124   7.688   3.722  1.00 20.00     0.317 HD
ENDROOT
BRANCH   2   8
HETATM    8  C6  UNL     1     -31.845   8.662   1.343  1.00 20.00     0.032 C 
HETATM    9  C5  UNL     1     -32.458   9.635   0.389  1.00 20.00     0.007 C 
ENDBRANCH   2   8
TORSDOF 1
ENDMDL
MODEL 2
REMARK VINA RESULT:      -0.5      2.448      3.968
REMARK  1 active torsions:
REMARK  status: ('A' for Active; 'I' for Inactive)
REMARK    1  A    between atoms: C2_2  and  C6_6 
ROOT
HETATM    1  C1  UNL     1     -32.969   5.572   2.239  1.00 20.00     0.111 C 
HETATM    2  C2  UNL     1     -33.473   5.241   3.641  1.00 20.00     0.231 C 
HETATM    3  C3  UNL     1     -34.097   7.530   3.598  1.00 20.00     0.278 C 
HETATM    4  C4  UNL     1     -33.408   8.206   4.780  1.00 20.00     0.054 C 
HETATM    5  N7  UNL     1     -34.561   6.183   3.960  1.00 20.00     0.102 N 
HETATM    6  S8  UNL     1     -32.949   7.378   2.197  1.00 20.00    -0.132 SA
HETATM    7  H21 UNL     1     -35.362   5.955   3.368  1.00 20.00     0.317 HD
ENDROOT
BRANCH   2   8
HETATM    8  C6  UNL     1     -33.974   3.804   3.730  1.00 20.00     0.032 C 
HETATM    9  C5  UNL     1     -33.194   3.004   4.722  1.00 20.00     0.007 C 
ENDBRANCH   2   8
TORSDOF 1
ENDMDL
MODEL 3
REMARK VINA RESULT:      -0.2      1.698      2.009
REMARK  1 active torsions:
REMARK  status: ('A' for Active; 'I' for Inactive)
REMARK    1  A    between atoms: C2_2  and  C6_6 
ROOT
HETATM    1  C1  UNL     1     -33.392   8.033   3.289  1.00 20.00     0.111 C 
HETATM    2  C2  UNL     1     -32.483   7.045   2.563  1.00 20.00     0.231 C 
HETATM    3  C3  UNL     1     -34.259   5.553   3.065  1.00 20.00     0.278 C 
HETATM    4  C4  UNL     1     -33.665   4.405   3.874  1.00 20.00     0.054 C 
HETATM    5  N7  UNL     1     -33.336   5.981   2.003  1.00 20.00     0.102 N 
HETATM    6  S8  UNL     1     -34.590   6.981   4.139  1.00 20.00    -0.132 SA
HETATM    7  H21 UNL     1     -33.891   6.384   1.246  1.00 20.00     0.317 HD
ENDROOT
BRANCH   2   8
HETATM    8  C6  UNL     1     -31.691   7.727   1.452  1.00 20.00     0.032 C 
HETATM    9  C5  UNL     1     -32.335   9.003   1.015  1.00 20.00     0.007 C 
ENDBRANCH   2   8
TORSDOF 1
ENDMDL
MODEL 4
REMARK VINA RESULT:      -0.2      2.031      3.831
REMARK  1 active torsions:
REMARK  status: ('A' for Active; 'I' for Inactive)
REMARK    1  A    between atoms: C2_2  and  C6_6 
ROOT
HETATM    1  C1  UNL     1     -33.221   7.898   3.065  1.00 20.00     0.111 C 
HETATM    2  C2  UNL     1     -34.154   6.692   2.978  1.00 20.00     0.231 C 
HETATM    3  C3  UNL     1     -32.312   5.771   1.799  1.00 20.00     0.278 C 
HETATM    4  C4  UNL     1     -32.820   5.363   0.420  1.00 20.00     0.054 C 
HETATM    5  N7  UNL     1     -33.316   5.487   2.835  1.00 20.00     0.102 N 
HETATM    6  S8  UNL     1     -31.942   7.550   1.838  1.00 20.00    -0.132 SA
HETATM    7  H21 UNL     1     -32.825   5.336   3.717  1.00 20.00     0.317 HD
ENDROOT
BRANCH   2   8
HETATM    8  C6  UNL     1     -35.037   6.579   4.216  1.00 20.00     0.032 C 
HETATM    9  C5  UNL     1     -35.329   5.154   4.560  1.00 20.00     0.007 C 
ENDBRANCH   2   8
TORSDOF 1
ENDMDL
MODEL 5
REMARK VINA RESULT:      -0.0      1.805      3.919
REMARK  1 active torsions:
REMARK  status: ('A' for Active; 'I' for Inactive)
REMARK    1  A    between atoms: C2_2  and  C6_6 
ROOT
HETATM    1  C1  UNL     1     -33.400   7.939   4.568  1.00 20.00     0.111 C 
HETATM    2  C2  UNL     1     -34.179   7.320   3.410  1.00 20.00     0.231 C 
HETATM    3  C3  UNL     1     -32.137   7.706   2.265  1.00 20.00     0.278 C 
HETATM    4  C4  UNL     1     -32.455   8.593   1.066  1.00 20.00     0.054 C 
HETATM    5  N7  UNL     1     -33.202   6.716   2.485  1.00 20.00     0.102 N 
HETATM    6  S8  UNL     1     -31.973   8.710   3.771  1.00 20.00    -0.132 SA
HETATM    7  H21 UNL     1     -32.789   5.904   2.945  1.00 20.00     0.317 HD
ENDROOT
BRANCH   2   8
HETATM    8  C6  UNL     1     -35.164   6.264   3.901  1.00 20.00     0.032 C 
HETATM    9  C5  UNL     1     -34.510   4.931   4.072  1.00 20.00     0.007 C 
ENDBRANCH   2   8
TORSDOF 1
ENDMDL
MODEL 6
REMARK VINA RESULT:       0.1      1.341      3.649
REMARK  1 active torsions:
REMARK  status: ('A' for Active; 'I' for Inactive)
REMARK    1  A    between atoms: C2_2  and  C6_6 
ROOT
HETATM    1  C1  UNL     1     -33.428   5.471   2.456  1.00 20.00     0.111 C 
HETATM    2  C2  UNL     1     -33.664   6.673   3.368  1.00 20.00     0.231 C 
HETATM    3  C3  UNL     1     -32.368   7.767   1.708  1.00 20.00     0.278 C 
HETATM    4  C4  UNL     1     -31.159   8.376   2.411  1.00 20.00     0.054 C 
HETATM    5  N7  UNL     1     -33.576   7.889   2.538  1.00 20.00     0.102 N 
HETATM    6  S8  UNL     1     -32.085   6.003   1.371  1.00 20.00    -0.132 SA
HETATM    7  H21 UNL     1     -34.386   7.908   1.916  1.00 20.00     0.317 HD
ENDROOT
BRANCH   2   8
HETATM    8  C6  UNL     1     -35.025   6.597   4.051  1.00 20.00     0.032 C 
HETATM    9  C5  UNL     1     -35.348   5.205   4.490  1.00 20.00     0.007 C 
ENDBRANCH   2   8
TORSDOF 1
ENDMDL
MODEL 7
REMARK VINA RESULT:       0.4      1.476      2.308
REMARK  1 active torsions:
REMARK  status: ('A' for Active; 'I' for Inactive)
REMARK    1  A    between atoms: C2_2  and  C6_6 
ROOT
HETATM    1  C1  UNL     1     -33.188   7.810   3.124  1.00 20.00     0.111 C 
HETATM    2  C2  UNL     1     -32.204   7.981   1.969  1.00 20.00     0.231 C 
HETATM    3  C3  UNL     1     -32.989   5.811   1.416  1.00 20.00     0.278 C 
HETATM    4  C4  UNL     1     -31.774   4.891   1.374  1.00 20.00     0.054 C 
HETATM    5  N7  UNL     1     -32.669   7.132   0.856  1.00 20.00     0.102 N 
HETATM    6  S8  UNL     1     -33.552   6.041   3.129  1.00 20.00    -0.132 SA
HETATM    7  H21 UNL     1     -33.531   7.536   0.487  1.00 20.00     0.317 HD
ENDROOT
BRANCH   2   8
HETATM    8  C6  UNL     1     -32.115   9.436   1.522  1.00 20.00     0.032 C 
HETATM    9  C5  UNL     1     -32.407   9.588   0.064  1.00 20.00     0.007 C 
ENDBRANCH   2   8
TORSDOF 1
ENDMDL
MODEL 8
REMARK VINA RESULT:       0.5      2.218      4.199
REMARK  1 active torsions:
REMARK  status: ('A' for Active; 'I' for Inactive)
REMARK    1  A    between atoms: C2_2  and  C6_6 
ROOT
HETATM    1  C1  UNL     1     -33.903   7.102   3.789  1.00 20.00     0.111 C 
HETATM    2  C2  UNL     1     -34.269   5.701   3.303  1.00 20.00     0.231 C 
HETATM    3  C3  UNL     1     -32.566   6.167   1.717  1.00 20.00     0.278 C 
HETATM    4  C4  UNL     1     -33.193   6.035   0.333  1.00 20.00     0.054 C 
HETATM    5  N7  UNL     1     -33.084   5.137   2.630  1.00 20.00     0.102 N 
HETATM    6  S8  UNL     1     -32.937   7.797   2.429  1.00 20.00    -0.132 SA
HETATM    7  H21 UNL     1     -32.372   4.956   3.340  1.00 20.00     0.317 HD
ENDROOT
BRANCH   2   8
HETATM    8  C6  UNL     1     -34.698   4.804   4.459  1.00 20.00     0.032 C 
HETATM    9  C5  UNL     1     -33.844   3.582   4.559  1.00 20.00     0.007 C 
ENDBRANCH   2   8
TORSDOF 1
ENDMDL
MODEL 9
REMARK VINA RESULT:       0.8      1.737      3.412
REMARK  1 active torsions:
REMARK  status: ('A' for Active; 'I' for Inactive)
REMARK    1  A    between atoms: C2_2  and  C6_6 
ROOT
HETATM    1  C1  UNL     1     -33.594   6.267   2.930  1.00 20.00     0.111 C 
HETATM    2  C2  UNL     1     -32.993   6.137   1.532  1.00 20.00     0.231 C 
HETATM    3  C3  UNL     1     -32.014   8.217   2.122  1.00 20.00     0.278 C 
HETATM    4  C4  UNL     1     -32.443   9.231   1.067  1.00 20.00     0.054 C 
HETATM    5  N7  UNL     1     -31.736   6.909   1.513  1.00 20.00     0.102 N 
HETATM    6  S8  UNL     1     -33.325   8.000   3.363  1.00 20.00    -0.132 SA
HETATM    7  H21 UNL     1     -31.057   6.423   2.101  1.00 20.00     0.317 HD
ENDROOT
BRANCH   2   8
HETATM    8  C6  UNL     1     -32.725   4.680   1.172  1.00 20.00     0.032 C 
HETATM    9  C5  UNL     1     -31.429   4.517   0.447  1.00 20.00     0.007 C 
ENDBRANCH   2   8
TORSDOF 1
ENDMDL
