MODEL 1
REMARK VINA RESULT:       0.5      0.000      0.000
REMARK  0 active torsions:
REMARK  status: ('A' for Active; 'I' for Inactive)
ROOT
HETATM    1  C1  UNL     1     -32.429   8.862   1.028  1.00 20.00     0.080 C 
HETATM    2  C2  UNL     1     -33.034   5.812   1.396  1.00 20.00     0.013 C 
HETATM    3  C3  UNL     1     -31.726   6.559   1.629  1.00 20.00     0.036 C 
HETATM    4  C4  UNL     1     -33.852   5.975   2.664  1.00 20.00     0.076 C 
HETATM    5  C5  UNL     1     -32.085   7.960   2.142  1.00 20.00     0.093 C 
HETATM    6  C6  UNL     1     -30.949   8.561   2.969  1.00 20.00     0.043 C 
HETATM    7  N7  UNL     1     -32.699   9.574   0.153  1.00 20.00    -0.196 NA
HETATM    8  S8  UNL     1     -33.554   7.681   3.204  1.00 20.00    -0.144 SA
ENDROOT
TORSDOF 0
ENDMDL
MODEL 2
REMARK VINA RESULT:       0.5      2.776      3.984
REMARK  0 active torsions:
REMARK  status: ('A' for Active; 'I' for Inactive)
ROOT
HETATM    1  C1  UNL     1     -33.856   4.834   3.880  1.00 20.00     0.080 C 
HETATM    2  C2  UNL     1     -32.471   6.463   1.592  1.00 20.00     0.013 C 
HETATM    3  C3  UNL     1     -33.952   6.152   1.780  1.00 20.00     0.036 C 
HETATM    4  C4  UNL     1     -32.180   7.688   2.438  1.00 20.00     0.076 C 
HETATM    5  C5  UNL     1     -34.227   6.132   3.289  1.00 20.00     0.093 C 
HETATM    6  C6  UNL     1     -35.690   6.446   3.596  1.00 20.00     0.043 C 
HETATM    7  N7  UNL     1     -33.565   3.812   4.346  1.00 20.00    -0.196 NA
HETATM    8  S8  UNL     1     -33.149   7.458   3.954  1.00 20.00    -0.144 SA
ENDROOT
TORSDOF 0
ENDMDL
MODEL 3
REMARK VINA RESULT:       1.6      2.378      2.984
REMARK  0 active torsions:
REMARK  status: ('A' for Active; 'I' for Inactive)
ROOT
HETATM    1  C1  UNL     1     -33.718   5.659   0.569  1.00 20.00     0.080 C 
HETATM    2  C2  UNL     1     -34.387   6.452   3.524  1.00 20.00     0.013 C 
HETATM    3  C3  UNL     1     -33.496   5.324   3.018  1.00 20.00     0.036 C 
HETATM    4  C4  UNL     1     -33.527   7.703   3.539  1.00 20.00     0.076 C 
HETATM    5  C5  UNL     1     -32.823   5.815   1.729  1.00 20.00     0.093 C 
HETATM    6  C6  UNL     1     -31.505   5.087   1.473  1.00 20.00     0.043 C 
HETATM    7  N7  UNL     1     -34.422   5.536  -0.345  1.00 20.00    -0.196 NA
HETATM    8  S8  UNL     1     -32.505   7.594   2.045  1.00 20.00    -0.144 SA
ENDROOT
TORSDOF 0
ENDMDL
MODEL 4
REMARK VINA RESULT:       2.0      2.471      3.720
REMARK  0 active torsions:
REMARK  status: ('A' for Active; 'I' for Inactive)
ROOT
HETATM    1  C1  UNL     1     -35.403   6.505   3.210  1.00 20.00     0.080 C 
HETATM    2  C2  UNL     1     -32.807   8.245   3.004  1.00 20.00     0.013 C 
HETATM    3  C3  UNL     1     -33.191   7.228   4.072  1.00 20.00     0.036 C 
HETATM    4  C4  UNL     1     -32.191   7.455   1.863  1.00 20.00     0.076 C 
HETATM    5  C5  UNL     1     -33.991   6.117   3.380  1.00 20.00     0.093 C 
HETATM    6  C6  UNL     1     -33.901   4.800   4.150  1.00 20.00     0.043 C 
HETATM    7  N7  UNL     1     -36.514   6.809   3.076  1.00 20.00    -0.196 NA
HETATM    8  S8  UNL     1     -33.184   5.942   1.743  1.00 20.00    -0.144 SA
ENDROOT
TORSDOF 0
ENDMDL
MODEL 5
REMARK VINA RESULT:       2.1      3.415      4.025
REMARK  0 active torsions:
REMARK  status: ('A' for Active; 'I' for Inactive)
ROOT
HETATM    1  C1  UNL     1     -34.037   7.358   4.469  1.00 20.00     0.080 C 
HETATM    2  C2  UNL     1     -34.048   4.234   4.689  1.00 20.00     0.013 C 
HETATM    3  C3  UNL     1     -35.231   5.183   4.540  1.00 20.00     0.036 C 
HETATM    4  C4  UNL     1     -33.520   3.986   3.288  1.00 20.00     0.076 C 
HETATM    5  C5  UNL     1     -34.768   6.359   3.670  1.00 20.00     0.093 C 
HETATM    6  C6  UNL     1     -35.943   7.022   2.953  1.00 20.00     0.043 C 
HETATM    7  N7  UNL     1     -33.462   8.145   5.098  1.00 20.00    -0.196 NA
HETATM    8  S8  UNL     1     -33.642   5.587   2.444  1.00 20.00    -0.144 SA
ENDROOT
TORSDOF 0
ENDMDL
MODEL 6
REMARK VINA RESULT:       2.2      2.537      3.388
REMARK  0 active torsions:
REMARK  status: ('A' for Active; 'I' for Inactive)
ROOT
HETATM    1  C1  UNL     1     -33.067   7.612   4.055  1.00 20.00     0.080 C 
HETATM    2  C2  UNL     1     -35.431   5.601   4.469  1.00 20.00     0.013 C 
HETATM    3  C3  UNL     1     -35.138   6.493   3.269  1.00 20.00     0.036 C 
HETATM    4  C4  UNL     1     -34.594   4.348   4.287  1.00 20.00     0.076 C 
HETATM    5  C5  UNL     1     -33.612   6.596   3.137  1.00 20.00     0.093 C 
HETATM    6  C6  UNL     1     -33.194   6.910   1.702  1.00 20.00     0.043 C 
HETATM    7  N7  UNL     1     -32.636   8.412   4.776  1.00 20.00    -0.196 NA
HETATM    8  S8  UNL     1     -33.013   4.929   3.613  1.00 20.00    -0.144 SA
ENDROOT
TORSDOF 0
ENDMDL
MODEL 7
REMARK VINA RESULT:       2.2      1.908      2.986
REMARK  0 active torsions:
REMARK  status: ('A' for Active; 'I' for Inactive)
ROOT
HETATM    1  C1  UNL     1     -32.450   7.223   2.318  1.00 20.00     0.080 C 
HETATM    2  C2  UNL     1     -35.054   6.515   3.906  1.00 20.00     0.013 C 
HETATM    3  C3  UNL     1     -34.841   6.563   2.398  1.00 20.00     0.036 C 
HETATM    4  C4  UNL     1     -34.582   5.147   4.362  1.00 20.00     0.076 C 
HETATM    5  C5  UNL     1     -33.400   6.113   2.125  1.00 20.00     0.093 C 
HETATM    6  C6  UNL     1     -33.250   5.536   0.718  1.00 20.00     0.043 C 
HETATM    7  N7  UNL     1     -31.702   8.097   2.469  1.00 20.00    -0.196 NA
HETATM    8  S8  UNL     1     -33.100   4.803   3.374  1.00 20.00    -0.144 SA
ENDROOT
TORSDOF 0
ENDMDL
MODEL 8
REMARK VINA RESULT:       2.5      2.283      3.291
REMARK  0 active torsions:
REMARK  status: ('A' for Active; 'I' for Inactive)
ROOT
HETATM    1  C1  UNL     1     -31.905   5.340   1.535  1.00 20.00     0.080 C 
HETATM    2  C2  UNL     1     -32.201   8.117   2.952  1.00 20.00     0.013 C 
HETATM    3  C3  UNL     1     -32.540   7.739   1.515  1.00 20.00     0.036 C 
HETATM    4  C4  UNL     1     -33.404   7.727   3.792  1.00 20.00     0.076 C 
HETATM    5  C5  UNL     1     -33.035   6.287   1.528  1.00 20.00     0.093 C 
HETATM    6  C6  UNL     1     -33.952   5.997   0.341  1.00 20.00     0.043 C 
HETATM    7  N7  UNL     1     -31.017   4.594   1.540  1.00 20.00    -0.196 NA
HETATM    8  S8  UNL     1     -33.978   6.154   3.095  1.00 20.00    -0.144 SA
ENDROOT
TORSDOF 0
ENDMDL
MODEL 9
REMARK VINA RESULT:       2.5      2.175      3.324
REMARK  0 active torsions:
REMARK  status: ('A' for Active; 'I' for Inactive)
ROOT
HETATM    1  C1  UNL     1     -33.617   6.693   2.801  1.00 20.00     0.080 C 
HETATM    2  C2  UNL     1     -31.983   9.166   1.791  1.00 20.00     0.013 C 
HETATM    3  C3  UNL     1     -31.478   7.775   2.159  1.00 20.00     0.036 C 
HETATM    4  C4  UNL     1     -32.460   9.081   0.353  1.00 20.00     0.076 C 
HETATM    5  C5  UNL     1     -32.571   6.773   1.766  1.00 20.00     0.093 C 
HETATM    6  C6  UNL     1     -31.989   5.385   1.503  1.00 20.00     0.043 C 
HETATM    7  N7  UNL     1     -34.441   6.628   3.615  1.00 20.00    -0.196 NA
HETATM    8  S8  UNL     1     -33.269   7.463   0.217  1.00 20.00    -0.144 SA
ENDROOT
TORSDOF 0
ENDMDL
