MODEL 1
REMARK VINA RESULT:      -0.5      0.000      0.000
REMARK  0 active torsions:
REMARK  status: ('A' for Active; 'I' for Inactive)
ROOT
HETATM    1  C1  UNL     1     -34.253   7.793   4.088  1.00 20.00     0.019 A 
HETATM    2  C2  UNL     1     -34.437   6.372   4.200  1.00 20.00     0.031 A 
HETATM    3  C3  UNL     1     -33.440   8.287   3.148  1.00 20.00     0.094 A 
HETATM    4  C4  UNL     1     -33.803   5.533   3.372  1.00 20.00     0.102 A 
HETATM    5  C5  UNL     1     -32.886   6.062   2.310  1.00 20.00     0.268 A 
HETATM    6  C6  UNL     1     -31.891   8.061   1.264  1.00 20.00     0.159 C 
HETATM    7  N7  UNL     1     -32.762   7.460   2.268  1.00 20.00    -0.328 N 
HETATM    8  O8  UNL     1     -32.306   5.286   1.550  1.00 20.00    -0.266 OA
HETATM    9 CL9  UNL     1     -34.007   3.829   3.486  1.00 20.00    -0.078 Cl
ENDROOT
TORSDOF 0
ENDMDL
MODEL 2
REMARK VINA RESULT:      -0.4      2.100      2.950
REMARK  0 active torsions:
REMARK  status: ('A' for Active; 'I' for Inactive)
ROOT
HETATM    1  C1  UNL     1     -34.359   7.674   4.153  1.00 20.00     0.019 A 
HETATM    2  C2  UNL     1     -33.507   8.264   3.157  1.00 20.00     0.031 A 
HETATM    3  C3  UNL     1     -34.482   6.344   4.220  1.00 20.00     0.094 A 
HETATM    4  C4  UNL     1     -32.833   7.495   2.292  1.00 20.00     0.102 A 
HETATM    5  C5  UNL     1     -32.956   6.002   2.347  1.00 20.00     0.268 A 
HETATM    6  C6  UNL     1     -33.983   4.065   3.474  1.00 20.00     0.159 C 
HETATM    7  N7  UNL     1     -33.806   5.507   3.348  1.00 20.00    -0.328 N 
HETATM    8  O8  UNL     1     -32.333   5.300   1.549  1.00 20.00    -0.266 OA
HETATM    9 CL9  UNL     1     -31.808   8.177   1.091  1.00 20.00    -0.078 Cl
ENDROOT
TORSDOF 0
ENDMDL
MODEL 3
REMARK VINA RESULT:      -0.4      1.936      2.540
REMARK  0 active torsions:
REMARK  status: ('A' for Active; 'I' for Inactive)
ROOT
HETATM    1  C1  UNL     1     -32.672   5.759   1.398  1.00 20.00     0.019 A 
HETATM    2  C2  UNL     1     -33.739   5.330   2.261  1.00 20.00     0.031 A 
HETATM    3  C3  UNL     1     -32.061   6.927   1.626  1.00 20.00     0.094 A 
HETATM    4  C4  UNL     1     -34.130   6.087   3.293  1.00 20.00     0.102 A 
HETATM    5  C5  UNL     1     -33.460   7.400   3.569  1.00 20.00     0.268 A 
HETATM    6  C6  UNL     1     -31.722   9.005   2.876  1.00 20.00     0.159 C 
HETATM    7  N7  UNL     1     -32.428   7.745   2.681  1.00 20.00    -0.328 N 
HETATM    8  O8  UNL     1     -33.823   8.092   4.521  1.00 20.00    -0.266 OA
HETATM    9 CL9  UNL     1     -35.403   5.595   4.339  1.00 20.00    -0.078 Cl
ENDROOT
TORSDOF 0
ENDMDL
MODEL 4
REMARK VINA RESULT:      -0.1      1.569      2.758
REMARK  0 active torsions:
REMARK  status: ('A' for Active; 'I' for Inactive)
ROOT
HETATM    1  C1  UNL     1     -31.891   8.317   1.794  1.00 20.00     0.019 A 
HETATM    2  C2  UNL     1     -31.866   7.062   1.093  1.00 20.00     0.031 A 
HETATM    3  C3  UNL     1     -32.633   8.446   2.899  1.00 20.00     0.094 A 
HETATM    4  C4  UNL     1     -32.578   6.017   1.534  1.00 20.00     0.102 A 
HETATM    5  C5  UNL     1     -33.417   6.138   2.771  1.00 20.00     0.268 A 
HETATM    6  C6  UNL     1     -34.172   7.601   4.606  1.00 20.00     0.159 C 
HETATM    7  N7  UNL     1     -33.386   7.396   3.396  1.00 20.00    -0.328 N 
HETATM    8  O8  UNL     1     -34.069   5.174   3.173  1.00 20.00    -0.266 OA
HETATM    9 CL9  UNL     1     -32.563   4.506   0.714  1.00 20.00    -0.078 Cl
ENDROOT
TORSDOF 0
ENDMDL
MODEL 5
REMARK VINA RESULT:      -0.1      2.724      3.815
REMARK  0 active torsions:
REMARK  status: ('A' for Active; 'I' for Inactive)
ROOT
HETATM    1  C1  UNL     1     -32.763   5.769   1.454  1.00 20.00     0.019 A 
HETATM    2  C2  UNL     1     -32.031   6.978   1.713  1.00 20.00     0.031 A 
HETATM    3  C3  UNL     1     -33.777   5.421   2.255  1.00 20.00     0.094 A 
HETATM    4  C4  UNL     1     -32.352   7.764   2.749  1.00 20.00     0.102 A 
HETATM    5  C5  UNL     1     -33.484   7.395   3.660  1.00 20.00     0.268 A 
HETATM    6  C6  UNL     1     -35.262   5.766   4.171  1.00 20.00     0.159 C 
HETATM    7  N7  UNL     1     -34.147   6.200   3.338  1.00 20.00    -0.328 N 
HETATM    8  O8  UNL     1     -33.776   8.122   4.610  1.00 20.00    -0.266 OA
HETATM    9 CL9  UNL     1     -31.491   9.216   3.078  1.00 20.00    -0.078 Cl
ENDROOT
TORSDOF 0
ENDMDL
MODEL 6
REMARK VINA RESULT:       0.0      1.564      2.065
REMARK  0 active torsions:
REMARK  status: ('A' for Active; 'I' for Inactive)
ROOT
HETATM    1  C1  UNL     1     -32.612   8.317   2.574  1.00 20.00     0.019 A 
HETATM    2  C2  UNL     1     -33.688   7.906   3.434  1.00 20.00     0.031 A 
HETATM    3  C3  UNL     1     -32.002   7.417   1.795  1.00 20.00     0.094 A 
HETATM    4  C4  UNL     1     -34.088   6.628   3.466  1.00 20.00     0.102 A 
HETATM    5  C5  UNL     1     -33.419   5.601   2.602  1.00 20.00     0.268 A 
HETATM    6  C6  UNL     1     -31.675   5.154   0.919  1.00 20.00     0.159 C 
HETATM    7  N7  UNL     1     -32.380   6.085   1.792  1.00 20.00    -0.328 N 
HETATM    8  O8  UNL     1     -33.792   4.428   2.635  1.00 20.00    -0.266 OA
HETATM    9 CL9  UNL     1     -35.372   6.112   4.487  1.00 20.00    -0.078 Cl
ENDROOT
TORSDOF 0
ENDMDL
MODEL 7
REMARK VINA RESULT:       0.7      1.662      1.982
REMARK  0 active torsions:
REMARK  status: ('A' for Active; 'I' for Inactive)
ROOT
HETATM    1  C1  UNL     1     -34.462   6.528   3.797  1.00 20.00     0.019 A 
HETATM    2  C2  UNL     1     -34.153   5.683   2.676  1.00 20.00     0.031 A 
HETATM    3  C3  UNL     1     -33.706   7.603   4.047  1.00 20.00     0.094 A 
HETATM    4  C4  UNL     1     -33.114   5.958   1.877  1.00 20.00     0.102 A 
HETATM    5  C5  UNL     1     -32.252   7.157   2.138  1.00 20.00     0.268 A 
HETATM    6  C6  UNL     1     -31.838   9.116   3.578  1.00 20.00     0.159 C 
HETATM    7  N7  UNL     1     -32.621   7.930   3.251  1.00 20.00    -0.328 N 
HETATM    8  O8  UNL     1     -31.298   7.406   1.401  1.00 20.00    -0.266 OA
HETATM    9 CL9  UNL     1     -32.724   4.962   0.531  1.00 20.00    -0.078 Cl
ENDROOT
TORSDOF 0
ENDMDL
MODEL 8
REMARK VINA RESULT:       0.8      2.345      2.822
REMARK  0 active torsions:
REMARK  status: ('A' for Active; 'I' for Inactive)
ROOT
HETATM    1  C1  UNL     1     -34.578   6.526   3.855  1.00 20.00     0.019 A 
HETATM    2  C2  UNL     1     -33.725   7.626   4.215  1.00 20.00     0.031 A 
HETATM    3  C3  UNL     1     -34.310   5.809   2.758  1.00 20.00     0.094 A 
HETATM    4  C4  UNL     1     -32.663   7.942   3.464  1.00 20.00     0.102 A 
HETATM    5  C5  UNL     1     -32.343   7.153   2.230  1.00 20.00     0.268 A 
HETATM    6  C6  UNL     1     -32.987   5.275   0.768  1.00 20.00     0.159 C 
HETATM    7  N7  UNL     1     -33.224   6.096   1.949  1.00 20.00    -0.328 N 
HETATM    8  O8  UNL     1     -31.364   7.447   1.543  1.00 20.00    -0.266 OA
HETATM    9 CL9  UNL     1     -31.628   9.253   3.874  1.00 20.00    -0.078 Cl
ENDROOT
TORSDOF 0
ENDMDL
MODEL 9
REMARK VINA RESULT:       0.9      1.900      2.627
REMARK  0 active torsions:
REMARK  status: ('A' for Active; 'I' for Inactive)
ROOT
HETATM    1  C1  UNL     1     -34.656   4.991   3.845  1.00 20.00     0.019 A 
HETATM    2  C2  UNL     1     -33.731   4.669   2.792  1.00 20.00     0.031 A 
HETATM    3  C3  UNL     1     -34.753   6.251   4.282  1.00 20.00     0.094 A 
HETATM    4  C4  UNL     1     -32.964   5.618   2.242  1.00 20.00     0.102 A 
HETATM    5  C5  UNL     1     -33.055   7.038   2.715  1.00 20.00     0.268 A 
HETATM    6  C6  UNL     1     -34.136   8.621   4.265  1.00 20.00     0.159 C 
HETATM    7  N7  UNL     1     -33.982   7.268   3.745  1.00 20.00    -0.328 N 
HETATM    8  O8  UNL     1     -32.348   7.907   2.205  1.00 20.00    -0.266 OA
HETATM    9 CL9  UNL     1     -31.851   5.258   0.981  1.00 20.00    -0.078 Cl
ENDROOT
TORSDOF 0
ENDMDL
