MODEL 1
REMARK VINA RESULT:       1.3      0.000      0.000
REMARK  1 active torsions:
REMARK  status: ('A' for Active; 'I' for Inactive)
REMARK    1  A    between atoms: C4_4  and  C5_5 
ROOT
HETATM    1  C3  UNL     1     -31.893   6.968   0.807  1.00 20.00     0.116 C 
HETATM    2  C5  UNL     1     -33.255   6.522   3.016  1.00 20.00     0.286 C 
HETATM    3  C6  UNL     1     -32.161   8.193   1.696  1.00 20.00     0.160 C 
HETATM    4  C7  UNL     1     -30.960   8.526   2.601  1.00 20.00     0.049 C 
HETATM    5  C8  UNL     1     -32.471   9.416   0.823  1.00 20.00     0.049 C 
HETATM    6  N9  UNL     1     -33.363   7.884   2.490  1.00 20.00     0.107 N 
HETATM    7  S10 UNL     1     -32.318   5.532   1.823  1.00 20.00    -0.131 SA
HETATM    8  H25 UNL     1     -34.171   7.927   1.867  1.00 20.00     0.318 HD
ENDROOT
BRANCH   2   9
HETATM    9  C4  UNL     1     -34.617   5.942   3.229  1.00 20.00     0.029 A 
HETATM   10  C1  UNL     1     -34.829   4.863   4.255  1.00 20.00     0.008 A 
HETATM   11  C2  UNL     1     -35.379   6.242   4.491  1.00 20.00     0.008 A 
ENDBRANCH   2   9
TORSDOF 1
ENDMDL
MODEL 2
REMARK VINA RESULT:       1.6      2.197      3.102
REMARK  1 active torsions:
REMARK  status: ('A' for Active; 'I' for Inactive)
REMARK    1  A    between atoms: C4_4  and  C5_5 
ROOT
HETATM    1  C3  UNL     1     -33.867   7.260   3.154  1.00 20.00     0.116 C 
HETATM    2  C5  UNL     1     -34.128   4.660   3.482  1.00 20.00     0.286 C 
HETATM    3  C6  UNL     1     -33.094   6.372   2.166  1.00 20.00     0.160 C 
HETATM    4  C7  UNL     1     -33.846   6.197   0.834  1.00 20.00     0.049 C 
HETATM    5  C8  UNL     1     -31.718   6.987   1.875  1.00 20.00     0.049 C 
HETATM    6  N9  UNL     1     -32.882   5.079   2.838  1.00 20.00     0.107 N 
HETATM    7  S10 UNL     1     -35.019   6.150   4.001  1.00 20.00    -0.131 SA
HETATM    8  H25 UNL     1     -32.173   5.212   3.561  1.00 20.00     0.318 HD
ENDROOT
BRANCH   2   9
HETATM    9  C4  UNL     1     -33.832   3.785   4.658  1.00 20.00     0.029 A 
HETATM   10  C1  UNL     1     -33.361   2.372   4.452  1.00 20.00     0.008 A 
HETATM   11  C2  UNL     1     -32.413   3.410   4.985  1.00 20.00     0.008 A 
ENDBRANCH   2   9
TORSDOF 1
ENDMDL
MODEL 3
REMARK VINA RESULT:       1.9      1.386      4.207
REMARK  1 active torsions:
REMARK  status: ('A' for Active; 'I' for Inactive)
REMARK    1  A    between atoms: C4_4  and  C5_5 
ROOT
HETATM    1  C3  UNL     1     -32.964   6.041   3.289  1.00 20.00     0.116 C 
HETATM    2  C5  UNL     1     -33.175   7.954   1.492  1.00 20.00     0.286 C 
HETATM    3  C6  UNL     1     -33.858   7.233   3.670  1.00 20.00     0.160 C 
HETATM    4  C7  UNL     1     -35.349   6.942   3.416  1.00 20.00     0.049 C 
HETATM    5  C8  UNL     1     -33.671   7.575   5.154  1.00 20.00     0.049 C 
HETATM    6  N9  UNL     1     -33.391   8.381   2.875  1.00 20.00     0.107 N 
HETATM    7  S10 UNL     1     -32.652   6.220   1.515  1.00 20.00    -0.131 SA
HETATM    8  H25 UNL     1     -32.497   8.690   3.262  1.00 20.00     0.318 HD
ENDROOT
BRANCH   2   9
HETATM    9  C4  UNL     1     -32.135   8.811   0.844  1.00 20.00     0.029 A 
HETATM   10  C1  UNL     1     -32.293   9.245  -0.587  1.00 20.00     0.008 A 
HETATM   11  C2  UNL     1     -32.431  10.250   0.522  1.00 20.00     0.008 A 
ENDBRANCH   2   9
TORSDOF 1
ENDMDL
MODEL 4
REMARK VINA RESULT:       2.1      1.541      4.319
REMARK  1 active torsions:
REMARK  status: ('A' for Active; 'I' for Inactive)
REMARK    1  A    between atoms: C4_4  and  C5_5 
ROOT
HETATM    1  C3  UNL     1     -33.630   7.703   4.252  1.00 20.00     0.116 C 
HETATM    2  C5  UNL     1     -32.571   7.399   1.859  1.00 20.00     0.286 C 
HETATM    3  C6  UNL     1     -34.097   6.474   3.455  1.00 20.00     0.160 C 
HETATM    4  C7  UNL     1     -33.339   5.197   3.862  1.00 20.00     0.049 C 
HETATM    5  C8  UNL     1     -35.598   6.246   3.678  1.00 20.00     0.049 C 
HETATM    6  N9  UNL     1     -33.891   6.791   2.031  1.00 20.00     0.107 N 
HETATM    7  S10 UNL     1     -32.182   8.331   3.364  1.00 20.00    -0.131 SA
HETATM    8  H25 UNL     1     -34.600   7.472   1.754  1.00 20.00     0.318 HD
ENDROOT
BRANCH   2   9
HETATM    9  C4  UNL     1     -32.570   8.300   0.666  1.00 20.00     0.029 A 
HETATM   10  C1  UNL     1     -32.383   9.783   0.836  1.00 20.00     0.008 A 
HETATM   11  C2  UNL     1     -31.294   8.955   0.213  1.00 20.00     0.008 A 
ENDBRANCH   2   9
TORSDOF 1
ENDMDL
MODEL 5
REMARK VINA RESULT:       2.4      1.846      4.167
REMARK  1 active torsions:
REMARK  status: ('A' for Active; 'I' for Inactive)
REMARK    1  A    between atoms: C4_4  and  C5_5 
ROOT
HETATM    1  C3  UNL     1     -33.593   6.552   2.565  1.00 20.00     0.116 C 
HETATM    2  C5  UNL     1     -31.700   8.100   1.588  1.00 20.00     0.286 C 
HETATM    3  C6  UNL     1     -32.775   5.969   1.401  1.00 20.00     0.160 C 
HETATM    4  C7  UNL     1     -31.648   5.041   1.893  1.00 20.00     0.049 C 
HETATM    5  C8  UNL     1     -33.692   5.173   0.463  1.00 20.00     0.049 C 
HETATM    6  N9  UNL     1     -32.237   7.115   0.648  1.00 20.00     0.107 N 
HETATM    7  S10 UNL     1     -32.682   8.018   3.109  1.00 20.00    -0.131 SA
HETATM    8  H25 UNL     1     -33.009   7.544   0.135  1.00 20.00     0.318 HD
ENDROOT
BRANCH   2   9
HETATM    9  C4  UNL     1     -31.764   9.470   0.992  1.00 20.00     0.029 A 
HETATM   10  C1  UNL     1     -32.460   9.693  -0.322  1.00 20.00     0.008 A 
HETATM   11  C2  UNL     1     -33.069  10.216   0.948  1.00 20.00     0.008 A 
ENDBRANCH   2   9
TORSDOF 1
ENDMDL
MODEL 6
REMARK VINA RESULT:       2.7      1.499      2.127
REMARK  1 active torsions:
REMARK  status: ('A' for Active; 'I' for Inactive)
REMARK    1  A    between atoms: C4_4  and  C5_5 
ROOT
HETATM    1  C3  UNL     1     -31.366   8.361   3.181  1.00 20.00     0.116 C 
HETATM    2  C5  UNL     1     -33.896   7.711   3.520  1.00 20.00     0.286 C 
HETATM    3  C6  UNL     1     -32.144   7.982   1.910  1.00 20.00     0.160 C 
HETATM    4  C7  UNL     1     -32.650   9.222   1.150  1.00 20.00     0.049 C 
HETATM    5  C8  UNL     1     -31.248   7.163   0.972  1.00 20.00     0.049 C 
HETATM    6  N9  UNL     1     -33.260   7.122   2.340  1.00 20.00     0.107 N 
HETATM    7  S10 UNL     1     -32.621   8.584   4.467  1.00 20.00    -0.131 SA
HETATM    8  H25 UNL     1     -32.876   6.212   2.599  1.00 20.00     0.318 HD
ENDROOT
BRANCH   2   9
HETATM    9  C4  UNL     1     -34.531   6.642   4.350  1.00 20.00     0.029 A 
HETATM   10  C1  UNL     1     -35.754   5.922   3.853  1.00 20.00     0.008 A 
HETATM   11  C2  UNL     1     -34.437   5.201   3.931  1.00 20.00     0.008 A 
ENDBRANCH   2   9
TORSDOF 1
ENDMDL
MODEL 7
REMARK VINA RESULT:       3.6      2.067      3.038
REMARK  1 active torsions:
REMARK  status: ('A' for Active; 'I' for Inactive)
REMARK    1  A    between atoms: C4_4  and  C5_5 
ROOT
HETATM    1  C3  UNL     1     -31.714   7.000   1.147  1.00 20.00     0.116 C 
HETATM    2  C5  UNL     1     -33.659   7.062   2.923  1.00 20.00     0.286 C 
HETATM    3  C6  UNL     1     -32.618   5.758   1.205  1.00 20.00     0.160 C 
HETATM    4  C7  UNL     1     -33.715   5.789   0.125  1.00 20.00     0.049 C 
HETATM    5  C8  UNL     1     -31.777   4.489   1.015  1.00 20.00     0.049 C 
HETATM    6  N9  UNL     1     -33.198   5.721   2.559  1.00 20.00     0.107 N 
HETATM    7  S10 UNL     1     -32.572   8.267   2.116  1.00 20.00    -0.131 SA
HETATM    8  H25 UNL     1     -32.461   5.444   3.210  1.00 20.00     0.318 HD
ENDROOT
BRANCH   2   9
HETATM    9  C4  UNL     1     -33.626   7.234   4.408  1.00 20.00     0.029 A 
HETATM   10  C1  UNL     1     -32.804   8.331   5.026  1.00 20.00     0.008 A 
HETATM   11  C2  UNL     1     -34.305   8.413   5.049  1.00 20.00     0.008 A 
ENDBRANCH   2   9
TORSDOF 1
ENDMDL
MODEL 8
REMARK VINA RESULT:       3.7      1.933      3.580
REMARK  1 active torsions:
REMARK  status: ('A' for Active; 'I' for Inactive)
REMARK    1  A    between atoms: C4_4  and  C5_5 
ROOT
HETATM    1  C3  UNL     1     -34.119   8.451   2.653  1.00 20.00     0.116 C 
HETATM    2  C5  UNL     1     -32.149   6.784   2.128  1.00 20.00     0.286 C 
HETATM    3  C6  UNL     1     -33.962   7.264   3.617  1.00 20.00     0.160 C 
HETATM    4  C7  UNL     1     -33.186   7.651   4.890  1.00 20.00     0.049 C 
HETATM    5  C8  UNL     1     -35.342   6.735   4.026  1.00 20.00     0.049 C 
HETATM    6  N9  UNL     1     -33.270   6.202   2.868  1.00 20.00     0.107 N 
HETATM    7  S10 UNL     1     -32.602   8.477   1.667  1.00 20.00    -0.131 SA
HETATM    8  H25 UNL     1     -33.931   5.808   2.196  1.00 20.00     0.318 HD
ENDROOT
BRANCH   2   9
HETATM    9  C4  UNL     1     -31.854   5.967   0.911  1.00 20.00     0.029 A 
HETATM   10  C1  UNL     1     -31.462   4.522   1.045  1.00 20.00     0.008 A 
HETATM   11  C2  UNL     1     -32.804   4.886   0.476  1.00 20.00     0.008 A 
ENDBRANCH   2   9
TORSDOF 1
ENDMDL
MODEL 9
REMARK VINA RESULT:       3.8      2.349      3.300
REMARK  1 active torsions:
REMARK  status: ('A' for Active; 'I' for Inactive)
REMARK    1  A    between atoms: C4_4  and  C5_5 
ROOT
HETATM    1  C3  UNL     1     -33.964   6.423   2.084  1.00 20.00     0.116 C 
HETATM    2  C5  UNL     1     -33.466   4.842   4.131  1.00 20.00     0.286 C 
HETATM    3  C6  UNL     1     -34.725   6.736   3.382  1.00 20.00     0.160 C 
HETATM    4  C7  UNL     1     -34.052   7.860   4.191  1.00 20.00     0.049 C 
HETATM    5  C8  UNL     1     -36.163   7.160   3.056  1.00 20.00     0.049 C 
HETATM    6  N9  UNL     1     -34.783   5.480   4.150  1.00 20.00     0.107 N 
HETATM    7  S10 UNL     1     -32.669   5.248   2.555  1.00 20.00    -0.131 SA
HETATM    8  H25 UNL     1     -35.451   4.859   3.690  1.00 20.00     0.318 HD
ENDROOT
BRANCH   2   9
HETATM    9  C4  UNL     1     -33.608   3.362   4.284  1.00 20.00     0.029 A 
HETATM   10  C1  UNL     1     -32.401   2.470   4.179  1.00 20.00     0.008 A 
HETATM   11  C2  UNL     1     -33.072   2.673   5.509  1.00 20.00     0.008 A 
ENDBRANCH   2   9
TORSDOF 1
ENDMDL
