MODEL 1
REMARK VINA RESULT:      -0.3      0.000      0.000
REMARK  3 active torsions:
REMARK  status: ('A' for Active; 'I' for Inactive)
REMARK    1  A    between atoms: C3_3  and  C6_6 
REMARK    2  A    between atoms: C6_6  and  C8_8 
REMARK    3  A    between atoms: C7_7  and  C8_8 
ROOT
HETATM    1  C1  UNL     1     -32.822   4.707   2.469  1.00 20.00     0.285 C 
HETATM    2  C2  UNL     1     -34.011   4.577   3.418  1.00 20.00     0.073 C 
HETATM    3  C3  UNL     1     -33.600   6.934   2.298  1.00 20.00     0.282 C 
HETATM    4  C4  UNL     1     -33.672   3.808   4.684  1.00 20.00     0.023 C 
HETATM    5  N9  UNL     1     -33.123   5.784   1.514  1.00 20.00     0.098 N 
HETATM    6  S10 UNL     1     -34.453   6.299   3.775  1.00 20.00    -0.128 SA
HETATM    7  H27 UNL     1     -32.265   6.039   1.030  1.00 20.00     0.317 HD
ENDROOT
BRANCH   3   8
HETATM    8  C6  UNL     1     -32.442   7.840   2.701  1.00 20.00     0.046 C 
BRANCH   8   9
HETATM    9  C8  UNL     1     -31.747   8.436   1.478  1.00 20.00     0.002 C 
BRANCH   9  10
HETATM   10  C7  UNL     1     -32.401   9.750   1.053  1.00 20.00    -0.004 C 
HETATM   11  C5  UNL     1     -32.634   9.796  -0.448  1.00 20.00     0.005 C 
ENDBRANCH   9  10
ENDBRANCH   8   9
ENDBRANCH   3   8
TORSDOF 3
ENDMDL
MODEL 2
REMARK VINA RESULT:      -0.2      1.344      4.907
REMARK  3 active torsions:
REMARK  status: ('A' for Active; 'I' for Inactive)
REMARK    1  A    between atoms: C3_3  and  C6_6 
REMARK    2  A    between atoms: C6_6  and  C8_8 
REMARK    3  A    between atoms: C7_7  and  C8_8 
ROOT
HETATM    1  C1  UNL     1     -32.821   6.940   0.928  1.00 20.00     0.285 C 
HETATM    2  C2  UNL     1     -32.082   8.164   1.461  1.00 20.00     0.073 C 
HETATM    3  C3  UNL     1     -33.038   6.454   3.232  1.00 20.00     0.282 C 
HETATM    4  C4  UNL     1     -32.471   9.445   0.743  1.00 20.00     0.023 C 
HETATM    5  N9  UNL     1     -32.697   5.867   1.928  1.00 20.00     0.098 N 
HETATM    6  S10 UNL     1     -32.548   8.206   3.213  1.00 20.00    -0.128 SA
HETATM    7  H27 UNL     1     -33.366   5.134   1.703  1.00 20.00     0.317 HD
ENDROOT
BRANCH   3   8
HETATM    8  C6  UNL     1     -34.530   6.322   3.519  1.00 20.00     0.046 C 
BRANCH   8   9
HETATM    9  C8  UNL     1     -34.834   5.065   4.332  1.00 20.00     0.002 C 
BRANCH   9  10
HETATM   10  C7  UNL     1     -33.996   3.880   3.855  1.00 20.00    -0.004 C 
HETATM   11  C5  UNL     1     -33.281   3.201   5.013  1.00 20.00     0.005 C 
ENDBRANCH   9  10
ENDBRANCH   8   9
ENDBRANCH   3   8
TORSDOF 3
ENDMDL
MODEL 3
REMARK VINA RESULT:      -0.2      2.004      5.122
REMARK  3 active torsions:
REMARK  status: ('A' for Active; 'I' for Inactive)
REMARK    1  A    between atoms: C3_3  and  C6_6 
REMARK    2  A    between atoms: C6_6  and  C8_8 
REMARK    3  A    between atoms: C7_7  and  C8_8 
ROOT
HETATM    1  C1  UNL     1     -33.215   7.810   3.816  1.00 20.00     0.285 C 
HETATM    2  C2  UNL     1     -32.972   7.614   2.322  1.00 20.00     0.073 C 
HETATM    3  C3  UNL     1     -34.746   6.038   3.484  1.00 20.00     0.282 C 
HETATM    4  C4  UNL     1     -31.498   7.647   1.957  1.00 20.00     0.023 C 
HETATM    5  N9  UNL     1     -34.583   7.356   4.115  1.00 20.00     0.098 N 
HETATM    6  S10 UNL     1     -33.713   5.994   1.986  1.00 20.00    -0.128 SA
HETATM    7  H27 UNL     1     -34.681   7.262   5.124  1.00 20.00     0.317 HD
ENDROOT
BRANCH   3   8
HETATM    8  C6  UNL     1     -34.344   4.920   4.439  1.00 20.00     0.046 C 
BRANCH   8   9
HETATM    9  C8  UNL     1     -33.675   3.765   3.697  1.00 20.00     0.002 C 
BRANCH   9  10
HETATM   10  C7  UNL     1     -33.266   2.650   4.659  1.00 20.00    -0.004 C 
HETATM   11  C5  UNL     1     -32.613   3.208   5.913  1.00 20.00     0.005 C 
ENDBRANCH   9  10
ENDBRANCH   8   9
ENDBRANCH   3   8
TORSDOF 3
ENDMDL
MODEL 4
REMARK VINA RESULT:      -0.1      1.915      2.247
REMARK  3 active torsions:
REMARK  status: ('A' for Active; 'I' for Inactive)
REMARK    1  A    between atoms: C3_3  and  C6_6 
REMARK    2  A    between atoms: C6_6  and  C8_8 
REMARK    3  A    between atoms: C7_7  and  C8_8 
ROOT
HETATM    1  C1  UNL     1     -33.670   7.925   3.590  1.00 20.00     0.285 C 
HETATM    2  C2  UNL     1     -33.968   6.440   3.780  1.00 20.00     0.073 C 
HETATM    3  C3  UNL     1     -32.170   7.097   1.960  1.00 20.00     0.282 C 
HETATM    4  C4  UNL     1     -35.453   6.149   3.905  1.00 20.00     0.023 C 
HETATM    5  N9  UNL     1     -32.297   8.048   3.075  1.00 20.00     0.098 N 
HETATM    6  S10 UNL     1     -33.255   5.676   2.298  1.00 20.00    -0.128 SA
HETATM    7  H27 UNL     1     -32.163   8.995   2.727  1.00 20.00     0.317 HD
ENDROOT
BRANCH   3   8
HETATM    8  C6  UNL     1     -32.548   7.752   0.636  1.00 20.00     0.046 C 
BRANCH   8   9
HETATM    9  C8  UNL     1     -31.582   8.879   0.274  1.00 20.00     0.002 C 
BRANCH   9  10
HETATM   10  C7  UNL     1     -32.329  10.095  -0.272  1.00 20.00    -0.004 C 
HETATM   11  C5  UNL     1     -32.937  10.924   0.848  1.00 20.00     0.005 C 
ENDBRANCH   9  10
ENDBRANCH   8   9
ENDBRANCH   3   8
TORSDOF 3
ENDMDL
MODEL 5
REMARK VINA RESULT:       0.2      1.717      4.952
REMARK  3 active torsions:
REMARK  status: ('A' for Active; 'I' for Inactive)
REMARK    1  A    between atoms: C3_3  and  C6_6 
REMARK    2  A    between atoms: C6_6  and  C8_8 
REMARK    3  A    between atoms: C7_7  and  C8_8 
ROOT
HETATM    1  C1  UNL     1     -31.700   8.019   0.422  1.00 20.00     0.285 C 
HETATM    2  C2  UNL     1     -32.067   9.484   0.641  1.00 20.00     0.073 C 
HETATM    3  C3  UNL     1     -32.430   7.823   2.663  1.00 20.00     0.282 C 
HETATM    4  C4  UNL     1     -32.824  10.083  -0.532  1.00 20.00     0.023 C 
HETATM    5  N9  UNL     1     -31.360   7.437   1.730  1.00 20.00     0.098 N 
HETATM    6  S10 UNL     1     -33.079   9.442   2.145  1.00 20.00    -0.128 SA
HETATM    7  H27 UNL     1     -31.340   6.424   1.641  1.00 20.00     0.317 HD
ENDROOT
BRANCH   3   8
HETATM    8  C6  UNL     1     -33.546   6.783   2.676  1.00 20.00     0.046 C 
BRANCH   8   9
HETATM    9  C8  UNL     1     -34.508   7.012   3.839  1.00 20.00     0.002 C 
BRANCH   9  10
HETATM   10  C7  UNL     1     -35.234   5.722   4.221  1.00 20.00    -0.004 C 
HETATM   11  C5  UNL     1     -34.318   4.514   4.109  1.00 20.00     0.005 C 
ENDBRANCH   9  10
ENDBRANCH   8   9
ENDBRANCH   3   8
TORSDOF 3
ENDMDL
MODEL 6
REMARK VINA RESULT:       1.1      1.833      5.276
REMARK  3 active torsions:
REMARK  status: ('A' for Active; 'I' for Inactive)
REMARK    1  A    between atoms: C3_3  and  C6_6 
REMARK    2  A    between atoms: C6_6  and  C8_8 
REMARK    3  A    between atoms: C7_7  and  C8_8 
ROOT
HETATM    1  C1  UNL     1     -33.099   7.547   3.698  1.00 20.00     0.285 C 
HETATM    2  C2  UNL     1     -32.716   7.954   2.278  1.00 20.00     0.073 C 
HETATM    3  C3  UNL     1     -33.971   5.650   2.587  1.00 20.00     0.282 C 
HETATM    4  C4  UNL     1     -31.308   8.516   2.186  1.00 20.00     0.023 C 
HETATM    5  N9  UNL     1     -34.270   6.660   3.614  1.00 20.00     0.098 N 
HETATM    6  S10 UNL     1     -32.888   6.413   1.339  1.00 20.00    -0.128 SA
HETATM    7  H27 UNL     1     -34.395   6.199   4.513  1.00 20.00     0.317 HD
ENDROOT
BRANCH   3   8
HETATM    8  C6  UNL     1     -33.297   4.428   3.200  1.00 20.00     0.046 C 
BRANCH   8   9
HETATM    9  C8  UNL     1     -33.983   4.004   4.497  1.00 20.00     0.002 C 
BRANCH   9  10
HETATM   10  C7  UNL     1     -33.137   2.989   5.266  1.00 20.00    -0.004 C 
HETATM   11  C5  UNL     1     -33.214   1.608   4.636  1.00 20.00     0.005 C 
ENDBRANCH   9  10
ENDBRANCH   8   9
ENDBRANCH   3   8
TORSDOF 3
ENDMDL
MODEL 7
REMARK VINA RESULT:       1.2      1.675      4.852
REMARK  3 active torsions:
REMARK  status: ('A' for Active; 'I' for Inactive)
REMARK    1  A    between atoms: C3_3  and  C6_6 
REMARK    2  A    between atoms: C6_6  and  C8_8 
REMARK    3  A    between atoms: C7_7  and  C8_8 
ROOT
HETATM    1  C1  UNL     1     -31.570   8.215   0.333  1.00 20.00     0.285 C 
HETATM    2  C2  UNL     1     -32.098   9.580   0.766  1.00 20.00     0.073 C 
HETATM    3  C3  UNL     1     -32.463   7.552   2.420  1.00 20.00     0.282 C 
HETATM    4  C4  UNL     1     -32.810  10.319  -0.354  1.00 20.00     0.023 C 
HETATM    5  N9  UNL     1     -31.286   7.434   1.547  1.00 20.00     0.098 N 
HETATM    6  S10 UNL     1     -33.224   9.180   2.130  1.00 20.00    -0.128 SA
HETATM    7  H27 UNL     1     -31.157   6.459   1.284  1.00 20.00     0.317 HD
ENDROOT
BRANCH   3   8
HETATM    8  C6  UNL     1     -33.467   6.439   2.139  1.00 20.00     0.046 C 
BRANCH   8   9
HETATM    9  C8  UNL     1     -33.284   5.267   3.101  1.00 20.00     0.002 C 
BRANCH   9  10
HETATM   10  C7  UNL     1     -34.505   5.094   4.004  1.00 20.00    -0.004 C 
HETATM   11  C5  UNL     1     -35.384   6.335   3.995  1.00 20.00     0.005 C 
ENDBRANCH   9  10
ENDBRANCH   8   9
ENDBRANCH   3   8
TORSDOF 3
ENDMDL
MODEL 8
REMARK VINA RESULT:       1.6      1.176      1.238
REMARK  3 active torsions:
REMARK  status: ('A' for Active; 'I' for Inactive)
REMARK    1  A    between atoms: C3_3  and  C6_6 
REMARK    2  A    between atoms: C6_6  and  C8_8 
REMARK    3  A    between atoms: C7_7  and  C8_8 
ROOT
HETATM    1  C1  UNL     1     -33.430   5.000   3.148  1.00 20.00     0.285 C 
HETATM    2  C2  UNL     1     -34.724   5.758   3.426  1.00 20.00     0.073 C 
HETATM    3  C3  UNL     1     -33.050   6.811   1.676  1.00 20.00     0.282 C 
HETATM    4  C4  UNL     1     -35.063   5.821   4.906  1.00 20.00     0.023 C 
HETATM    5  N9  UNL     1     -32.986   5.346   1.788  1.00 20.00     0.098 N 
HETATM    6  S10 UNL     1     -34.402   7.405   2.739  1.00 20.00    -0.128 SA
HETATM    7  H27 UNL     1     -32.023   5.041   1.672  1.00 20.00     0.317 HD
ENDROOT
BRANCH   3   8
HETATM    8  C6  UNL     1     -31.729   7.450   2.090  1.00 20.00     0.046 C 
BRANCH   8   9
HETATM    9  C8  UNL     1     -31.684   8.931   1.718  1.00 20.00     0.002 C 
BRANCH   9  10
HETATM   10  C7  UNL     1     -31.982   9.140   0.234  1.00 20.00    -0.004 C 
HETATM   11  C5  UNL     1     -32.714  10.450  -0.008  1.00 20.00     0.005 C 
ENDBRANCH   9  10
ENDBRANCH   8   9
ENDBRANCH   3   8
TORSDOF 3
ENDMDL
MODEL 9
REMARK VINA RESULT:       1.6      2.180      4.270
REMARK  3 active torsions:
REMARK  status: ('A' for Active; 'I' for Inactive)
REMARK    1  A    between atoms: C3_3  and  C6_6 
REMARK    2  A    between atoms: C6_6  and  C8_8 
REMARK    3  A    between atoms: C7_7  and  C8_8 
ROOT
HETATM    1  C1  UNL     1     -31.471   7.052   2.217  1.00 20.00     0.285 C 
HETATM    2  C2  UNL     1     -32.025   6.264   1.033  1.00 20.00     0.073 C 
HETATM    3  C3  UNL     1     -33.753   7.589   2.527  1.00 20.00     0.282 C 
HETATM    4  C4  UNL     1     -31.406   4.883   0.905  1.00 20.00     0.023 C 
HETATM    5  N9  UNL     1     -32.399   8.160   2.495  1.00 20.00     0.098 N 
HETATM    6  S10 UNL     1     -33.802   6.176   1.381  1.00 20.00    -0.128 SA
HETATM    7  H27 UNL     1     -32.175   8.550   3.408  1.00 20.00     0.317 HD
ENDROOT
BRANCH   3   8
HETATM    8  C6  UNL     1     -34.126   7.142   3.937  1.00 20.00     0.046 C 
BRANCH   8   9
HETATM    9  C8  UNL     1     -35.336   6.211   3.925  1.00 20.00     0.002 C 
BRANCH   9  10
HETATM   10  C7  UNL     1     -35.079   4.957   4.761  1.00 20.00    -0.004 C 
HETATM   11  C5  UNL     1     -34.003   4.083   4.137  1.00 20.00     0.005 C 
ENDBRANCH   9  10
ENDBRANCH   8   9
ENDBRANCH   3   8
TORSDOF 3
ENDMDL
