MODEL 1
REMARK VINA RESULT:      -1.0      0.000      0.000
REMARK  2 active torsions:
REMARK  status: ('A' for Active; 'I' for Inactive)
REMARK    1  A    between atoms: C3_3  and  C6_6 
REMARK    2  A    between atoms: C6_6  and  C7_7 
ROOT
HETATM    1  C1  UNL     1     -32.725   7.928   3.774  1.00 20.00     0.285 C 
HETATM    2  C2  UNL     1     -32.161   7.573   2.398  1.00 20.00     0.073 C 
HETATM    3  C3  UNL     1     -34.356   6.312   3.182  1.00 20.00     0.282 C 
HETATM    4  C4  UNL     1     -32.482   8.615   1.333  1.00 20.00     0.023 C 
HETATM    5  N8  UNL     1     -34.162   7.642   3.766  1.00 20.00     0.098 N 
HETATM    6  S9  UNL     1     -32.996   6.009   2.006  1.00 20.00    -0.128 SA
HETATM    7  H24 UNL     1     -34.492   7.630   4.735  1.00 20.00     0.317 HD
ENDROOT
BRANCH   3   8
HETATM    8  C6  UNL     1     -34.382   5.217   4.245  1.00 20.00     0.046 C 
BRANCH   8   9
HETATM    9  C7  UNL     1     -33.759   3.923   3.730  1.00 20.00    -0.002 C 
HETATM   10  C5  UNL     1     -33.222   3.072   4.870  1.00 20.00     0.005 C 
ENDBRANCH   8   9
ENDBRANCH   3   8
TORSDOF 2
ENDMDL
MODEL 2
REMARK VINA RESULT:      -0.5      0.948      4.396
REMARK  2 active torsions:
REMARK  status: ('A' for Active; 'I' for Inactive)
REMARK    1  A    between atoms: C3_3  and  C6_6 
REMARK    2  A    between atoms: C6_6  and  C7_7 
ROOT
HETATM    1  C1  UNL     1     -34.622   6.878   3.764  1.00 20.00     0.285 C 
HETATM    2  C2  UNL     1     -34.265   5.593   3.017  1.00 20.00     0.073 C 
HETATM    3  C3  UNL     1     -32.533   7.595   2.901  1.00 20.00     0.282 C 
HETATM    4  C4  UNL     1     -33.761   4.488   3.937  1.00 20.00     0.023 C 
HETATM    5  N8  UNL     1     -33.376   7.572   4.100  1.00 20.00     0.098 N 
HETATM    6  S9  UNL     1     -32.936   6.126   1.900  1.00 20.00    -0.128 SA
HETATM    7  H24 UNL     1     -33.606   8.535   4.363  1.00 20.00     0.317 HD
ENDROOT
BRANCH   3   8
HETATM    8  C6  UNL     1     -32.741   8.862   2.078  1.00 20.00     0.046 C 
BRANCH   8   9
HETATM    9  C7  UNL     1     -32.037   8.774   0.727  1.00 20.00    -0.002 C 
HETATM   10  C5  UNL     1     -32.449   9.913  -0.192  1.00 20.00     0.005 C 
ENDBRANCH   8   9
ENDBRANCH   3   8
TORSDOF 2
ENDMDL
MODEL 3
REMARK VINA RESULT:      -0.4      1.965      4.554
REMARK  2 active torsions:
REMARK  status: ('A' for Active; 'I' for Inactive)
REMARK    1  A    between atoms: C3_3  and  C6_6 
REMARK    2  A    between atoms: C6_6  and  C7_7 
ROOT
HETATM    1  C1  UNL     1     -33.245   5.481   2.845  1.00 20.00     0.285 C 
HETATM    2  C2  UNL     1     -33.992   6.180   3.981  1.00 20.00     0.073 C 
HETATM    3  C3  UNL     1     -33.125   7.686   1.981  1.00 20.00     0.282 C 
HETATM    4  C4  UNL     1     -35.503   5.993   3.908  1.00 20.00     0.023 C 
HETATM    5  N8  UNL     1     -33.399   6.289   1.633  1.00 20.00     0.098 N 
HETATM    6  S9  UNL     1     -33.571   7.929   3.732  1.00 20.00    -0.128 SA
HETATM    7  H24 UNL     1     -32.706   5.975   0.947  1.00 20.00     0.317 HD
ENDROOT
BRANCH   3   8
HETATM    8  C6  UNL     1     -31.661   8.055   1.758  1.00 20.00     0.046 C 
BRANCH   8   9
HETATM    9  C7  UNL     1     -31.475   8.847   0.467  1.00 20.00    -0.002 C 
HETATM   10  C5  UNL     1     -32.498   9.966   0.348  1.00 20.00     0.005 C 
ENDBRANCH   8   9
ENDBRANCH   3   8
TORSDOF 2
ENDMDL
MODEL 4
REMARK VINA RESULT:       0.3      1.112      1.517
REMARK  2 active torsions:
REMARK  status: ('A' for Active; 'I' for Inactive)
REMARK    1  A    between atoms: C3_3  and  C6_6 
REMARK    2  A    between atoms: C6_6  and  C7_7 
ROOT
HETATM    1  C1  UNL     1     -32.081   8.122   3.054  1.00 20.00     0.285 C 
HETATM    2  C2  UNL     1     -31.748   7.993   1.568  1.00 20.00     0.073 C 
HETATM    3  C3  UNL     1     -33.544   6.321   2.568  1.00 20.00     0.282 C 
HETATM    4  C4  UNL     1     -32.416   9.061   0.710  1.00 20.00     0.023 C 
HETATM    5  N8  UNL     1     -33.435   7.605   3.265  1.00 20.00     0.098 N 
HETATM    6  S9  UNL     1     -32.408   6.355   1.143  1.00 20.00    -0.128 SA
HETATM    7  H24 UNL     1     -33.567   7.450   4.269  1.00 20.00     0.317 HD
ENDROOT
BRANCH   3   8
HETATM    8  C6  UNL     1     -33.206   5.144   3.479  1.00 20.00     0.046 C 
BRANCH   8   9
HETATM    9  C7  UNL     1     -34.459   4.560   4.125  1.00 20.00    -0.002 C 
HETATM   10  C5  UNL     1     -35.514   5.629   4.362  1.00 20.00     0.005 C 
ENDBRANCH   8   9
ENDBRANCH   3   8
TORSDOF 2
ENDMDL
MODEL 5
REMARK VINA RESULT:       0.8      1.728      1.966
REMARK  2 active torsions:
REMARK  status: ('A' for Active; 'I' for Inactive)
REMARK    1  A    between atoms: C3_3  and  C6_6 
REMARK    2  A    between atoms: C6_6  and  C7_7 
ROOT
HETATM    1  C1  UNL     1     -33.002   5.785   1.278  1.00 20.00     0.285 C 
HETATM    2  C2  UNL     1     -33.236   7.219   1.755  1.00 20.00     0.073 C 
HETATM    3  C3  UNL     1     -33.096   5.323   3.601  1.00 20.00     0.282 C 
HETATM    4  C4  UNL     1     -31.970   8.066   1.746  1.00 20.00     0.023 C 
HETATM    5  N8  UNL     1     -32.362   5.041   2.365  1.00 20.00     0.098 N 
HETATM    6  S9  UNL     1     -33.819   6.991   3.460  1.00 20.00    -0.128 SA
HETATM    7  H24 UNL     1     -32.435   4.041   2.156  1.00 20.00     0.317 HD
ENDROOT
BRANCH   3   8
HETATM    8  C6  UNL     1     -34.195   4.298   3.862  1.00 20.00     0.046 C 
BRANCH   8   9
HETATM    9  C7  UNL     1     -33.615   2.959   4.311  1.00 20.00    -0.002 C 
HETATM   10  C5  UNL     1     -32.655   3.132   5.478  1.00 20.00     0.005 C 
ENDBRANCH   8   9
ENDBRANCH   3   8
TORSDOF 2
ENDMDL
MODEL 6
REMARK VINA RESULT:       0.9      1.583      1.913
REMARK  2 active torsions:
REMARK  status: ('A' for Active; 'I' for Inactive)
REMARK    1  A    between atoms: C3_3  and  C6_6 
REMARK    2  A    between atoms: C6_6  and  C7_7 
ROOT
HETATM    1  C1  UNL     1     -33.259   6.878   1.144  1.00 20.00     0.285 C 
HETATM    2  C2  UNL     1     -32.528   8.089   1.725  1.00 20.00     0.073 C 
HETATM    3  C3  UNL     1     -33.489   6.306   3.434  1.00 20.00     0.282 C 
HETATM    4  C4  UNL     1     -31.012   7.979   1.618  1.00 20.00     0.023 C 
HETATM    5  N8  UNL     1     -33.158   5.778   2.107  1.00 20.00     0.098 N 
HETATM    6  S9  UNL     1     -33.030   8.069   3.470  1.00 20.00    -0.128 SA
HETATM    7  H24 UNL     1     -33.847   5.064   1.852  1.00 20.00     0.317 HD
ENDROOT
BRANCH   3   8
HETATM    8  C6  UNL     1     -34.971   6.144   3.761  1.00 20.00     0.046 C 
BRANCH   8   9
HETATM    9  C7  UNL     1     -35.232   4.864   4.550  1.00 20.00    -0.002 C 
HETATM   10  C5  UNL     1     -34.043   3.918   4.486  1.00 20.00     0.005 C 
ENDBRANCH   8   9
ENDBRANCH   3   8
TORSDOF 2
ENDMDL
