MODEL 1
REMARK VINA RESULT:      -1.5      0.000      0.000
REMARK  2 active torsions:
REMARK  status: ('A' for Active; 'I' for Inactive)
REMARK    1  A    between atoms: C3_3  and  C7_7 
REMARK    2  A    between atoms: C7_7  and  C8_8 
ROOT
HETATM    1  C1  UNL     1     -32.441   9.727   0.092  1.00 20.00     0.012 C 
HETATM    2  C2  UNL     1     -32.246   9.003   1.029  1.00 20.00    -0.116 C 
HETATM    3  C8  UNL     1     -32.004   8.124   2.178  1.00 20.00     0.113 C 
ENDROOT
BRANCH   3   4
HETATM    4  C7  UNL     1     -32.777   6.784   2.031  1.00 20.00     0.058 C 
HETATM    5  C5  UNL     1     -31.899   5.545   1.667  1.00 20.00     0.021 C 
HETATM    6  C4  UNL     1     -32.984   5.115   0.665  1.00 20.00     0.003 C 
HETATM    7  C6  UNL     1     -33.482   6.570   0.653  1.00 20.00     0.021 C 
BRANCH   4   8
HETATM    8  C3  UNL     1     -33.698   6.548   3.230  1.00 20.00     0.182 C 
HETATM    9  O9  UNL     1     -33.922   5.338   3.509  1.00 20.00    -0.647 OA
HETATM   10  O10 UNL     1     -34.118   7.600   3.789  1.00 20.00    -0.647 OA
ENDBRANCH   4   8
ENDBRANCH   3   4
TORSDOF 2
ENDMDL
MODEL 2
REMARK VINA RESULT:      -1.3      1.658      3.006
REMARK  2 active torsions:
REMARK  status: ('A' for Active; 'I' for Inactive)
REMARK    1  A    between atoms: C3_3  and  C7_7 
REMARK    2  A    between atoms: C7_7  and  C8_8 
ROOT
HETATM    1  C1  UNL     1     -31.747   7.902   1.207  1.00 20.00     0.012 C 
HETATM    2  C2  UNL     1     -32.401   6.960   1.562  1.00 20.00    -0.116 C 
HETATM    3  C8  UNL     1     -33.197   5.805   1.990  1.00 20.00     0.113 C 
ENDROOT
BRANCH   3   4
HETATM    4  C7  UNL     1     -33.912   6.087   3.340  1.00 20.00     0.058 C 
HETATM    5  C5  UNL     1     -35.073   7.129   3.275  1.00 20.00     0.021 C 
HETATM    6  C4  UNL     1     -34.547   7.746   4.582  1.00 20.00     0.003 C 
HETATM    7  C6  UNL     1     -33.183   7.099   4.281  1.00 20.00     0.021 C 
BRANCH   4   8
HETATM    8  C3  UNL     1     -34.303   4.781   4.037  1.00 20.00     0.182 C 
HETATM    9  O9  UNL     1     -33.435   3.866   3.996  1.00 20.00    -0.647 OA
HETATM   10  O10 UNL     1     -35.450   4.787   4.566  1.00 20.00    -0.647 OA
ENDBRANCH   4   8
ENDBRANCH   3   4
TORSDOF 2
ENDMDL
MODEL 3
REMARK VINA RESULT:      -1.2      1.973      3.491
REMARK  2 active torsions:
REMARK  status: ('A' for Active; 'I' for Inactive)
REMARK    1  A    between atoms: C3_3  and  C7_7 
REMARK    2  A    between atoms: C7_7  and  C8_8 
ROOT
HETATM    1  C1  UNL     1     -35.374   5.478   4.274  1.00 20.00     0.012 C 
HETATM    2  C2  UNL     1     -34.689   6.384   3.887  1.00 20.00    -0.116 C 
HETATM    3  C8  UNL     1     -33.854   7.497   3.421  1.00 20.00     0.113 C 
ENDROOT
BRANCH   3   4
HETATM    4  C7  UNL     1     -32.963   7.066   2.223  1.00 20.00     0.058 C 
HETATM    5  C5  UNL     1     -33.731   6.452   1.010  1.00 20.00     0.021 C 
HETATM    6  C4  UNL     1     -32.637   5.376   0.907  1.00 20.00     0.003 C 
HETATM    7  C6  UNL     1     -32.276   5.670   2.373  1.00 20.00     0.021 C 
BRANCH   4   8
HETATM    8  C3  UNL     1     -31.994   8.182   1.830  1.00 20.00     0.182 C 
HETATM    9  O9  UNL     1     -32.269   8.782   0.753  1.00 20.00    -0.647 OA
HETATM   10  O10 UNL     1     -31.039   8.363   2.637  1.00 20.00    -0.647 OA
ENDBRANCH   4   8
ENDBRANCH   3   4
TORSDOF 2
ENDMDL
MODEL 4
REMARK VINA RESULT:      -0.9      1.683      3.305
REMARK  2 active torsions:
REMARK  status: ('A' for Active; 'I' for Inactive)
REMARK    1  A    between atoms: C3_3  and  C7_7 
REMARK    2  A    between atoms: C7_7  and  C8_8 
ROOT
HETATM    1  C1  UNL     1     -35.323   6.359   3.838  1.00 20.00     0.012 C 
HETATM    2  C2  UNL     1     -34.262   6.904   3.709  1.00 20.00    -0.116 C 
HETATM    3  C8  UNL     1     -32.963   7.570   3.560  1.00 20.00     0.113 C 
ENDROOT
BRANCH   3   4
HETATM    4  C7  UNL     1     -32.495   7.560   2.079  1.00 20.00     0.058 C 
HETATM    5  C5  UNL     1     -31.104   8.219   1.815  1.00 20.00     0.021 C 
HETATM    6  C4  UNL     1     -31.700   8.894   0.567  1.00 20.00     0.003 C 
HETATM    7  C6  UNL     1     -33.095   8.691   1.183  1.00 20.00     0.021 C 
BRANCH   4   8
HETATM    8  C3  UNL     1     -32.633   6.163   1.470  1.00 20.00     0.182 C 
HETATM    9  O9  UNL     1     -33.661   5.983   0.759  1.00 20.00    -0.647 OA
HETATM   10  O10 UNL     1     -31.696   5.366   1.756  1.00 20.00    -0.647 OA
ENDBRANCH   4   8
ENDBRANCH   3   4
TORSDOF 2
ENDMDL
MODEL 5
REMARK VINA RESULT:      -0.7      1.356      2.556
REMARK  2 active torsions:
REMARK  status: ('A' for Active; 'I' for Inactive)
REMARK    1  A    between atoms: C3_3  and  C7_7 
REMARK    2  A    between atoms: C7_7  and  C8_8 
ROOT
HETATM    1  C1  UNL     1     -32.630   9.906   0.255  1.00 20.00     0.012 C 
HETATM    2  C2  UNL     1     -32.227   9.022   0.960  1.00 20.00    -0.116 C 
HETATM    3  C8  UNL     1     -31.726   7.944   1.820  1.00 20.00     0.113 C 
ENDROOT
BRANCH   3   4
HETATM    4  C7  UNL     1     -32.873   7.320   2.662  1.00 20.00     0.058 C 
HETATM    5  C5  UNL     1     -34.203   8.139   2.686  1.00 20.00     0.021 C 
HETATM    6  C4  UNL     1     -34.306   7.860   4.195  1.00 20.00     0.003 C 
HETATM    7  C6  UNL     1     -32.792   7.587   4.200  1.00 20.00     0.021 C 
BRANCH   4   8
HETATM    8  C3  UNL     1     -33.072   5.845   2.309  1.00 20.00     0.182 C 
HETATM    9  O9  UNL     1     -33.652   5.152   3.191  1.00 20.00    -0.647 OA
HETATM   10  O10 UNL     1     -32.630   5.507   1.175  1.00 20.00    -0.647 OA
ENDBRANCH   4   8
ENDBRANCH   3   4
TORSDOF 2
ENDMDL
MODEL 6
REMARK VINA RESULT:      -0.7      1.946      3.844
REMARK  2 active torsions:
REMARK  status: ('A' for Active; 'I' for Inactive)
REMARK    1  A    between atoms: C3_3  and  C7_7 
REMARK    2  A    between atoms: C7_7  and  C8_8 
ROOT
HETATM    1  C1  UNL     1     -33.284   2.931   4.652  1.00 20.00     0.012 C 
HETATM    2  C2  UNL     1     -33.784   3.928   4.209  1.00 20.00    -0.116 C 
HETATM    3  C8  UNL     1     -34.403   5.146   3.672  1.00 20.00     0.113 C 
ENDROOT
BRANCH   3   4
HETATM    4  C7  UNL     1     -33.438   5.884   2.704  1.00 20.00     0.058 C 
HETATM    5  C5  UNL     1     -33.746   5.696   1.185  1.00 20.00     0.021 C 
HETATM    6  C4  UNL     1     -32.238   5.517   0.937  1.00 20.00     0.003 C 
HETATM    7  C6  UNL     1     -32.086   5.151   2.424  1.00 20.00     0.021 C 
BRANCH   4   8
HETATM    8  C3  UNL     1     -33.263   7.348   3.114  1.00 20.00     0.182 C 
HETATM    9  O9  UNL     1     -33.968   7.723   4.092  1.00 20.00    -0.647 OA
HETATM   10  O10 UNL     1     -32.432   7.997   2.419  1.00 20.00    -0.647 OA
ENDBRANCH   4   8
ENDBRANCH   3   4
TORSDOF 2
ENDMDL
MODEL 7
REMARK VINA RESULT:      -0.7      1.893      3.815
REMARK  2 active torsions:
REMARK  status: ('A' for Active; 'I' for Inactive)
REMARK    1  A    between atoms: C3_3  and  C7_7 
REMARK    2  A    between atoms: C7_7  and  C8_8 
ROOT
HETATM    1  C1  UNL     1     -33.411   2.968   4.587  1.00 20.00     0.012 C 
HETATM    2  C2  UNL     1     -33.854   3.983   4.123  1.00 20.00    -0.116 C 
HETATM    3  C8  UNL     1     -34.402   5.222   3.562  1.00 20.00     0.113 C 
ENDROOT
BRANCH   3   4
HETATM    4  C7  UNL     1     -33.377   5.911   2.618  1.00 20.00     0.058 C 
HETATM    5  C5  UNL     1     -33.648   5.725   1.092  1.00 20.00     0.021 C 
HETATM    6  C4  UNL     1     -32.144   5.478   0.890  1.00 20.00     0.003 C 
HETATM    7  C6  UNL     1     -32.051   5.117   2.383  1.00 20.00     0.021 C 
BRANCH   4   8
HETATM    8  C3  UNL     1     -33.150   7.368   3.025  1.00 20.00     0.182 C 
HETATM    9  O9  UNL     1     -32.353   8.016   2.291  1.00 20.00    -0.647 OA
HETATM   10  O10 UNL     1     -33.793   7.739   4.047  1.00 20.00    -0.647 OA
ENDBRANCH   4   8
ENDBRANCH   3   4
TORSDOF 2
ENDMDL
MODEL 8
REMARK VINA RESULT:      -0.4      1.957      3.133
REMARK  2 active torsions:
REMARK  status: ('A' for Active; 'I' for Inactive)
REMARK    1  A    between atoms: C3_3  and  C7_7 
REMARK    2  A    between atoms: C7_7  and  C8_8 
ROOT
HETATM    1  C1  UNL     1     -31.894   4.903   1.038  1.00 20.00     0.012 C 
HETATM    2  C2  UNL     1     -32.597   5.813   1.383  1.00 20.00    -0.116 C 
HETATM    3  C8  UNL     1     -33.455   6.929   1.795  1.00 20.00     0.113 C 
ENDROOT
BRANCH   3   4
HETATM    4  C7  UNL     1     -33.956   6.740   3.253  1.00 20.00     0.058 C 
HETATM    5  C5  UNL     1     -33.872   5.281   3.804  1.00 20.00     0.021 C 
HETATM    6  C4  UNL     1     -35.269   5.469   4.419  1.00 20.00     0.003 C 
HETATM    7  C6  UNL     1     -35.506   6.609   3.413  1.00 20.00     0.021 C 
BRANCH   4   8
HETATM    8  C3  UNL     1     -33.334   7.781   4.187  1.00 20.00     0.182 C 
HETATM    9  O9  UNL     1     -34.027   8.084   5.197  1.00 20.00    -0.647 OA
HETATM   10  O10 UNL     1     -32.200   8.205   3.825  1.00 20.00    -0.647 OA
ENDBRANCH   4   8
ENDBRANCH   3   4
TORSDOF 2
ENDMDL
MODEL 9
REMARK VINA RESULT:      -0.2      2.209      4.443
REMARK  2 active torsions:
REMARK  status: ('A' for Active; 'I' for Inactive)
REMARK    1  A    between atoms: C3_3  and  C7_7 
REMARK    2  A    between atoms: C7_7  and  C8_8 
ROOT
HETATM    1  C1  UNL     1     -33.063   3.178   4.916  1.00 20.00     0.012 C 
HETATM    2  C2  UNL     1     -33.724   3.926   4.250  1.00 20.00    -0.116 C 
HETATM    3  C8  UNL     1     -34.539   4.834   3.435  1.00 20.00     0.113 C 
ENDROOT
BRANCH   3   4
HETATM    4  C7  UNL     1     -33.894   6.245   3.355  1.00 20.00     0.058 C 
HETATM    5  C5  UNL     1     -33.242   6.756   4.679  1.00 20.00     0.021 C 
HETATM    6  C4  UNL     1     -33.870   8.135   4.415  1.00 20.00     0.003 C 
HETATM    7  C6  UNL     1     -34.890   7.442   3.495  1.00 20.00     0.021 C 
BRANCH   4   8
HETATM    8  C3  UNL     1     -32.973   6.359   2.138  1.00 20.00     0.182 C 
HETATM    9  O9  UNL     1     -32.422   7.484   1.981  1.00 20.00    -0.647 OA
HETATM   10  O10 UNL     1     -32.881   5.308   1.444  1.00 20.00    -0.647 OA
ENDBRANCH   4   8
ENDBRANCH   3   4
TORSDOF 2
ENDMDL
