MODEL 1
REMARK VINA RESULT:      -1.5      0.000      0.000
REMARK  3 active torsions:
REMARK  status: ('A' for Active; 'I' for Inactive)
REMARK    1  A    between atoms: C4_4  and  C7_7 
REMARK    2  A    between atoms: C7_7  and  O10_10 
REMARK    3  A    between atoms: C8_8  and  O10_10 
ROOT
HETATM    1  C1  UNL     1     -34.036   4.588   3.997  1.00 20.00     0.071 C 
HETATM    2  C2  UNL     1     -35.669   6.480   3.662  1.00 20.00     0.028 A 
HETATM    3  C3  UNL     1     -34.604   6.969   4.600  1.00 20.00     0.028 A 
HETATM    4  C4  UNL     1     -34.261   5.938   3.548  1.00 20.00     0.070 A 
HETATM    5  N9  UNL     1     -33.854   3.501   4.359  1.00 20.00    -0.196 NA
ENDROOT
BRANCH   4   6
HETATM    6  C7  UNL     1     -33.428   6.373   2.376  1.00 20.00     0.192 C 
BRANCH   6   7
HETATM    7  O10 UNL     1     -32.971   7.704   2.587  1.00 20.00    -0.385 OA
BRANCH   7   8
HETATM    8  C8  UNL     1     -31.867   8.014   1.749  1.00 20.00     0.113 C 
HETATM    9  C5  UNL     1     -31.472   6.773   0.962  1.00 20.00     0.039 C 
HETATM   10  C6  UNL     1     -32.242   9.169   0.834  1.00 20.00     0.039 C 
ENDBRANCH   7   8
ENDBRANCH   6   7
ENDBRANCH   4   6
TORSDOF 3
ENDMDL
MODEL 2
REMARK VINA RESULT:      -1.2      0.599      1.162
REMARK  3 active torsions:
REMARK  status: ('A' for Active; 'I' for Inactive)
REMARK    1  A    between atoms: C4_4  and  C7_7 
REMARK    2  A    between atoms: C7_7  and  O10_10 
REMARK    3  A    between atoms: C8_8  and  O10_10 
ROOT
HETATM    1  C1  UNL     1     -33.969   4.607   3.942  1.00 20.00     0.071 C 
HETATM    2  C2  UNL     1     -35.433   6.609   3.491  1.00 20.00     0.028 A 
HETATM    3  C3  UNL     1     -34.304   7.069   4.365  1.00 20.00     0.028 A 
HETATM    4  C4  UNL     1     -34.084   5.933   3.392  1.00 20.00     0.070 A 
HETATM    5  N9  UNL     1     -33.876   3.538   4.384  1.00 20.00    -0.196 NA
ENDROOT
BRANCH   4   6
HETATM    6  C7  UNL     1     -33.247   6.198   2.173  1.00 20.00     0.192 C 
BRANCH   6   7
HETATM    7  O10 UNL     1     -33.306   7.583   1.848  1.00 20.00    -0.385 OA
BRANCH   7   8
HETATM    8  C8  UNL     1     -32.032   8.086   1.476  1.00 20.00     0.113 C 
HETATM    9  C5  UNL     1     -32.216   9.306   0.586  1.00 20.00     0.039 C 
HETATM   10  C6  UNL     1     -31.238   8.415   2.731  1.00 20.00     0.039 C 
ENDBRANCH   7   8
ENDBRANCH   6   7
ENDBRANCH   4   6
TORSDOF 3
ENDMDL
MODEL 3
REMARK VINA RESULT:      -1.1      1.717      2.904
REMARK  3 active torsions:
REMARK  status: ('A' for Active; 'I' for Inactive)
REMARK    1  A    between atoms: C4_4  and  C7_7 
REMARK    2  A    between atoms: C7_7  and  O10_10 
REMARK    3  A    between atoms: C8_8  and  O10_10 
ROOT
HETATM    1  C1  UNL     1     -33.676   6.537   2.953  1.00 20.00     0.071 C 
HETATM    2  C2  UNL     1     -32.068   5.116   1.630  1.00 20.00     0.028 A 
HETATM    3  C3  UNL     1     -33.061   5.687   0.660  1.00 20.00     0.028 A 
HETATM    4  C4  UNL     1     -32.692   6.466   1.903  1.00 20.00     0.070 A 
HETATM    5  N9  UNL     1     -34.469   6.595   3.798  1.00 20.00    -0.196 NA
ENDROOT
BRANCH   4   6
HETATM    6  C7  UNL     1     -31.833   7.688   1.744  1.00 20.00     0.192 C 
BRANCH   6   7
HETATM    7  O10 UNL     1     -32.662   8.829   1.555  1.00 20.00    -0.385 OA
BRANCH   7   8
HETATM    8  C8  UNL     1     -32.150   9.683   0.543  1.00 20.00     0.113 C 
HETATM    9  C5  UNL     1     -32.524   9.123  -0.821  1.00 20.00     0.039 C 
HETATM   10  C6  UNL     1     -32.698  11.087   0.748  1.00 20.00     0.039 C 
ENDBRANCH   7   8
ENDBRANCH   6   7
ENDBRANCH   4   6
TORSDOF 3
ENDMDL
MODEL 4
REMARK VINA RESULT:      -1.0      0.821      1.060
REMARK  3 active torsions:
REMARK  status: ('A' for Active; 'I' for Inactive)
REMARK    1  A    between atoms: C4_4  and  C7_7 
REMARK    2  A    between atoms: C7_7  and  O10_10 
REMARK    3  A    between atoms: C8_8  and  O10_10 
ROOT
HETATM    1  C1  UNL     1     -33.944   4.575   3.856  1.00 20.00     0.071 C 
HETATM    2  C2  UNL     1     -35.481   6.558   3.618  1.00 20.00     0.028 A 
HETATM    3  C3  UNL     1     -34.211   7.051   4.248  1.00 20.00     0.028 A 
HETATM    4  C4  UNL     1     -34.170   5.881   3.291  1.00 20.00     0.070 A 
HETATM    5  N9  UNL     1     -33.761   3.523   4.311  1.00 20.00    -0.196 NA
ENDROOT
BRANCH   4   6
HETATM    6  C7  UNL     1     -33.579   6.102   1.928  1.00 20.00     0.192 C 
BRANCH   6   7
HETATM    7  O10 UNL     1     -32.268   6.641   2.060  1.00 20.00    -0.385 OA
BRANCH   7   8
HETATM    8  C8  UNL     1     -32.272   8.055   1.941  1.00 20.00     0.113 C 
HETATM    9  C5  UNL     1     -31.336   8.648   2.984  1.00 20.00     0.039 C 
HETATM   10  C6  UNL     1     -31.861   8.439   0.528  1.00 20.00     0.039 C 
ENDBRANCH   7   8
ENDBRANCH   6   7
ENDBRANCH   4   6
TORSDOF 3
ENDMDL
MODEL 5
REMARK VINA RESULT:      -0.5      2.526      4.607
REMARK  3 active torsions:
REMARK  status: ('A' for Active; 'I' for Inactive)
REMARK    1  A    between atoms: C4_4  and  C7_7 
REMARK    2  A    between atoms: C7_7  and  O10_10 
REMARK    3  A    between atoms: C8_8  and  O10_10 
ROOT
HETATM    1  C1  UNL     1     -32.343   7.826   1.437  1.00 20.00     0.071 C 
HETATM    2  C2  UNL     1     -33.106   5.602   0.528  1.00 20.00     0.028 A 
HETATM    3  C3  UNL     1     -31.866   5.352   1.336  1.00 20.00     0.028 A 
HETATM    4  C4  UNL     1     -32.793   6.486   1.714  1.00 20.00     0.070 A 
HETATM    5  N9  UNL     1     -31.980   8.905   1.214  1.00 20.00    -0.196 NA
ENDROOT
BRANCH   4   6
HETATM    6  C7  UNL     1     -33.629   6.333   2.952  1.00 20.00     0.192 C 
BRANCH   6   7
HETATM    7  O10 UNL     1     -33.127   5.256   3.735  1.00 20.00    -0.385 OA
BRANCH   7   8
HETATM    8  C8  UNL     1     -34.116   4.260   3.947  1.00 20.00     0.113 C 
HETATM    9  C5  UNL     1     -33.504   3.104   4.724  1.00 20.00     0.039 C 
HETATM   10  C6  UNL     1     -35.296   4.875   4.684  1.00 20.00     0.039 C 
ENDBRANCH   7   8
ENDBRANCH   6   7
ENDBRANCH   4   6
TORSDOF 3
ENDMDL
MODEL 6
REMARK VINA RESULT:      -0.5      1.599      4.067
REMARK  3 active torsions:
REMARK  status: ('A' for Active; 'I' for Inactive)
REMARK    1  A    between atoms: C4_4  and  C7_7 
REMARK    2  A    between atoms: C7_7  and  O10_10 
REMARK    3  A    between atoms: C8_8  and  O10_10 
ROOT
HETATM    1  C1  UNL     1     -32.426   6.210   1.551  1.00 20.00     0.071 C 
HETATM    2  C2  UNL     1     -31.335   8.377   2.233  1.00 20.00     0.028 A 
HETATM    3  C3  UNL     1     -32.240   8.678   1.074  1.00 20.00     0.028 A 
HETATM    4  C4  UNL     1     -32.590   7.559   2.029  1.00 20.00     0.070 A 
HETATM    5  N9  UNL     1     -32.295   5.123   1.167  1.00 20.00    -0.196 NA
ENDROOT
BRANCH   4   6
HETATM    6  C7  UNL     1     -33.735   7.770   2.977  1.00 20.00     0.192 C 
BRANCH   6   7
HETATM    7  O10 UNL     1     -33.611   6.879   4.079  1.00 20.00    -0.385 OA
BRANCH   7   8
HETATM    8  C8  UNL     1     -34.811   6.154   4.302  1.00 20.00     0.113 C 
HETATM    9  C5  UNL     1     -35.865   6.615   3.306  1.00 20.00     0.039 C 
HETATM   10  C6  UNL     1     -34.527   4.665   4.178  1.00 20.00     0.039 C 
ENDBRANCH   7   8
ENDBRANCH   6   7
ENDBRANCH   4   6
TORSDOF 3
ENDMDL
MODEL 7
REMARK VINA RESULT:      -0.5      2.064      4.147
REMARK  3 active torsions:
REMARK  status: ('A' for Active; 'I' for Inactive)
REMARK    1  A    between atoms: C4_4  and  C7_7 
REMARK    2  A    between atoms: C7_7  and  O10_10 
REMARK    3  A    between atoms: C8_8  and  O10_10 
ROOT
HETATM    1  C1  UNL     1     -33.121   7.867   3.797  1.00 20.00     0.071 C 
HETATM    2  C2  UNL     1     -32.766   8.332   1.345  1.00 20.00     0.028 A 
HETATM    3  C3  UNL     1     -31.518   7.678   1.861  1.00 20.00     0.028 A 
HETATM    4  C4  UNL     1     -32.854   7.340   2.483  1.00 20.00     0.070 A 
HETATM    5  N9  UNL     1     -33.337   8.291   4.856  1.00 20.00    -0.196 NA
ENDROOT
BRANCH   4   6
HETATM    6  C7  UNL     1     -33.444   5.989   2.201  1.00 20.00     0.192 C 
BRANCH   6   7
HETATM    7  O10 UNL     1     -32.992   5.059   3.179  1.00 20.00    -0.385 OA
BRANCH   7   8
HETATM    8  C8  UNL     1     -34.056   4.251   3.660  1.00 20.00     0.113 C 
HETATM    9  C5  UNL     1     -33.493   3.185   4.589  1.00 20.00     0.039 C 
HETATM   10  C6  UNL     1     -35.076   5.133   4.363  1.00 20.00     0.039 C 
ENDBRANCH   7   8
ENDBRANCH   6   7
ENDBRANCH   4   6
TORSDOF 3
ENDMDL
MODEL 8
REMARK VINA RESULT:      -0.4      2.315      4.374
REMARK  3 active torsions:
REMARK  status: ('A' for Active; 'I' for Inactive)
REMARK    1  A    between atoms: C4_4  and  C7_7 
REMARK    2  A    between atoms: C7_7  and  O10_10 
REMARK    3  A    between atoms: C8_8  and  O10_10 
ROOT
HETATM    1  C1  UNL     1     -32.298   7.533   1.570  1.00 20.00     0.071 C 
HETATM    2  C2  UNL     1     -33.277   5.434   0.574  1.00 20.00     0.028 A 
HETATM    3  C3  UNL     1     -31.882   5.108   1.023  1.00 20.00     0.028 A 
HETATM    4  C4  UNL     1     -32.682   6.158   1.761  1.00 20.00     0.070 A 
HETATM    5  N9  UNL     1     -31.989   8.641   1.417  1.00 20.00    -0.196 NA
ENDROOT
BRANCH   4   6
HETATM    6  C7  UNL     1     -33.201   5.820   3.129  1.00 20.00     0.192 C 
BRANCH   6   7
HETATM    7  O10 UNL     1     -33.959   6.914   3.633  1.00 20.00    -0.385 OA
BRANCH   7   8
HETATM    8  C8  UNL     1     -35.224   6.491   4.119  1.00 20.00     0.113 C 
HETATM    9  C5  UNL     1     -36.281   6.750   3.056  1.00 20.00     0.039 C 
HETATM   10  C6  UNL     1     -35.149   5.019   4.496  1.00 20.00     0.039 C 
ENDBRANCH   7   8
ENDBRANCH   6   7
ENDBRANCH   4   6
TORSDOF 3
ENDMDL
MODEL 9
REMARK VINA RESULT:      -0.3      1.724      2.068
REMARK  3 active torsions:
REMARK  status: ('A' for Active; 'I' for Inactive)
REMARK    1  A    between atoms: C4_4  and  C7_7 
REMARK    2  A    between atoms: C7_7  and  O10_10 
REMARK    3  A    between atoms: C8_8  and  O10_10 
ROOT
HETATM    1  C1  UNL     1     -33.873   7.655   4.767  1.00 20.00     0.071 C 
HETATM    2  C2  UNL     1     -34.680   5.319   4.268  1.00 20.00     0.028 A 
HETATM    3  C3  UNL     1     -35.741   6.270   3.794  1.00 20.00     0.028 A 
HETATM    4  C4  UNL     1     -34.290   6.695   3.777  1.00 20.00     0.070 A 
HETATM    5  N9  UNL     1     -33.536   8.428   5.564  1.00 20.00    -0.196 NA
ENDROOT
BRANCH   4   6
HETATM    6  C7  UNL     1     -33.600   6.803   2.447  1.00 20.00     0.192 C 
BRANCH   6   7
HETATM    7  O10 UNL     1     -32.725   7.926   2.455  1.00 20.00    -0.385 OA
BRANCH   7   8
HETATM    8  C8  UNL     1     -31.689   7.786   1.494  1.00 20.00     0.113 C 
HETATM    9  C5  UNL     1     -31.719   6.374   0.928  1.00 20.00     0.039 C 
HETATM   10  C6  UNL     1     -31.869   8.836   0.408  1.00 20.00     0.039 C 
ENDBRANCH   7   8
ENDBRANCH   6   7
ENDBRANCH   4   6
TORSDOF 3
ENDMDL
