MODEL 1
REMARK VINA RESULT:       0.1      0.000      0.000
REMARK  2 active torsions:
REMARK  status: ('A' for Active; 'I' for Inactive)
REMARK    1  A    between atoms: C3_3  and  C7_7 
REMARK    2  A    between atoms: C7_7  and  C8_8 
ROOT
HETATM    1  C1  UNL     1     -32.639   8.573   2.887  1.00 20.00     0.111 C 
HETATM    2  C2  UNL     1     -32.027   7.621   1.861  1.00 20.00     0.227 C 
HETATM    3  C3  UNL     1     -33.698   6.164   2.712  1.00 20.00     0.282 C 
HETATM    4  C4  UNL     1     -31.522   8.372   0.635  1.00 20.00     0.043 C 
HETATM    5  N9  UNL     1     -33.069   6.652   1.474  1.00 20.00     0.102 N 
HETATM    6  S10 UNL     1     -33.630   7.496   3.947  1.00 20.00    -0.132 SA
HETATM    7  H27 UNL     1     -33.780   7.148   0.934  1.00 20.00     0.317 HD
ENDROOT
BRANCH   3   8
HETATM    8  C7  UNL     1     -32.985   4.920   3.232  1.00 20.00     0.050 C 
BRANCH   8   9
HETATM    9  C8  UNL     1     -33.928   3.917   3.917  1.00 20.00    -0.020 C 
HETATM   10  C5  UNL     1     -33.192   2.993   4.888  1.00 20.00     0.009 C 
HETATM   11  C6  UNL     1     -35.034   4.672   4.659  1.00 20.00     0.009 C 
ENDBRANCH   8   9
ENDBRANCH   3   8
TORSDOF 2
ENDMDL
MODEL 2
REMARK VINA RESULT:       0.3      1.951      4.884
REMARK  2 active torsions:
REMARK  status: ('A' for Active; 'I' for Inactive)
REMARK    1  A    between atoms: C3_3  and  C7_7 
REMARK    2  A    between atoms: C7_7  and  C8_8 
ROOT
HETATM    1  C1  UNL     1     -33.661   7.793   4.574  1.00 20.00     0.111 C 
HETATM    2  C2  UNL     1     -34.417   6.985   3.521  1.00 20.00     0.227 C 
HETATM    3  C3  UNL     1     -32.413   7.335   2.297  1.00 20.00     0.282 C 
HETATM    4  C4  UNL     1     -35.332   5.949   4.164  1.00 20.00     0.043 C 
HETATM    5  N9  UNL     1     -33.416   6.324   2.664  1.00 20.00     0.102 N 
HETATM    6  S10 UNL     1     -32.292   8.534   3.658  1.00 20.00    -0.132 SA
HETATM    7  H27 UNL     1     -32.951   5.603   3.218  1.00 20.00     0.317 HD
ENDROOT
BRANCH   3   8
HETATM    8  C7  UNL     1     -32.797   8.040   1.000  1.00 20.00     0.050 C 
BRANCH   8   9
HETATM    9  C8  UNL     1     -31.901   9.244   0.670  1.00 20.00    -0.020 C 
HETATM   10  C5  UNL     1     -30.915   8.946  -0.461  1.00 20.00     0.009 C 
HETATM   11  C6  UNL     1     -32.769  10.447   0.296  1.00 20.00     0.009 C 
ENDBRANCH   8   9
ENDBRANCH   3   8
TORSDOF 2
ENDMDL
MODEL 3
REMARK VINA RESULT:       0.4      2.214      2.939
REMARK  2 active torsions:
REMARK  status: ('A' for Active; 'I' for Inactive)
REMARK    1  A    between atoms: C3_3  and  C7_7 
REMARK    2  A    between atoms: C7_7  and  C8_8 
ROOT
HETATM    1  C1  UNL     1     -31.292   8.559   0.218  1.00 20.00     0.111 C 
HETATM    2  C2  UNL     1     -32.605   9.238   0.602  1.00 20.00     0.227 C 
HETATM    3  C3  UNL     1     -32.413   7.800   2.481  1.00 20.00     0.282 C 
HETATM    4  C4  UNL     1     -32.643  10.686   0.127  1.00 20.00     0.043 C 
HETATM    5  N9  UNL     1     -32.726   9.178   2.070  1.00 20.00     0.102 N 
HETATM    6  S10 UNL     1     -31.215   7.114   1.299  1.00 20.00    -0.132 SA
HETATM    7  H27 UNL     1     -32.020   9.796   2.473  1.00 20.00     0.317 HD
ENDROOT
BRANCH   3   8
HETATM    8  C7  UNL     1     -33.674   6.942   2.519  1.00 20.00     0.050 C 
BRANCH   8   9
HETATM    9  C8  UNL     1     -34.567   7.223   3.738  1.00 20.00    -0.020 C 
HETATM   10  C5  UNL     1     -35.292   5.970   4.232  1.00 20.00     0.009 C 
HETATM   11  C6  UNL     1     -33.725   7.814   4.871  1.00 20.00     0.009 C 
ENDBRANCH   8   9
ENDBRANCH   3   8
TORSDOF 2
ENDMDL
MODEL 4
REMARK VINA RESULT:       0.5      1.268      4.594
REMARK  2 active torsions:
REMARK  status: ('A' for Active; 'I' for Inactive)
REMARK    1  A    between atoms: C3_3  and  C7_7 
REMARK    2  A    between atoms: C7_7  and  C8_8 
ROOT
HETATM    1  C1  UNL     1     -35.220   5.053   4.349  1.00 20.00     0.111 C 
HETATM    2  C2  UNL     1     -33.974   4.427   3.725  1.00 20.00     0.227 C 
HETATM    3  C3  UNL     1     -33.410   6.707   3.378  1.00 20.00     0.282 C 
HETATM    4  C4  UNL     1     -33.589   3.131   4.429  1.00 20.00     0.043 C 
HETATM    5  N9  UNL     1     -32.880   5.410   3.830  1.00 20.00     0.102 N 
HETATM    6  S10 UNL     1     -35.182   6.766   3.777  1.00 20.00    -0.132 SA
HETATM    7  H27 UNL     1     -32.625   5.499   4.815  1.00 20.00     0.317 HD
ENDROOT
BRANCH   3   8
HETATM    8  C7  UNL     1     -33.194   6.892   1.880  1.00 20.00     0.050 C 
BRANCH   8   9
HETATM    9  C8  UNL     1     -32.033   7.841   1.542  1.00 20.00    -0.020 C 
HETATM   10  C5  UNL     1     -32.449   8.953   0.578  1.00 20.00     0.009 C 
HETATM   11  C6  UNL     1     -31.476   8.454   2.829  1.00 20.00     0.009 C 
ENDBRANCH   8   9
ENDBRANCH   3   8
TORSDOF 2
ENDMDL
MODEL 5
REMARK VINA RESULT:       0.6      1.733      4.933
REMARK  2 active torsions:
REMARK  status: ('A' for Active; 'I' for Inactive)
REMARK    1  A    between atoms: C3_3  and  C7_7 
REMARK    2  A    between atoms: C7_7  and  C8_8 
ROOT
HETATM    1  C1  UNL     1     -33.442   5.699   2.835  1.00 20.00     0.111 C 
HETATM    2  C2  UNL     1     -32.814   6.012   1.478  1.00 20.00     0.227 C 
HETATM    3  C3  UNL     1     -32.465   8.125   2.501  1.00 20.00     0.282 C 
HETATM    4  C4  UNL     1     -32.145   4.781   0.876  1.00 20.00     0.043 C 
HETATM    5  N9  UNL     1     -31.824   7.085   1.682  1.00 20.00     0.102 N 
HETATM    6  S10 UNL     1     -33.675   7.322   3.594  1.00 20.00    -0.132 SA
HETATM    7  H27 UNL     1     -31.043   6.699   2.214  1.00 20.00     0.317 HD
ENDROOT
BRANCH   3   8
HETATM    8  C7  UNL     1     -33.149   9.167   1.623  1.00 20.00     0.050 C 
BRANCH   8   9
HETATM    9  C8  UNL     1     -32.217   9.788   0.570  1.00 20.00    -0.020 C 
HETATM   10  C5  UNL     1     -32.546   9.323  -0.849  1.00 20.00     0.009 C 
HETATM   11  C6  UNL     1     -32.296  11.314   0.646  1.00 20.00     0.009 C 
ENDBRANCH   8   9
ENDBRANCH   3   8
TORSDOF 2
ENDMDL
MODEL 6
REMARK VINA RESULT:       0.7      2.343      2.997
REMARK  2 active torsions:
REMARK  status: ('A' for Active; 'I' for Inactive)
REMARK    1  A    between atoms: C3_3  and  C7_7 
REMARK    2  A    between atoms: C7_7  and  C8_8 
ROOT
HETATM    1  C1  UNL     1     -31.329   8.605   0.046  1.00 20.00     0.111 C 
HETATM    2  C2  UNL     1     -32.585   9.343   0.506  1.00 20.00     0.227 C 
HETATM    3  C3  UNL     1     -32.356   7.884   2.365  1.00 20.00     0.282 C 
HETATM    4  C4  UNL     1     -32.582  10.794   0.041  1.00 20.00     0.043 C 
HETATM    5  N9  UNL     1     -32.627   9.278   1.979  1.00 20.00     0.102 N 
HETATM    6  S10 UNL     1     -31.260   7.151   1.115  1.00 20.00    -0.132 SA
HETATM    7  H27 UNL     1     -31.870   9.859   2.344  1.00 20.00     0.317 HD
ENDROOT
BRANCH   3   8
HETATM    8  C7  UNL     1     -33.652   7.086   2.471  1.00 20.00     0.050 C 
BRANCH   8   9
HETATM    9  C8  UNL     1     -34.037   6.736   3.917  1.00 20.00    -0.020 C 
HETATM   10  C5  UNL     1     -33.904   7.930   4.864  1.00 20.00     0.009 C 
HETATM   11  C6  UNL     1     -35.472   6.204   3.955  1.00 20.00     0.009 C 
ENDBRANCH   8   9
ENDBRANCH   3   8
TORSDOF 2
ENDMDL
MODEL 7
REMARK VINA RESULT:       0.8      1.453      4.383
REMARK  2 active torsions:
REMARK  status: ('A' for Active; 'I' for Inactive)
REMARK    1  A    between atoms: C3_3  and  C7_7 
REMARK    2  A    between atoms: C7_7  and  C8_8 
ROOT
HETATM    1  C1  UNL     1     -35.130   4.677   4.747  1.00 20.00     0.111 C 
HETATM    2  C2  UNL     1     -33.981   4.048   3.961  1.00 20.00     0.227 C 
HETATM    3  C3  UNL     1     -33.670   6.296   3.263  1.00 20.00     0.282 C 
HETATM    4  C4  UNL     1     -33.370   2.871   4.712  1.00 20.00     0.043 C 
HETATM    5  N9  UNL     1     -32.966   5.096   3.740  1.00 20.00     0.102 N 
HETATM    6  S10 UNL     1     -35.334   6.306   3.995  1.00 20.00    -0.132 SA
HETATM    7  H27 UNL     1     -32.537   5.317   4.639  1.00 20.00     0.317 HD
ENDROOT
BRANCH   3   8
HETATM    8  C7  UNL     1     -33.758   6.309   1.741  1.00 20.00     0.050 C 
BRANCH   8   9
HETATM    9  C8  UNL     1     -32.425   6.648   1.054  1.00 20.00    -0.020 C 
HETATM   10  C5  UNL     1     -31.676   7.780   1.759  1.00 20.00     0.009 C 
HETATM   11  C6  UNL     1     -31.542   5.400   0.997  1.00 20.00     0.009 C 
ENDBRANCH   8   9
ENDBRANCH   3   8
TORSDOF 2
ENDMDL
MODEL 8
REMARK VINA RESULT:       0.8      1.771      4.959
REMARK  2 active torsions:
REMARK  status: ('A' for Active; 'I' for Inactive)
REMARK    1  A    between atoms: C3_3  and  C7_7 
REMARK    2  A    between atoms: C7_7  and  C8_8 
ROOT
HETATM    1  C1  UNL     1     -33.357   5.069   2.935  1.00 20.00     0.111 C 
HETATM    2  C2  UNL     1     -33.895   6.409   3.434  1.00 20.00     0.227 C 
HETATM    3  C3  UNL     1     -32.968   7.165   1.383  1.00 20.00     0.282 C 
HETATM    4  C4  UNL     1     -35.173   6.231   4.245  1.00 20.00     0.043 C 
HETATM    5  N9  UNL     1     -34.151   7.255   2.253  1.00 20.00     0.102 N 
HETATM    6  S10 UNL     1     -32.225   5.521   1.602  1.00 20.00    -0.132 SA
HETATM    7  H27 UNL     1     -34.946   6.861   1.747  1.00 20.00     0.317 HD
ENDROOT
BRANCH   3   8
HETATM    8  C7  UNL     1     -31.957   8.255   1.723  1.00 20.00     0.050 C 
BRANCH   8   9
HETATM    9  C8  UNL     1     -31.923   9.399   0.696  1.00 20.00    -0.020 C 
HETATM   10  C5  UNL     1     -32.384   8.953  -0.692  1.00 20.00     0.009 C 
HETATM   11  C6  UNL     1     -32.798  10.557   1.184  1.00 20.00     0.009 C 
ENDBRANCH   8   9
ENDBRANCH   3   8
TORSDOF 2
ENDMDL
MODEL 9
REMARK VINA RESULT:       1.2      1.274      1.586
REMARK  2 active torsions:
REMARK  status: ('A' for Active; 'I' for Inactive)
REMARK    1  A    between atoms: C3_3  and  C7_7 
REMARK    2  A    between atoms: C7_7  and  C8_8 
ROOT
HETATM    1  C1  UNL     1     -34.032   7.592   3.368  1.00 20.00     0.111 C 
HETATM    2  C2  UNL     1     -32.748   7.158   2.664  1.00 20.00     0.227 C 
HETATM    3  C3  UNL     1     -33.720   5.009   2.937  1.00 20.00     0.282 C 
HETATM    4  C4  UNL     1     -32.280   8.206   1.661  1.00 20.00     0.043 C 
HETATM    5  N9  UNL     1     -33.024   5.881   1.978  1.00 20.00     0.102 N 
HETATM    6  S10 UNL     1     -34.693   6.059   4.058  1.00 20.00    -0.132 SA
HETATM    7  H27 UNL     1     -33.661   6.069   1.202  1.00 20.00     0.317 HD
ENDROOT
BRANCH   3   8
HETATM    8  C7  UNL     1     -32.726   4.164   3.727  1.00 20.00     0.050 C 
BRANCH   8   9
HETATM    9  C8  UNL     1     -33.390   3.269   4.785  1.00 20.00    -0.020 C 
HETATM   10  C5  UNL     1     -33.434   1.799   4.364  1.00 20.00     0.009 C 
HETATM   11  C6  UNL     1     -32.646   3.403   6.116  1.00 20.00     0.009 C 
ENDBRANCH   8   9
ENDBRANCH   3   8
TORSDOF 2
ENDMDL
