MODEL 1
REMARK VINA RESULT:      -1.3      0.000      0.000
REMARK  0 active torsions:
REMARK  status: ('A' for Active; 'I' for Inactive)
ROOT
HETATM    1  C1  UNL     1     -32.381   8.355   1.416  1.00 20.00     0.125 C 
HETATM    2  C2  UNL     1     -32.984   6.055   2.331  1.00 20.00     0.074 A 
HETATM    3  C3  UNL     1     -34.257   6.867   3.974  1.00 20.00     0.167 A 
HETATM    4  C4  UNL     1     -33.001   7.429   2.284  1.00 20.00     0.156 A 
HETATM    5  C5  UNL     1     -33.800   5.689   3.429  1.00 20.00     0.059 A 
HETATM    6  N6  UNL     1     -31.870   9.116   0.703  1.00 20.00    -0.189 NA
HETATM    7  O7  UNL     1     -33.775   7.932   3.282  1.00 20.00    -0.310 OA
HETATM    8 CL8  UNL     1     -34.127   4.109   3.941  1.00 20.00    -0.082 Cl
ENDROOT
TORSDOF 0
ENDMDL
MODEL 2
REMARK VINA RESULT:      -1.2      3.431      4.084
REMARK  0 active torsions:
REMARK  status: ('A' for Active; 'I' for Inactive)
ROOT
HETATM    1  C1  UNL     1     -34.722   5.457   3.988  1.00 20.00     0.125 C 
HETATM    2  C2  UNL     1     -33.515   7.445   2.950  1.00 20.00     0.074 A 
HETATM    3  C3  UNL     1     -32.414   6.202   1.460  1.00 20.00     0.167 A 
HETATM    4  C4  UNL     1     -33.848   6.119   3.099  1.00 20.00     0.156 A 
HETATM    5  C5  UNL     1     -32.583   7.499   1.885  1.00 20.00     0.059 A 
HETATM    6  N6  UNL     1     -35.440   4.911   4.720  1.00 20.00    -0.189 NA
HETATM    7  O7  UNL     1     -33.181   5.355   2.194  1.00 20.00    -0.310 OA
HETATM    8 CL8  UNL     1     -31.844   8.898   1.281  1.00 20.00    -0.082 Cl
ENDROOT
TORSDOF 0
ENDMDL
MODEL 3
REMARK VINA RESULT:      -1.0      1.307      1.580
REMARK  0 active torsions:
REMARK  status: ('A' for Active; 'I' for Inactive)
ROOT
HETATM    1  C1  UNL     1     -32.198   8.312   1.455  1.00 20.00     0.125 C 
HETATM    2  C2  UNL     1     -33.858   7.370   3.143  1.00 20.00     0.074 A 
HETATM    3  C3  UNL     1     -33.532   5.253   2.523  1.00 20.00     0.167 A 
HETATM    4  C4  UNL     1     -32.932   7.310   2.128  1.00 20.00     0.156 A 
HETATM    5  C5  UNL     1     -34.247   6.034   3.401  1.00 20.00     0.059 A 
HETATM    6  N6  UNL     1     -31.596   9.135   0.901  1.00 20.00    -0.189 NA
HETATM    7  O7  UNL     1     -32.728   6.022   1.744  1.00 20.00    -0.310 OA
HETATM    8 CL8  UNL     1     -35.372   5.532   4.563  1.00 20.00    -0.082 Cl
ENDROOT
TORSDOF 0
ENDMDL
MODEL 4
REMARK VINA RESULT:      -0.9      3.296      3.839
REMARK  0 active torsions:
REMARK  status: ('A' for Active; 'I' for Inactive)
ROOT
HETATM    1  C1  UNL     1     -33.855   4.609   3.766  1.00 20.00     0.125 C 
HETATM    2  C2  UNL     1     -32.795   6.231   2.111  1.00 20.00     0.074 A 
HETATM    3  C3  UNL     1     -33.510   8.048   3.190  1.00 20.00     0.167 A 
HETATM    4  C4  UNL     1     -33.515   5.869   3.226  1.00 20.00     0.156 A 
HETATM    5  C5  UNL     1     -32.792   7.646   2.088  1.00 20.00     0.059 A 
HETATM    6  N6  UNL     1     -34.135   3.574   4.210  1.00 20.00    -0.189 NA
HETATM    7  O7  UNL     1     -33.955   6.972   3.889  1.00 20.00    -0.310 OA
HETATM    8 CL8  UNL     1     -32.043   8.619   0.921  1.00 20.00    -0.082 Cl
ENDROOT
TORSDOF 0
ENDMDL
MODEL 5
REMARK VINA RESULT:      -0.4      3.821      4.402
REMARK  0 active torsions:
REMARK  status: ('A' for Active; 'I' for Inactive)
ROOT
HETATM    1  C1  UNL     1     -33.570   3.088   4.385  1.00 20.00     0.125 C 
HETATM    2  C2  UNL     1     -33.386   5.484   3.540  1.00 20.00     0.074 A 
HETATM    3  C3  UNL     1     -35.440   6.045   4.205  1.00 20.00     0.167 A 
HETATM    4  C4  UNL     1     -34.001   4.410   4.138  1.00 20.00     0.156 A 
HETATM    5  C5  UNL     1     -34.320   6.547   3.583  1.00 20.00     0.059 A 
HETATM    6  N6  UNL     1     -33.216   2.001   4.588  1.00 20.00    -0.189 NA
HETATM    7  O7  UNL     1     -35.254   4.744   4.546  1.00 20.00    -0.310 OA
HETATM    8 CL8  UNL     1     -34.075   8.110   2.981  1.00 20.00    -0.082 Cl
ENDROOT
TORSDOF 0
ENDMDL
MODEL 6
REMARK VINA RESULT:      -0.0      2.597      2.986
REMARK  0 active torsions:
REMARK  status: ('A' for Active; 'I' for Inactive)
ROOT
HETATM    1  C1  UNL     1     -31.966   4.974   0.753  1.00 20.00     0.125 C 
HETATM    2  C2  UNL     1     -33.380   5.971   2.623  1.00 20.00     0.074 A 
HETATM    3  C3  UNL     1     -32.444   7.990   2.471  1.00 20.00     0.167 A 
HETATM    4  C4  UNL     1     -32.424   5.978   1.635  1.00 20.00     0.156 A 
HETATM    5  C5  UNL     1     -33.393   7.278   3.167  1.00 20.00     0.059 A 
HETATM    6  N6  UNL     1     -31.589   4.149   0.029  1.00 20.00    -0.189 NA
HETATM    7  O7  UNL     1     -31.848   7.205   1.536  1.00 20.00    -0.310 OA
HETATM    8 CL8  UNL     1     -34.391   7.823   4.421  1.00 20.00    -0.082 Cl
ENDROOT
TORSDOF 0
ENDMDL
MODEL 7
REMARK VINA RESULT:       0.1      2.509      3.054
REMARK  0 active torsions:
REMARK  status: ('A' for Active; 'I' for Inactive)
ROOT
HETATM    1  C1  UNL     1     -33.712   7.820   4.322  1.00 20.00     0.125 C 
HETATM    2  C2  UNL     1     -33.412   5.971   2.595  1.00 20.00     0.074 A 
HETATM    3  C3  UNL     1     -32.005   7.158   1.335  1.00 20.00     0.167 A 
HETATM    4  C4  UNL     1     -33.207   7.212   3.152  1.00 20.00     0.156 A 
HETATM    5  C5  UNL     1     -32.631   5.936   1.415  1.00 20.00     0.059 A 
HETATM    6  N6  UNL     1     -34.128   8.321   5.283  1.00 20.00    -0.189 NA
HETATM    7  O7  UNL     1     -32.350   7.942   2.390  1.00 20.00    -0.310 OA
HETATM    8 CL8  UNL     1     -32.514   4.633   0.340  1.00 20.00    -0.082 Cl
ENDROOT
TORSDOF 0
ENDMDL
MODEL 8
REMARK VINA RESULT:       0.7      2.581      2.786
REMARK  0 active torsions:
REMARK  status: ('A' for Active; 'I' for Inactive)
ROOT
HETATM    1  C1  UNL     1     -32.711   5.585   1.399  1.00 20.00     0.125 C 
HETATM    2  C2  UNL     1     -32.943   7.355   3.216  1.00 20.00     0.074 A 
HETATM    3  C3  UNL     1     -34.817   6.480   4.052  1.00 20.00     0.167 A 
HETATM    4  C4  UNL     1     -33.302   6.234   2.505  1.00 20.00     0.156 A 
HETATM    5  C5  UNL     1     -33.927   7.515   4.221  1.00 20.00     0.059 A 
HETATM    6  N6  UNL     1     -32.227   5.052   0.488  1.00 20.00    -0.189 NA
HETATM    7  O7  UNL     1     -34.444   5.694   3.009  1.00 20.00    -0.310 OA
HETATM    8 CL8  UNL     1     -33.970   8.746   5.383  1.00 20.00    -0.082 Cl
ENDROOT
TORSDOF 0
ENDMDL
MODEL 9
REMARK VINA RESULT:       0.7      1.062      1.122
REMARK  0 active torsions:
REMARK  status: ('A' for Active; 'I' for Inactive)
ROOT
HETATM    1  C1  UNL     1     -33.108   7.960   2.102  1.00 20.00     0.125 C 
HETATM    2  C2  UNL     1     -33.164   5.599   3.058  1.00 20.00     0.074 A 
HETATM    3  C3  UNL     1     -35.209   5.825   3.919  1.00 20.00     0.167 A 
HETATM    4  C4  UNL     1     -33.655   6.856   2.791  1.00 20.00     0.156 A 
HETATM    5  C5  UNL     1     -34.173   4.929   3.790  1.00 20.00     0.059 A 
HETATM    6  N6  UNL     1     -32.658   8.869   1.536  1.00 20.00    -0.189 NA
HETATM    7  O7  UNL     1     -34.902   7.001   3.313  1.00 20.00    -0.310 OA
HETATM    8 CL8  UNL     1     -34.089   3.343   4.376  1.00 20.00    -0.082 Cl
ENDROOT
TORSDOF 0
ENDMDL
