MODEL 1
REMARK VINA RESULT:      -0.3      0.000      0.000
REMARK  1 active torsions:
REMARK  status: ('A' for Active; 'I' for Inactive)
REMARK    1  A    between atoms: C4_4  and  C7_7 
ROOT
HETATM    1  C1  UNL     1     -32.951   7.497   2.901  1.00 20.00     0.109 C 
HETATM    2  C2  UNL     1     -35.173   6.200   3.919  1.00 20.00     0.109 C 
HETATM    3  C3  UNL     1     -33.150   6.264   2.009  1.00 20.00     0.226 C 
HETATM    4  C4  UNL     1     -34.420   4.897   3.602  1.00 20.00     0.230 C 
HETATM    5  C5  UNL     1     -31.997   6.162   1.006  1.00 20.00     0.043 C 
HETATM    6  N8  UNL     1     -33.187   5.049   2.818  1.00 20.00     0.093 N 
HETATM    7  S9  UNL     1     -34.071   7.580   4.338  1.00 20.00    -0.165 SA
HETATM    8  H24 UNL     1     -33.077   4.231   2.208  1.00 20.00     0.316 HD
ENDROOT
BRANCH   4   9
HETATM    9  C7  UNL     1     -34.068   4.127   4.877  1.00 20.00     0.032 C 
HETATM   10  C6  UNL     1     -33.214   2.939   4.582  1.00 20.00     0.007 C 
ENDBRANCH   4   9
TORSDOF 1
ENDMDL
MODEL 2
REMARK VINA RESULT:       0.1      2.097      4.269
REMARK  1 active torsions:
REMARK  status: ('A' for Active; 'I' for Inactive)
REMARK    1  A    between atoms: C4_4  and  C7_7 
ROOT
HETATM    1  C1  UNL     1     -33.664   5.936   2.656  1.00 20.00     0.109 C 
HETATM    2  C2  UNL     1     -32.357   8.272   3.359  1.00 20.00     0.109 C 
HETATM    3  C3  UNL     1     -32.403   5.979   1.782  1.00 20.00     0.226 C 
HETATM    4  C4  UNL     1     -32.018   8.401   1.864  1.00 20.00     0.230 C 
HETATM    5  C5  UNL     1     -32.419   4.809   0.795  1.00 20.00     0.043 C 
HETATM    6  N8  UNL     1     -32.341   7.233   1.035  1.00 20.00     0.093 N 
HETATM    7  S9  UNL     1     -33.937   7.431   3.665  1.00 20.00    -0.165 SA
HETATM    8  H24 UNL     1     -31.641   7.149   0.289  1.00 20.00     0.316 HD
ENDROOT
BRANCH   4   9
HETATM    9  C7  UNL     1     -32.699   9.619   1.237  1.00 20.00     0.032 C 
HETATM   10  C6  UNL     1     -32.347   9.760  -0.207  1.00 20.00     0.007 C 
ENDBRANCH   4   9
TORSDOF 1
ENDMDL
MODEL 3
REMARK VINA RESULT:       1.0      1.170      3.592
REMARK  1 active torsions:
REMARK  status: ('A' for Active; 'I' for Inactive)
REMARK    1  A    between atoms: C4_4  and  C7_7 
ROOT
HETATM    1  C1  UNL     1     -35.145   4.863   4.289  1.00 20.00     0.109 C 
HETATM    2  C2  UNL     1     -33.823   7.257   3.871  1.00 20.00     0.109 C 
HETATM    3  C3  UNL     1     -33.651   4.513   4.299  1.00 20.00     0.226 C 
HETATM    4  C4  UNL     1     -32.844   6.440   3.011  1.00 20.00     0.230 C 
HETATM    5  C5  UNL     1     -33.477   2.995   4.406  1.00 20.00     0.043 C 
HETATM    6  N8  UNL     1     -33.008   4.982   3.074  1.00 20.00     0.093 N 
HETATM    7  S9  UNL     1     -35.513   6.597   3.857  1.00 20.00    -0.165 SA
HETATM    8  H24 UNL     1     -32.086   4.538   2.982  1.00 20.00     0.316 HD
ENDROOT
BRANCH   4   9
HETATM    9  C7  UNL     1     -32.910   6.852   1.539  1.00 20.00     0.032 C 
HETATM   10  C6  UNL     1     -32.117   8.089   1.280  1.00 20.00     0.007 C 
ENDBRANCH   4   9
TORSDOF 1
ENDMDL
MODEL 4
REMARK VINA RESULT:       1.2      2.163      2.808
REMARK  1 active torsions:
REMARK  status: ('A' for Active; 'I' for Inactive)
REMARK    1  A    between atoms: C4_4  and  C7_7 
ROOT
HETATM    1  C1  UNL     1     -32.381   6.705   0.809  1.00 20.00     0.109 C 
HETATM    2  C2  UNL     1     -32.964   5.463   3.212  1.00 20.00     0.109 C 
HETATM    3  C3  UNL     1     -32.191   7.783   1.884  1.00 20.00     0.226 C 
HETATM    4  C4  UNL     1     -33.624   6.793   3.612  1.00 20.00     0.230 C 
HETATM    5  C5  UNL     1     -31.884   9.127   1.218  1.00 20.00     0.043 C 
HETATM    6  N8  UNL     1     -33.399   7.917   2.694  1.00 20.00     0.093 N 
HETATM    7  S9  UNL     1     -33.052   5.127   1.430  1.00 20.00    -0.165 SA
HETATM    8  H24 UNL     1     -33.350   8.787   3.236  1.00 20.00     0.316 HD
ENDROOT
BRANCH   4   9
HETATM    9  C7  UNL     1     -35.135   6.638   3.796  1.00 20.00     0.032 C 
HETATM   10  C6  UNL     1     -35.476   5.352   4.472  1.00 20.00     0.007 C 
ENDBRANCH   4   9
TORSDOF 1
ENDMDL
MODEL 5
REMARK VINA RESULT:       1.5      2.005      4.288
REMARK  1 active torsions:
REMARK  status: ('A' for Active; 'I' for Inactive)
REMARK    1  A    between atoms: C4_4  and  C7_7 
ROOT
HETATM    1  C1  UNL     1     -33.446   4.735   3.551  1.00 20.00     0.109 C 
HETATM    2  C2  UNL     1     -32.735   5.804   1.100  1.00 20.00     0.109 C 
HETATM    3  C3  UNL     1     -34.450   5.866   3.291  1.00 20.00     0.226 C 
HETATM    4  C4  UNL     1     -33.091   7.168   1.716  1.00 20.00     0.230 C 
HETATM    5  C5  UNL     1     -35.354   6.044   4.514  1.00 20.00     0.043 C 
HETATM    6  N8  UNL     1     -33.750   7.121   3.028  1.00 20.00     0.093 N 
HETATM    7  S9  UNL     1     -32.109   4.610   2.316  1.00 20.00    -0.165 SA
HETATM    8  H24 UNL     1     -34.413   7.901   3.097  1.00 20.00     0.316 HD
ENDROOT
BRANCH   4   9
HETATM    9  C7  UNL     1     -31.858   8.064   1.847  1.00 20.00     0.032 C 
HETATM   10  C6  UNL     1     -31.890   9.187   0.863  1.00 20.00     0.007 C 
ENDBRANCH   4   9
TORSDOF 1
ENDMDL
MODEL 6
REMARK VINA RESULT:       2.3      2.150      3.514
REMARK  1 active torsions:
REMARK  status: ('A' for Active; 'I' for Inactive)
REMARK    1  A    between atoms: C4_4  and  C7_7 
ROOT
HETATM    1  C1  UNL     1     -33.768   8.124   2.766  1.00 20.00     0.109 C 
HETATM    2  C2  UNL     1     -31.450   6.890   1.894  1.00 20.00     0.109 C 
HETATM    3  C3  UNL     1     -33.760   6.745   3.439  1.00 20.00     0.226 C 
HETATM    4  C4  UNL     1     -32.287   5.601   1.845  1.00 20.00     0.230 C 
HETATM    5  C5  UNL     1     -35.066   6.540   4.212  1.00 20.00     0.043 C 
HETATM    6  N8  UNL     1     -33.627   5.689   2.439  1.00 20.00     0.093 N 
HETATM    7  S9  UNL     1     -32.422   8.388   1.564  1.00 20.00    -0.165 SA
HETATM    8  H24 UNL     1     -33.864   4.786   2.865  1.00 20.00     0.316 HD
ENDROOT
BRANCH   4   9
HETATM    9  C7  UNL     1     -32.446   5.088   0.412  1.00 20.00     0.032 C 
HETATM   10  C6  UNL     1     -33.881   5.027   0.008  1.00 20.00     0.007 C 
ENDBRANCH   4   9
TORSDOF 1
ENDMDL
MODEL 7
REMARK VINA RESULT:       2.7      1.799      3.348
REMARK  1 active torsions:
REMARK  status: ('A' for Active; 'I' for Inactive)
REMARK    1  A    between atoms: C4_4  and  C7_7 
ROOT
HETATM    1  C1  UNL     1     -32.515   4.493   2.811  1.00 20.00     0.109 C 
HETATM    2  C2  UNL     1     -34.352   6.413   2.040  1.00 20.00     0.109 C 
HETATM    3  C3  UNL     1     -33.769   4.223   3.653  1.00 20.00     0.226 C 
HETATM    4  C4  UNL     1     -34.754   6.466   3.523  1.00 20.00     0.230 C 
HETATM    5  C5  UNL     1     -33.483   3.104   4.660  1.00 20.00     0.043 C 
HETATM    6  N8  UNL     1     -34.168   5.426   4.379  1.00 20.00     0.093 N 
HETATM    7  S9  UNL     1     -32.602   5.999   1.786  1.00 20.00    -0.165 SA
HETATM    8  H24 UNL     1     -34.843   5.174   5.109  1.00 20.00     0.316 HD
ENDROOT
BRANCH   4   9
HETATM    9  C7  UNL     1     -34.422   7.823   4.148  1.00 20.00     0.032 C 
HETATM   10  C6  UNL     1     -33.112   7.793   4.861  1.00 20.00     0.007 C 
ENDBRANCH   4   9
TORSDOF 1
ENDMDL
