MODEL 1
REMARK VINA RESULT:      -1.0      0.000      0.000
REMARK  3 active torsions:
REMARK  status: ('A' for Active; 'I' for Inactive)
REMARK    1  A    between atoms: C3_3  and  C6_6 
REMARK    2  A    between atoms: C6_6  and  C8_8 
REMARK    3  A    between atoms: C7_7  and  C8_8 
ROOT
HETATM    1  C1  UNL     1     -33.458   5.117   3.288  1.00 20.00     0.111 C 
HETATM    2  C2  UNL     1     -34.182   6.263   3.995  1.00 20.00     0.227 C 
HETATM    3  C3  UNL     1     -33.155   7.523   2.255  1.00 20.00     0.282 C 
HETATM    4  C4  UNL     1     -35.662   6.372   3.614  1.00 20.00     0.043 C 
HETATM    5  N9  UNL     1     -33.453   7.509   3.695  1.00 20.00     0.102 N 
HETATM    6  S10 UNL     1     -32.919   5.806   1.706  1.00 20.00    -0.132 SA
HETATM    7  H27 UNL     1     -34.072   8.297   3.898  1.00 20.00     0.317 HD
ENDROOT
BRANCH   3   8
HETATM    8  C6  UNL     1     -31.915   8.355   1.959  1.00 20.00     0.046 C 
BRANCH   8   9
HETATM    9  C8  UNL     1     -31.656   8.452   0.458  1.00 20.00     0.002 C 
BRANCH   9  10
HETATM   10  C7  UNL     1     -32.484   9.570  -0.175  1.00 20.00    -0.004 C 
HETATM   11  C5  UNL     1     -32.693  10.724   0.792  1.00 20.00     0.005 C 
ENDBRANCH   9  10
ENDBRANCH   8   9
ENDBRANCH   3   8
TORSDOF 3
ENDMDL
MODEL 2
REMARK VINA RESULT:      -0.8      1.489      1.874
REMARK  3 active torsions:
REMARK  status: ('A' for Active; 'I' for Inactive)
REMARK    1  A    between atoms: C3_3  and  C6_6 
REMARK    2  A    between atoms: C6_6  and  C8_8 
REMARK    3  A    between atoms: C7_7  and  C8_8 
ROOT
HETATM    1  C1  UNL     1     -35.268   6.376   3.914  1.00 20.00     0.111 C 
HETATM    2  C2  UNL     1     -34.396   5.359   3.179  1.00 20.00     0.227 C 
HETATM    3  C3  UNL     1     -32.829   7.149   3.281  1.00 20.00     0.282 C 
HETATM    4  C4  UNL     1     -33.744   4.333   4.111  1.00 20.00     0.043 C 
HETATM    5  N9  UNL     1     -33.387   6.106   2.406  1.00 20.00     0.102 N 
HETATM    6  S10 UNL     1     -34.132   7.684   4.430  1.00 20.00    -0.132 SA
HETATM    7  H27 UNL     1     -32.633   5.461   2.160  1.00 20.00     0.317 HD
ENDROOT
BRANCH   3   8
HETATM    8  C6  UNL     1     -32.314   8.328   2.467  1.00 20.00     0.046 C 
BRANCH   8   9
HETATM    9  C8  UNL     1     -31.934   7.902   1.051  1.00 20.00     0.002 C 
BRANCH   9  10
HETATM   10  C7  UNL     1     -31.577   9.111   0.187  1.00 20.00    -0.004 C 
HETATM   11  C5  UNL     1     -32.652  10.184   0.259  1.00 20.00     0.005 C 
ENDBRANCH   9  10
ENDBRANCH   8   9
ENDBRANCH   3   8
TORSDOF 3
ENDMDL
MODEL 3
REMARK VINA RESULT:      -0.5      1.815      4.979
REMARK  3 active torsions:
REMARK  status: ('A' for Active; 'I' for Inactive)
REMARK    1  A    between atoms: C3_3  and  C6_6 
REMARK    2  A    between atoms: C6_6  and  C8_8 
REMARK    3  A    between atoms: C7_7  and  C8_8 
ROOT
HETATM    1  C1  UNL     1     -31.575   8.316   3.235  1.00 20.00     0.111 C 
HETATM    2  C2  UNL     1     -31.977   7.857   1.834  1.00 20.00     0.227 C 
HETATM    3  C3  UNL     1     -33.972   7.250   2.983  1.00 20.00     0.282 C 
HETATM    4  C4  UNL     1     -32.477   8.998   0.943  1.00 20.00     0.043 C 
HETATM    5  N9  UNL     1     -32.993   6.799   1.981  1.00 20.00     0.102 N 
HETATM    6  S10 UNL     1     -33.105   8.290   4.196  1.00 20.00    -0.132 SA
HETATM    7  H27 UNL     1     -33.479   6.699   1.087  1.00 20.00     0.317 HD
ENDROOT
BRANCH   3   8
HETATM    8  C6  UNL     1     -34.637   6.065   3.671  1.00 20.00     0.046 C 
BRANCH   8   9
HETATM    9  C8  UNL     1     -33.816   4.790   3.496  1.00 20.00     0.002 C 
BRANCH   9  10
HETATM   10  C7  UNL     1     -34.059   3.813   4.646  1.00 20.00    -0.004 C 
HETATM   11  C5  UNL     1     -32.948   2.780   4.743  1.00 20.00     0.005 C 
ENDBRANCH   9  10
ENDBRANCH   8   9
ENDBRANCH   3   8
TORSDOF 3
ENDMDL
MODEL 4
REMARK VINA RESULT:      -0.4      1.801      5.016
REMARK  3 active torsions:
REMARK  status: ('A' for Active; 'I' for Inactive)
REMARK    1  A    between atoms: C3_3  and  C6_6 
REMARK    2  A    between atoms: C6_6  and  C8_8 
REMARK    3  A    between atoms: C7_7  and  C8_8 
ROOT
HETATM    1  C1  UNL     1     -32.133   8.482   3.213  1.00 20.00     0.111 C 
HETATM    2  C2  UNL     1     -31.709   8.213   1.770  1.00 20.00     0.227 C 
HETATM    3  C3  UNL     1     -33.265   6.426   2.013  1.00 20.00     0.282 C 
HETATM    4  C4  UNL     1     -32.428   9.103   0.751  1.00 20.00     0.043 C 
HETATM    5  N9  UNL     1     -31.935   6.782   1.494  1.00 20.00     0.102 N 
HETATM    6  S10 UNL     1     -33.600   7.458   3.471  1.00 20.00    -0.132 SA
HETATM    7  H27 UNL     1     -31.945   6.651   0.480  1.00 20.00     0.317 HD
ENDROOT
BRANCH   3   8
HETATM    8  C6  UNL     1     -33.335   4.949   2.374  1.00 20.00     0.046 C 
BRANCH   8   9
HETATM    9  C8  UNL     1     -33.882   4.748   3.785  1.00 20.00     0.002 C 
BRANCH   9  10
HETATM   10  C7  UNL     1     -33.778   3.285   4.214  1.00 20.00    -0.004 C 
HETATM   11  C5  UNL     1     -32.688   3.086   5.255  1.00 20.00     0.005 C 
ENDBRANCH   9  10
ENDBRANCH   8   9
ENDBRANCH   3   8
TORSDOF 3
ENDMDL
MODEL 5
REMARK VINA RESULT:       0.1      1.723      2.298
REMARK  3 active torsions:
REMARK  status: ('A' for Active; 'I' for Inactive)
REMARK    1  A    between atoms: C3_3  and  C6_6 
REMARK    2  A    between atoms: C6_6  and  C8_8 
REMARK    3  A    between atoms: C7_7  and  C8_8 
ROOT
HETATM    1  C1  UNL     1     -35.021   5.110   4.175  1.00 20.00     0.111 C 
HETATM    2  C2  UNL     1     -34.061   4.026   3.684  1.00 20.00     0.227 C 
HETATM    3  C3  UNL     1     -32.912   5.923   2.819  1.00 20.00     0.282 C 
HETATM    4  C4  UNL     1     -33.085   3.547   4.762  1.00 20.00     0.043 C 
HETATM    5  N9  UNL     1     -33.351   4.554   2.505  1.00 20.00     0.102 N 
HETATM    6  S10 UNL     1     -34.129   6.666   3.947  1.00 20.00    -0.132 SA
HETATM    7  H27 UNL     1     -32.517   3.982   2.353  1.00 20.00     0.317 HD
ENDROOT
BRANCH   3   8
HETATM    8  C6  UNL     1     -32.776   6.758   1.553  1.00 20.00     0.046 C 
BRANCH   8   9
HETATM    9  C8  UNL     1     -32.688   8.247   1.877  1.00 20.00     0.002 C 
BRANCH   9  10
HETATM   10  C7  UNL     1     -31.994   9.018   0.754  1.00 20.00    -0.004 C 
HETATM   11  C5  UNL     1     -32.676  10.351   0.489  1.00 20.00     0.005 C 
ENDBRANCH   9  10
ENDBRANCH   8   9
ENDBRANCH   3   8
TORSDOF 3
ENDMDL
MODEL 6
REMARK VINA RESULT:       0.3      1.484      4.895
REMARK  3 active torsions:
REMARK  status: ('A' for Active; 'I' for Inactive)
REMARK    1  A    between atoms: C3_3  and  C6_6 
REMARK    2  A    between atoms: C6_6  and  C8_8 
REMARK    3  A    between atoms: C7_7  and  C8_8 
ROOT
HETATM    1  C1  UNL     1     -32.400   7.373   1.094  1.00 20.00     0.111 C 
HETATM    2  C2  UNL     1     -32.385   8.338   2.278  1.00 20.00     0.227 C 
HETATM    3  C3  UNL     1     -33.479   6.507   3.337  1.00 20.00     0.282 C 
HETATM    4  C4  UNL     1     -31.047   8.362   3.023  1.00 20.00     0.043 C 
HETATM    5  N9  UNL     1     -33.497   7.969   3.173  1.00 20.00     0.102 N 
HETATM    6  S10 UNL     1     -32.852   5.770   1.798  1.00 20.00    -0.132 SA
HETATM    7  H27 UNL     1     -33.324   8.391   4.088  1.00 20.00     0.317 HD
ENDROOT
BRANCH   3   8
HETATM    8  C6  UNL     1     -34.868   5.974   3.659  1.00 20.00     0.046 C 
BRANCH   8   9
HETATM    9  C8  UNL     1     -34.795   4.734   4.547  1.00 20.00     0.002 C 
BRANCH   9  10
HETATM   10  C7  UNL     1     -33.814   3.707   3.983  1.00 20.00    -0.004 C 
HETATM   11  C5  UNL     1     -33.069   2.982   5.091  1.00 20.00     0.005 C 
ENDBRANCH   9  10
ENDBRANCH   8   9
ENDBRANCH   3   8
TORSDOF 3
ENDMDL
MODEL 7
REMARK VINA RESULT:       0.5      1.678      4.745
REMARK  3 active torsions:
REMARK  status: ('A' for Active; 'I' for Inactive)
REMARK    1  A    between atoms: C3_3  and  C6_6 
REMARK    2  A    between atoms: C6_6  and  C8_8 
REMARK    3  A    between atoms: C7_7  and  C8_8 
ROOT
HETATM    1  C1  UNL     1     -31.027   8.244   2.558  1.00 20.00     0.111 C 
HETATM    2  C2  UNL     1     -32.031   7.845   1.477  1.00 20.00     0.227 C 
HETATM    3  C3  UNL     1     -33.547   8.038   3.303  1.00 20.00     0.282 C 
HETATM    4  C4  UNL     1     -32.470   9.017   0.595  1.00 20.00     0.043 C 
HETATM    5  N9  UNL     1     -33.181   7.209   2.145  1.00 20.00     0.102 N 
HETATM    6  S10 UNL     1     -32.033   8.812   3.948  1.00 20.00    -0.132 SA
HETATM    7  H27 UNL     1     -33.969   7.211   1.493  1.00 20.00     0.317 HD
ENDROOT
BRANCH   3   8
HETATM    8  C6  UNL     1     -34.224   7.204   4.383  1.00 20.00     0.046 C 
BRANCH   8   9
HETATM    9  C8  UNL     1     -35.172   6.174   3.774  1.00 20.00     0.002 C 
BRANCH   9  10
HETATM   10  C7  UNL     1     -35.123   4.855   4.545  1.00 20.00    -0.004 C 
HETATM   11  C5  UNL     1     -33.926   4.013   4.133  1.00 20.00     0.005 C 
ENDBRANCH   9  10
ENDBRANCH   8   9
ENDBRANCH   3   8
TORSDOF 3
ENDMDL
MODEL 8
REMARK VINA RESULT:       1.0      1.613      4.668
REMARK  3 active torsions:
REMARK  status: ('A' for Active; 'I' for Inactive)
REMARK    1  A    between atoms: C3_3  and  C6_6 
REMARK    2  A    between atoms: C6_6  and  C8_8 
REMARK    3  A    between atoms: C7_7  and  C8_8 
ROOT
HETATM    1  C1  UNL     1     -31.869   8.570   3.017  1.00 20.00     0.111 C 
HETATM    2  C2  UNL     1     -31.588   8.359   1.530  1.00 20.00     0.227 C 
HETATM    3  C3  UNL     1     -33.239   6.667   1.814  1.00 20.00     0.282 C 
HETATM    4  C4  UNL     1     -32.326   9.353   0.628  1.00 20.00     0.043 C 
HETATM    5  N9  UNL     1     -31.936   6.965   1.199  1.00 20.00     0.102 N 
HETATM    6  S10 UNL     1     -33.377   7.630   3.349  1.00 20.00    -0.132 SA
HETATM    7  H27 UNL     1     -32.042   6.895   0.185  1.00 20.00     0.317 HD
ENDROOT
BRANCH   3   8
HETATM    8  C6  UNL     1     -33.382   5.178   2.100  1.00 20.00     0.046 C 
BRANCH   8   9
HETATM    9  C8  UNL     1     -33.078   4.863   3.562  1.00 20.00     0.002 C 
BRANCH   9  10
HETATM   10  C7  UNL     1     -34.257   4.159   4.233  1.00 20.00    -0.004 C 
HETATM   11  C5  UNL     1     -35.374   5.137   4.563  1.00 20.00     0.005 C 
ENDBRANCH   9  10
ENDBRANCH   8   9
ENDBRANCH   3   8
TORSDOF 3
ENDMDL
MODEL 9
REMARK VINA RESULT:       1.5      1.609      4.815
REMARK  3 active torsions:
REMARK  status: ('A' for Active; 'I' for Inactive)
REMARK    1  A    between atoms: C3_3  and  C6_6 
REMARK    2  A    between atoms: C6_6  and  C8_8 
REMARK    3  A    between atoms: C7_7  and  C8_8 
ROOT
HETATM    1  C1  UNL     1     -30.867   8.679   1.086  1.00 20.00     0.111 C 
HETATM    2  C2  UNL     1     -32.177   8.847   0.316  1.00 20.00     0.227 C 
HETATM    3  C3  UNL     1     -33.063   7.871   2.299  1.00 20.00     0.282 C 
HETATM    4  C4  UNL     1     -32.749  10.265   0.396  1.00 20.00     0.043 C 
HETATM    5  N9  UNL     1     -33.132   7.848   0.830  1.00 20.00     0.102 N 
HETATM    6  S10 UNL     1     -31.363   8.299   2.782  1.00 20.00    -0.132 SA
HETATM    7  H27 UNL     1     -34.073   8.135   0.553  1.00 20.00     0.317 HD
ENDROOT
BRANCH   3   8
HETATM    8  C6  UNL     1     -33.464   6.525   2.888  1.00 20.00     0.046 C 
BRANCH   8   9
HETATM    9  C8  UNL     1     -34.639   6.670   3.852  1.00 20.00     0.002 C 
BRANCH   9  10
HETATM   10  C7  UNL     1     -35.183   5.304   4.270  1.00 20.00    -0.004 C 
HETATM   11  C5  UNL     1     -34.125   4.220   4.136  1.00 20.00     0.005 C 
ENDBRANCH   9  10
ENDBRANCH   8   9
ENDBRANCH   3   8
TORSDOF 3
ENDMDL
