MODEL 1
REMARK VINA RESULT:       0.1      0.000      0.000
REMARK  1 active torsions:
REMARK  status: ('A' for Active; 'I' for Inactive)
REMARK    1  A    between atoms: C2_2  and  C8_8 
ROOT
HETATM    1  C1  UNL     1     -35.130   6.858   3.867  1.00 20.00     0.284 C 
HETATM    2  C2  UNL     1     -33.482   5.024   3.582  1.00 20.00     0.233 C 
HETATM    3  C3  UNL     1     -34.033   7.909   3.687  1.00 20.00     0.071 C 
HETATM    4  C4  UNL     1     -33.245   5.654   2.192  1.00 20.00     0.076 C 
HETATM    5  C5  UNL     1     -33.255   8.192   4.971  1.00 20.00     0.023 C 
HETATM    6  C6  UNL     1     -32.071   5.033   1.432  1.00 20.00     0.023 C 
HETATM    7  N9  UNL     1     -34.667   5.540   4.285  1.00 20.00     0.090 N 
HETATM    8  S10 UNL     1     -32.882   7.452   2.345  1.00 20.00    -0.156 SA
HETATM    9  H27 UNL     1     -34.467   5.574   5.299  1.00 20.00     0.316 HD
ENDROOT
BRANCH   2  10
HETATM   10  C8  UNL     1     -33.610   3.495   3.521  1.00 20.00     0.032 C 
HETATM   11  C7  UNL     1     -33.150   2.859   4.788  1.00 20.00     0.007 C 
ENDBRANCH   2  10
TORSDOF 1
ENDMDL
MODEL 2
REMARK VINA RESULT:       0.7      1.958      3.331
REMARK  1 active torsions:
REMARK  status: ('A' for Active; 'I' for Inactive)
REMARK    1  A    between atoms: C2_2  and  C8_8 
ROOT
HETATM    1  C1  UNL     1     -32.122   6.522   1.685  1.00 20.00     0.284 C 
HETATM    2  C2  UNL     1     -34.052   7.070   3.147  1.00 20.00     0.233 C 
HETATM    3  C3  UNL     1     -31.697   7.990   1.650  1.00 20.00     0.071 C 
HETATM    4  C4  UNL     1     -32.973   7.578   4.128  1.00 20.00     0.076 C 
HETATM    5  C5  UNL     1     -32.457   8.812   0.611  1.00 20.00     0.023 C 
HETATM    6  C6  UNL     1     -33.549   8.300   5.348  1.00 20.00     0.023 C 
HETATM    7  N9  UNL     1     -33.523   6.288   2.019  1.00 20.00     0.090 N 
HETATM    8  S10 UNL     1     -31.844   8.769   3.295  1.00 20.00    -0.156 SA
HETATM    9  H27 UNL     1     -34.093   6.482   1.178  1.00 20.00     0.316 HD
ENDROOT
BRANCH   2  10
HETATM   10  C8  UNL     1     -35.122   6.215   3.841  1.00 20.00     0.032 C 
HETATM   11  C7  UNL     1     -34.599   4.862   4.185  1.00 20.00     0.007 C 
ENDBRANCH   2  10
TORSDOF 1
ENDMDL
MODEL 3
REMARK VINA RESULT:       0.8      2.261      3.768
REMARK  1 active torsions:
REMARK  status: ('A' for Active; 'I' for Inactive)
REMARK    1  A    between atoms: C2_2  and  C8_8 
ROOT
HETATM    1  C1  UNL     1     -33.535   7.506   4.238  1.00 20.00     0.284 C 
HETATM    2  C2  UNL     1     -32.833   7.503   1.857  1.00 20.00     0.233 C 
HETATM    3  C3  UNL     1     -34.491   6.340   3.987  1.00 20.00     0.071 C 
HETATM    4  C4  UNL     1     -32.373   6.058   2.151  1.00 20.00     0.076 C 
HETATM    5  C5  UNL     1     -35.840   6.779   3.421  1.00 20.00     0.023 C 
HETATM    6  C6  UNL     1     -31.922   5.296   0.903  1.00 20.00     0.023 C 
HETATM    7  N9  UNL     1     -33.176   8.282   3.056  1.00 20.00     0.090 N 
HETATM    8  S10 UNL     1     -33.738   5.079   2.901  1.00 20.00    -0.156 SA
HETATM    9  H27 UNL     1     -33.963   8.914   2.832  1.00 20.00     0.316 HD
ENDROOT
BRANCH   2  10
HETATM   10  C8  UNL     1     -31.788   8.304   1.067  1.00 20.00     0.032 C 
HETATM   11  C7  UNL     1     -32.380   9.541   0.482  1.00 20.00     0.007 C 
ENDBRANCH   2  10
TORSDOF 1
ENDMDL
MODEL 4
REMARK VINA RESULT:       2.6      2.051      4.102
REMARK  1 active torsions:
REMARK  status: ('A' for Active; 'I' for Inactive)
REMARK    1  A    between atoms: C2_2  and  C8_8 
ROOT
HETATM    1  C1  UNL     1     -33.750   5.008   1.935  1.00 20.00     0.284 C 
HETATM    2  C2  UNL     1     -32.687   6.978   3.008  1.00 20.00     0.233 C 
HETATM    3  C3  UNL     1     -34.226   4.491   3.292  1.00 20.00     0.071 C 
HETATM    4  C4  UNL     1     -34.118   7.299   3.491  1.00 20.00     0.076 C 
HETATM    5  C5  UNL     1     -33.155   3.705   4.046  1.00 20.00     0.023 C 
HETATM    6  C6  UNL     1     -34.181   8.464   4.481  1.00 20.00     0.023 C 
HETATM    7  N9  UNL     1     -32.618   5.927   1.981  1.00 20.00     0.090 N 
HETATM    8  S10 UNL     1     -34.861   5.846   4.340  1.00 20.00    -0.156 SA
HETATM    9  H27 UNL     1     -31.757   5.373   2.125  1.00 20.00     0.316 HD
ENDROOT
BRANCH   2  10
HETATM   10  C8  UNL     1     -31.962   8.214   2.454  1.00 20.00     0.032 C 
HETATM   11  C7  UNL     1     -31.914   8.194   0.964  1.00 20.00     0.007 C 
ENDBRANCH   2  10
TORSDOF 1
ENDMDL
