MODEL 1
REMARK VINA RESULT:      -0.4      0.000      0.000
REMARK  1 active torsions:
REMARK  status: ('A' for Active; 'I' for Inactive)
REMARK    1  A    between atoms: C3_3  and  C7_7 
ROOT
HETATM    1  C1  UNL     1     -33.539   5.998   2.064  1.00 20.00     0.284 C 
HETATM    2  C2  UNL     1     -32.052   8.396   3.071  1.00 20.00     0.109 C 
HETATM    3  C3  UNL     1     -31.921   7.815   1.657  1.00 20.00     0.229 C 
HETATM    4  C4  UNL     1     -33.810   6.346   3.531  1.00 20.00     0.071 C 
HETATM    5  C5  UNL     1     -35.198   5.873   3.957  1.00 20.00     0.023 C 
HETATM    6  N8  UNL     1     -32.198   6.375   1.613  1.00 20.00     0.089 N 
HETATM    7  S9  UNL     1     -33.696   8.147   3.799  1.00 20.00    -0.161 SA
HETATM    8  H24 UNL     1     -31.507   5.882   2.197  1.00 20.00     0.316 HD
ENDROOT
BRANCH   3   9
HETATM    9  C7  UNL     1     -32.715   8.602   0.608  1.00 20.00     0.032 C 
HETATM   10  C6  UNL     1     -32.259  10.020   0.526  1.00 20.00     0.007 C 
ENDBRANCH   3   9
TORSDOF 1
ENDMDL
MODEL 2
REMARK VINA RESULT:       0.4      1.796      4.278
REMARK  1 active torsions:
REMARK  status: ('A' for Active; 'I' for Inactive)
REMARK    1  A    between atoms: C3_3  and  C7_7 
ROOT
HETATM    1  C1  UNL     1     -32.542   5.856   1.931  1.00 20.00     0.284 C 
HETATM    2  C2  UNL     1     -34.824   6.207   3.840  1.00 20.00     0.109 C 
HETATM    3  C3  UNL     1     -34.217   4.856   3.441  1.00 20.00     0.229 C 
HETATM    4  C4  UNL     1     -32.994   7.307   2.123  1.00 20.00     0.071 C 
HETATM    5  C5  UNL     1     -31.842   8.276   1.871  1.00 20.00     0.023 C 
HETATM    6  N8  UNL     1     -33.621   4.881   2.101  1.00 20.00     0.089 N 
HETATM    7  S9  UNL     1     -33.624   7.569   3.815  1.00 20.00    -0.161 SA
HETATM    8  H24 UNL     1     -34.357   5.085   1.410  1.00 20.00     0.316 HD
ENDROOT
BRANCH   3   9
HETATM    9  C7  UNL     1     -33.264   4.290   4.501  1.00 20.00     0.032 C 
HETATM   10  C6  UNL     1     -33.337   2.801   4.564  1.00 20.00     0.007 C 
ENDBRANCH   3   9
TORSDOF 1
ENDMDL
MODEL 3
REMARK VINA RESULT:       1.2      2.672      3.537
REMARK  1 active torsions:
REMARK  status: ('A' for Active; 'I' for Inactive)
REMARK    1  A    between atoms: C3_3  and  C7_7 
ROOT
HETATM    1  C1  UNL     1     -34.834   4.761   4.815  1.00 20.00     0.284 C 
HETATM    2  C2  UNL     1     -33.777   6.231   2.429  1.00 20.00     0.109 C 
HETATM    3  C3  UNL     1     -34.696   6.840   3.495  1.00 20.00     0.229 C 
HETATM    4  C4  UNL     1     -33.975   3.911   3.873  1.00 20.00     0.071 C 
HETATM    5  C5  UNL     1     -33.300   2.769   4.628  1.00 20.00     0.023 C 
HETATM    6  N8  UNL     1     -35.555   5.838   4.136  1.00 20.00     0.089 N 
HETATM    7  S9  UNL     1     -32.689   4.930   3.076  1.00 20.00    -0.161 SA
HETATM    8  H24 UNL     1     -36.171   5.420   3.423  1.00 20.00     0.316 HD
ENDROOT
BRANCH   3   9
HETATM    9  C7  UNL     1     -33.944   7.709   4.510  1.00 20.00     0.032 C 
HETATM   10  C6  UNL     1     -32.716   8.310   3.913  1.00 20.00     0.007 C 
ENDBRANCH   3   9
TORSDOF 1
ENDMDL
MODEL 4
REMARK VINA RESULT:       1.6      1.584      4.098
REMARK  1 active torsions:
REMARK  status: ('A' for Active; 'I' for Inactive)
REMARK    1  A    between atoms: C3_3  and  C7_7 
ROOT
HETATM    1  C1  UNL     1     -32.752   8.599   2.791  1.00 20.00     0.284 C 
HETATM    2  C2  UNL     1     -32.846   5.616   2.538  1.00 20.00     0.109 C 
HETATM    3  C3  UNL     1     -33.426   6.413   3.713  1.00 20.00     0.229 C 
HETATM    4  C4  UNL     1     -32.057   8.043   1.545  1.00 20.00     0.071 C 
HETATM    5  C5  UNL     1     -32.063   9.067   0.412  1.00 20.00     0.023 C 
HETATM    6  N8  UNL     1     -32.725   7.683   3.932  1.00 20.00     0.089 N 
HETATM    7  S9  UNL     1     -32.883   6.523   0.967  1.00 20.00    -0.161 SA
HETATM    8  H24 UNL     1     -31.742   7.486   4.170  1.00 20.00     0.316 HD
ENDROOT
BRANCH   3   9
HETATM    9  C7  UNL     1     -34.947   6.585   3.629  1.00 20.00     0.032 C 
HETATM   10  C6  UNL     1     -35.663   5.517   4.386  1.00 20.00     0.007 C 
ENDBRANCH   3   9
TORSDOF 1
ENDMDL
MODEL 5
REMARK VINA RESULT:       2.1      2.144      2.725
REMARK  1 active torsions:
REMARK  status: ('A' for Active; 'I' for Inactive)
REMARK    1  A    between atoms: C3_3  and  C7_7 
ROOT
HETATM    1  C1  UNL     1     -34.150   5.840   4.252  1.00 20.00     0.284 C 
HETATM    2  C2  UNL     1     -33.226   5.935   1.405  1.00 20.00     0.109 C 
HETATM    3  C3  UNL     1     -33.585   7.164   2.250  1.00 20.00     0.229 C 
HETATM    4  C4  UNL     1     -33.903   4.468   3.617  1.00 20.00     0.071 C 
HETATM    5  C5  UNL     1     -33.529   3.434   4.675  1.00 20.00     0.023 C 
HETATM    6  N8  UNL     1     -34.572   6.861   3.292  1.00 20.00     0.089 N 
HETATM    7  S9  UNL     1     -32.561   4.559   2.384  1.00 20.00    -0.161 SA
HETATM    8  H24 UNL     1     -35.446   6.548   2.845  1.00 20.00     0.316 HD
ENDROOT
BRANCH   3   9
HETATM    9  C7  UNL     1     -32.354   7.897   2.796  1.00 20.00     0.032 C 
HETATM   10  C6  UNL     1     -31.448   8.341   1.697  1.00 20.00     0.007 C 
ENDBRANCH   3   9
TORSDOF 1
ENDMDL
MODEL 6
REMARK VINA RESULT:       2.4      1.909      3.067
REMARK  1 active torsions:
REMARK  status: ('A' for Active; 'I' for Inactive)
REMARK    1  A    between atoms: C3_3  and  C7_7 
ROOT
HETATM    1  C1  UNL     1     -32.225   8.029   3.013  1.00 20.00     0.284 C 
HETATM    2  C2  UNL     1     -34.037   6.020   1.728  1.00 20.00     0.109 C 
HETATM    3  C3  UNL     1     -32.653   6.415   1.198  1.00 20.00     0.229 C 
HETATM    4  C4  UNL     1     -33.576   7.851   3.713  1.00 20.00     0.071 C 
HETATM    5  C5  UNL     1     -33.470   8.183   5.199  1.00 20.00     0.023 C 
HETATM    6  N8  UNL     1     -32.277   7.783   1.571  1.00 20.00     0.089 N 
HETATM    7  S9  UNL     1     -34.175   6.137   3.534  1.00 20.00    -0.161 SA
HETATM    8  H24 UNL     1     -32.950   8.441   1.151  1.00 20.00     0.316 HD
ENDROOT
BRANCH   3   9
HETATM    9  C7  UNL     1     -31.565   5.390   1.539  1.00 20.00     0.032 C 
HETATM   10  C6  UNL     1     -31.431   4.357   0.471  1.00 20.00     0.007 C 
ENDBRANCH   3   9
TORSDOF 1
ENDMDL
MODEL 7
REMARK VINA RESULT:       2.4      2.168      3.296
REMARK  1 active torsions:
REMARK  status: ('A' for Active; 'I' for Inactive)
REMARK    1  A    between atoms: C3_3  and  C7_7 
ROOT
HETATM    1  C1  UNL     1     -33.513   5.387   2.943  1.00 20.00     0.284 C 
HETATM    2  C2  UNL     1     -33.608   8.368   2.668  1.00 20.00     0.109 C 
HETATM    3  C3  UNL     1     -34.196   7.579   3.845  1.00 20.00     0.229 C 
HETATM    4  C4  UNL     1     -32.897   5.927   1.649  1.00 20.00     0.071 C 
HETATM    5  C5  UNL     1     -31.818   4.984   1.122  1.00 20.00     0.023 C 
HETATM    6  N8  UNL     1     -34.597   6.220   3.465  1.00 20.00     0.089 N 
HETATM    7  S9  UNL     1     -32.157   7.572   1.923  1.00 20.00    -0.161 SA
HETATM    8  H24 UNL     1     -35.339   6.276   2.752  1.00 20.00     0.316 HD
ENDROOT
BRANCH   3   9
HETATM    9  C7  UNL     1     -33.303   7.605   5.091  1.00 20.00     0.032 C 
HETATM   10  C6  UNL     1     -32.388   8.783   5.085  1.00 20.00     0.007 C 
ENDBRANCH   3   9
TORSDOF 1
ENDMDL
MODEL 8
REMARK VINA RESULT:       2.5      1.991      2.973
REMARK  1 active torsions:
REMARK  status: ('A' for Active; 'I' for Inactive)
REMARK    1  A    between atoms: C3_3  and  C7_7 
ROOT
HETATM    1  C1  UNL     1     -34.066   5.991   3.290  1.00 20.00     0.284 C 
HETATM    2  C2  UNL     1     -31.743   6.561   1.486  1.00 20.00     0.109 C 
HETATM    3  C3  UNL     1     -32.658   5.336   1.373  1.00 20.00     0.229 C 
HETATM    4  C4  UNL     1     -33.280   7.257   3.645  1.00 20.00     0.071 C 
HETATM    5  C5  UNL     1     -34.172   8.274   4.352  1.00 20.00     0.023 C 
HETATM    6  N8  UNL     1     -33.247   4.953   2.661  1.00 20.00     0.089 N 
HETATM    7  S9  UNL     1     -32.585   8.028   2.144  1.00 20.00    -0.161 SA
HETATM    8  H24 UNL     1     -32.491   4.694   3.312  1.00 20.00     0.316 HD
ENDROOT
BRANCH   3   9
HETATM    9  C7  UNL     1     -33.704   5.468   0.261  1.00 20.00     0.032 C 
HETATM   10  C6  UNL     1     -33.904   4.178  -0.461  1.00 20.00     0.007 C 
ENDBRANCH   3   9
TORSDOF 1
ENDMDL
