MODEL 1
REMARK VINA RESULT:      -0.3      0.000      0.000
REMARK  1 active torsions:
REMARK  status: ('A' for Active; 'I' for Inactive)
REMARK    1  A    between atoms: C2_2  and  C6_6 
ROOT
HETATM    1  C1  UNL     1     -31.804   6.882   1.129  1.00 20.00     0.111 C 
HETATM    2  C2  UNL     1     -31.896   8.258   1.784  1.00 20.00     0.231 C 
HETATM    3  C3  UNL     1     -33.149   6.964   3.382  1.00 20.00     0.278 C 
HETATM    4  C4  UNL     1     -34.556   7.460   3.687  1.00 20.00     0.054 C 
HETATM    5  N7  UNL     1     -32.210   8.085   3.215  1.00 20.00     0.102 N 
HETATM    6  S8  UNL     1     -33.124   5.924   1.896  1.00 20.00    -0.132 SA
HETATM    7  H21 UNL     1     -31.348   7.912   3.754  1.00 20.00     0.317 HD
ENDROOT
BRANCH   2   8
HETATM    8  C6  UNL     1     -32.892   9.190   1.090  1.00 20.00     0.032 C 
HETATM    9  C5  UNL     1     -32.277   9.886  -0.082  1.00 20.00     0.007 C 
ENDBRANCH   2   8
TORSDOF 1
ENDMDL
MODEL 2
REMARK VINA RESULT:       0.1      2.630      4.056
REMARK  1 active torsions:
REMARK  status: ('A' for Active; 'I' for Inactive)
REMARK    1  A    between atoms: C2_2  and  C6_6 
ROOT
HETATM    1  C1  UNL     1     -33.127   5.778   1.845  1.00 20.00     0.111 C 
HETATM    2  C2  UNL     1     -33.947   5.261   3.024  1.00 20.00     0.231 C 
HETATM    3  C3  UNL     1     -33.917   7.611   3.549  1.00 20.00     0.278 C 
HETATM    4  C4  UNL     1     -33.394   7.980   4.932  1.00 20.00     0.054 C 
HETATM    5  N7  UNL     1     -34.723   6.381   3.591  1.00 20.00     0.102 N 
HETATM    6  S8  UNL     1     -32.559   7.408   2.364  1.00 20.00    -0.132 SA
HETATM    7  H21 UNL     1     -35.602   6.511   3.068  1.00 20.00     0.317 HD
ENDROOT
BRANCH   2   8
HETATM    8  C6  UNL     1     -33.098   4.559   4.086  1.00 20.00     0.032 C 
HETATM    9  C5  UNL     1     -33.612   3.189   4.391  1.00 20.00     0.007 C 
ENDBRANCH   2   8
TORSDOF 1
ENDMDL
MODEL 3
REMARK VINA RESULT:       0.8      2.000      3.465
REMARK  1 active torsions:
REMARK  status: ('A' for Active; 'I' for Inactive)
REMARK    1  A    between atoms: C2_2  and  C6_6 
ROOT
HETATM    1  C1  UNL     1     -32.361   8.162   3.056  1.00 20.00     0.111 C 
HETATM    2  C2  UNL     1     -33.208   7.006   3.582  1.00 20.00     0.231 C 
HETATM    3  C3  UNL     1     -32.435   6.036   1.518  1.00 20.00     0.278 C 
HETATM    4  C4  UNL     1     -33.515   5.524   0.574  1.00 20.00     0.054 C 
HETATM    5  N7  UNL     1     -32.774   5.759   2.922  1.00 20.00     0.102 N 
HETATM    6  S8  UNL     1     -32.158   7.815   1.298  1.00 20.00    -0.132 SA
HETATM    7  H21 UNL     1     -31.963   5.356   3.414  1.00 20.00     0.317 HD
ENDROOT
BRANCH   2   8
HETATM    8  C6  UNL     1     -34.712   7.242   3.424  1.00 20.00     0.032 C 
HETATM    9  C5  UNL     1     -35.513   6.114   3.990  1.00 20.00     0.007 C 
ENDBRANCH   2   8
TORSDOF 1
ENDMDL
MODEL 4
REMARK VINA RESULT:       1.3      1.998      3.329
REMARK  1 active torsions:
REMARK  status: ('A' for Active; 'I' for Inactive)
REMARK    1  A    between atoms: C2_2  and  C6_6 
ROOT
HETATM    1  C1  UNL     1     -33.543   5.868   2.954  1.00 20.00     0.111 C 
HETATM    2  C2  UNL     1     -32.746   5.641   1.671  1.00 20.00     0.231 C 
HETATM    3  C3  UNL     1     -32.124   7.920   2.137  1.00 20.00     0.278 C 
HETATM    4  C4  UNL     1     -32.373   8.923   1.017  1.00 20.00     0.054 C 
HETATM    5  N7  UNL     1     -31.653   6.631   1.608  1.00 20.00     0.102 N 
HETATM    6  S8  UNL     1     -33.619   7.660   3.131  1.00 20.00    -0.132 SA
HETATM    7  H21 UNL     1     -30.838   6.300   2.145  1.00 20.00     0.317 HD
ENDROOT
BRANCH   2   8
HETATM    8  C6  UNL     1     -33.614   5.667   0.412  1.00 20.00     0.032 C 
HETATM    9  C5  UNL     1     -33.692   4.322  -0.237  1.00 20.00     0.007 C 
ENDBRANCH   2   8
TORSDOF 1
ENDMDL
MODEL 5
REMARK VINA RESULT:       1.4      2.084      2.954
REMARK  1 active torsions:
REMARK  status: ('A' for Active; 'I' for Inactive)
REMARK    1  A    between atoms: C2_2  and  C6_6 
ROOT
HETATM    1  C1  UNL     1     -32.370   8.081   2.573  1.00 20.00     0.111 C 
HETATM    2  C2  UNL     1     -32.800   6.915   1.687  1.00 20.00     0.231 C 
HETATM    3  C3  UNL     1     -34.424   6.704   3.453  1.00 20.00     0.278 C 
HETATM    4  C4  UNL     1     -34.494   5.345   4.137  1.00 20.00     0.054 C 
HETATM    5  N7  UNL     1     -34.198   6.566   2.006  1.00 20.00     0.102 N 
HETATM    6  S8  UNL     1     -33.119   7.737   4.176  1.00 20.00    -0.132 SA
HETATM    7  H21 UNL     1     -34.848   7.171   1.483  1.00 20.00     0.317 HD
ENDROOT
BRANCH   2   8
HETATM    8  C6  UNL     1     -31.871   5.704   1.793  1.00 20.00     0.032 C 
HETATM    9  C5  UNL     1     -32.082   4.741   0.669  1.00 20.00     0.007 C 
ENDBRANCH   2   8
TORSDOF 1
ENDMDL
MODEL 6
REMARK VINA RESULT:       1.8      1.768      2.842
REMARK  1 active torsions:
REMARK  status: ('A' for Active; 'I' for Inactive)
REMARK    1  A    between atoms: C2_2  and  C6_6 
ROOT
HETATM    1  C1  UNL     1     -34.255   6.562   3.674  1.00 20.00     0.111 C 
HETATM    2  C2  UNL     1     -33.646   7.448   2.590  1.00 20.00     0.231 C 
HETATM    3  C3  UNL     1     -33.196   5.280   1.643  1.00 20.00     0.278 C 
HETATM    4  C4  UNL     1     -31.742   4.992   1.292  1.00 20.00     0.054 C 
HETATM    5  N7  UNL     1     -33.557   6.673   1.337  1.00 20.00     0.102 N 
HETATM    6  S8  UNL     1     -33.532   4.935   3.392  1.00 20.00    -0.132 SA
HETATM    7  H21 UNL     1     -34.453   6.707   0.829  1.00 20.00     0.317 HD
ENDROOT
BRANCH   2   8
HETATM    8  C6  UNL     1     -32.295   8.045   2.988  1.00 20.00     0.032 C 
HETATM    9  C5  UNL     1     -31.512   8.492   1.796  1.00 20.00     0.007 C 
ENDBRANCH   2   8
TORSDOF 1
ENDMDL
MODEL 7
REMARK VINA RESULT:       1.8      2.438      3.464
REMARK  1 active torsions:
REMARK  status: ('A' for Active; 'I' for Inactive)
REMARK    1  A    between atoms: C2_2  and  C6_6 
ROOT
HETATM    1  C1  UNL     1     -34.726   6.267   3.897  1.00 20.00     0.111 C 
HETATM    2  C2  UNL     1     -34.022   7.408   3.167  1.00 20.00     0.231 C 
HETATM    3  C3  UNL     1     -33.230   5.544   1.865  1.00 20.00     0.278 C 
HETATM    4  C4  UNL     1     -31.718   5.414   1.735  1.00 20.00     0.054 C 
HETATM    5  N7  UNL     1     -33.654   6.952   1.813  1.00 20.00     0.102 N 
HETATM    6  S8  UNL     1     -33.826   4.786   3.401  1.00 20.00    -0.132 SA
HETATM    7  H21 UNL     1     -34.451   7.062   1.168  1.00 20.00     0.317 HD
ENDROOT
BRANCH   2   8
HETATM    8  C6  UNL     1     -32.816   7.959   3.931  1.00 20.00     0.032 C 
HETATM    9  C5  UNL     1     -33.158   8.279   5.351  1.00 20.00     0.007 C 
ENDBRANCH   2   8
TORSDOF 1
ENDMDL
MODEL 8
REMARK VINA RESULT:       1.8      3.133      3.880
REMARK  1 active torsions:
REMARK  status: ('A' for Active; 'I' for Inactive)
REMARK    1  A    between atoms: C2_2  and  C6_6 
ROOT
HETATM    1  C1  UNL     1     -35.394   6.530   3.748  1.00 20.00     0.111 C 
HETATM    2  C2  UNL     1     -34.007   6.582   3.110  1.00 20.00     0.231 C 
HETATM    3  C3  UNL     1     -34.082   4.256   3.730  1.00 20.00     0.278 C 
HETATM    4  C4  UNL     1     -32.934   3.759   4.600  1.00 20.00     0.054 C 
HETATM    5  N7  UNL     1     -33.612   5.215   2.718  1.00 20.00     0.102 N 
HETATM    6  S8  UNL     1     -35.385   5.021   4.734  1.00 20.00    -0.132 SA
HETATM    7  H21 UNL     1     -34.002   4.979   1.794  1.00 20.00     0.317 HD
ENDROOT
BRANCH   2   8
HETATM    8  C6  UNL     1     -32.958   7.245   4.005  1.00 20.00     0.032 C 
HETATM    9  C5  UNL     1     -33.569   8.256   4.922  1.00 20.00     0.007 C 
ENDBRANCH   2   8
TORSDOF 1
ENDMDL
MODEL 9
REMARK VINA RESULT:       1.9      1.580      3.380
REMARK  1 active torsions:
REMARK  status: ('A' for Active; 'I' for Inactive)
REMARK    1  A    between atoms: C2_2  and  C6_6 
ROOT
HETATM    1  C1  UNL     1     -33.328   5.633   1.616  1.00 20.00     0.111 C 
HETATM    2  C2  UNL     1     -33.980   6.877   2.213  1.00 20.00     0.231 C 
HETATM    3  C3  UNL     1     -31.814   7.776   1.669  1.00 20.00     0.278 C 
HETATM    4  C4  UNL     1     -31.057   8.435   2.815  1.00 20.00     0.054 C 
HETATM    5  N7  UNL     1     -33.253   8.070   1.738  1.00 20.00     0.102 N 
HETATM    6  S8  UNL     1     -31.560   5.980   1.659  1.00 20.00    -0.132 SA
HETATM    7  H21 UNL     1     -33.604   8.359   0.812  1.00 20.00     0.317 HD
ENDROOT
BRANCH   2   8
HETATM    8  C6  UNL     1     -34.071   6.835   3.740  1.00 20.00     0.032 C 
HETATM    9  C5  UNL     1     -35.286   6.096   4.204  1.00 20.00     0.007 C 
ENDBRANCH   2   8
TORSDOF 1
ENDMDL
