MODEL 1
REMARK VINA RESULT:      -1.2      0.000      0.000
REMARK  4 active torsions:
REMARK  status: ('A' for Active; 'I' for Inactive)
REMARK    1  A    between atoms: C1_1  and  C4_4 
REMARK    2  A    between atoms: C1_1  and  O11_11 
REMARK    3  A    between atoms: C5_5  and  C8_8 
REMARK    4  A    between atoms: C8_8  and  C9_9 
ROOT
HETATM    1  C2  UNL     1     -33.493   7.252   4.373  1.00 20.00     0.019 C 
HETATM    2  C3  UNL     1     -35.024   7.063   2.875  1.00 20.00     0.019 C 
HETATM    3  C4  UNL     1     -33.705   7.862   2.970  1.00 20.00     0.086 C 
HETATM    4  C5  UNL     1     -34.543   6.167   4.039  1.00 20.00    -0.013 C 
ENDROOT
BRANCH   3   5
HETATM    5  C1  UNL     1     -32.670   7.507   1.957  1.00 20.00     0.262 C 
HETATM    6  O10 UNL     1     -32.546   6.392   1.467  1.00 20.00    -0.265 OA
BRANCH   5   7
HETATM    7  O11 UNL     1     -31.908   8.603   1.681  1.00 20.00    -0.326 OA
HETATM    8  C7  UNL     1     -32.359   9.404   0.583  1.00 20.00     0.213 C 
ENDBRANCH   5   7
ENDBRANCH   3   5
BRANCH   4   9
HETATM    9  C8  UNL     1     -33.996   4.803   3.651  1.00 20.00     0.004 C 
BRANCH   9  10
HETATM   10  C9  UNL     1     -34.103   3.802   4.804  1.00 20.00    -0.004 C 
HETATM   11  C6  UNL     1     -32.979   2.780   4.766  1.00 20.00     0.005 C 
ENDBRANCH   9  10
ENDBRANCH   4   9
TORSDOF 4
ENDMDL
MODEL 2
REMARK VINA RESULT:      -1.1      1.384      2.266
REMARK  4 active torsions:
REMARK  status: ('A' for Active; 'I' for Inactive)
REMARK    1  A    between atoms: C1_1  and  C4_4 
REMARK    2  A    between atoms: C1_1  and  O11_11 
REMARK    3  A    between atoms: C5_5  and  C8_8 
REMARK    4  A    between atoms: C8_8  and  C9_9 
ROOT
HETATM    1  C2  UNL     1     -33.492   6.227   0.793  1.00 20.00     0.019 C 
HETATM    2  C3  UNL     1     -31.850   5.663   2.062  1.00 20.00     0.019 C 
HETATM    3  C4  UNL     1     -32.052   6.753   0.986  1.00 20.00     0.086 C 
HETATM    4  C5  UNL     1     -33.384   5.490   2.148  1.00 20.00    -0.013 C 
ENDROOT
BRANCH   3   5
HETATM    5  C1  UNL     1     -31.947   8.158   1.474  1.00 20.00     0.262 C 
HETATM    6  O10 UNL     1     -31.890   8.470   2.656  1.00 20.00    -0.265 OA
BRANCH   5   7
HETATM    7  O11 UNL     1     -31.927   9.009   0.409  1.00 20.00    -0.326 OA
HETATM    8  C7  UNL     1     -32.650  10.232   0.587  1.00 20.00     0.213 C 
ENDBRANCH   5   7
ENDBRANCH   3   5
BRANCH   4   9
HETATM    9  C8  UNL     1     -34.067   6.158   3.330  1.00 20.00     0.004 C 
BRANCH   9  10
HETATM   10  C9  UNL     1     -34.760   5.135   4.234  1.00 20.00    -0.004 C 
HETATM   11  C6  UNL     1     -33.959   3.848   4.341  1.00 20.00     0.005 C 
ENDBRANCH   9  10
ENDBRANCH   4   9
TORSDOF 4
ENDMDL
MODEL 3
REMARK VINA RESULT:      -1.0      1.821      4.998
REMARK  4 active torsions:
REMARK  status: ('A' for Active; 'I' for Inactive)
REMARK    1  A    between atoms: C1_1  and  C4_4 
REMARK    2  A    between atoms: C1_1  and  O11_11 
REMARK    3  A    between atoms: C5_5  and  C8_8 
REMARK    4  A    between atoms: C8_8  and  C9_9 
ROOT
HETATM    1  C2  UNL     1     -31.902   5.647   2.010  1.00 20.00     0.019 C 
HETATM    2  C3  UNL     1     -33.610   6.311   0.886  1.00 20.00     0.019 C 
HETATM    3  C4  UNL     1     -33.427   5.462   2.164  1.00 20.00     0.086 C 
HETATM    4  C5  UNL     1     -32.161   6.826   1.044  1.00 20.00    -0.013 C 
ENDROOT
BRANCH   3   5
HETATM    5  C1  UNL     1     -34.018   6.042   3.404  1.00 20.00     0.262 C 
HETATM    6  O10 UNL     1     -33.934   7.222   3.717  1.00 20.00    -0.265 OA
BRANCH   5   7
HETATM    7  O11 UNL     1     -34.649   5.060   4.110  1.00 20.00    -0.326 OA
HETATM    8  C7  UNL     1     -33.895   3.857   4.297  1.00 20.00     0.213 C 
ENDBRANCH   5   7
ENDBRANCH   3   5
BRANCH   4   9
HETATM    9  C8  UNL     1     -32.006   8.219   1.630  1.00 20.00     0.004 C 
BRANCH   9  10
HETATM   10  C9  UNL     1     -31.561   9.231   0.572  1.00 20.00    -0.004 C 
HETATM   11  C6  UNL     1     -32.680  10.193   0.208  1.00 20.00     0.005 C 
ENDBRANCH   9  10
ENDBRANCH   4   9
TORSDOF 4
ENDMDL
MODEL 4
REMARK VINA RESULT:      -0.8      1.499      4.768
REMARK  4 active torsions:
REMARK  status: ('A' for Active; 'I' for Inactive)
REMARK    1  A    between atoms: C1_1  and  C4_4 
REMARK    2  A    between atoms: C1_1  and  O11_11 
REMARK    3  A    between atoms: C5_5  and  C8_8 
REMARK    4  A    between atoms: C8_8  and  C9_9 
ROOT
HETATM    1  C2  UNL     1     -34.974   7.084   2.924  1.00 20.00     0.019 C 
HETATM    2  C3  UNL     1     -33.442   7.250   4.424  1.00 20.00     0.019 C 
HETATM    3  C4  UNL     1     -34.475   6.162   4.058  1.00 20.00     0.086 C 
HETATM    4  C5  UNL     1     -33.667   7.901   3.039  1.00 20.00    -0.013 C 
ENDROOT
BRANCH   3   5
HETATM    5  C1  UNL     1     -33.900   4.860   3.614  1.00 20.00     0.262 C 
HETATM    6  O10 UNL     1     -33.224   4.718   2.604  1.00 20.00    -0.265 OA
BRANCH   5   7
HETATM    7  O11 UNL     1     -34.247   3.883   4.501  1.00 20.00    -0.326 OA
HETATM    8  C7  UNL     1     -33.231   2.911   4.773  1.00 20.00     0.213 C 
ENDBRANCH   5   7
ENDBRANCH   3   5
BRANCH   4   9
HETATM    9  C8  UNL     1     -32.606   7.620   1.988  1.00 20.00     0.004 C 
BRANCH   9  10
HETATM   10  C9  UNL     1     -31.845   8.890   1.599  1.00 20.00    -0.004 C 
HETATM   11  C6  UNL     1     -32.459   9.562   0.382  1.00 20.00     0.005 C 
ENDBRANCH   9  10
ENDBRANCH   4   9
TORSDOF 4
ENDMDL
MODEL 5
REMARK VINA RESULT:      -0.8      0.872      1.549
REMARK  4 active torsions:
REMARK  status: ('A' for Active; 'I' for Inactive)
REMARK    1  A    between atoms: C1_1  and  C4_4 
REMARK    2  A    between atoms: C1_1  and  O11_11 
REMARK    3  A    between atoms: C5_5  and  C8_8 
REMARK    4  A    between atoms: C8_8  and  C9_9 
ROOT
HETATM    1  C2  UNL     1     -33.841   7.146   4.612  1.00 20.00     0.019 C 
HETATM    2  C3  UNL     1     -35.232   6.943   2.985  1.00 20.00     0.019 C 
HETATM    3  C4  UNL     1     -33.961   7.791   3.214  1.00 20.00     0.086 C 
HETATM    4  C5  UNL     1     -34.811   6.031   4.160  1.00 20.00    -0.013 C 
ENDROOT
BRANCH   3   5
HETATM    5  C1  UNL     1     -32.831   7.511   2.283  1.00 20.00     0.262 C 
HETATM    6  O10 UNL     1     -31.785   8.147   2.263  1.00 20.00    -0.265 OA
BRANCH   5   7
HETATM    7  O11 UNL     1     -33.153   6.457   1.480  1.00 20.00    -0.326 OA
HETATM    8  C7  UNL     1     -32.076   5.563   1.177  1.00 20.00     0.213 C 
ENDBRANCH   5   7
ENDBRANCH   3   5
BRANCH   4   9
HETATM    9  C8  UNL     1     -34.176   4.703   3.781  1.00 20.00     0.004 C 
BRANCH   9  10
HETATM   10  C9  UNL     1     -34.019   3.785   4.996  1.00 20.00    -0.004 C 
HETATM   11  C6  UNL     1     -32.952   2.727   4.766  1.00 20.00     0.005 C 
ENDBRANCH   9  10
ENDBRANCH   4   9
TORSDOF 4
ENDMDL
MODEL 6
REMARK VINA RESULT:      -0.7      2.158      5.112
REMARK  4 active torsions:
REMARK  status: ('A' for Active; 'I' for Inactive)
REMARK    1  A    between atoms: C1_1  and  C4_4 
REMARK    2  A    between atoms: C1_1  and  O11_11 
REMARK    3  A    between atoms: C5_5  and  C8_8 
REMARK    4  A    between atoms: C8_8  and  C9_9 
ROOT
HETATM    1  C2  UNL     1     -31.605   7.924   2.839  1.00 20.00     0.019 C 
HETATM    2  C3  UNL     1     -33.011   7.091   1.442  1.00 20.00     0.019 C 
HETATM    3  C4  UNL     1     -32.765   6.912   2.957  1.00 20.00     0.086 C 
HETATM    4  C5  UNL     1     -32.175   8.391   1.481  1.00 20.00    -0.013 C 
ENDROOT
BRANCH   3   5
HETATM    5  C1  UNL     1     -33.891   7.331   3.840  1.00 20.00     0.262 C 
HETATM    6  O10 UNL     1     -33.788   8.160   4.734  1.00 20.00    -0.265 OA
BRANCH   5   7
HETATM    7  O11 UNL     1     -35.021   6.651   3.492  1.00 20.00    -0.326 OA
HETATM    8  C7  UNL     1     -35.353   5.541   4.332  1.00 20.00     0.213 C 
ENDBRANCH   5   7
ENDBRANCH   3   5
BRANCH   4   9
HETATM    9  C8  UNL     1     -32.961   9.692   1.495  1.00 20.00     0.004 C 
BRANCH   9  10
HETATM   10  C9  UNL     1     -32.587  10.591   0.314  1.00 20.00    -0.004 C 
HETATM   11  C6  UNL     1     -32.550   9.815  -0.992  1.00 20.00     0.005 C 
ENDBRANCH   9  10
ENDBRANCH   4   9
TORSDOF 4
ENDMDL
MODEL 7
REMARK VINA RESULT:      -0.5      1.684      2.716
REMARK  4 active torsions:
REMARK  status: ('A' for Active; 'I' for Inactive)
REMARK    1  A    between atoms: C1_1  and  C4_4 
REMARK    2  A    between atoms: C1_1  and  O11_11 
REMARK    3  A    between atoms: C5_5  and  C8_8 
REMARK    4  A    between atoms: C8_8  and  C9_9 
ROOT
HETATM    1  C2  UNL     1     -32.388   6.623   1.396  1.00 20.00     0.019 C 
HETATM    2  C3  UNL     1     -31.830   8.163   2.789  1.00 20.00     0.019 C 
HETATM    3  C4  UNL     1     -31.740   8.018   1.254  1.00 20.00     0.086 C 
HETATM    4  C5  UNL     1     -32.855   7.006   2.818  1.00 20.00    -0.013 C 
ENDROOT
BRANCH   3   5
HETATM    5  C1  UNL     1     -32.530   9.012   0.472  1.00 20.00     0.262 C 
HETATM    6  O10 UNL     1     -32.896   8.840  -0.683  1.00 20.00    -0.265 OA
BRANCH   5   7
HETATM    7  O11 UNL     1     -32.767  10.112   1.242  1.00 20.00    -0.326 OA
HETATM    8  C7  UNL     1     -32.450  11.368   0.632  1.00 20.00     0.213 C 
ENDBRANCH   5   7
ENDBRANCH   3   5
BRANCH   4   9
HETATM    9  C8  UNL     1     -34.314   7.408   2.959  1.00 20.00     0.004 C 
BRANCH   9  10
HETATM   10  C9  UNL     1     -35.030   6.575   4.024  1.00 20.00    -0.004 C 
HETATM   11  C6  UNL     1     -34.554   5.131   4.022  1.00 20.00     0.005 C 
ENDBRANCH   9  10
ENDBRANCH   4   9
TORSDOF 4
ENDMDL
MODEL 8
REMARK VINA RESULT:      -0.4      1.970      4.716
REMARK  4 active torsions:
REMARK  status: ('A' for Active; 'I' for Inactive)
REMARK    1  A    between atoms: C1_1  and  C4_4 
REMARK    2  A    between atoms: C1_1  and  O11_11 
REMARK    3  A    between atoms: C5_5  and  C8_8 
REMARK    4  A    between atoms: C8_8  and  C9_9 
ROOT
HETATM    1  C2  UNL     1     -31.633   5.337   1.689  1.00 20.00     0.019 C 
HETATM    2  C3  UNL     1     -33.504   5.919   0.804  1.00 20.00     0.019 C 
HETATM    3  C4  UNL     1     -33.094   4.864   1.854  1.00 20.00     0.086 C 
HETATM    4  C5  UNL     1     -32.149   6.631   1.018  1.00 20.00    -0.013 C 
ENDROOT
BRANCH   3   5
HETATM    5  C1  UNL     1     -33.677   5.056   3.214  1.00 20.00     0.262 C 
HETATM    6  O10 UNL     1     -33.717   4.185   4.071  1.00 20.00    -0.265 OA
BRANCH   5   7
HETATM    7  O11 UNL     1     -34.144   6.332   3.332  1.00 20.00    -0.326 OA
HETATM    8  C7  UNL     1     -35.371   6.472   4.056  1.00 20.00     0.213 C 
ENDBRANCH   5   7
ENDBRANCH   3   5
BRANCH   4   9
HETATM    9  C8  UNL     1     -32.176   7.874   1.891  1.00 20.00     0.004 C 
BRANCH   9  10
HETATM   10  C9  UNL     1     -31.568   9.082   1.175  1.00 20.00    -0.004 C 
HETATM   11  C6  UNL     1     -32.573   9.754   0.254  1.00 20.00     0.005 C 
ENDBRANCH   9  10
ENDBRANCH   4   9
TORSDOF 4
ENDMDL
MODEL 9
REMARK VINA RESULT:      -0.3      1.739      4.675
REMARK  4 active torsions:
REMARK  status: ('A' for Active; 'I' for Inactive)
REMARK    1  A    between atoms: C1_1  and  C4_4 
REMARK    2  A    between atoms: C1_1  and  O11_11 
REMARK    3  A    between atoms: C5_5  and  C8_8 
REMARK    4  A    between atoms: C8_8  and  C9_9 
ROOT
HETATM    1  C2  UNL     1     -34.213   8.722   3.243  1.00 20.00     0.019 C 
HETATM    2  C3  UNL     1     -32.652   7.668   4.280  1.00 20.00     0.019 C 
HETATM    3  C4  UNL     1     -34.194   7.579   4.281  1.00 20.00     0.086 C 
HETATM    4  C5  UNL     1     -32.718   8.457   2.952  1.00 20.00    -0.013 C 
ENDROOT
BRANCH   3   5
HETATM    5  C1  UNL     1     -34.758   6.281   3.811  1.00 20.00     0.262 C 
HETATM    6  O10 UNL     1     -35.947   6.089   3.594  1.00 20.00    -0.265 OA
BRANCH   5   7
HETATM    7  O11 UNL     1     -33.752   5.371   3.671  1.00 20.00    -0.326 OA
HETATM    8  C7  UNL     1     -34.028   4.065   4.187  1.00 20.00     0.213 C 
ENDBRANCH   5   7
ENDBRANCH   3   5
BRANCH   4   9
HETATM    9  C8  UNL     1     -32.410   7.668   1.689  1.00 20.00     0.004 C 
BRANCH   9  10
HETATM   10  C9  UNL     1     -31.643   8.512   0.669  1.00 20.00    -0.004 C 
HETATM   11  C6  UNL     1     -32.424   9.753   0.266  1.00 20.00     0.005 C 
ENDBRANCH   9  10
ENDBRANCH   4   9
TORSDOF 4
ENDMDL
