MODEL 1
REMARK VINA RESULT:       0.1      0.000      0.000
REMARK  3 active torsions:
REMARK  status: ('A' for Active; 'I' for Inactive)
REMARK    1  A    between atoms: C1_1  and  C6_6 
REMARK    2  A    between atoms: C1_1  and  O9_9 
REMARK    3  A    between atoms: C7_7  and  O9_9 
ROOT
HETATM    1  C1  UNL     1     -33.379   6.223   2.386  1.00 20.00     0.274 C 
HETATM    2  O8  UNL     1     -32.979   5.385   1.587  1.00 20.00    -0.264 OA
ENDROOT
BRANCH   1   3
HETATM    3  C6  UNL     1     -33.919   5.912   3.772  1.00 20.00     0.154 C 
HETATM    4  C2  UNL     1     -35.351   6.424   3.907  1.00 20.00     0.033 C 
HETATM    5  S10 UNL     1     -33.897   4.100   3.998  1.00 20.00    -0.082 SA
ENDBRANCH   1   3
BRANCH   1   6
HETATM    6  O9  UNL     1     -33.415   7.574   2.168  1.00 20.00    -0.310 OA
BRANCH   6   7
HETATM    7  C7  UNL     1     -32.156   8.190   1.895  1.00 20.00     0.060 C 
HETATM    8  C3  UNL     1     -32.372   9.305   0.874  1.00 20.00     0.045 C 
HETATM    9  C4  UNL     1     -31.628   8.760   3.210  1.00 20.00     0.045 C 
HETATM   10  C5  UNL     1     -31.203   7.128   1.349  1.00 20.00     0.045 C 
ENDBRANCH   6   7
ENDBRANCH   1   6
TORSDOF 3
ENDMDL
MODEL 2
REMARK VINA RESULT:       0.1      0.024      1.378
REMARK  3 active torsions:
REMARK  status: ('A' for Active; 'I' for Inactive)
REMARK    1  A    between atoms: C1_1  and  C6_6 
REMARK    2  A    between atoms: C1_1  and  O9_9 
REMARK    3  A    between atoms: C7_7  and  O9_9 
ROOT
HETATM    1  C1  UNL     1     -33.380   6.213   2.375  1.00 20.00     0.274 C 
HETATM    2  O8  UNL     1     -32.993   5.375   1.570  1.00 20.00    -0.264 OA
ENDROOT
BRANCH   1   3
HETATM    3  C6  UNL     1     -33.913   5.901   3.763  1.00 20.00     0.154 C 
HETATM    4  C2  UNL     1     -35.351   6.397   3.899  1.00 20.00     0.033 C 
HETATM    5  S10 UNL     1     -33.869   4.091   3.996  1.00 20.00    -0.082 SA
ENDBRANCH   1   3
BRANCH   1   6
HETATM    6  O9  UNL     1     -33.403   7.566   2.164  1.00 20.00    -0.310 OA
BRANCH   6   7
HETATM    7  C7  UNL     1     -32.137   8.174   1.910  1.00 20.00     0.060 C 
HETATM    8  C3  UNL     1     -31.188   7.110   1.361  1.00 20.00     0.045 C 
HETATM    9  C4  UNL     1     -32.357   9.282   0.881  1.00 20.00     0.045 C 
HETATM   10  C5  UNL     1     -31.605   8.755   3.219  1.00 20.00     0.045 C 
ENDBRANCH   6   7
ENDBRANCH   1   6
TORSDOF 3
ENDMDL
MODEL 3
REMARK VINA RESULT:       0.1      0.034      1.375
REMARK  3 active torsions:
REMARK  status: ('A' for Active; 'I' for Inactive)
REMARK    1  A    between atoms: C1_1  and  C6_6 
REMARK    2  A    between atoms: C1_1  and  O9_9 
REMARK    3  A    between atoms: C7_7  and  O9_9 
ROOT
HETATM    1  C1  UNL     1     -33.394   6.217   2.382  1.00 20.00     0.274 C 
HETATM    2  O8  UNL     1     -33.013   5.380   1.573  1.00 20.00    -0.264 OA
ENDROOT
BRANCH   1   3
HETATM    3  C6  UNL     1     -33.927   5.902   3.770  1.00 20.00     0.154 C 
HETATM    4  C2  UNL     1     -35.369   6.387   3.904  1.00 20.00     0.033 C 
HETATM    5  S10 UNL     1     -33.867   4.093   4.006  1.00 20.00    -0.082 SA
ENDBRANCH   1   3
BRANCH   1   6
HETATM    6  O9  UNL     1     -33.413   7.570   2.175  1.00 20.00    -0.310 OA
BRANCH   6   7
HETATM    7  C7  UNL     1     -32.146   8.172   1.908  1.00 20.00     0.060 C 
HETATM    8  C3  UNL     1     -31.595   8.744   3.213  1.00 20.00     0.045 C 
HETATM    9  C4  UNL     1     -31.223   7.081   1.367  1.00 20.00     0.045 C 
HETATM   10  C5  UNL     1     -32.341   9.275   0.868  1.00 20.00     0.045 C 
ENDBRANCH   6   7
ENDBRANCH   1   6
TORSDOF 3
ENDMDL
MODEL 4
REMARK VINA RESULT:       0.6      2.259      3.873
REMARK  3 active torsions:
REMARK  status: ('A' for Active; 'I' for Inactive)
REMARK    1  A    between atoms: C1_1  and  C6_6 
REMARK    2  A    between atoms: C1_1  and  O9_9 
REMARK    3  A    between atoms: C7_7  and  O9_9 
ROOT
HETATM    1  C1  UNL     1     -32.708   6.861   1.822  1.00 20.00     0.274 C 
HETATM    2  O8  UNL     1     -31.960   5.966   1.447  1.00 20.00    -0.264 OA
ENDROOT
BRANCH   1   3
HETATM    3  C6  UNL     1     -32.307   8.319   1.974  1.00 20.00     0.154 C 
HETATM    4  C2  UNL     1     -30.902   8.421   2.563  1.00 20.00     0.033 C 
HETATM    5  S10 UNL     1     -32.332   9.092   0.320  1.00 20.00    -0.082 SA
ENDBRANCH   1   3
BRANCH   1   6
HETATM    6  O9  UNL     1     -34.022   6.703   2.171  1.00 20.00    -0.310 OA
BRANCH   6   7
HETATM    7  C7  UNL     1     -34.262   6.359   3.535  1.00 20.00     0.060 C 
HETATM    8  C3  UNL     1     -33.661   7.446   4.424  1.00 20.00     0.045 C 
HETATM    9  C4  UNL     1     -35.775   6.280   3.731  1.00 20.00     0.045 C 
HETATM   10  C5  UNL     1     -33.613   5.004   3.816  1.00 20.00     0.045 C 
ENDBRANCH   6   7
ENDBRANCH   1   6
TORSDOF 3
ENDMDL
MODEL 5
REMARK VINA RESULT:       0.6      2.261      3.940
REMARK  3 active torsions:
REMARK  status: ('A' for Active; 'I' for Inactive)
REMARK    1  A    between atoms: C1_1  and  C6_6 
REMARK    2  A    between atoms: C1_1  and  O9_9 
REMARK    3  A    between atoms: C7_7  and  O9_9 
ROOT
HETATM    1  C1  UNL     1     -32.724   6.868   1.819  1.00 20.00     0.274 C 
HETATM    2  O8  UNL     1     -31.982   5.969   1.444  1.00 20.00    -0.264 OA
ENDROOT
BRANCH   1   3
HETATM    3  C6  UNL     1     -32.316   8.324   1.969  1.00 20.00     0.154 C 
HETATM    4  C2  UNL     1     -30.907   8.420   2.551  1.00 20.00     0.033 C 
HETATM    5  S10 UNL     1     -32.347   9.098   0.316  1.00 20.00    -0.082 SA
ENDBRANCH   1   3
BRANCH   1   6
HETATM    6  O9  UNL     1     -34.039   6.717   2.170  1.00 20.00    -0.310 OA
BRANCH   6   7
HETATM    7  C7  UNL     1     -34.280   6.375   3.534  1.00 20.00     0.060 C 
HETATM    8  C3  UNL     1     -35.788   6.269   3.750  1.00 20.00     0.045 C 
HETATM    9  C4  UNL     1     -33.603   5.031   3.797  1.00 20.00     0.045 C 
HETATM   10  C5  UNL     1     -33.677   7.462   4.423  1.00 20.00     0.045 C 
ENDBRANCH   6   7
ENDBRANCH   1   6
TORSDOF 3
ENDMDL
MODEL 6
REMARK VINA RESULT:       0.6      2.262      3.946
REMARK  3 active torsions:
REMARK  status: ('A' for Active; 'I' for Inactive)
REMARK    1  A    between atoms: C1_1  and  C6_6 
REMARK    2  A    between atoms: C1_1  and  O9_9 
REMARK    3  A    between atoms: C7_7  and  O9_9 
ROOT
HETATM    1  C1  UNL     1     -32.721   6.871   1.815  1.00 20.00     0.274 C 
HETATM    2  O8  UNL     1     -31.979   5.970   1.442  1.00 20.00    -0.264 OA
ENDROOT
BRANCH   1   3
HETATM    3  C6  UNL     1     -32.312   8.326   1.965  1.00 20.00     0.154 C 
HETATM    4  C2  UNL     1     -30.903   8.421   2.546  1.00 20.00     0.033 C 
HETATM    5  S10 UNL     1     -32.342   9.099   0.311  1.00 20.00    -0.082 SA
ENDBRANCH   1   3
BRANCH   1   6
HETATM    6  O9  UNL     1     -34.036   6.721   2.166  1.00 20.00    -0.310 OA
BRANCH   6   7
HETATM    7  C7  UNL     1     -34.276   6.360   3.527  1.00 20.00     0.060 C 
HETATM    8  C3  UNL     1     -33.601   5.017   3.799  1.00 20.00     0.045 C 
HETATM    9  C4  UNL     1     -33.672   7.454   4.406  1.00 20.00     0.045 C 
HETATM   10  C5  UNL     1     -35.785   6.266   3.746  1.00 20.00     0.045 C 
ENDBRANCH   6   7
ENDBRANCH   1   6
TORSDOF 3
ENDMDL
MODEL 7
REMARK VINA RESULT:       0.8      1.207      2.089
REMARK  3 active torsions:
REMARK  status: ('A' for Active; 'I' for Inactive)
REMARK    1  A    between atoms: C1_1  and  C6_6 
REMARK    2  A    between atoms: C1_1  and  O9_9 
REMARK    3  A    between atoms: C7_7  and  O9_9 
ROOT
HETATM    1  C1  UNL     1     -33.717   7.503   3.931  1.00 20.00     0.274 C 
HETATM    2  O8  UNL     1     -32.978   7.924   4.813  1.00 20.00    -0.264 OA
ENDROOT
BRANCH   1   3
HETATM    3  C6  UNL     1     -34.813   6.472   4.137  1.00 20.00     0.154 C 
HETATM    4  C2  UNL     1     -35.948   6.703   3.141  1.00 20.00     0.033 C 
HETATM    5  S10 UNL     1     -34.095   4.815   3.868  1.00 20.00    -0.082 SA
ENDBRANCH   1   3
BRANCH   1   6
HETATM    6  O9  UNL     1     -33.678   7.881   2.615  1.00 20.00    -0.310 OA
BRANCH   6   7
HETATM    7  C7  UNL     1     -32.381   7.910   2.018  1.00 20.00     0.060 C 
HETATM    8  C3  UNL     1     -32.035   6.501   1.541  1.00 20.00     0.045 C 
HETATM    9  C4  UNL     1     -32.440   8.879   0.838  1.00 20.00     0.045 C 
HETATM   10  C5  UNL     1     -31.376   8.395   3.062  1.00 20.00     0.045 C 
ENDBRANCH   6   7
ENDBRANCH   1   6
TORSDOF 3
ENDMDL
MODEL 8
REMARK VINA RESULT:       1.1      1.114      1.883
REMARK  3 active torsions:
REMARK  status: ('A' for Active; 'I' for Inactive)
REMARK    1  A    between atoms: C1_1  and  C6_6 
REMARK    2  A    between atoms: C1_1  and  O9_9 
REMARK    3  A    between atoms: C7_7  and  O9_9 
ROOT
HETATM    1  C1  UNL     1     -33.349   6.152   2.106  1.00 20.00     0.274 C 
HETATM    2  O8  UNL     1     -32.671   5.405   1.412  1.00 20.00    -0.264 OA
ENDROOT
BRANCH   1   3
HETATM    3  C6  UNL     1     -34.330   5.694   3.172  1.00 20.00     0.154 C 
HETATM    4  C2  UNL     1     -33.774   4.481   3.915  1.00 20.00     0.033 C 
HETATM    5  S10 UNL     1     -34.576   7.068   4.348  1.00 20.00    -0.082 SA
ENDBRANCH   1   3
BRANCH   1   6
HETATM    6  O9  UNL     1     -33.344   7.520   2.038  1.00 20.00    -0.310 OA
BRANCH   6   7
HETATM    7  C7  UNL     1     -32.072   8.123   1.803  1.00 20.00     0.060 C 
HETATM    8  C3  UNL     1     -31.125   7.059   1.250  1.00 20.00     0.045 C 
HETATM    9  C4  UNL     1     -32.276   9.243   0.784  1.00 20.00     0.045 C 
HETATM   10  C5  UNL     1     -31.548   8.685   3.123  1.00 20.00     0.045 C 
ENDBRANCH   6   7
ENDBRANCH   1   6
TORSDOF 3
ENDMDL
MODEL 9
REMARK VINA RESULT:       1.1      2.012      3.012
REMARK  3 active torsions:
REMARK  status: ('A' for Active; 'I' for Inactive)
REMARK    1  A    between atoms: C1_1  and  C6_6 
REMARK    2  A    between atoms: C1_1  and  O9_9 
REMARK    3  A    between atoms: C7_7  and  O9_9 
ROOT
HETATM    1  C1  UNL     1     -32.414   7.973   1.944  1.00 20.00     0.274 C 
HETATM    2  O8  UNL     1     -31.398   8.163   2.601  1.00 20.00    -0.264 OA
ENDROOT
BRANCH   1   3
HETATM    3  C6  UNL     1     -33.094   6.626   1.766  1.00 20.00     0.154 C 
HETATM    4  C2  UNL     1     -32.056   5.547   1.467  1.00 20.00     0.033 C 
HETATM    5  S10 UNL     1     -33.966   6.219   3.317  1.00 20.00    -0.082 SA
ENDBRANCH   1   3
BRANCH   1   6
HETATM    6  O9  UNL     1     -33.106   8.935   1.257  1.00 20.00    -0.310 OA
BRANCH   6   7
HETATM    7  C7  UNL     1     -32.326   9.751   0.383  1.00 20.00     0.060 C 
HETATM    8  C3  UNL     1     -30.981   9.066   0.150  1.00 20.00     0.045 C 
HETATM    9  C4  UNL     1     -33.095   9.886  -0.930  1.00 20.00     0.045 C 
HETATM   10  C5  UNL     1     -32.134  11.119   1.036  1.00 20.00     0.045 C 
ENDBRANCH   6   7
ENDBRANCH   1   6
TORSDOF 3
ENDMDL
