MODEL 1
REMARK VINA RESULT:       0.1      0.000      0.000
REMARK  2 active torsions:
REMARK  status: ('A' for Active; 'I' for Inactive)
REMARK    1  A    between atoms: C6_6  and  C8_8 
REMARK    2  A    between atoms: C8_8  and  O9_9 
ROOT
HETATM    1  C1  UNL     1     -32.415   7.933   2.429  1.00 20.00    -0.004 C 
HETATM    2  C2  UNL     1     -32.848   8.106   3.792  1.00 20.00    -0.003 C 
HETATM    3  C3  UNL     1     -32.719   6.825   1.738  1.00 20.00    -0.025 C 
HETATM    4  C4  UNL     1     -33.751   7.284   4.347  1.00 20.00    -0.003 C 
HETATM    5  C5  UNL     1     -33.531   5.707   2.339  1.00 20.00     0.054 C 
HETATM    6  C6  UNL     1     -34.343   6.117   3.594  1.00 20.00     0.060 C 
HETATM    7 BR10 UNL     1     -36.129   6.746   2.990  1.00 20.00    -0.079 Br
ENDROOT
BRANCH   6   8
HETATM    8  C8  UNL     1     -34.581   4.911   4.503  1.00 20.00     0.192 C 
BRANCH   8   9
HETATM    9  O9  UNL     1     -34.019   3.769   3.887  1.00 20.00    -0.394 OA
HETATM   10  C7  UNL     1     -33.243   3.002   4.802  1.00 20.00     0.201 C 
ENDBRANCH   8   9
ENDBRANCH   6   8
TORSDOF 2
ENDMDL
MODEL 2
REMARK VINA RESULT:       0.4      2.251      4.088
REMARK  2 active torsions:
REMARK  status: ('A' for Active; 'I' for Inactive)
REMARK    1  A    between atoms: C6_6  and  C8_8 
REMARK    2  A    between atoms: C8_8  and  O9_9 
ROOT
HETATM    1  C1  UNL     1     -34.988   5.117   4.290  1.00 20.00    -0.004 C 
HETATM    2  C2  UNL     1     -33.828   4.371   3.873  1.00 20.00    -0.003 C 
HETATM    3  C3  UNL     1     -35.170   6.390   3.910  1.00 20.00    -0.025 C 
HETATM    4  C4  UNL     1     -33.008   4.833   2.918  1.00 20.00    -0.003 C 
HETATM    5  C5  UNL     1     -34.183   7.109   3.027  1.00 20.00     0.054 C 
HETATM    6  C6  UNL     1     -33.229   6.168   2.247  1.00 20.00     0.060 C 
HETATM    7 BR10 UNL     1     -34.083   5.734   0.506  1.00 20.00    -0.079 Br
ENDROOT
BRANCH   6   8
HETATM    8  C8  UNL     1     -31.911   6.875   1.931  1.00 20.00     0.192 C 
BRANCH   8   9
HETATM    9  O9  UNL     1     -32.101   8.268   2.088  1.00 20.00    -0.394 OA
HETATM   10  C7  UNL     1     -32.032   8.955   0.843  1.00 20.00     0.201 C 
ENDBRANCH   8   9
ENDBRANCH   6   8
TORSDOF 2
ENDMDL
MODEL 3
REMARK VINA RESULT:       0.9      2.371      4.094
REMARK  2 active torsions:
REMARK  status: ('A' for Active; 'I' for Inactive)
REMARK    1  A    between atoms: C6_6  and  C8_8 
REMARK    2  A    between atoms: C8_8  and  O9_9 
ROOT
HETATM    1  C1  UNL     1     -35.188   4.898   4.529  1.00 20.00    -0.004 C 
HETATM    2  C2  UNL     1     -35.765   6.074   3.928  1.00 20.00    -0.003 C 
HETATM    3  C3  UNL     1     -33.938   4.510   4.237  1.00 20.00    -0.025 C 
HETATM    4  C4  UNL     1     -35.014   6.945   3.238  1.00 20.00    -0.003 C 
HETATM    5  C5  UNL     1     -33.068   5.277   3.276  1.00 20.00     0.054 C 
HETATM    6  C6  UNL     1     -33.534   6.734   3.023  1.00 20.00     0.060 C 
HETATM    7 BR10 UNL     1     -32.646   7.904   4.361  1.00 20.00    -0.079 Br
ENDROOT
BRANCH   6   8
HETATM    8  C8  UNL     1     -33.083   7.215   1.644  1.00 20.00     0.192 C 
BRANCH   8   9
HETATM    9  O9  UNL     1     -32.145   8.260   1.819  1.00 20.00    -0.394 OA
HETATM   10  C7  UNL     1     -32.206   9.209   0.759  1.00 20.00     0.201 C 
ENDBRANCH   8   9
ENDBRANCH   6   8
TORSDOF 2
ENDMDL
MODEL 4
REMARK VINA RESULT:       1.2      3.101      4.639
REMARK  2 active torsions:
REMARK  status: ('A' for Active; 'I' for Inactive)
REMARK    1  A    between atoms: C6_6  and  C8_8 
REMARK    2  A    between atoms: C8_8  and  O9_9 
ROOT
HETATM    1  C1  UNL     1     -34.141   5.830   3.783  1.00 20.00    -0.004 C 
HETATM    2  C2  UNL     1     -34.491   7.228   3.742  1.00 20.00    -0.003 C 
HETATM    3  C3  UNL     1     -33.325   5.291   2.866  1.00 20.00    -0.025 C 
HETATM    4  C4  UNL     1     -33.848   8.084   2.935  1.00 20.00    -0.003 C 
HETATM    5  C5  UNL     1     -32.727   6.107   1.750  1.00 20.00     0.054 C 
HETATM    6  C6  UNL     1     -32.747   7.637   2.003  1.00 20.00     0.060 C 
HETATM    7 BR10 UNL     1     -31.058   8.130   2.927  1.00 20.00    -0.079 Br
ENDROOT
BRANCH   6   8
HETATM    8  C8  UNL     1     -32.771   8.404   0.681  1.00 20.00     0.192 C 
BRANCH   8   9
HETATM    9  O9  UNL     1     -32.359   9.734   0.928  1.00 20.00    -0.394 OA
HETATM   10  C7  UNL     1     -32.719  10.606  -0.138  1.00 20.00     0.201 C 
ENDBRANCH   8   9
ENDBRANCH   6   8
TORSDOF 2
ENDMDL
MODEL 5
REMARK VINA RESULT:       1.6      1.470      1.759
REMARK  2 active torsions:
REMARK  status: ('A' for Active; 'I' for Inactive)
REMARK    1  A    between atoms: C6_6  and  C8_8 
REMARK    2  A    between atoms: C8_8  and  O9_9 
ROOT
HETATM    1  C1  UNL     1     -32.469   8.422   2.493  1.00 20.00    -0.004 C 
HETATM    2  C2  UNL     1     -33.574   7.836   3.209  1.00 20.00    -0.003 C 
HETATM    3  C3  UNL     1     -31.611   7.663   1.796  1.00 20.00    -0.025 C 
HETATM    4  C4  UNL     1     -33.922   6.554   3.026  1.00 20.00    -0.003 C 
HETATM    5  C5  UNL     1     -31.754   6.166   1.714  1.00 20.00     0.054 C 
HETATM    6  C6  UNL     1     -33.164   5.642   2.089  1.00 20.00     0.060 C 
HETATM    7 BR10 UNL     1     -34.259   5.581   0.432  1.00 20.00    -0.079 Br
ENDROOT
BRANCH   6   8
HETATM    8  C8  UNL     1     -33.086   4.212   2.623  1.00 20.00     0.192 C 
BRANCH   8   9
HETATM    9  O9  UNL     1     -33.800   4.150   3.842  1.00 20.00    -0.394 OA
HETATM   10  C7  UNL     1     -33.337   3.090   4.673  1.00 20.00     0.201 C 
ENDBRANCH   8   9
ENDBRANCH   6   8
TORSDOF 2
ENDMDL
MODEL 6
REMARK VINA RESULT:       2.1      2.517      3.513
REMARK  2 active torsions:
REMARK  status: ('A' for Active; 'I' for Inactive)
REMARK    1  A    between atoms: C6_6  and  C8_8 
REMARK    2  A    between atoms: C8_8  and  O9_9 
ROOT
HETATM    1  C1  UNL     1     -33.939   7.976   4.627  1.00 20.00    -0.004 C 
HETATM    2  C2  UNL     1     -34.448   7.112   3.592  1.00 20.00    -0.003 C 
HETATM    3  C3  UNL     1     -32.686   8.450   4.584  1.00 20.00    -0.025 C 
HETATM    4  C4  UNL     1     -33.779   6.930   2.444  1.00 20.00    -0.003 C 
HETATM    5  C5  UNL     1     -31.744   8.114   3.457  1.00 20.00     0.054 C 
HETATM    6  C6  UNL     1     -32.446   7.590   2.178  1.00 20.00     0.060 C 
HETATM    7 BR10 UNL     1     -32.865   9.151   1.023  1.00 20.00    -0.079 Br
ENDROOT
BRANCH   6   8
HETATM    8  C8  UNL     1     -31.510   6.684   1.379  1.00 20.00     0.192 C 
BRANCH   8   9
HETATM    9  O9  UNL     1     -32.001   5.359   1.449  1.00 20.00    -0.394 OA
HETATM   10  C7  UNL     1     -31.504   4.554   0.385  1.00 20.00     0.201 C 
ENDBRANCH   8   9
ENDBRANCH   6   8
TORSDOF 2
ENDMDL
MODEL 7
REMARK VINA RESULT:       2.3      2.698      3.750
REMARK  2 active torsions:
REMARK  status: ('A' for Active; 'I' for Inactive)
REMARK    1  A    between atoms: C6_6  and  C8_8 
REMARK    2  A    between atoms: C8_8  and  O9_9 
ROOT
HETATM    1  C1  UNL     1     -31.870   9.889  -0.049  1.00 20.00    -0.004 C 
HETATM    2  C2  UNL     1     -31.237   8.601   0.086  1.00 20.00    -0.003 C 
HETATM    3  C3  UNL     1     -32.930  10.225   0.700  1.00 20.00    -0.025 C 
HETATM    4  C4  UNL     1     -31.532   7.783   1.107  1.00 20.00    -0.003 C 
HETATM    5  C5  UNL     1     -33.515   9.286   1.723  1.00 20.00     0.054 C 
HETATM    6  C6  UNL     1     -32.560   8.143   2.154  1.00 20.00     0.060 C 
HETATM    7 BR10 UNL     1     -31.506   8.778   3.714  1.00 20.00    -0.079 Br
ENDROOT
BRANCH   6   8
HETATM    8  C8  UNL     1     -33.353   6.922   2.620  1.00 20.00     0.192 C 
BRANCH   8   9
HETATM    9  O9  UNL     1     -34.091   7.282   3.772  1.00 20.00    -0.394 OA
HETATM   10  C7  UNL     1     -35.137   6.355   4.040  1.00 20.00     0.201 C 
ENDBRANCH   8   9
ENDBRANCH   6   8
TORSDOF 2
ENDMDL
MODEL 8
REMARK VINA RESULT:       2.3      2.095      3.538
REMARK  2 active torsions:
REMARK  status: ('A' for Active; 'I' for Inactive)
REMARK    1  A    between atoms: C6_6  and  C8_8 
REMARK    2  A    between atoms: C8_8  and  O9_9 
ROOT
HETATM    1  C1  UNL     1     -35.389   5.008   4.460  1.00 20.00    -0.004 C 
HETATM    2  C2  UNL     1     -35.875   6.207   3.827  1.00 20.00    -0.003 C 
HETATM    3  C3  UNL     1     -34.102   4.644   4.366  1.00 20.00    -0.025 C 
HETATM    4  C4  UNL     1     -35.032   7.116   3.315  1.00 20.00    -0.003 C 
HETATM    5  C5  UNL     1     -33.094   5.463   3.602  1.00 20.00     0.054 C 
HETATM    6  C6  UNL     1     -33.534   6.927   3.343  1.00 20.00     0.060 C 
HETATM    7 BR10 UNL     1     -32.903   8.037   4.865  1.00 20.00    -0.079 Br
ENDROOT
BRANCH   6   8
HETATM    8  C8  UNL     1     -32.865   7.479   2.084  1.00 20.00     0.192 C 
BRANCH   8   9
HETATM    9  O9  UNL     1     -32.021   6.476   1.550  1.00 20.00    -0.394 OA
HETATM   10  C7  UNL     1     -32.736   5.574   0.713  1.00 20.00     0.201 C 
ENDBRANCH   8   9
ENDBRANCH   6   8
TORSDOF 2
ENDMDL
MODEL 9
REMARK VINA RESULT:       2.4      2.435      3.396
REMARK  2 active torsions:
REMARK  status: ('A' for Active; 'I' for Inactive)
REMARK    1  A    between atoms: C6_6  and  C8_8 
REMARK    2  A    between atoms: C8_8  and  O9_9 
ROOT
HETATM    1  C1  UNL     1     -34.137   7.406   3.765  1.00 20.00    -0.004 C 
HETATM    2  C2  UNL     1     -34.216   5.967   3.781  1.00 20.00    -0.003 C 
HETATM    3  C3  UNL     1     -33.287   8.047   2.950  1.00 20.00    -0.025 C 
HETATM    4  C4  UNL     1     -33.617   5.226   2.837  1.00 20.00    -0.003 C 
HETATM    5  C5  UNL     1     -32.375   7.308   2.006  1.00 20.00     0.054 C 
HETATM    6  C6  UNL     1     -32.804   5.845   1.725  1.00 20.00     0.060 C 
HETATM    7 BR10 UNL     1     -34.012   5.851   0.147  1.00 20.00    -0.079 Br
ENDROOT
BRANCH   6   8
HETATM    8  C8  UNL     1     -31.594   4.987   1.355  1.00 20.00     0.192 C 
BRANCH   8   9
HETATM    9  O9  UNL     1     -31.864   4.340   0.127  1.00 20.00    -0.394 OA
HETATM   10  C7  UNL     1     -30.754   3.568  -0.319  1.00 20.00     0.201 C 
ENDBRANCH   8   9
ENDBRANCH   6   8
TORSDOF 2
ENDMDL
