MODEL 1
REMARK VINA RESULT:      -1.8      0.000      0.000
REMARK  1 active torsions:
REMARK  status: ('A' for Active; 'I' for Inactive)
REMARK    1  A    between atoms: C3_3  and  C7_7 
ROOT
HETATM    1  C1  UNL     1     -33.251   8.102   3.052  1.00 20.00    -0.011 C 
HETATM    2  C2  UNL     1     -32.609   7.792   1.915  1.00 20.00    -0.015 C 
HETATM    3  C4  UNL     1     -33.981   7.089   3.886  1.00 20.00     0.040 C 
HETATM    4  C5  UNL     1     -32.525   6.390   1.379  1.00 20.00     0.047 C 
HETATM    5  C6  UNL     1     -32.927   5.333   2.412  1.00 20.00     0.017 C 
HETATM    6  C7  UNL     1     -34.188   5.752   3.167  1.00 20.00     0.058 C 
HETATM    7 BR10 UNL     1     -31.736   9.088   0.889  1.00 20.00    -0.056 Br
ENDROOT
BRANCH   6   8
HETATM    8  C3  UNL     1     -34.563   4.701   4.167  1.00 20.00     0.127 C 
HETATM    9  C8  UNL     1     -33.605   3.552   4.333  1.00 20.00     0.091 C 
HETATM   10  O9  UNL     1     -35.601   4.776   4.822  1.00 20.00    -0.298 OA
ENDBRANCH   6   8
TORSDOF 1
ENDMDL
MODEL 2
REMARK VINA RESULT:      -1.7      0.399      1.638
REMARK  1 active torsions:
REMARK  status: ('A' for Active; 'I' for Inactive)
REMARK    1  A    between atoms: C3_3  and  C7_7 
ROOT
HETATM    1  C1  UNL     1     -32.574   6.420   1.388  1.00 20.00    -0.011 C 
HETATM    2  C2  UNL     1     -32.655   7.684   1.829  1.00 20.00    -0.015 C 
HETATM    3  C4  UNL     1     -33.077   5.242   2.170  1.00 20.00     0.040 C 
HETATM    4  C5  UNL     1     -33.291   8.053   3.141  1.00 20.00     0.047 C 
HETATM    5  C6  UNL     1     -34.129   6.918   3.737  1.00 20.00     0.017 C 
HETATM    6  C7  UNL     1     -33.398   5.580   3.630  1.00 20.00     0.058 C 
HETATM    7 BR10 UNL     1     -31.991   9.123   0.836  1.00 20.00    -0.056 Br
ENDROOT
BRANCH   6   8
HETATM    8  C3  UNL     1     -34.233   4.487   4.223  1.00 20.00     0.127 C 
HETATM    9  C8  UNL     1     -33.562   3.155   4.421  1.00 20.00     0.091 C 
HETATM   10  O9  UNL     1     -35.408   4.671   4.535  1.00 20.00    -0.298 OA
ENDBRANCH   6   8
TORSDOF 1
ENDMDL
MODEL 3
REMARK VINA RESULT:      -1.0      0.897      1.950
REMARK  1 active torsions:
REMARK  status: ('A' for Active; 'I' for Inactive)
REMARK    1  A    between atoms: C3_3  and  C7_7 
ROOT
HETATM    1  C1  UNL     1     -32.523   6.548   1.230  1.00 20.00    -0.011 C 
HETATM    2  C2  UNL     1     -32.494   7.806   1.696  1.00 20.00    -0.015 C 
HETATM    3  C4  UNL     1     -33.092   5.396   2.007  1.00 20.00     0.040 C 
HETATM    4  C5  UNL     1     -33.064   8.197   3.031  1.00 20.00     0.047 C 
HETATM    5  C6  UNL     1     -33.969   7.117   3.632  1.00 20.00     0.017 C 
HETATM    6  C7  UNL     1     -33.346   5.730   3.481  1.00 20.00     0.058 C 
HETATM    7 BR10 UNL     1     -31.750   9.208   0.708  1.00 20.00    -0.056 Br
ENDROOT
BRANCH   6   8
HETATM    8  C3  UNL     1     -34.246   4.693   4.080  1.00 20.00     0.127 C 
HETATM    9  C8  UNL     1     -35.587   5.164   4.572  1.00 20.00     0.091 C 
HETATM   10  O9  UNL     1     -33.906   3.513   4.161  1.00 20.00    -0.298 OA
ENDBRANCH   6   8
TORSDOF 1
ENDMDL
MODEL 4
REMARK VINA RESULT:      -0.7      3.347      4.695
REMARK  1 active torsions:
REMARK  status: ('A' for Active; 'I' for Inactive)
REMARK    1  A    between atoms: C3_3  and  C7_7 
ROOT
HETATM    1  C1  UNL     1     -33.861   7.301   3.605  1.00 20.00    -0.011 C 
HETATM    2  C2  UNL     1     -33.760   5.998   3.302  1.00 20.00    -0.015 C 
HETATM    3  C4  UNL     1     -33.205   8.385   2.800  1.00 20.00     0.040 C 
HETATM    4  C5  UNL     1     -33.007   5.492   2.102  1.00 20.00     0.047 C 
HETATM    5  C6  UNL     1     -32.680   6.599   1.096  1.00 20.00     0.017 C 
HETATM    6  C7  UNL     1     -32.169   7.854   1.803  1.00 20.00     0.058 C 
HETATM    7 BR10 UNL     1     -34.568   4.675   4.347  1.00 20.00    -0.056 Br
ENDROOT
BRANCH   6   8
HETATM    8  C3  UNL     1     -31.851   8.919   0.799  1.00 20.00     0.127 C 
HETATM    9  C8  UNL     1     -32.740  10.134   0.797  1.00 20.00     0.091 C 
HETATM   10  O9  UNL     1     -30.909   8.808   0.017  1.00 20.00    -0.298 OA
ENDBRANCH   6   8
TORSDOF 1
ENDMDL
MODEL 5
REMARK VINA RESULT:      -0.7      0.907      1.114
REMARK  1 active torsions:
REMARK  status: ('A' for Active; 'I' for Inactive)
REMARK    1  A    between atoms: C3_3  and  C7_7 
ROOT
HETATM    1  C1  UNL     1     -32.962   8.157   2.842  1.00 20.00    -0.011 C 
HETATM    2  C2  UNL     1     -32.362   7.833   1.687  1.00 20.00    -0.015 C 
HETATM    3  C4  UNL     1     -33.699   7.164   3.694  1.00 20.00     0.040 C 
HETATM    4  C5  UNL     1     -32.337   6.431   1.144  1.00 20.00     0.047 C 
HETATM    5  C6  UNL     1     -32.742   5.382   2.184  1.00 20.00     0.017 C 
HETATM    6  C7  UNL     1     -33.967   5.837   2.976  1.00 20.00     0.058 C 
HETATM    7 BR10 UNL     1     -31.478   9.106   0.641  1.00 20.00    -0.056 Br
ENDROOT
BRANCH   6   8
HETATM    8  C3  UNL     1     -34.347   4.794   3.983  1.00 20.00     0.127 C 
HETATM    9  C8  UNL     1     -35.563   5.076   4.823  1.00 20.00     0.091 C 
HETATM   10  O9  UNL     1     -33.698   3.758   4.114  1.00 20.00    -0.298 OA
ENDBRANCH   6   8
TORSDOF 1
ENDMDL
MODEL 6
REMARK VINA RESULT:      -0.5      3.288      4.933
REMARK  1 active torsions:
REMARK  status: ('A' for Active; 'I' for Inactive)
REMARK    1  A    between atoms: C3_3  and  C7_7 
ROOT
HETATM    1  C1  UNL     1     -33.100   5.529   2.134  1.00 20.00    -0.011 C 
HETATM    2  C2  UNL     1     -33.749   5.859   3.261  1.00 20.00    -0.015 C 
HETATM    3  C4  UNL     1     -32.493   6.541   1.207  1.00 20.00     0.040 C 
HETATM    4  C5  UNL     1     -33.902   7.280   3.729  1.00 20.00     0.047 C 
HETATM    5  C6  UNL     1     -32.967   8.251   3.002  1.00 20.00     0.017 C 
HETATM    6  C7  UNL     1     -32.948   7.976   1.499  1.00 20.00     0.058 C 
HETATM    7 BR10 UNL     1     -34.517   4.568   4.374  1.00 20.00    -0.056 Br
ENDROOT
BRANCH   6   8
HETATM    8  C3  UNL     1     -32.032   8.939   0.810  1.00 20.00     0.127 C 
HETATM    9  C8  UNL     1     -32.608  10.283   0.453  1.00 20.00     0.091 C 
HETATM   10  O9  UNL     1     -30.865   8.648   0.551  1.00 20.00    -0.298 OA
ENDBRANCH   6   8
TORSDOF 1
ENDMDL
