MODEL 1
REMARK VINA RESULT:      -0.4      0.000      0.000
REMARK  4 active torsions:
REMARK  status: ('A' for Active; 'I' for Inactive)
REMARK    1  A    between atoms: C2_2  and  C6_6 
REMARK    2  A    between atoms: C6_6  and  S10_10 
REMARK    3  A    between atoms: C7_7  and  C8_8 
REMARK    4  A    between atoms: C7_7  and  S10_10 
ROOT
HETATM    1  C6  UNL     1     -32.864   8.764   1.501  1.00 20.00     0.113 C 
ENDROOT
BRANCH   1   2
HETATM    2  C2  UNL     1     -32.237   9.485   0.323  1.00 20.00     0.087 A 
HETATM    3  C1  UNL     1     -33.097  10.360  -0.558  1.00 20.00     0.207 A 
HETATM    4  O9  UNL     1     -32.239  10.914   0.452  1.00 20.00    -0.375 OA
HETATM    5  C3  UNL     1     -30.957   8.932  -0.215  1.00 20.00     0.049 C 
ENDBRANCH   1   2
BRANCH   1   6
HETATM    6  S10 UNL     1     -31.924   7.275   1.905  1.00 20.00    -0.166 SA
BRANCH   6   7
HETATM    7  C7  UNL     1     -33.284   6.292   2.611  1.00 20.00     0.077 C 
BRANCH   7   8
HETATM    8  C8  UNL     1     -34.259   7.069   3.512  1.00 20.00    -0.013 C 
HETATM    9  C4  UNL     1     -35.387   6.192   4.060  1.00 20.00     0.010 C 
HETATM   10  C5  UNL     1     -33.551   7.809   4.650  1.00 20.00     0.010 C 
ENDBRANCH   7   8
ENDBRANCH   6   7
ENDBRANCH   1   6
TORSDOF 4
ENDMDL
MODEL 2
REMARK VINA RESULT:      -0.4      1.073      1.338
REMARK  4 active torsions:
REMARK  status: ('A' for Active; 'I' for Inactive)
REMARK    1  A    between atoms: C2_2  and  C6_6 
REMARK    2  A    between atoms: C6_6  and  S10_10 
REMARK    3  A    between atoms: C7_7  and  C8_8 
REMARK    4  A    between atoms: C7_7  and  S10_10 
ROOT
HETATM    1  C6  UNL     1     -31.974   8.257   0.660  1.00 20.00     0.113 C 
ENDROOT
BRANCH   1   2
HETATM    2  C2  UNL     1     -32.381   9.681   0.332  1.00 20.00     0.087 A 
HETATM    3  C1  UNL     1     -31.807  10.357  -0.890  1.00 20.00     0.207 A 
HETATM    4  O9  UNL     1     -33.131   9.802  -0.884  1.00 20.00    -0.375 OA
HETATM    5  C3  UNL     1     -32.913  10.515   1.453  1.00 20.00     0.049 C 
ENDBRANCH   1   2
BRANCH   1   6
HETATM    6  S10 UNL     1     -31.935   8.005   2.448  1.00 20.00    -0.166 SA
BRANCH   6   7
HETATM    7  C7  UNL     1     -33.332   6.846   2.579  1.00 20.00     0.077 C 
BRANCH   7   8
HETATM    8  C8  UNL     1     -34.387   7.203   3.641  1.00 20.00    -0.013 C 
HETATM    9  C4  UNL     1     -35.195   5.989   4.104  1.00 20.00     0.010 C 
HETATM   10  C5  UNL     1     -33.791   7.943   4.841  1.00 20.00     0.010 C 
ENDBRANCH   7   8
ENDBRANCH   6   7
ENDBRANCH   1   6
TORSDOF 4
ENDMDL
MODEL 3
REMARK VINA RESULT:      -0.3      0.900      1.269
REMARK  4 active torsions:
REMARK  status: ('A' for Active; 'I' for Inactive)
REMARK    1  A    between atoms: C2_2  and  C6_6 
REMARK    2  A    between atoms: C6_6  and  S10_10 
REMARK    3  A    between atoms: C7_7  and  C8_8 
REMARK    4  A    between atoms: C7_7  and  S10_10 
ROOT
HETATM    1  C6  UNL     1     -32.717   8.523   1.622  1.00 20.00     0.113 C 
ENDROOT
BRANCH   1   2
HETATM    2  C2  UNL     1     -32.161   9.304   0.447  1.00 20.00     0.087 A 
HETATM    3  C1  UNL     1     -33.096  10.110  -0.422  1.00 20.00     0.207 A 
HETATM    4  O9  UNL     1     -32.282  10.726   0.588  1.00 20.00    -0.375 OA
HETATM    5  C3  UNL     1     -30.842   8.863  -0.103  1.00 20.00     0.049 C 
ENDBRANCH   1   2
BRANCH   1   6
HETATM    6  S10 UNL     1     -31.948   6.891   1.719  1.00 20.00    -0.166 SA
BRANCH   6   7
HETATM    7  C7  UNL     1     -33.453   5.912   2.027  1.00 20.00     0.077 C 
BRANCH   7   8
HETATM    8  C8  UNL     1     -33.854   5.770   3.505  1.00 20.00    -0.013 C 
HETATM    9  C4  UNL     1     -35.101   6.581   3.861  1.00 20.00     0.010 C 
HETATM   10  C5  UNL     1     -34.021   4.310   3.935  1.00 20.00     0.010 C 
ENDBRANCH   7   8
ENDBRANCH   6   7
ENDBRANCH   1   6
TORSDOF 4
ENDMDL
MODEL 4
REMARK VINA RESULT:      -0.3      2.333      4.986
REMARK  4 active torsions:
REMARK  status: ('A' for Active; 'I' for Inactive)
REMARK    1  A    between atoms: C2_2  and  C6_6 
REMARK    2  A    between atoms: C6_6  and  S10_10 
REMARK    3  A    between atoms: C7_7  and  C8_8 
REMARK    4  A    between atoms: C7_7  and  S10_10 
ROOT
HETATM    1  C6  UNL     1     -33.330   6.761   2.408  1.00 20.00     0.113 C 
ENDROOT
BRANCH   1   2
HETATM    2  C2  UNL     1     -34.146   6.817   3.686  1.00 20.00     0.087 A 
HETATM    3  C1  UNL     1     -35.542   6.242   3.704  1.00 20.00     0.207 A 
HETATM    4  O9  UNL     1     -34.422   5.528   4.251  1.00 20.00    -0.375 OA
HETATM    5  C3  UNL     1     -33.761   7.848   4.697  1.00 20.00     0.049 C 
ENDBRANCH   1   2
BRANCH   1   6
HETATM    6  S10 UNL     1     -32.004   7.987   2.449  1.00 20.00    -0.166 SA
BRANCH   6   7
HETATM    7  C7  UNL     1     -31.927   8.348   0.667  1.00 20.00     0.077 C 
BRANCH   7   8
HETATM    8  C8  UNL     1     -32.141   9.822   0.284  1.00 20.00    -0.013 C 
HETATM    9  C4  UNL     1     -32.876   9.987  -1.048  1.00 20.00     0.010 C 
HETATM   10  C5  UNL     1     -32.838  10.625   1.386  1.00 20.00     0.010 C 
ENDBRANCH   7   8
ENDBRANCH   6   7
ENDBRANCH   1   6
TORSDOF 4
ENDMDL
MODEL 5
REMARK VINA RESULT:      -0.2      2.283      4.988
REMARK  4 active torsions:
REMARK  status: ('A' for Active; 'I' for Inactive)
REMARK    1  A    between atoms: C2_2  and  C6_6 
REMARK    2  A    between atoms: C6_6  and  S10_10 
REMARK    3  A    between atoms: C7_7  and  C8_8 
REMARK    4  A    between atoms: C7_7  and  S10_10 
ROOT
HETATM    1  C6  UNL     1     -33.818   6.198   1.928  1.00 20.00     0.113 C 
ENDROOT
BRANCH   1   2
HETATM    2  C2  UNL     1     -34.188   5.945   3.377  1.00 20.00     0.087 A 
HETATM    3  C1  UNL     1     -34.345   7.113   4.321  1.00 20.00     0.207 A 
HETATM    4  O9  UNL     1     -35.480   6.450   3.741  1.00 20.00    -0.375 OA
HETATM    5  C3  UNL     1     -33.896   4.586   3.929  1.00 20.00     0.049 C 
ENDBRANCH   1   2
BRANCH   1   6
HETATM    6  S10 UNL     1     -32.038   6.459   1.765  1.00 20.00    -0.166 SA
BRANCH   6   7
HETATM    7  C7  UNL     1     -32.034   8.278   1.838  1.00 20.00     0.077 C 
BRANCH   7   8
HETATM    8  C8  UNL     1     -32.274   8.992   0.497  1.00 20.00    -0.013 C 
HETATM    9  C4  UNL     1     -32.709  10.449   0.671  1.00 20.00     0.010 C 
HETATM   10  C5  UNL     1     -31.073   8.898  -0.447  1.00 20.00     0.010 C 
ENDBRANCH   7   8
ENDBRANCH   6   7
ENDBRANCH   1   6
TORSDOF 4
ENDMDL
MODEL 6
REMARK VINA RESULT:      -0.1      1.353      1.797
REMARK  4 active torsions:
REMARK  status: ('A' for Active; 'I' for Inactive)
REMARK    1  A    between atoms: C2_2  and  C6_6 
REMARK    2  A    between atoms: C6_6  and  S10_10 
REMARK    3  A    between atoms: C7_7  and  C8_8 
REMARK    4  A    between atoms: C7_7  and  S10_10 
ROOT
HETATM    1  C6  UNL     1     -31.984   8.216   0.870  1.00 20.00     0.113 C 
ENDROOT
BRANCH   1   2
HETATM    2  C2  UNL     1     -32.366   9.614   0.424  1.00 20.00     0.087 A 
HETATM    3  C1  UNL     1     -31.745  10.194  -0.824  1.00 20.00     0.207 A 
HETATM    4  O9  UNL     1     -33.073   9.650  -0.823  1.00 20.00    -0.375 OA
HETATM    5  C3  UNL     1     -32.927  10.532   1.461  1.00 20.00     0.049 C 
ENDBRANCH   1   2
BRANCH   1   6
HETATM    6  S10 UNL     1     -32.399   7.970   2.611  1.00 20.00    -0.166 SA
BRANCH   6   7
HETATM    7  C7  UNL     1     -33.259   6.374   2.451  1.00 20.00     0.077 C 
BRANCH   7   8
HETATM    8  C8  UNL     1     -33.989   5.890   3.716  1.00 20.00    -0.013 C 
HETATM    9  C4  UNL     1     -35.391   6.487   3.855  1.00 20.00     0.010 C 
HETATM   10  C5  UNL     1     -34.041   4.363   3.822  1.00 20.00     0.010 C 
ENDBRANCH   7   8
ENDBRANCH   6   7
ENDBRANCH   1   6
TORSDOF 4
ENDMDL
MODEL 7
REMARK VINA RESULT:       0.1      2.244      4.879
REMARK  4 active torsions:
REMARK  status: ('A' for Active; 'I' for Inactive)
REMARK    1  A    between atoms: C2_2  and  C6_6 
REMARK    2  A    between atoms: C6_6  and  S10_10 
REMARK    3  A    between atoms: C7_7  and  C8_8 
REMARK    4  A    between atoms: C7_7  and  S10_10 
ROOT
HETATM    1  C6  UNL     1     -33.694   6.277   1.841  1.00 20.00     0.113 C 
ENDROOT
BRANCH   1   2
HETATM    2  C2  UNL     1     -34.066   6.018   3.288  1.00 20.00     0.087 A 
HETATM    3  C1  UNL     1     -34.242   7.183   4.232  1.00 20.00     0.207 A 
HETATM    4  O9  UNL     1     -35.366   6.507   3.648  1.00 20.00    -0.375 OA
HETATM    5  C3  UNL     1     -33.759   4.664   3.840  1.00 20.00     0.049 C 
ENDBRANCH   1   2
BRANCH   1   6
HETATM    6  S10 UNL     1     -32.003   6.901   1.723  1.00 20.00    -0.166 SA
BRANCH   6   7
HETATM    7  C7  UNL     1     -32.371   8.679   1.858  1.00 20.00     0.077 C 
BRANCH   7   8
HETATM    8  C8  UNL     1     -32.075   9.510   0.598  1.00 20.00    -0.013 C 
HETATM    9  C4  UNL     1     -32.469   8.789  -0.693  1.00 20.00     0.010 C 
HETATM   10  C5  UNL     1     -32.702  10.905   0.649  1.00 20.00     0.010 C 
ENDBRANCH   7   8
ENDBRANCH   6   7
ENDBRANCH   1   6
TORSDOF 4
ENDMDL
MODEL 8
REMARK VINA RESULT:       0.4      2.034      2.557
REMARK  4 active torsions:
REMARK  status: ('A' for Active; 'I' for Inactive)
REMARK    1  A    between atoms: C2_2  and  C6_6 
REMARK    2  A    between atoms: C6_6  and  S10_10 
REMARK    3  A    between atoms: C7_7  and  C8_8 
REMARK    4  A    between atoms: C7_7  and  S10_10 
ROOT
HETATM    1  C6  UNL     1     -32.736   7.011   1.431  1.00 20.00     0.113 C 
ENDROOT
BRANCH   1   2
HETATM    2  C2  UNL     1     -32.035   8.351   1.540  1.00 20.00     0.087 A 
HETATM    3  C1  UNL     1     -31.649   9.095   0.284  1.00 20.00     0.207 A 
HETATM    4  O9  UNL     1     -32.811   9.452   1.049  1.00 20.00    -0.375 OA
HETATM    5  C3  UNL     1     -31.317   8.644   2.819  1.00 20.00     0.049 C 
ENDBRANCH   1   2
BRANCH   1   6
HETATM    6  S10 UNL     1     -33.600   6.620   2.970  1.00 20.00    -0.166 SA
BRANCH   6   7
HETATM    7  C7  UNL     1     -33.105   4.874   3.110  1.00 20.00     0.077 C 
BRANCH   7   8
HETATM    8  C8  UNL     1     -34.049   3.987   3.939  1.00 20.00    -0.013 C 
HETATM    9  C4  UNL     1     -33.300   3.024   4.862  1.00 20.00     0.010 C 
HETATM   10  C5  UNL     1     -35.080   4.797   4.729  1.00 20.00     0.010 C 
ENDBRANCH   7   8
ENDBRANCH   6   7
ENDBRANCH   1   6
TORSDOF 4
ENDMDL
MODEL 9
REMARK VINA RESULT:       0.5      2.070      2.612
REMARK  4 active torsions:
REMARK  status: ('A' for Active; 'I' for Inactive)
REMARK    1  A    between atoms: C2_2  and  C6_6 
REMARK    2  A    between atoms: C6_6  and  S10_10 
REMARK    3  A    between atoms: C7_7  and  C8_8 
REMARK    4  A    between atoms: C7_7  and  S10_10 
ROOT
HETATM    1  C6  UNL     1     -32.618   8.038   3.151  1.00 20.00     0.113 C 
ENDROOT
BRANCH   1   2
HETATM    2  C2  UNL     1     -32.252   7.881   1.688  1.00 20.00     0.087 A 
HETATM    3  C1  UNL     1     -32.507   9.019   0.729  1.00 20.00     0.207 A 
HETATM    4  O9  UNL     1     -31.199   8.754   1.259  1.00 20.00    -0.375 OA
HETATM    5  C3  UNL     1     -32.130   6.487   1.160  1.00 20.00     0.049 C 
ENDBRANCH   1   2
BRANCH   1   6
HETATM    6  S10 UNL     1     -34.138   7.135   3.524  1.00 20.00    -0.166 SA
BRANCH   6   7
HETATM    7  C7  UNL     1     -33.507   5.446   3.271  1.00 20.00     0.077 C 
BRANCH   7   8
HETATM    8  C8  UNL     1     -34.331   4.329   3.933  1.00 20.00    -0.013 C 
HETATM    9  C4  UNL     1     -33.461   3.302   4.660  1.00 20.00     0.010 C 
HETATM   10  C5  UNL     1     -35.418   4.870   4.866  1.00 20.00     0.010 C 
ENDBRANCH   7   8
ENDBRANCH   6   7
ENDBRANCH   1   6
TORSDOF 4
ENDMDL
