MODEL 1
REMARK VINA RESULT:       0.2      0.000      0.000
REMARK  1 active torsions:
REMARK  status: ('A' for Active; 'I' for Inactive)
REMARK    1  A    between atoms: C2_2  and  O8_8 
ROOT
HETATM    1  C1  UNL     1     -32.753   7.806   3.308  1.00 20.00     0.049 C 
HETATM    2  C2  UNL     1     -32.909   7.893   1.775  1.00 20.00     0.131 C 
HETATM    3  C3  UNL     1     -33.352   6.379   3.261  1.00 20.00     0.070 C 
HETATM    4  C4  UNL     1     -32.978   6.330   1.737  1.00 20.00    -0.008 C 
HETATM    5  C5  UNL     1     -34.006   5.802   0.737  1.00 20.00     0.018 C 
HETATM    6  C6  UNL     1     -31.627   5.634   1.514  1.00 20.00     0.018 C 
HETATM    7 BR9  UNL     1     -35.232   6.284   3.758  1.00 20.00    -0.090 Br
ENDROOT
BRANCH   2   8
HETATM    8  O8  UNL     1     -31.825   8.513   1.064  1.00 20.00    -0.390 OA
HETATM    9  C7  UNL     1     -32.290   9.604   0.294  1.00 20.00     0.202 C 
ENDBRANCH   2   8
TORSDOF 1
ENDMDL
MODEL 2
REMARK VINA RESULT:       1.0      2.622      3.810
REMARK  1 active torsions:
REMARK  status: ('A' for Active; 'I' for Inactive)
REMARK    1  A    between atoms: C2_2  and  O8_8 
ROOT
HETATM    1  C1  UNL     1     -33.986   6.859   3.155  1.00 20.00     0.049 C 
HETATM    2  C2  UNL     1     -33.297   5.479   3.190  1.00 20.00     0.131 C 
HETATM    3  C3  UNL     1     -33.131   7.225   1.917  1.00 20.00     0.070 C 
HETATM    4  C4  UNL     1     -32.897   5.690   1.692  1.00 20.00    -0.008 C 
HETATM    5  C5  UNL     1     -31.488   5.192   1.374  1.00 20.00     0.018 C 
HETATM    6  C6  UNL     1     -33.896   5.115   0.675  1.00 20.00     0.018 C 
HETATM    7 BR9  UNL     1     -31.591   8.349   2.313  1.00 20.00    -0.090 Br
ENDROOT
BRANCH   2   8
HETATM    8  O8  UNL     1     -34.145   4.356   3.484  1.00 20.00    -0.390 OA
HETATM    9  C7  UNL     1     -33.508   3.469   4.383  1.00 20.00     0.202 C 
ENDBRANCH   2   8
TORSDOF 1
ENDMDL
MODEL 3
REMARK VINA RESULT:       1.7      2.437      3.470
REMARK  1 active torsions:
REMARK  status: ('A' for Active; 'I' for Inactive)
REMARK    1  A    between atoms: C2_2  and  O8_8 
ROOT
HETATM    1  C1  UNL     1     -33.048   7.702   2.491  1.00 20.00     0.049 C 
HETATM    2  C2  UNL     1     -33.195   7.119   3.912  1.00 20.00     0.131 C 
HETATM    3  C3  UNL     1     -33.564   6.360   1.916  1.00 20.00     0.070 C 
HETATM    4  C4  UNL     1     -34.182   6.056   3.326  1.00 20.00    -0.008 C 
HETATM    5  C5  UNL     1     -33.994   4.667   3.936  1.00 20.00     0.018 C 
HETATM    6  C6  UNL     1     -35.665   6.455   3.385  1.00 20.00     0.018 C 
HETATM    7 BR9  UNL     1     -32.162   5.185   1.246  1.00 20.00    -0.090 Br
ENDROOT
BRANCH   2   8
HETATM    8  O8  UNL     1     -33.719   8.012   4.910  1.00 20.00    -0.390 OA
HETATM    9  C7  UNL     1     -32.671   8.690   5.575  1.00 20.00     0.202 C 
ENDBRANCH   2   8
TORSDOF 1
ENDMDL
MODEL 4
REMARK VINA RESULT:       1.8      2.578      3.863
REMARK  1 active torsions:
REMARK  status: ('A' for Active; 'I' for Inactive)
REMARK    1  A    between atoms: C2_2  and  O8_8 
ROOT
HETATM    1  C1  UNL     1     -32.289   6.557   2.043  1.00 20.00     0.049 C 
HETATM    2  C2  UNL     1     -33.715   6.615   2.630  1.00 20.00     0.131 C 
HETATM    3  C3  UNL     1     -32.179   8.090   2.228  1.00 20.00     0.070 C 
HETATM    4  C4  UNL     1     -33.347   7.994   3.271  1.00 20.00    -0.008 C 
HETATM    5  C5  UNL     1     -34.489   9.008   3.204  1.00 20.00     0.018 C 
HETATM    6  C6  UNL     1     -32.809   7.910   4.708  1.00 20.00     0.018 C 
HETATM    7 BR9  UNL     1     -32.475   9.115   0.598  1.00 20.00    -0.090 Br
ENDROOT
BRANCH   2   8
HETATM    8  O8  UNL     1     -34.071   5.554   3.531  1.00 20.00    -0.390 OA
HETATM    9  C7  UNL     1     -35.352   5.778   4.088  1.00 20.00     0.202 C 
ENDBRANCH   2   8
TORSDOF 1
ENDMDL
MODEL 5
REMARK VINA RESULT:       1.8      1.550      2.715
REMARK  1 active torsions:
REMARK  status: ('A' for Active; 'I' for Inactive)
REMARK    1  A    between atoms: C2_2  and  O8_8 
ROOT
HETATM    1  C1  UNL     1     -33.339   6.198   1.898  1.00 20.00     0.049 C 
HETATM    2  C2  UNL     1     -32.595   7.283   2.704  1.00 20.00     0.131 C 
HETATM    3  C3  UNL     1     -34.247   5.947   3.126  1.00 20.00     0.070 C 
HETATM    4  C4  UNL     1     -33.836   7.367   3.653  1.00 20.00    -0.008 C 
HETATM    5  C5  UNL     1     -33.454   7.531   5.123  1.00 20.00     0.018 C 
HETATM    6  C6  UNL     1     -34.873   8.431   3.262  1.00 20.00     0.018 C 
HETATM    7 BR9  UNL     1     -33.753   4.387   4.182  1.00 20.00    -0.090 Br
ENDROOT
BRANCH   2   8
HETATM    8  O8  UNL     1     -32.247   8.478   1.983  1.00 20.00    -0.390 OA
HETATM    9  C7  UNL     1     -31.668   8.158   0.733  1.00 20.00     0.202 C 
ENDBRANCH   2   8
TORSDOF 1
ENDMDL
MODEL 6
REMARK VINA RESULT:       2.1      1.683      2.996
REMARK  1 active torsions:
REMARK  status: ('A' for Active; 'I' for Inactive)
REMARK    1  A    between atoms: C2_2  and  O8_8 
ROOT
HETATM    1  C1  UNL     1     -33.672   6.267   2.342  1.00 20.00     0.049 C 
HETATM    2  C2  UNL     1     -32.142   6.297   2.148  1.00 20.00     0.131 C 
HETATM    3  C3  UNL     1     -33.611   7.731   2.840  1.00 20.00     0.070 C 
HETATM    4  C4  UNL     1     -32.219   7.860   2.127  1.00 20.00    -0.008 C 
HETATM    5  C5  UNL     1     -31.062   8.525   2.870  1.00 20.00     0.018 C 
HETATM    6  C6  UNL     1     -32.363   8.476   0.726  1.00 20.00     0.018 C 
HETATM    7 BR9  UNL     1     -33.680   7.920   4.778  1.00 20.00    -0.090 Br
ENDROOT
BRANCH   2   8
HETATM    8  O8  UNL     1     -31.642   5.655   0.962  1.00 20.00    -0.390 OA
HETATM    9  C7  UNL     1     -32.577   4.716   0.469  1.00 20.00     0.202 C 
ENDBRANCH   2   8
TORSDOF 1
ENDMDL
MODEL 7
REMARK VINA RESULT:       2.6      2.379      3.408
REMARK  1 active torsions:
REMARK  status: ('A' for Active; 'I' for Inactive)
REMARK    1  A    between atoms: C2_2  and  O8_8 
ROOT
HETATM    1  C1  UNL     1     -33.026   5.395   2.895  1.00 20.00     0.049 C 
HETATM    2  C2  UNL     1     -33.779   6.662   2.439  1.00 20.00     0.131 C 
HETATM    3  C3  UNL     1     -31.847   5.796   1.976  1.00 20.00     0.070 C 
HETATM    4  C4  UNL     1     -32.405   7.263   1.991  1.00 20.00    -0.008 C 
HETATM    5  C5  UNL     1     -32.493   8.038   0.677  1.00 20.00     0.018 C 
HETATM    6  C6  UNL     1     -31.702   8.119   3.056  1.00 20.00     0.018 C 
HETATM    7 BR9  UNL     1     -31.794   4.842   0.279  1.00 20.00    -0.090 Br
ENDROOT
BRANCH   2   8
HETATM    8  O8  UNL     1     -34.497   7.373   3.461  1.00 20.00    -0.390 OA
HETATM    9  C7  UNL     1     -35.292   6.486   4.224  1.00 20.00     0.202 C 
ENDBRANCH   2   8
TORSDOF 1
ENDMDL
MODEL 8
REMARK VINA RESULT:       2.9      2.985      4.340
REMARK  1 active torsions:
REMARK  status: ('A' for Active; 'I' for Inactive)
REMARK    1  A    between atoms: C2_2  and  O8_8 
ROOT
HETATM    1  C1  UNL     1     -32.749   4.940   2.778  1.00 20.00     0.049 C 
HETATM    2  C2  UNL     1     -34.102   4.765   3.498  1.00 20.00     0.131 C 
HETATM    3  C3  UNL     1     -33.241   6.305   2.241  1.00 20.00     0.070 C 
HETATM    4  C4  UNL     1     -34.309   6.313   3.391  1.00 20.00    -0.008 C 
HETATM    5  C5  UNL     1     -35.750   6.701   3.064  1.00 20.00     0.018 C 
HETATM    6  C6  UNL     1     -33.816   7.111   4.608  1.00 20.00     0.018 C 
HETATM    7 BR9  UNL     1     -33.865   6.262   0.397  1.00 20.00    -0.090 Br
ENDROOT
BRANCH   2   8
HETATM    8  O8  UNL     1     -34.047   4.207   4.822  1.00 20.00    -0.390 OA
HETATM    9  C7  UNL     1     -33.247   3.041   4.841  1.00 20.00     0.202 C 
ENDBRANCH   2   8
TORSDOF 1
ENDMDL
MODEL 9
REMARK VINA RESULT:       3.0      2.090      2.788
REMARK  1 active torsions:
REMARK  status: ('A' for Active; 'I' for Inactive)
REMARK    1  A    between atoms: C2_2  and  O8_8 
ROOT
HETATM    1  C1  UNL     1     -32.421   7.137   2.711  1.00 20.00     0.049 C 
HETATM    2  C2  UNL     1     -33.688   6.536   2.068  1.00 20.00     0.131 C 
HETATM    3  C3  UNL     1     -33.112   7.047   4.093  1.00 20.00     0.070 C 
HETATM    4  C4  UNL     1     -34.088   5.984   3.476  1.00 20.00    -0.008 C 
HETATM    5  C5  UNL     1     -35.585   6.098   3.759  1.00 20.00     0.018 C 
HETATM    6  C6  UNL     1     -33.610   4.552   3.764  1.00 20.00     0.018 C 
HETATM    7 BR9  UNL     1     -33.857   8.732   4.725  1.00 20.00    -0.090 Br
ENDROOT
BRANCH   2   8
HETATM    8  O8  UNL     1     -33.470   5.567   1.028  1.00 20.00    -0.390 OA
HETATM    9  C7  UNL     1     -32.090   5.304   0.868  1.00 20.00     0.202 C 
ENDBRANCH   2   8
TORSDOF 1
ENDMDL
