MODEL 1
REMARK VINA RESULT:       1.0      0.000      0.000
REMARK  1 active torsions:
REMARK  status: ('A' for Active; 'I' for Inactive)
REMARK    1  A    between atoms: C6_6  and  O10_10 
ROOT
HETATM    1  C1  UNL     1     -32.057   4.607   0.557  1.00 20.00     0.001 C 
HETATM    2  C2  UNL     1     -33.541   4.906   0.432  1.00 20.00     0.001 C 
HETATM    3  C3  UNL     1     -31.602   5.490   1.718  1.00 20.00     0.013 C 
HETATM    4  C4  UNL     1     -33.585   6.421   0.587  1.00 20.00     0.013 C 
HETATM    5  C5  UNL     1     -32.989   8.569   2.670  1.00 20.00     0.053 C 
HETATM    6  C6  UNL     1     -31.873   8.119   1.699  1.00 20.00     0.132 C 
HETATM    7  C7  UNL     1     -33.101   7.094   3.114  1.00 20.00     0.095 C 
HETATM    8  C8  UNL     1     -32.552   6.700   1.691  1.00 20.00     0.003 C 
HETATM    9 CL11 UNL     1     -34.683   6.492   3.702  1.00 20.00    -0.124 Cl
ENDROOT
BRANCH   6  10
HETATM   10  O10 UNL     1     -31.775   8.825   0.450  1.00 20.00    -0.390 OA
HETATM   11  C9  UNL     1     -32.535  10.018   0.483  1.00 20.00     0.202 C 
ENDBRANCH   6  10
TORSDOF 1
ENDMDL
MODEL 2
REMARK VINA RESULT:       1.8      2.537      3.581
REMARK  1 active torsions:
REMARK  status: ('A' for Active; 'I' for Inactive)
REMARK    1  A    between atoms: C6_6  and  O10_10 
ROOT
HETATM    1  C1  UNL     1     -35.400   5.224   4.422  1.00 20.00     0.001 C 
HETATM    2  C2  UNL     1     -34.240   4.287   4.134  1.00 20.00     0.001 C 
HETATM    3  C3  UNL     1     -35.248   6.326   3.375  1.00 20.00     0.013 C 
HETATM    4  C4  UNL     1     -33.090   5.254   3.890  1.00 20.00     0.013 C 
HETATM    5  C5  UNL     1     -32.251   7.430   1.921  1.00 20.00     0.053 C 
HETATM    6  C6  UNL     1     -33.071   7.812   3.176  1.00 20.00     0.132 C 
HETATM    7  C7  UNL     1     -33.404   6.472   1.547  1.00 20.00     0.095 C 
HETATM    8  C8  UNL     1     -33.739   6.390   3.083  1.00 20.00     0.003 C 
HETATM    9 CL11 UNL     1     -33.023   5.001   0.596  1.00 20.00    -0.124 Cl
ENDROOT
BRANCH   6  10
HETATM   10  O10 UNL     1     -32.328   8.129   4.365  1.00 20.00    -0.390 OA
HETATM   11  C9  UNL     1     -33.198   8.426   5.440  1.00 20.00     0.202 C 
ENDBRANCH   6  10
TORSDOF 1
ENDMDL
MODEL 3
REMARK VINA RESULT:       2.2      2.473      3.445
REMARK  1 active torsions:
REMARK  status: ('A' for Active; 'I' for Inactive)
REMARK    1  A    between atoms: C6_6  and  O10_10 
ROOT
HETATM    1  C1  UNL     1     -33.003   4.496   0.043  1.00 20.00     0.001 C 
HETATM    2  C2  UNL     1     -31.604   4.740   0.584  1.00 20.00     0.001 C 
HETATM    3  C3  UNL     1     -33.793   5.718   0.508  1.00 20.00     0.013 C 
HETATM    4  C4  UNL     1     -31.882   5.251   1.992  1.00 20.00     0.013 C 
HETATM    5  C5  UNL     1     -33.197   7.619   3.396  1.00 20.00     0.053 C 
HETATM    6  C6  UNL     1     -34.042   6.369   3.057  1.00 20.00     0.132 C 
HETATM    7  C7  UNL     1     -32.869   7.718   1.891  1.00 20.00     0.095 C 
HETATM    8  C8  UNL     1     -33.105   6.163   1.810  1.00 20.00     0.003 C 
HETATM    9 CL11 UNL     1     -31.308   8.449   1.399  1.00 20.00    -0.124 Cl
ENDROOT
BRANCH   6  10
HETATM   10  O10 UNL     1     -34.084   5.326   4.046  1.00 20.00    -0.390 OA
HETATM   11  C9  UNL     1     -35.396   5.157   4.548  1.00 20.00     0.202 C 
ENDBRANCH   6  10
TORSDOF 1
ENDMDL
MODEL 4
REMARK VINA RESULT:       2.5      2.188      3.181
REMARK  1 active torsions:
REMARK  status: ('A' for Active; 'I' for Inactive)
REMARK    1  A    between atoms: C6_6  and  O10_10 
ROOT
HETATM    1  C1  UNL     1     -34.466   4.199   4.257  1.00 20.00     0.001 C 
HETATM    2  C2  UNL     1     -35.390   5.388   4.459  1.00 20.00     0.001 C 
HETATM    3  C3  UNL     1     -33.131   4.834   3.871  1.00 20.00     0.013 C 
HETATM    4  C4  UNL     1     -35.035   6.283   3.279  1.00 20.00     0.013 C 
HETATM    5  C5  UNL     1     -32.675   7.881   2.191  1.00 20.00     0.053 C 
HETATM    6  C6  UNL     1     -32.858   6.406   1.763  1.00 20.00     0.132 C 
HETATM    7  C7  UNL     1     -32.642   7.380   3.651  1.00 20.00     0.095 C 
HETATM    8  C8  UNL     1     -33.507   6.154   3.174  1.00 20.00     0.003 C 
HETATM    9 CL11 UNL     1     -33.214   8.476   4.948  1.00 20.00    -0.124 Cl
ENDROOT
BRANCH   6  10
HETATM   10  O10 UNL     1     -33.665   6.164   0.599  1.00 20.00    -0.390 OA
HETATM   11  C9  UNL     1     -33.521   4.829   0.152  1.00 20.00     0.202 C 
ENDBRANCH   6  10
TORSDOF 1
ENDMDL
MODEL 5
REMARK VINA RESULT:       2.5      2.306      3.612
REMARK  1 active torsions:
REMARK  status: ('A' for Active; 'I' for Inactive)
REMARK    1  A    between atoms: C6_6  and  O10_10 
ROOT
HETATM    1  C1  UNL     1     -31.791   9.287   1.008  1.00 20.00     0.001 C 
HETATM    2  C2  UNL     1     -32.592   8.535  -0.042  1.00 20.00     0.001 C 
HETATM    3  C3  UNL     1     -31.412   8.209   2.021  1.00 20.00     0.013 C 
HETATM    4  C4  UNL     1     -33.478   7.633   0.807  1.00 20.00     0.013 C 
HETATM    5  C5  UNL     1     -33.240   5.308   2.770  1.00 20.00     0.053 C 
HETATM    6  C6  UNL     1     -33.215   6.761   3.301  1.00 20.00     0.132 C 
HETATM    7  C7  UNL     1     -32.028   5.685   1.890  1.00 20.00     0.095 C 
HETATM    8  C8  UNL     1     -32.546   7.171   1.938  1.00 20.00     0.003 C 
HETATM    9 CL11 UNL     1     -31.799   4.828   0.333  1.00 20.00    -0.124 Cl
ENDROOT
BRANCH   6  10
HETATM   10  O10 UNL     1     -34.482   7.352   3.633  1.00 20.00    -0.390 OA
HETATM   11  C9  UNL     1     -35.425   6.361   3.994  1.00 20.00     0.202 C 
ENDBRANCH   6  10
TORSDOF 1
ENDMDL
MODEL 6
REMARK VINA RESULT:       2.8      1.618      3.346
REMARK  1 active torsions:
REMARK  status: ('A' for Active; 'I' for Inactive)
REMARK    1  A    between atoms: C6_6  and  O10_10 
ROOT
HETATM    1  C1  UNL     1     -34.793   8.438   4.085  1.00 20.00     0.001 C 
HETATM    2  C2  UNL     1     -33.801   7.767   5.020  1.00 20.00     0.001 C 
HETATM    3  C3  UNL     1     -34.858   7.496   2.884  1.00 20.00     0.013 C 
HETATM    4  C4  UNL     1     -32.702   7.319   4.066  1.00 20.00     0.013 C 
HETATM    5  C5  UNL     1     -32.286   5.412   1.720  1.00 20.00     0.053 C 
HETATM    6  C6  UNL     1     -32.729   6.869   1.449  1.00 20.00     0.132 C 
HETATM    7  C7  UNL     1     -33.547   5.268   2.600  1.00 20.00     0.095 C 
HETATM    8  C8  UNL     1     -33.475   6.823   2.833  1.00 20.00     0.003 C 
HETATM    9 CL11 UNL     1     -33.508   4.117   3.973  1.00 20.00    -0.124 Cl
ENDROOT
BRANCH   6  10
HETATM   10  O10 UNL     1     -31.685   7.843   1.279  1.00 20.00    -0.390 OA
HETATM   11  C9  UNL     1     -32.209   9.067   0.799  1.00 20.00     0.202 C 
ENDBRANCH   6  10
TORSDOF 1
ENDMDL
MODEL 7
REMARK VINA RESULT:       2.9      1.648      3.533
REMARK  1 active torsions:
REMARK  status: ('A' for Active; 'I' for Inactive)
REMARK    1  A    between atoms: C6_6  and  O10_10 
ROOT
HETATM    1  C1  UNL     1     -32.076   9.134   0.640  1.00 20.00     0.001 C 
HETATM    2  C2  UNL     1     -31.586   9.224   2.075  1.00 20.00     0.001 C 
HETATM    3  C3  UNL     1     -33.169   8.067   0.692  1.00 20.00     0.013 C 
HETATM    4  C4  UNL     1     -31.507   7.760   2.487  1.00 20.00     0.013 C 
HETATM    5  C5  UNL     1     -33.338   5.356   2.914  1.00 20.00     0.053 C 
HETATM    6  C6  UNL     1     -32.712   5.599   1.521  1.00 20.00     0.132 C 
HETATM    7  C7  UNL     1     -33.954   6.768   2.805  1.00 20.00     0.095 C 
HETATM    8  C8  UNL     1     -32.759   7.137   1.848  1.00 20.00     0.003 C 
HETATM    9 CL11 UNL     1     -34.261   7.689   4.311  1.00 20.00    -0.124 Cl
ENDROOT
BRANCH   6  10
HETATM   10  O10 UNL     1     -31.427   5.004   1.274  1.00 20.00    -0.390 OA
HETATM   11  C9  UNL     1     -31.470   4.158   0.140  1.00 20.00     0.202 C 
ENDBRANCH   6  10
TORSDOF 1
ENDMDL
MODEL 8
REMARK VINA RESULT:       3.1      2.845      4.230
REMARK  1 active torsions:
REMARK  status: ('A' for Active; 'I' for Inactive)
REMARK    1  A    between atoms: C6_6  and  O10_10 
ROOT
HETATM    1  C1  UNL     1     -32.034   6.809   1.404  1.00 20.00     0.001 C 
HETATM    2  C2  UNL     1     -32.243   7.852   2.489  1.00 20.00     0.001 C 
HETATM    3  C3  UNL     1     -33.282   5.932   1.493  1.00 20.00     0.013 C 
HETATM    4  C4  UNL     1     -32.774   7.017   3.647  1.00 20.00     0.013 C 
HETATM    5  C5  UNL     1     -35.191   5.300   4.369  1.00 20.00     0.053 C 
HETATM    6  C6  UNL     1     -33.962   4.643   3.698  1.00 20.00     0.132 C 
HETATM    7  C7  UNL     1     -35.267   6.240   3.146  1.00 20.00     0.095 C 
HETATM    8  C8  UNL     1     -33.719   6.014   2.966  1.00 20.00     0.003 C 
HETATM    9 CL11 UNL     1     -35.950   7.882   3.367  1.00 20.00    -0.124 Cl
ENDROOT
BRANCH   6  10
HETATM   10  O10 UNL     1     -32.930   4.154   4.571  1.00 20.00    -0.390 OA
HETATM   11  C9  UNL     1     -33.095   2.773   4.826  1.00 20.00     0.202 C 
ENDBRANCH   6  10
TORSDOF 1
ENDMDL
MODEL 9
REMARK VINA RESULT:       3.1      2.663      4.337
REMARK  1 active torsions:
REMARK  status: ('A' for Active; 'I' for Inactive)
REMARK    1  A    between atoms: C6_6  and  O10_10 
ROOT
HETATM    1  C1  UNL     1     -33.878   8.137   5.067  1.00 20.00     0.001 C 
HETATM    2  C2  UNL     1     -34.738   8.571   3.892  1.00 20.00     0.001 C 
HETATM    3  C3  UNL     1     -32.652   7.507   4.409  1.00 20.00     0.013 C 
HETATM    4  C4  UNL     1     -34.635   7.378   2.951  1.00 20.00     0.013 C 
HETATM    5  C5  UNL     1     -32.549   5.885   1.298  1.00 20.00     0.053 C 
HETATM    6  C6  UNL     1     -32.820   5.450   2.757  1.00 20.00     0.132 C 
HETATM    7  C7  UNL     1     -32.215   7.287   1.854  1.00 20.00     0.095 C 
HETATM    8  C8  UNL     1     -33.162   6.954   3.067  1.00 20.00     0.003 C 
HETATM    9 CL11 UNL     1     -32.504   8.715   0.810  1.00 20.00    -0.124 Cl
ENDROOT
BRANCH   6  10
HETATM   10  O10 UNL     1     -33.851   4.469   2.961  1.00 20.00    -0.390 OA
HETATM   11  C9  UNL     1     -33.761   3.902   4.255  1.00 20.00     0.202 C 
ENDBRANCH   6  10
TORSDOF 1
ENDMDL
