MODEL 1
REMARK VINA RESULT:      -0.3      0.000      0.000
REMARK  1 active torsions:
REMARK  status: ('A' for Active; 'I' for Inactive)
REMARK    1  A    between atoms: C2_2  and  O8_8 
ROOT
HETATM    1  C1  UNL     1     -32.919   8.312   2.735  1.00 20.00     0.053 C 
HETATM    2  C2  UNL     1     -31.914   7.807   1.674  1.00 20.00     0.131 C 
HETATM    3  C3  UNL     1     -33.181   6.837   3.111  1.00 20.00     0.095 C 
HETATM    4  C4  UNL     1     -32.701   6.450   1.669  1.00 20.00    -0.005 C 
HETATM    5  C5  UNL     1     -33.792   6.346   0.601  1.00 20.00     0.019 C 
HETATM    6  C6  UNL     1     -31.794   5.221   1.642  1.00 20.00     0.019 C 
HETATM    7 CL9  UNL     1     -34.816   6.382   3.688  1.00 20.00    -0.124 Cl
ENDROOT
BRANCH   2   8
HETATM    8  O8  UNL     1     -31.875   8.535   0.434  1.00 20.00    -0.390 OA
HETATM    9  C7  UNL     1     -32.449   9.819   0.584  1.00 20.00     0.202 C 
ENDBRANCH   2   8
TORSDOF 1
ENDMDL
MODEL 2
REMARK VINA RESULT:       0.2      1.661      2.716
REMARK  1 active torsions:
REMARK  status: ('A' for Active; 'I' for Inactive)
REMARK    1  A    between atoms: C2_2  and  O8_8 
ROOT
HETATM    1  C1  UNL     1     -32.609   5.594   2.169  1.00 20.00     0.053 C 
HETATM    2  C2  UNL     1     -33.191   7.019   2.025  1.00 20.00     0.131 C 
HETATM    3  C3  UNL     1     -33.879   5.213   2.962  1.00 20.00     0.095 C 
HETATM    4  C4  UNL     1     -34.038   6.734   3.314  1.00 20.00    -0.005 C 
HETATM    5  C5  UNL     1     -33.389   7.193   4.622  1.00 20.00     0.019 C 
HETATM    6  C6  UNL     1     -35.479   7.231   3.218  1.00 20.00     0.019 C 
HETATM    7 CL9  UNL     1     -33.740   3.981   4.255  1.00 20.00    -0.124 Cl
ENDROOT
BRANCH   2   8
HETATM    8  O8  UNL     1     -32.249   8.103   2.100  1.00 20.00    -0.390 OA
HETATM    9  C7  UNL     1     -32.306   8.902   0.933  1.00 20.00     0.202 C 
ENDBRANCH   2   8
TORSDOF 1
ENDMDL
MODEL 3
REMARK VINA RESULT:       0.3      2.720      4.023
REMARK  1 active torsions:
REMARK  status: ('A' for Active; 'I' for Inactive)
REMARK    1  A    between atoms: C2_2  and  O8_8 
ROOT
HETATM    1  C1  UNL     1     -32.750   6.147   1.842  1.00 20.00     0.053 C 
HETATM    2  C2  UNL     1     -33.151   5.866   3.308  1.00 20.00     0.131 C 
HETATM    3  C3  UNL     1     -32.437   7.600   2.262  1.00 20.00     0.095 C 
HETATM    4  C4  UNL     1     -33.433   7.402   3.457  1.00 20.00    -0.005 C 
HETATM    5  C5  UNL     1     -34.884   7.815   3.200  1.00 20.00     0.019 C 
HETATM    6  C6  UNL     1     -32.925   7.989   4.772  1.00 20.00     0.019 C 
HETATM    7 CL9  UNL     1     -32.690   8.907   1.063  1.00 20.00    -0.124 Cl
ENDROOT
BRANCH   2   8
HETATM    8  O8  UNL     1     -34.269   4.983   3.507  1.00 20.00    -0.390 OA
HETATM    9  C7  UNL     1     -33.892   3.856   4.273  1.00 20.00     0.202 C 
ENDBRANCH   2   8
TORSDOF 1
ENDMDL
MODEL 4
REMARK VINA RESULT:       0.6      2.637      3.699
REMARK  1 active torsions:
REMARK  status: ('A' for Active; 'I' for Inactive)
REMARK    1  A    between atoms: C2_2  and  O8_8 
ROOT
HETATM    1  C1  UNL     1     -33.222   7.266   3.272  1.00 20.00     0.053 C 
HETATM    2  C2  UNL     1     -33.891   5.939   2.847  1.00 20.00     0.131 C 
HETATM    3  C3  UNL     1     -32.912   7.526   1.782  1.00 20.00     0.095 C 
HETATM    4  C4  UNL     1     -32.996   5.975   1.560  1.00 20.00    -0.005 C 
HETATM    5  C5  UNL     1     -31.677   5.206   1.674  1.00 20.00     0.019 C 
HETATM    6  C6  UNL     1     -33.745   5.585   0.287  1.00 20.00     0.019 C 
HETATM    7 CL9  UNL     1     -31.424   8.434   1.365  1.00 20.00    -0.124 Cl
ENDROOT
BRANCH   2   8
HETATM    8  O8  UNL     1     -33.706   4.819   3.730  1.00 20.00    -0.390 OA
HETATM    9  C7  UNL     1     -34.850   4.618   4.537  1.00 20.00     0.202 C 
ENDBRANCH   2   8
TORSDOF 1
ENDMDL
MODEL 5
REMARK VINA RESULT:       1.1      1.609      3.066
REMARK  1 active torsions:
REMARK  status: ('A' for Active; 'I' for Inactive)
REMARK    1  A    between atoms: C2_2  and  O8_8 
ROOT
HETATM    1  C1  UNL     1     -33.492   6.059   2.963  1.00 20.00     0.053 C 
HETATM    2  C2  UNL     1     -32.798   6.338   1.610  1.00 20.00     0.131 C 
HETATM    3  C3  UNL     1     -33.732   7.580   3.092  1.00 20.00     0.095 C 
HETATM    4  C4  UNL     1     -32.511   7.790   2.130  1.00 20.00    -0.005 C 
HETATM    5  C5  UNL     1     -31.147   7.972   2.802  1.00 20.00     0.019 C 
HETATM    6  C6  UNL     1     -32.748   8.871   1.078  1.00 20.00     0.019 C 
HETATM    7 CL9  UNL     1     -33.745   8.305   4.731  1.00 20.00    -0.124 Cl
ENDROOT
BRANCH   2   8
HETATM    8  O8  UNL     1     -31.652   5.526   1.302  1.00 20.00    -0.390 OA
HETATM    9  C7  UNL     1     -31.988   4.508   0.379  1.00 20.00     0.202 C 
ENDBRANCH   2   8
TORSDOF 1
ENDMDL
MODEL 6
REMARK VINA RESULT:       1.6      2.451      3.490
REMARK  1 active torsions:
REMARK  status: ('A' for Active; 'I' for Inactive)
REMARK    1  A    between atoms: C2_2  and  O8_8 
ROOT
HETATM    1  C1  UNL     1     -33.077   5.023   2.851  1.00 20.00     0.053 C 
HETATM    2  C2  UNL     1     -33.332   6.522   3.131  1.00 20.00     0.131 C 
HETATM    3  C3  UNL     1     -31.985   5.451   1.847  1.00 20.00     0.095 C 
HETATM    4  C4  UNL     1     -32.736   6.822   1.712  1.00 20.00    -0.005 C 
HETATM    5  C5  UNL     1     -33.771   6.915   0.588  1.00 20.00     0.019 C 
HETATM    6  C6  UNL     1     -31.798   8.027   1.689  1.00 20.00     0.019 C 
HETATM    7 CL9  UNL     1     -31.694   4.419   0.411  1.00 20.00    -0.124 Cl
ENDROOT
BRANCH   2   8
HETATM    8  O8  UNL     1     -34.701   6.907   3.350  1.00 20.00    -0.390 OA
HETATM    9  C7  UNL     1     -35.367   5.961   4.164  1.00 20.00     0.202 C 
ENDBRANCH   2   8
TORSDOF 1
ENDMDL
MODEL 7
REMARK VINA RESULT:       2.0      1.971      2.852
REMARK  1 active torsions:
REMARK  status: ('A' for Active; 'I' for Inactive)
REMARK    1  A    between atoms: C2_2  and  O8_8 
ROOT
HETATM    1  C1  UNL     1     -32.682   7.645   2.676  1.00 20.00     0.053 C 
HETATM    2  C2  UNL     1     -33.074   6.228   2.197  1.00 20.00     0.131 C 
HETATM    3  C3  UNL     1     -33.135   7.232   4.094  1.00 20.00     0.095 C 
HETATM    4  C4  UNL     1     -34.055   6.156   3.418  1.00 20.00    -0.005 C 
HETATM    5  C5  UNL     1     -35.490   6.593   3.114  1.00 20.00     0.019 C 
HETATM    6  C6  UNL     1     -34.037   4.808   4.135  1.00 20.00     0.019 C 
HETATM    7 CL9  UNL     1     -33.828   8.489   5.167  1.00 20.00    -0.124 Cl
ENDROOT
BRANCH   2   8
HETATM    8  O8  UNL     1     -33.665   6.137   0.889  1.00 20.00    -0.390 OA
HETATM    9  C7  UNL     1     -33.341   4.904   0.274  1.00 20.00     0.202 C 
ENDBRANCH   2   8
TORSDOF 1
ENDMDL
MODEL 8
REMARK VINA RESULT:       2.1      2.646      3.558
REMARK  1 active torsions:
REMARK  status: ('A' for Active; 'I' for Inactive)
REMARK    1  A    between atoms: C2_2  and  O8_8 
ROOT
HETATM    1  C1  UNL     1     -32.680   7.614   2.898  1.00 20.00     0.053 C 
HETATM    2  C2  UNL     1     -33.874   7.790   3.863  1.00 20.00     0.131 C 
HETATM    3  C3  UNL     1     -33.552   6.635   2.082  1.00 20.00     0.095 C 
HETATM    4  C4  UNL     1     -34.381   6.383   3.390  1.00 20.00    -0.005 C 
HETATM    5  C5  UNL     1     -33.924   5.211   4.262  1.00 20.00     0.019 C 
HETATM    6  C6  UNL     1     -35.888   6.328   3.151  1.00 20.00     0.019 C 
HETATM    7 CL9  UNL     1     -32.746   5.279   1.231  1.00 20.00    -0.124 Cl
ENDROOT
BRANCH   2   8
HETATM    8  O8  UNL     1     -33.552   7.924   5.259  1.00 20.00    -0.390 OA
HETATM    9  C7  UNL     1     -32.403   8.728   5.437  1.00 20.00     0.202 C 
ENDBRANCH   2   8
TORSDOF 1
ENDMDL
MODEL 9
REMARK VINA RESULT:       2.2      1.789      2.655
REMARK  1 active torsions:
REMARK  status: ('A' for Active; 'I' for Inactive)
REMARK    1  A    between atoms: C2_2  and  O8_8 
ROOT
HETATM    1  C1  UNL     1     -32.550   7.517   0.353  1.00 20.00     0.053 C 
HETATM    2  C2  UNL     1     -33.094   8.630   1.278  1.00 20.00     0.131 C 
HETATM    3  C3  UNL     1     -32.678   6.540   1.542  1.00 20.00     0.095 C 
HETATM    4  C4  UNL     1     -32.576   7.783   2.493  1.00 20.00    -0.005 C 
HETATM    5  C5  UNL     1     -31.171   8.149   2.977  1.00 20.00     0.019 C 
HETATM    6  C6  UNL     1     -33.558   7.733   3.662  1.00 20.00     0.019 C 
HETATM    7 CL9  UNL     1     -31.505   5.190   1.667  1.00 20.00    -0.124 Cl
ENDROOT
BRANCH   2   8
HETATM    8  O8  UNL     1     -32.518   9.937   1.112  1.00 20.00    -0.390 OA
HETATM    9  C7  UNL     1     -32.468  10.296  -0.255  1.00 20.00     0.202 C 
ENDBRANCH   2   8
TORSDOF 1
ENDMDL
