MODEL 1
REMARK VINA RESULT:      -2.2      0.000      0.000
REMARK  3 active torsions:
REMARK  status: ('A' for Active; 'I' for Inactive)
REMARK    1  A    between atoms: C4_4  and  O11_11 
REMARK    2  A    between atoms: C8_8  and  C10_10 
REMARK    3  A    between atoms: C10_10  and  O11_11 
ROOT
HETATM    1  C1  UNL     1     -34.614   5.810   3.998  1.00 20.00    -0.030 C 
HETATM    2  C2  UNL     1     -34.590   7.144   4.111  1.00 20.00    -0.030 C 
HETATM    3  C5  UNL     1     -33.772   5.059   3.014  1.00 20.00     0.031 C 
HETATM    4  C6  UNL     1     -33.694   8.019   3.288  1.00 20.00     0.034 C 
HETATM    5  C7  UNL     1     -33.143   5.954   1.924  1.00 20.00    -0.009 C 
HETATM    6  C8  UNL     1     -32.574   7.245   2.559  1.00 20.00     0.017 C 
HETATM    7  C9  UNL     1     -32.098   5.151   1.146  1.00 20.00     0.011 C 
ENDROOT
BRANCH   6   8
HETATM    8  C10 UNL     1     -31.896   8.168   1.545  1.00 20.00     0.179 C 
BRANCH   8   9
HETATM    9  O11 UNL     1     -32.556   9.419   1.566  1.00 20.00    -0.363 OA
BRANCH   9  10
HETATM   10  C4  UNL     1     -32.371  10.178   0.490  1.00 20.00     0.124 C 
HETATM   11  C3  UNL     1     -32.738   9.849  -0.750  1.00 20.00     0.037 C 
ENDBRANCH   9  10
ENDBRANCH   8   9
ENDBRANCH   6   8
TORSDOF 3
ENDMDL
MODEL 2
REMARK VINA RESULT:      -2.1      2.465      5.072
REMARK  3 active torsions:
REMARK  status: ('A' for Active; 'I' for Inactive)
REMARK    1  A    between atoms: C4_4  and  O11_11 
REMARK    2  A    between atoms: C8_8  and  C10_10 
REMARK    3  A    between atoms: C10_10  and  O11_11 
ROOT
HETATM    1  C1  UNL     1     -31.797   7.637   1.777  1.00 20.00    -0.030 C 
HETATM    2  C2  UNL     1     -32.398   6.574   1.229  1.00 20.00    -0.030 C 
HETATM    3  C5  UNL     1     -32.225   8.236   3.081  1.00 20.00     0.031 C 
HETATM    4  C6  UNL     1     -33.540   5.855   1.879  1.00 20.00     0.034 C 
HETATM    5  C7  UNL     1     -33.610   7.751   3.560  1.00 20.00    -0.009 C 
HETATM    6  C8  UNL     1     -33.735   6.221   3.366  1.00 20.00     0.017 C 
HETATM    7  C9  UNL     1     -33.833   8.197   5.007  1.00 20.00     0.011 C 
ENDROOT
BRANCH   6   8
HETATM    8  C10 UNL     1     -35.069   5.657   3.859  1.00 20.00     0.179 C 
BRANCH   8   9
HETATM    9  O11 UNL     1     -34.815   4.456   4.561  1.00 20.00    -0.363 OA
BRANCH   9  10
HETATM   10  C4  UNL     1     -33.739   3.782   4.164  1.00 20.00     0.124 C 
HETATM   11  C3  UNL     1     -33.127   2.833   4.875  1.00 20.00     0.037 C 
ENDBRANCH   9  10
ENDBRANCH   8   9
ENDBRANCH   6   8
TORSDOF 3
ENDMDL
MODEL 3
REMARK VINA RESULT:      -0.9      2.287      4.559
REMARK  3 active torsions:
REMARK  status: ('A' for Active; 'I' for Inactive)
REMARK    1  A    between atoms: C4_4  and  O11_11 
REMARK    2  A    between atoms: C8_8  and  C10_10 
REMARK    3  A    between atoms: C10_10  and  O11_11 
ROOT
HETATM    1  C1  UNL     1     -31.662   8.460   2.409  1.00 20.00    -0.030 C 
HETATM    2  C2  UNL     1     -32.274   8.579   3.594  1.00 20.00    -0.030 C 
HETATM    3  C5  UNL     1     -31.985   7.376   1.427  1.00 20.00     0.031 C 
HETATM    4  C6  UNL     1     -33.367   7.660   4.046  1.00 20.00     0.034 C 
HETATM    5  C7  UNL     1     -32.821   6.225   2.029  1.00 20.00    -0.009 C 
HETATM    6  C8  UNL     1     -33.957   6.796   2.910  1.00 20.00     0.017 C 
HETATM    7  C9  UNL     1     -33.326   5.320   0.902  1.00 20.00     0.011 C 
ENDROOT
BRANCH   6   8
HETATM    8  C10 UNL     1     -34.857   5.713   3.510  1.00 20.00     0.179 C 
BRANCH   8   9
HETATM    9  O11 UNL     1     -34.105   4.983   4.460  1.00 20.00    -0.363 OA
BRANCH   9  10
HETATM   10  C4  UNL     1     -33.897   3.704   4.160  1.00 20.00     0.124 C 
HETATM   11  C3  UNL     1     -33.102   2.878   4.843  1.00 20.00     0.037 C 
ENDBRANCH   9  10
ENDBRANCH   8   9
ENDBRANCH   6   8
TORSDOF 3
ENDMDL
MODEL 4
REMARK VINA RESULT:      -0.9      1.060      2.331
REMARK  3 active torsions:
REMARK  status: ('A' for Active; 'I' for Inactive)
REMARK    1  A    between atoms: C4_4  and  O11_11 
REMARK    2  A    between atoms: C8_8  and  C10_10 
REMARK    3  A    between atoms: C10_10  and  O11_11 
ROOT
HETATM    1  C1  UNL     1     -34.979   4.904   4.198  1.00 20.00    -0.030 C 
HETATM    2  C2  UNL     1     -33.922   4.355   3.587  1.00 20.00    -0.030 C 
HETATM    3  C5  UNL     1     -35.218   6.382   4.246  1.00 20.00     0.031 C 
HETATM    4  C6  UNL     1     -32.887   5.160   2.862  1.00 20.00     0.034 C 
HETATM    5  C7  UNL     1     -33.988   7.222   3.842  1.00 20.00    -0.009 C 
HETATM    6  C8  UNL     1     -33.318   6.616   2.586  1.00 20.00     0.017 C 
HETATM    7  C9  UNL     1     -34.407   8.682   3.659  1.00 20.00     0.011 C 
ENDROOT
BRANCH   6   8
HETATM    8  C10 UNL     1     -32.111   7.420   2.098  1.00 20.00     0.179 C 
BRANCH   8   9
HETATM    9  O11 UNL     1     -32.437   8.003   0.851  1.00 20.00    -0.363 OA
BRANCH   9  10
HETATM   10  C4  UNL     1     -32.082   9.276   0.708  1.00 20.00     0.124 C 
HETATM   11  C3  UNL     1     -32.653  10.139  -0.135  1.00 20.00     0.037 C 
ENDBRANCH   9  10
ENDBRANCH   8   9
ENDBRANCH   6   8
TORSDOF 3
ENDMDL
MODEL 5
REMARK VINA RESULT:      -0.6      0.865      2.325
REMARK  3 active torsions:
REMARK  status: ('A' for Active; 'I' for Inactive)
REMARK    1  A    between atoms: C4_4  and  O11_11 
REMARK    2  A    between atoms: C8_8  and  C10_10 
REMARK    3  A    between atoms: C10_10  and  O11_11 
ROOT
HETATM    1  C1  UNL     1     -34.102   4.807   3.229  1.00 20.00    -0.030 C 
HETATM    2  C2  UNL     1     -33.194   4.769   2.246  1.00 20.00    -0.030 C 
HETATM    3  C5  UNL     1     -34.445   6.059   3.976  1.00 20.00     0.031 C 
HETATM    4  C6  UNL     1     -32.452   5.980   1.770  1.00 20.00     0.034 C 
HETATM    5  C7  UNL     1     -33.435   7.207   3.758  1.00 20.00    -0.009 C 
HETATM    6  C8  UNL     1     -33.062   7.311   2.261  1.00 20.00     0.017 C 
HETATM    7  C9  UNL     1     -34.009   8.505   4.330  1.00 20.00     0.011 C 
ENDROOT
BRANCH   6   8
HETATM    8  C10 UNL     1     -32.093   8.456   1.959  1.00 20.00     0.179 C 
BRANCH   8   9
HETATM    9  O11 UNL     1     -31.906   8.525   0.558  1.00 20.00    -0.363 OA
BRANCH   9  10
HETATM   10  C4  UNL     1     -32.374   9.625  -0.025  1.00 20.00     0.124 C 
HETATM   11  C3  UNL     1     -32.783  10.718   0.622  1.00 20.00     0.037 C 
ENDBRANCH   9  10
ENDBRANCH   8   9
ENDBRANCH   6   8
TORSDOF 3
ENDMDL
MODEL 6
REMARK VINA RESULT:       0.5      1.504      4.191
REMARK  3 active torsions:
REMARK  status: ('A' for Active; 'I' for Inactive)
REMARK    1  A    between atoms: C4_4  and  O11_11 
REMARK    2  A    between atoms: C8_8  and  C10_10 
REMARK    3  A    between atoms: C10_10  and  O11_11 
ROOT
HETATM    1  C1  UNL     1     -32.186   9.505  -0.097  1.00 20.00    -0.030 C 
HETATM    2  C2  UNL     1     -32.641  10.245   0.922  1.00 20.00    -0.030 C 
HETATM    3  C5  UNL     1     -31.918   8.036   0.015  1.00 20.00     0.031 C 
HETATM    4  C6  UNL     1     -32.961   9.673   2.269  1.00 20.00     0.034 C 
HETATM    5  C7  UNL     1     -31.881   7.523   1.471  1.00 20.00    -0.009 C 
HETATM    6  C8  UNL     1     -33.050   8.131   2.281  1.00 20.00     0.017 C 
HETATM    7  C9  UNL     1     -31.877   5.992   1.471  1.00 20.00     0.011 C 
ENDROOT
BRANCH   6   8
HETATM    8  C10 UNL     1     -33.105   7.636   3.727  1.00 20.00     0.179 C 
BRANCH   8   9
HETATM    9  O11 UNL     1     -34.460   7.571   4.127  1.00 20.00    -0.363 OA
BRANCH   9  10
HETATM   10  C4  UNL     1     -35.088   6.438   3.824  1.00 20.00     0.124 C 
HETATM   11  C3  UNL     1     -34.649   5.216   4.130  1.00 20.00     0.037 C 
ENDBRANCH   9  10
ENDBRANCH   8   9
ENDBRANCH   6   8
TORSDOF 3
ENDMDL
