MODEL 1
REMARK VINA RESULT:       0.1      0.000      0.000
REMARK  2 active torsions:
REMARK  status: ('A' for Active; 'I' for Inactive)
REMARK    1  A    between atoms: C3_3  and  O11_11 
REMARK    2  A    between atoms: C9_9  and  O11_11 
ROOT
HETATM    1  C1  UNL     1     -33.179   5.685   1.829  1.00 20.00     0.069 C 
HETATM    2  C2  UNL     1     -33.132   5.552   3.367  1.00 20.00     0.173 C 
HETATM    3  C3  UNL     1     -33.511   7.188   2.023  1.00 20.00     0.135 C 
HETATM    4  C4  UNL     1     -34.049   6.823   3.454  1.00 20.00     0.008 C 
HETATM    5  C5  UNL     1     -33.626   7.781   4.570  1.00 20.00     0.020 C 
HETATM    6  C6  UNL     1     -35.576   6.651   3.455  1.00 20.00     0.020 C 
HETATM    7  O10 UNL     1     -33.711   4.366   3.839  1.00 20.00    -0.234 OA
ENDROOT
BRANCH   3   8
HETATM    8  O11 UNL     1     -32.378   8.079   1.964  1.00 20.00    -0.380 OA
BRANCH   8   9
HETATM    9  C9  UNL     1     -32.408   8.849   0.778  1.00 20.00     0.114 C 
HETATM   10  C7  UNL     1     -32.772  10.285   1.123  1.00 20.00     0.039 C 
HETATM   11  C8  UNL     1     -31.056   8.757   0.089  1.00 20.00     0.039 C 
ENDBRANCH   8   9
ENDBRANCH   3   8
TORSDOF 2
ENDMDL
MODEL 2
REMARK VINA RESULT:       0.3      1.738      4.817
REMARK  2 active torsions:
REMARK  status: ('A' for Active; 'I' for Inactive)
REMARK    1  A    between atoms: C3_3  and  O11_11 
REMARK    2  A    between atoms: C9_9  and  O11_11 
ROOT
HETATM    1  C1  UNL     1     -33.399   7.433   2.934  1.00 20.00     0.069 C 
HETATM    2  C2  UNL     1     -32.175   7.370   1.996  1.00 20.00     0.173 C 
HETATM    3  C3  UNL     1     -33.623   5.923   2.657  1.00 20.00     0.135 C 
HETATM    4  C4  UNL     1     -32.825   6.113   1.316  1.00 20.00     0.008 C 
HETATM    5  C5  UNL     1     -31.804   5.015   1.007  1.00 20.00     0.020 C 
HETATM    6  C6  UNL     1     -33.771   6.308   0.121  1.00 20.00     0.020 C 
HETATM    7  O10 UNL     1     -32.050   8.496   1.170  1.00 20.00    -0.234 OA
ENDROOT
BRANCH   3   8
HETATM    8  O11 UNL     1     -33.049   5.029   3.632  1.00 20.00    -0.380 OA
BRANCH   8   9
HETATM    9  C9  UNL     1     -33.979   4.033   4.007  1.00 20.00     0.114 C 
HETATM   10  C7  UNL     1     -33.274   2.982   4.851  1.00 20.00     0.039 C 
HETATM   11  C8  UNL     1     -35.131   4.682   4.757  1.00 20.00     0.039 C 
ENDBRANCH   8   9
ENDBRANCH   3   8
TORSDOF 2
ENDMDL
MODEL 3
REMARK VINA RESULT:       0.7      0.443      1.160
REMARK  2 active torsions:
REMARK  status: ('A' for Active; 'I' for Inactive)
REMARK    1  A    between atoms: C3_3  and  O11_11 
REMARK    2  A    between atoms: C9_9  and  O11_11 
ROOT
HETATM    1  C1  UNL     1     -33.013   5.801   1.864  1.00 20.00     0.069 C 
HETATM    2  C2  UNL     1     -33.201   5.579   3.380  1.00 20.00     0.173 C 
HETATM    3  C3  UNL     1     -33.163   7.323   2.122  1.00 20.00     0.135 C 
HETATM    4  C4  UNL     1     -33.942   6.962   3.438  1.00 20.00     0.008 C 
HETATM    5  C5  UNL     1     -33.555   7.787   4.668  1.00 20.00     0.020 C 
HETATM    6  C6  UNL     1     -35.462   7.011   3.225  1.00 20.00     0.020 C 
HETATM    7  O10 UNL     1     -33.996   4.465   3.684  1.00 20.00    -0.234 OA
ENDROOT
BRANCH   3   8
HETATM    8  O11 UNL     1     -31.924   8.044   2.278  1.00 20.00    -0.380 OA
BRANCH   8   9
HETATM    9  C9  UNL     1     -31.783   9.024   1.269  1.00 20.00     0.114 C 
HETATM   10  C7  UNL     1     -31.457   8.340  -0.050  1.00 20.00     0.039 C 
HETATM   11  C8  UNL     1     -33.063   9.840   1.183  1.00 20.00     0.039 C 
ENDBRANCH   8   9
ENDBRANCH   3   8
TORSDOF 2
ENDMDL
MODEL 4
REMARK VINA RESULT:       0.7      1.084      2.523
REMARK  2 active torsions:
REMARK  status: ('A' for Active; 'I' for Inactive)
REMARK    1  A    between atoms: C3_3  and  O11_11 
REMARK    2  A    between atoms: C9_9  and  O11_11 
ROOT
HETATM    1  C1  UNL     1     -32.960   7.413   3.431  1.00 20.00     0.069 C 
HETATM    2  C2  UNL     1     -33.906   6.318   2.893  1.00 20.00     0.173 C 
HETATM    3  C3  UNL     1     -32.427   7.590   1.985  1.00 20.00     0.135 C 
HETATM    4  C4  UNL     1     -32.914   6.124   1.692  1.00 20.00     0.008 C 
HETATM    5  C5  UNL     1     -33.636   5.935   0.355  1.00 20.00     0.020 C 
HETATM    6  C6  UNL     1     -31.765   5.113   1.819  1.00 20.00     0.020 C 
HETATM    7  O10 UNL     1     -34.024   5.216   3.751  1.00 20.00    -0.234 OA
ENDROOT
BRANCH   3   8
HETATM    8  O11 UNL     1     -33.052   8.645   1.225  1.00 20.00    -0.380 OA
BRANCH   8   9
HETATM    9  C9  UNL     1     -32.079   9.516   0.684  1.00 20.00     0.114 C 
HETATM   10  C7  UNL     1     -31.121   8.716  -0.186  1.00 20.00     0.039 C 
HETATM   11  C8  UNL     1     -32.775  10.616  -0.102  1.00 20.00     0.039 C 
ENDBRANCH   8   9
ENDBRANCH   3   8
TORSDOF 2
ENDMDL
MODEL 5
REMARK VINA RESULT:       1.1      1.180      2.373
REMARK  2 active torsions:
REMARK  status: ('A' for Active; 'I' for Inactive)
REMARK    1  A    between atoms: C3_3  and  O11_11 
REMARK    2  A    between atoms: C9_9  and  O11_11 
ROOT
HETATM    1  C1  UNL     1     -34.145   7.492   4.294  1.00 20.00     0.069 C 
HETATM    2  C2  UNL     1     -35.024   6.440   3.584  1.00 20.00     0.173 C 
HETATM    3  C3  UNL     1     -33.149   7.383   3.110  1.00 20.00     0.135 C 
HETATM    4  C4  UNL     1     -33.738   5.954   2.825  1.00 20.00     0.008 C 
HETATM    5  C5  UNL     1     -34.006   5.644   1.349  1.00 20.00     0.020 C 
HETATM    6  C6  UNL     1     -32.869   4.851   3.447  1.00 20.00     0.020 C 
HETATM    7  O10 UNL     1     -35.588   5.503   4.461  1.00 20.00    -0.234 OA
ENDROOT
BRANCH   3   8
HETATM    8  O11 UNL     1     -33.317   8.372   2.074  1.00 20.00    -0.380 OA
BRANCH   8   9
HETATM    9  C9  UNL     1     -32.063   8.834   1.614  1.00 20.00     0.114 C 
HETATM   10  C7  UNL     1     -31.143   7.644   1.389  1.00 20.00     0.039 C 
HETATM   11  C8  UNL     1     -32.264   9.644   0.343  1.00 20.00     0.039 C 
ENDBRANCH   8   9
ENDBRANCH   3   8
TORSDOF 2
ENDMDL
MODEL 6
REMARK VINA RESULT:       1.5      1.711      4.649
REMARK  2 active torsions:
REMARK  status: ('A' for Active; 'I' for Inactive)
REMARK    1  A    between atoms: C3_3  and  O11_11 
REMARK    2  A    between atoms: C9_9  and  O11_11 
ROOT
HETATM    1  C1  UNL     1     -33.407   7.352   3.055  1.00 20.00     0.069 C 
HETATM    2  C2  UNL     1     -32.250   7.382   2.032  1.00 20.00     0.173 C 
HETATM    3  C3  UNL     1     -33.526   5.827   2.796  1.00 20.00     0.135 C 
HETATM    4  C4  UNL     1     -32.841   6.072   1.402  1.00 20.00     0.008 C 
HETATM    5  C5  UNL     1     -31.758   5.058   1.025  1.00 20.00     0.020 C 
HETATM    6  C6  UNL     1     -33.880   6.180   0.276  1.00 20.00     0.020 C 
HETATM    7  O10 UNL     1     -32.275   8.508   1.198  1.00 20.00    -0.234 OA
ENDROOT
BRANCH   3   8
HETATM    8  O11 UNL     1     -32.814   4.990   3.731  1.00 20.00    -0.380 OA
BRANCH   8   9
HETATM    9  C9  UNL     1     -33.713   4.346   4.612  1.00 20.00     0.114 C 
HETATM   10  C7  UNL     1     -35.133   4.781   4.283  1.00 20.00     0.039 C 
HETATM   11  C8  UNL     1     -33.539   2.841   4.492  1.00 20.00     0.039 C 
ENDBRANCH   8   9
ENDBRANCH   3   8
TORSDOF 2
ENDMDL
MODEL 7
REMARK VINA RESULT:       1.9      1.605      4.296
REMARK  2 active torsions:
REMARK  status: ('A' for Active; 'I' for Inactive)
REMARK    1  A    between atoms: C3_3  and  O11_11 
REMARK    2  A    between atoms: C9_9  and  O11_11 
ROOT
HETATM    1  C1  UNL     1     -32.103   6.648   1.296  1.00 20.00     0.069 C 
HETATM    2  C2  UNL     1     -32.903   7.967   1.338  1.00 20.00     0.173 C 
HETATM    3  C3  UNL     1     -32.637   6.340   2.719  1.00 20.00     0.135 C 
HETATM    4  C4  UNL     1     -32.858   7.885   2.905  1.00 20.00     0.008 C 
HETATM    5  C5  UNL     1     -34.187   8.277   3.555  1.00 20.00     0.020 C 
HETATM    6  C6  UNL     1     -31.688   8.534   3.660  1.00 20.00     0.020 C 
HETATM    7  O10 UNL     1     -32.214   9.052   0.779  1.00 20.00    -0.234 OA
ENDROOT
BRANCH   3   8
HETATM    8  O11 UNL     1     -33.813   5.506   2.766  1.00 20.00    -0.380 OA
BRANCH   8   9
HETATM    9  C9  UNL     1     -34.007   4.986   4.066  1.00 20.00     0.114 C 
HETATM   10  C7  UNL     1     -35.452   5.211   4.484  1.00 20.00     0.039 C 
HETATM   11  C8  UNL     1     -33.638   3.511   4.074  1.00 20.00     0.039 C 
ENDBRANCH   8   9
ENDBRANCH   3   8
TORSDOF 2
ENDMDL
MODEL 8
REMARK VINA RESULT:       2.3      1.561      4.421
REMARK  2 active torsions:
REMARK  status: ('A' for Active; 'I' for Inactive)
REMARK    1  A    between atoms: C3_3  and  O11_11 
REMARK    2  A    between atoms: C9_9  and  O11_11 
ROOT
HETATM    1  C1  UNL     1     -31.991   6.252   1.973  1.00 20.00     0.069 C 
HETATM    2  C2  UNL     1     -32.923   7.459   1.733  1.00 20.00     0.173 C 
HETATM    3  C3  UNL     1     -32.934   5.821   3.127  1.00 20.00     0.135 C 
HETATM    4  C4  UNL     1     -33.405   7.318   3.220  1.00 20.00     0.008 C 
HETATM    5  C5  UNL     1     -34.915   7.515   3.372  1.00 20.00     0.020 C 
HETATM    6  C6  UNL     1     -32.658   8.076   4.328  1.00 20.00     0.020 C 
HETATM    7  O10 UNL     1     -32.233   8.644   1.440  1.00 20.00    -0.234 OA
ENDROOT
BRANCH   3   8
HETATM    8  O11 UNL     1     -33.936   4.847   2.770  1.00 20.00    -0.380 OA
BRANCH   8   9
HETATM    9  C9  UNL     1     -34.220   3.997   3.863  1.00 20.00     0.114 C 
HETATM   10  C7  UNL     1     -32.913   3.525   4.482  1.00 20.00     0.039 C 
HETATM   11  C8  UNL     1     -35.085   4.744   4.865  1.00 20.00     0.039 C 
ENDBRANCH   8   9
ENDBRANCH   3   8
TORSDOF 2
ENDMDL
MODEL 9
REMARK VINA RESULT:       2.4      1.578      4.365
REMARK  2 active torsions:
REMARK  status: ('A' for Active; 'I' for Inactive)
REMARK    1  A    between atoms: C3_3  and  O11_11 
REMARK    2  A    between atoms: C9_9  and  O11_11 
ROOT
HETATM    1  C1  UNL     1     -33.361   7.973   3.851  1.00 20.00     0.069 C 
HETATM    2  C2  UNL     1     -31.878   8.006   3.425  1.00 20.00     0.173 C 
HETATM    3  C3  UNL     1     -33.662   7.178   2.554  1.00 20.00     0.135 C 
HETATM    4  C4  UNL     1     -32.352   7.798   1.943  1.00 20.00     0.008 C 
HETATM    5  C5  UNL     1     -31.467   6.814   1.173  1.00 20.00     0.020 C 
HETATM    6  C6  UNL     1     -32.663   9.024   1.072  1.00 20.00     0.020 C 
HETATM    7  O10 UNL     1     -31.253   9.235   3.683  1.00 20.00    -0.234 OA
ENDROOT
BRANCH   3   8
HETATM    8  O11 UNL     1     -33.691   5.744   2.705  1.00 20.00    -0.380 OA
BRANCH   8   9
HETATM    9  C9  UNL     1     -34.157   5.386   3.991  1.00 20.00     0.114 C 
HETATM   10  C7  UNL     1     -35.624   5.768   4.117  1.00 20.00     0.039 C 
HETATM   11  C8  UNL     1     -33.939   3.897   4.205  1.00 20.00     0.039 C 
ENDBRANCH   8   9
ENDBRANCH   3   8
TORSDOF 2
ENDMDL
