MODEL 1
REMARK VINA RESULT:       0.5      0.000      0.000
REMARK  2 active torsions:
REMARK  status: ('A' for Active; 'I' for Inactive)
REMARK    1  A    between atoms: C2_2  and  O10_10 
REMARK    2  A    between atoms: C9_9  and  O10_10 
ROOT
HETATM    1  C1  UNL     1     -33.597   7.033   3.531  1.00 20.00     0.053 C 
HETATM    2  C2  UNL     1     -33.336   7.459   2.068  1.00 20.00     0.132 C 
HETATM    3  C3  UNL     1     -34.009   5.644   2.996  1.00 20.00     0.095 C 
HETATM    4  C4  UNL     1     -33.133   5.941   1.730  1.00 20.00    -0.005 C 
HETATM    5  C5  UNL     1     -33.794   5.516   0.420  1.00 20.00     0.019 C 
HETATM    6  C6  UNL     1     -31.680   5.460   1.788  1.00 20.00     0.019 C 
HETATM    7 CL11 UNL     1     -33.689   4.207   4.019  1.00 20.00    -0.124 Cl
ENDROOT
BRANCH   2   8
HETATM    8  O10 UNL     1     -32.212   8.330   1.854  1.00 20.00    -0.381 OA
BRANCH   8   9
HETATM    9  C9  UNL     1     -32.313   8.986   0.604  1.00 20.00     0.114 C 
HETATM   10  C7  UNL     1     -32.676  10.445   0.833  1.00 20.00     0.039 C 
HETATM   11  C8  UNL     1     -30.998   8.840  -0.146  1.00 20.00     0.039 C 
ENDBRANCH   8   9
ENDBRANCH   2   8
TORSDOF 2
ENDMDL
MODEL 2
REMARK VINA RESULT:       0.8      0.591      1.150
REMARK  2 active torsions:
REMARK  status: ('A' for Active; 'I' for Inactive)
REMARK    1  A    between atoms: C2_2  and  O10_10 
REMARK    2  A    between atoms: C9_9  and  O10_10 
ROOT
HETATM    1  C1  UNL     1     -33.243   7.352   3.290  1.00 20.00     0.053 C 
HETATM    2  C2  UNL     1     -32.971   7.643   1.796  1.00 20.00     0.132 C 
HETATM    3  C3  UNL     1     -33.912   6.030   2.855  1.00 20.00     0.095 C 
HETATM    4  C4  UNL     1     -33.049   6.097   1.547  1.00 20.00    -0.005 C 
HETATM    5  C5  UNL     1     -33.827   5.723   0.286  1.00 20.00     0.019 C 
HETATM    6  C6  UNL     1     -31.702   5.371   1.592  1.00 20.00     0.019 C 
HETATM    7 CL11 UNL     1     -33.807   4.618   3.954  1.00 20.00    -0.124 Cl
ENDROOT
BRANCH   2   8
HETATM    8  O10 UNL     1     -31.721   8.289   1.495  1.00 20.00    -0.381 OA
BRANCH   8   9
HETATM    9  C9  UNL     1     -31.921   9.404   0.647  1.00 20.00     0.114 C 
HETATM   10  C7  UNL     1     -32.435   8.921  -0.701  1.00 20.00     0.039 C 
HETATM   11  C8  UNL     1     -32.891  10.370   1.310  1.00 20.00     0.039 C 
ENDBRANCH   8   9
ENDBRANCH   2   8
TORSDOF 2
ENDMDL
MODEL 3
REMARK VINA RESULT:       0.8      0.895      2.484
REMARK  2 active torsions:
REMARK  status: ('A' for Active; 'I' for Inactive)
REMARK    1  A    between atoms: C2_2  and  O10_10 
REMARK    2  A    between atoms: C9_9  and  O10_10 
ROOT
HETATM    1  C1  UNL     1     -32.818   5.937   1.930  1.00 20.00     0.053 C 
HETATM    2  C2  UNL     1     -32.666   7.437   2.269  1.00 20.00     0.132 C 
HETATM    3  C3  UNL     1     -33.140   5.689   3.419  1.00 20.00     0.095 C 
HETATM    4  C4  UNL     1     -33.596   7.186   3.506  1.00 20.00    -0.005 C 
HETATM    5  C5  UNL     1     -33.123   7.894   4.775  1.00 20.00     0.019 C 
HETATM    6  C6  UNL     1     -35.083   7.454   3.255  1.00 20.00     0.019 C 
HETATM    7 CL11 UNL     1     -34.267   4.360   3.839  1.00 20.00    -0.124 Cl
ENDROOT
BRANCH   2   8
HETATM    8  O10 UNL     1     -33.140   8.362   1.274  1.00 20.00    -0.381 OA
BRANCH   8   9
HETATM    9  C9  UNL     1     -32.121   9.273   0.905  1.00 20.00     0.114 C 
HETATM   10  C7  UNL     1     -31.143   8.578  -0.029  1.00 20.00     0.039 C 
HETATM   11  C8  UNL     1     -32.753  10.495   0.257  1.00 20.00     0.039 C 
ENDBRANCH   8   9
ENDBRANCH   2   8
TORSDOF 2
ENDMDL
MODEL 4
REMARK VINA RESULT:       1.1      2.581      4.471
REMARK  2 active torsions:
REMARK  status: ('A' for Active; 'I' for Inactive)
REMARK    1  A    between atoms: C2_2  and  O10_10 
REMARK    2  A    between atoms: C9_9  and  O10_10 
ROOT
HETATM    1  C1  UNL     1     -32.999   7.987   2.793  1.00 20.00     0.053 C 
HETATM    2  C2  UNL     1     -33.071   6.448   2.916  1.00 20.00     0.132 C 
HETATM    3  C3  UNL     1     -31.970   7.795   1.658  1.00 20.00     0.095 C 
HETATM    4  C4  UNL     1     -32.585   6.371   1.427  1.00 20.00    -0.005 C 
HETATM    5  C5  UNL     1     -31.536   5.287   1.185  1.00 20.00     0.019 C 
HETATM    6  C6  UNL     1     -33.709   6.282   0.390  1.00 20.00     0.019 C 
HETATM    7 CL11 UNL     1     -31.925   9.002   0.333  1.00 20.00    -0.124 Cl
ENDROOT
BRANCH   2   8
HETATM    8  O10 UNL     1     -34.367   5.897   3.209  1.00 20.00    -0.381 OA
BRANCH   8   9
HETATM    9  C9  UNL     1     -34.317   5.073   4.358  1.00 20.00     0.114 C 
HETATM   10  C7  UNL     1     -35.715   4.943   4.941  1.00 20.00     0.039 C 
HETATM   11  C8  UNL     1     -33.733   3.720   3.980  1.00 20.00     0.039 C 
ENDBRANCH   8   9
ENDBRANCH   2   8
TORSDOF 2
ENDMDL
MODEL 5
REMARK VINA RESULT:       1.2      2.643      4.927
REMARK  2 active torsions:
REMARK  status: ('A' for Active; 'I' for Inactive)
REMARK    1  A    between atoms: C2_2  and  O10_10 
REMARK    2  A    between atoms: C9_9  and  O10_10 
ROOT
HETATM    1  C1  UNL     1     -32.447   6.186   1.513  1.00 20.00     0.053 C 
HETATM    2  C2  UNL     1     -33.434   5.777   2.631  1.00 20.00     0.132 C 
HETATM    3  C3  UNL     1     -33.089   7.591   1.536  1.00 20.00     0.095 C 
HETATM    4  C4  UNL     1     -33.534   7.295   3.010  1.00 20.00    -0.005 C 
HETATM    5  C5  UNL     1     -34.958   7.753   3.318  1.00 20.00     0.019 C 
HETATM    6  C6  UNL     1     -32.567   7.746   4.109  1.00 20.00     0.019 C 
HETATM    7 CL11 UNL     1     -32.057   9.006   1.153  1.00 20.00    -0.124 Cl
ENDROOT
BRANCH   2   8
HETATM    8  O10 UNL     1     -32.918   4.887   3.635  1.00 20.00    -0.381 OA
BRANCH   8   9
HETATM    9  C9  UNL     1     -33.881   3.912   3.989  1.00 20.00     0.114 C 
HETATM   10  C7  UNL     1     -33.224   2.853   4.860  1.00 20.00     0.039 C 
HETATM   11  C8  UNL     1     -35.042   4.590   4.700  1.00 20.00     0.039 C 
ENDBRANCH   8   9
ENDBRANCH   2   8
TORSDOF 2
ENDMDL
MODEL 6
REMARK VINA RESULT:       2.6      1.588      2.426
REMARK  2 active torsions:
REMARK  status: ('A' for Active; 'I' for Inactive)
REMARK    1  A    between atoms: C2_2  and  O10_10 
REMARK    2  A    between atoms: C9_9  and  O10_10 
ROOT
HETATM    1  C1  UNL     1     -31.277   7.330   1.331  1.00 20.00     0.053 C 
HETATM    2  C2  UNL     1     -32.515   7.890   2.067  1.00 20.00     0.132 C 
HETATM    3  C3  UNL     1     -31.697   5.923   1.810  1.00 20.00     0.095 C 
HETATM    4  C4  UNL     1     -33.162   6.469   1.928  1.00 20.00    -0.005 C 
HETATM    5  C5  UNL     1     -33.884   6.003   3.191  1.00 20.00     0.019 C 
HETATM    6  C6  UNL     1     -34.050   6.286   0.694  1.00 20.00     0.019 C 
HETATM    7 CL11 UNL     1     -31.321   4.518   0.763  1.00 20.00    -0.124 Cl
ENDROOT
BRANCH   2   8
HETATM    8  O10 UNL     1     -33.195   8.981   1.421  1.00 20.00    -0.381 OA
BRANCH   8   9
HETATM    9  C9  UNL     1     -32.300   9.729   0.619  1.00 20.00     0.114 C 
HETATM   10  C7  UNL     1     -32.628   9.495  -0.848  1.00 20.00     0.039 C 
HETATM   11  C8  UNL     1     -32.400  11.199   0.994  1.00 20.00     0.039 C 
ENDBRANCH   8   9
ENDBRANCH   2   8
TORSDOF 2
ENDMDL
MODEL 7
REMARK VINA RESULT:       3.0      1.947      3.128
REMARK  2 active torsions:
REMARK  status: ('A' for Active; 'I' for Inactive)
REMARK    1  A    between atoms: C2_2  and  O10_10 
REMARK    2  A    between atoms: C9_9  and  O10_10 
ROOT
HETATM    1  C1  UNL     1     -33.968   4.524   3.402  1.00 20.00     0.053 C 
HETATM    2  C2  UNL     1     -33.430   5.883   2.898  1.00 20.00     0.132 C 
HETATM    3  C3  UNL     1     -34.475   5.255   4.665  1.00 20.00     0.095 C 
HETATM    4  C4  UNL     1     -34.497   6.573   3.817  1.00 20.00    -0.005 C 
HETATM    5  C5  UNL     1     -33.957   7.789   4.568  1.00 20.00     0.019 C 
HETATM    6  C6  UNL     1     -35.821   6.906   3.123  1.00 20.00     0.019 C 
HETATM    7 CL11 UNL     1     -35.963   4.649   5.461  1.00 20.00    -0.124 Cl
ENDROOT
BRANCH   2   8
HETATM    8  O10 UNL     1     -33.536   6.120   1.483  1.00 20.00    -0.381 OA
BRANCH   8   9
HETATM    9  C9  UNL     1     -32.273   6.430   0.927  1.00 20.00     0.114 C 
HETATM   10  C7  UNL     1     -31.708   7.659   1.624  1.00 20.00     0.039 C 
HETATM   11  C8  UNL     1     -31.354   5.227   1.069  1.00 20.00     0.039 C 
ENDBRANCH   8   9
ENDBRANCH   2   8
TORSDOF 2
ENDMDL
MODEL 8
REMARK VINA RESULT:       3.3      2.614      3.729
REMARK  2 active torsions:
REMARK  status: ('A' for Active; 'I' for Inactive)
REMARK    1  A    between atoms: C2_2  and  O10_10 
REMARK    2  A    between atoms: C9_9  and  O10_10 
ROOT
HETATM    1  C1  UNL     1     -32.617   7.301   2.914  1.00 20.00     0.053 C 
HETATM    2  C2  UNL     1     -33.635   6.371   2.216  1.00 20.00     0.132 C 
HETATM    3  C3  UNL     1     -33.766   7.786   3.824  1.00 20.00     0.095 C 
HETATM    4  C4  UNL     1     -34.489   6.426   3.529  1.00 20.00    -0.005 C 
HETATM    5  C5  UNL     1     -35.988   6.577   3.274  1.00 20.00     0.019 C 
HETATM    6  C6  UNL     1     -34.217   5.290   4.519  1.00 20.00     0.019 C 
HETATM    7 CL11 UNL     1     -33.376   8.274   5.504  1.00 20.00    -0.124 Cl
ENDROOT
BRANCH   2   8
HETATM    8  O10 UNL     1     -33.140   5.081   1.813  1.00 20.00    -0.381 OA
BRANCH   8   9
HETATM    9  C9  UNL     1     -32.747   5.093   0.454  1.00 20.00     0.114 C 
HETATM   10  C7  UNL     1     -31.395   4.409   0.319  1.00 20.00     0.039 C 
HETATM   11  C8  UNL     1     -33.815   4.406  -0.382  1.00 20.00     0.039 C 
ENDBRANCH   8   9
ENDBRANCH   2   8
TORSDOF 2
ENDMDL
MODEL 9
REMARK VINA RESULT:       3.4      2.662      4.615
REMARK  2 active torsions:
REMARK  status: ('A' for Active; 'I' for Inactive)
REMARK    1  A    between atoms: C2_2  and  O10_10 
REMARK    2  A    between atoms: C9_9  and  O10_10 
ROOT
HETATM    1  C1  UNL     1     -33.705   7.430   0.962  1.00 20.00     0.053 C 
HETATM    2  C2  UNL     1     -33.390   6.997   2.412  1.00 20.00     0.132 C 
HETATM    3  C3  UNL     1     -32.867   8.702   1.218  1.00 20.00     0.095 C 
HETATM    4  C4  UNL     1     -32.114   7.904   2.338  1.00 20.00    -0.005 C 
HETATM    5  C5  UNL     1     -31.873   8.719   3.608  1.00 20.00     0.019 C 
HETATM    6  C6  UNL     1     -30.836   7.179   1.906  1.00 20.00     0.019 C 
HETATM    7 CL11 UNL     1     -31.970   9.424  -0.157  1.00 20.00    -0.124 Cl
ENDROOT
BRANCH   2   8
HETATM    8  O10 UNL     1     -33.179   5.589   2.619  1.00 20.00    -0.381 OA
BRANCH   8   9
HETATM    9  C9  UNL     1     -34.255   5.018   3.339  1.00 20.00     0.114 C 
HETATM   10  C7  UNL     1     -33.720   3.931   4.260  1.00 20.00     0.039 C 
HETATM   11  C8  UNL     1     -34.976   6.110   4.112  1.00 20.00     0.039 C 
ENDBRANCH   8   9
ENDBRANCH   2   8
TORSDOF 2
ENDMDL
