MODEL 1
REMARK VINA RESULT:      -2.5      0.000      0.000
REMARK  3 active torsions:
REMARK  status: ('A' for Active; 'I' for Inactive)
REMARK    1  A    between atoms: C2_2  and  O10_10 
REMARK    2  A    between atoms: C7_7  and  C8_8 
REMARK    3  A    between atoms: C8_8  and  O10_10 
ROOT
HETATM    1  C3  UNL     1     -32.276   8.301   3.194  1.00 20.00     0.005 C 
HETATM    2  C4  UNL     1     -32.087   7.903   1.734  1.00 20.00     0.026 C 
HETATM    3  C5  UNL     1     -33.601   7.765   3.728  1.00 20.00     0.034 C 
HETATM    4  C6  UNL     1     -32.301   6.407   1.552  1.00 20.00     0.168 C 
HETATM    5  C7  UNL     1     -33.730   6.267   3.444  1.00 20.00     0.145 C 
HETATM    6  O9  UNL     1     -33.583   6.015   2.041  1.00 20.00    -0.384 OA
ENDROOT
BRANCH   5   7
HETATM    7  C8  UNL     1     -35.095   5.744   3.870  1.00 20.00     0.206 C 
BRANCH   7   8
HETATM    8  O10 UNL     1     -34.918   4.507   4.540  1.00 20.00    -0.361 OA
BRANCH   8   9
HETATM    9  C2  UNL     1     -33.873   3.792   4.139  1.00 20.00     0.124 C 
HETATM   10  C1  UNL     1     -33.203   2.923   4.901  1.00 20.00     0.037 C 
ENDBRANCH   8   9
ENDBRANCH   7   8
ENDBRANCH   5   7
TORSDOF 3
ENDMDL
MODEL 2
REMARK VINA RESULT:      -2.2      1.949      4.974
REMARK  3 active torsions:
REMARK  status: ('A' for Active; 'I' for Inactive)
REMARK    1  A    between atoms: C2_2  and  O10_10 
REMARK    2  A    between atoms: C7_7  and  C8_8 
REMARK    3  A    between atoms: C8_8  and  O10_10 
ROOT
HETATM    1  C3  UNL     1     -34.185   5.140   3.462  1.00 20.00     0.005 C 
HETATM    2  C4  UNL     1     -35.104   6.235   3.992  1.00 20.00     0.026 C 
HETATM    3  C5  UNL     1     -33.336   5.666   2.308  1.00 20.00     0.034 C 
HETATM    4  C6  UNL     1     -34.314   7.502   4.293  1.00 20.00     0.168 C 
HETATM    5  C7  UNL     1     -32.632   6.965   2.705  1.00 20.00     0.145 C 
HETATM    6  O9  UNL     1     -33.592   7.934   3.140  1.00 20.00    -0.384 OA
ENDROOT
BRANCH   5   7
HETATM    7  C8  UNL     1     -31.872   7.559   1.527  1.00 20.00     0.206 C 
BRANCH   7   8
HETATM    8  O10 UNL     1     -32.193   8.936   1.429  1.00 20.00    -0.361 OA
BRANCH   8   9
HETATM    9  C2  UNL     1     -32.271   9.412   0.192  1.00 20.00     0.124 C 
HETATM   10  C1  UNL     1     -32.759  10.611  -0.137  1.00 20.00     0.037 C 
ENDBRANCH   8   9
ENDBRANCH   7   8
ENDBRANCH   5   7
TORSDOF 3
ENDMDL
MODEL 3
REMARK VINA RESULT:      -1.8      1.455      4.554
REMARK  3 active torsions:
REMARK  status: ('A' for Active; 'I' for Inactive)
REMARK    1  A    between atoms: C2_2  and  O10_10 
REMARK    2  A    between atoms: C7_7  and  C8_8 
REMARK    3  A    between atoms: C8_8  and  O10_10 
ROOT
HETATM    1  C3  UNL     1     -35.356   6.477   4.082  1.00 20.00     0.005 C 
HETATM    2  C4  UNL     1     -34.951   5.149   4.714  1.00 20.00     0.026 C 
HETATM    3  C5  UNL     1     -34.160   7.128   3.392  1.00 20.00     0.034 C 
HETATM    4  C6  UNL     1     -34.229   4.270   3.702  1.00 20.00     0.168 C 
HETATM    5  C7  UNL     1     -33.483   6.139   2.441  1.00 20.00     0.145 C 
HETATM    6  O9  UNL     1     -33.104   4.953   3.149  1.00 20.00    -0.384 OA
ENDROOT
BRANCH   5   7
HETATM    7  C8  UNL     1     -32.224   6.740   1.832  1.00 20.00     0.206 C 
BRANCH   7   8
HETATM    8  O10 UNL     1     -32.342   8.152   1.846  1.00 20.00    -0.361 OA
BRANCH   8   9
HETATM    9  C2  UNL     1     -31.950   8.764   0.735  1.00 20.00     0.124 C 
HETATM   10  C1  UNL     1     -32.373   9.965   0.332  1.00 20.00     0.037 C 
ENDBRANCH   8   9
ENDBRANCH   7   8
ENDBRANCH   5   7
TORSDOF 3
ENDMDL
MODEL 4
REMARK VINA RESULT:      -1.6      0.993      1.649
REMARK  3 active torsions:
REMARK  status: ('A' for Active; 'I' for Inactive)
REMARK    1  A    between atoms: C2_2  and  O10_10 
REMARK    2  A    between atoms: C7_7  and  C8_8 
REMARK    3  A    between atoms: C8_8  and  O10_10 
ROOT
HETATM    1  C3  UNL     1     -32.404   6.427   1.161  1.00 20.00     0.005 C 
HETATM    2  C4  UNL     1     -31.699   7.600   1.834  1.00 20.00     0.026 C 
HETATM    3  C5  UNL     1     -33.191   5.616   2.186  1.00 20.00     0.034 C 
HETATM    4  C6  UNL     1     -32.677   8.401   2.682  1.00 20.00     0.168 C 
HETATM    5  C7  UNL     1     -34.099   6.528   3.014  1.00 20.00     0.145 C 
HETATM    6  O9  UNL     1     -33.326   7.561   3.636  1.00 20.00    -0.384 OA
ENDROOT
BRANCH   5   7
HETATM    7  C8  UNL     1     -34.804   5.747   4.115  1.00 20.00     0.206 C 
BRANCH   7   8
HETATM    8  O10 UNL     1     -34.544   4.366   3.928  1.00 20.00    -0.361 OA
BRANCH   8   9
HETATM    9  C2  UNL     1     -33.845   3.786   4.898  1.00 20.00     0.124 C 
HETATM   10  C1  UNL     1     -33.042   2.731   4.737  1.00 20.00     0.037 C 
ENDBRANCH   8   9
ENDBRANCH   7   8
ENDBRANCH   5   7
TORSDOF 3
ENDMDL
MODEL 5
REMARK VINA RESULT:      -0.9      1.894      4.787
REMARK  3 active torsions:
REMARK  status: ('A' for Active; 'I' for Inactive)
REMARK    1  A    between atoms: C2_2  and  O10_10 
REMARK    2  A    between atoms: C7_7  and  C8_8 
REMARK    3  A    between atoms: C8_8  and  O10_10 
ROOT
HETATM    1  C3  UNL     1     -35.063   6.192   3.831  1.00 20.00     0.005 C 
HETATM    2  C4  UNL     1     -34.461   4.853   3.419  1.00 20.00     0.026 C 
HETATM    3  C5  UNL     1     -34.015   7.298   3.751  1.00 20.00     0.034 C 
HETATM    4  C6  UNL     1     -33.747   4.974   2.080  1.00 20.00     0.168 C 
HETATM    5  C7  UNL     1     -33.328   7.291   2.384  1.00 20.00     0.145 C 
HETATM    6  O9  UNL     1     -32.760   6.003   2.123  1.00 20.00    -0.384 OA
ENDROOT
BRANCH   5   7
HETATM    7  C8  UNL     1     -32.203   8.316   2.331  1.00 20.00     0.206 C 
BRANCH   7   8
HETATM    8  O10 UNL     1     -31.968   8.661   0.977  1.00 20.00    -0.361 OA
BRANCH   8   9
HETATM    9  C2  UNL     1     -32.204   9.931   0.668  1.00 20.00     0.124 C 
HETATM   10  C1  UNL     1     -32.993  10.342  -0.328  1.00 20.00     0.037 C 
ENDBRANCH   8   9
ENDBRANCH   7   8
ENDBRANCH   5   7
TORSDOF 3
ENDMDL
MODEL 6
REMARK VINA RESULT:      -0.4      1.417      2.027
REMARK  3 active torsions:
REMARK  status: ('A' for Active; 'I' for Inactive)
REMARK    1  A    between atoms: C2_2  and  O10_10 
REMARK    2  A    between atoms: C7_7  and  C8_8 
REMARK    3  A    between atoms: C8_8  and  O10_10 
ROOT
HETATM    1  C3  UNL     1     -32.232   6.185   0.986  1.00 20.00     0.005 C 
HETATM    2  C4  UNL     1     -31.334   7.413   1.090  1.00 20.00     0.026 C 
HETATM    3  C5  UNL     1     -32.951   5.935   2.309  1.00 20.00     0.034 C 
HETATM    4  C6  UNL     1     -32.109   8.602   1.642  1.00 20.00     0.168 C 
HETATM    5  C7  UNL     1     -33.649   7.207   2.792  1.00 20.00     0.145 C 
HETATM    6  O9  UNL     1     -32.705   8.279   2.898  1.00 20.00    -0.384 OA
ENDROOT
BRANCH   5   7
HETATM    7  C8  UNL     1     -34.275   7.001   4.165  1.00 20.00     0.206 C 
BRANCH   7   8
HETATM    8  O10 UNL     1     -35.399   6.150   4.028  1.00 20.00    -0.361 OA
BRANCH   8   9
HETATM    9  C2  UNL     1     -35.292   4.969   4.626  1.00 20.00     0.124 C 
HETATM   10  C1  UNL     1     -34.276   4.118   4.462  1.00 20.00     0.037 C 
ENDBRANCH   8   9
ENDBRANCH   7   8
ENDBRANCH   5   7
TORSDOF 3
ENDMDL
MODEL 7
REMARK VINA RESULT:      -0.2      1.033      1.772
REMARK  3 active torsions:
REMARK  status: ('A' for Active; 'I' for Inactive)
REMARK    1  A    between atoms: C2_2  and  O10_10 
REMARK    2  A    between atoms: C7_7  and  C8_8 
REMARK    3  A    between atoms: C8_8  and  O10_10 
ROOT
HETATM    1  C3  UNL     1     -32.049   7.586   1.453  1.00 20.00     0.005 C 
HETATM    2  C4  UNL     1     -32.219   8.395   2.735  1.00 20.00     0.026 C 
HETATM    3  C5  UNL     1     -32.267   6.100   1.725  1.00 20.00     0.034 C 
HETATM    4  C6  UNL     1     -33.534   8.048   3.419  1.00 20.00     0.168 C 
HETATM    5  C7  UNL     1     -33.590   5.876   2.460  1.00 20.00     0.145 C 
HETATM    6  O9  UNL     1     -33.621   6.645   3.668  1.00 20.00    -0.384 OA
ENDROOT
BRANCH   5   7
HETATM    7  C8  UNL     1     -33.766   4.411   2.837  1.00 20.00     0.206 C 
BRANCH   7   8
HETATM    8  O10 UNL     1     -34.402   4.342   4.102  1.00 20.00    -0.361 OA
BRANCH   8   9
HETATM    9  C2  UNL     1     -33.824   3.531   4.981  1.00 20.00     0.124 C 
HETATM   10  C1  UNL     1     -32.799   2.718   4.714  1.00 20.00     0.037 C 
ENDBRANCH   8   9
ENDBRANCH   7   8
ENDBRANCH   5   7
TORSDOF 3
ENDMDL
MODEL 8
REMARK VINA RESULT:       0.3      1.877      3.002
REMARK  3 active torsions:
REMARK  status: ('A' for Active; 'I' for Inactive)
REMARK    1  A    between atoms: C2_2  and  O10_10 
REMARK    2  A    between atoms: C7_7  and  C8_8 
REMARK    3  A    between atoms: C8_8  and  O10_10 
ROOT
HETATM    1  C3  UNL     1     -32.666  10.518   0.685  1.00 20.00     0.005 C 
HETATM    2  C4  UNL     1     -32.172   9.617  -0.441  1.00 20.00     0.026 C 
HETATM    3  C5  UNL     1     -33.253   9.683   1.820  1.00 20.00     0.034 C 
HETATM    4  C6  UNL     1     -31.257   8.528   0.103  1.00 20.00     0.168 C 
HETATM    5  C7  UNL     1     -32.270   8.591   2.249  1.00 20.00     0.145 C 
HETATM    6  O9  UNL     1     -31.912   7.779   1.125  1.00 20.00    -0.384 OA
ENDROOT
BRANCH   5   7
HETATM    7  C8  UNL     1     -32.888   7.682   3.303  1.00 20.00     0.206 C 
BRANCH   7   8
HETATM    8  O10 UNL     1     -33.416   6.535   2.658  1.00 20.00    -0.361 OA
BRANCH   8   9
HETATM    9  C2  UNL     1     -34.254   5.810   3.390  1.00 20.00     0.124 C 
HETATM   10  C1  UNL     1     -35.327   6.288   4.024  1.00 20.00     0.037 C 
ENDBRANCH   8   9
ENDBRANCH   7   8
ENDBRANCH   5   7
TORSDOF 3
ENDMDL
