MODEL 1
REMARK VINA RESULT:      -3.0      0.000      0.000
REMARK  3 active torsions:
REMARK  status: ('A' for Active; 'I' for Inactive)
REMARK    1  A    between atoms: C2_2  and  O6_6 
REMARK    2  A    between atoms: C4_4  and  C5_5 
REMARK    3  A    between atoms: C4_4  and  O6_6 
ROOT
HETATM    1  C3  UNL     1     -32.758   5.742   1.499  1.00 20.00     0.049 C 
HETATM    2  C4  UNL     1     -33.115   7.090   2.049  1.00 20.00     0.231 C 
ENDROOT
BRANCH   2   3
HETATM    3  C5  UNL     1     -32.009   8.102   1.846  1.00 20.00     0.413 C 
HETATM    4  F7  UNL     1     -32.469   9.193   1.193  1.00 20.00    -0.168 F 
HETATM    5  F8  UNL     1     -31.509   8.521   3.030  1.00 20.00    -0.168 F 
HETATM    6  F9  UNL     1     -30.989   7.591   1.123  1.00 20.00    -0.168 F 
ENDBRANCH   2   3
BRANCH   2   7
HETATM    7  O6  UNL     1     -33.366   6.982   3.449  1.00 20.00    -0.350 OA
BRANCH   7   8
HETATM    8  C2  UNL     1     -34.646   7.005   3.790  1.00 20.00     0.125 C 
HETATM    9  C1  UNL     1     -35.353   5.943   4.182  1.00 20.00     0.037 C 
ENDBRANCH   7   8
ENDBRANCH   2   7
TORSDOF 3
ENDMDL
MODEL 2
REMARK VINA RESULT:      -3.0      0.015      1.256
REMARK  3 active torsions:
REMARK  status: ('A' for Active; 'I' for Inactive)
REMARK    1  A    between atoms: C2_2  and  O6_6 
REMARK    2  A    between atoms: C4_4  and  C5_5 
REMARK    3  A    between atoms: C4_4  and  O6_6 
ROOT
HETATM    1  C3  UNL     1     -32.747   5.741   1.518  1.00 20.00     0.049 C 
HETATM    2  C4  UNL     1     -33.116   7.090   2.058  1.00 20.00     0.231 C 
ENDROOT
BRANCH   2   3
HETATM    3  C5  UNL     1     -32.014   8.108   1.852  1.00 20.00     0.413 C 
HETATM    4  F7  UNL     1     -31.517   8.524   3.039  1.00 20.00    -0.168 F 
HETATM    5  F8  UNL     1     -30.988   7.580   1.148  1.00 20.00    -0.168 F 
HETATM    6  F9  UNL     1     -32.456   9.197   1.188  1.00 20.00    -0.168 F 
ENDBRANCH   2   3
BRANCH   2   7
HETATM    7  O6  UNL     1     -33.371   6.991   3.457  1.00 20.00    -0.350 OA
BRANCH   7   8
HETATM    8  C2  UNL     1     -34.653   7.003   3.792  1.00 20.00     0.125 C 
HETATM    9  C1  UNL     1     -35.352   5.934   4.181  1.00 20.00     0.037 C 
ENDBRANCH   7   8
ENDBRANCH   2   7
TORSDOF 3
ENDMDL
MODEL 3
REMARK VINA RESULT:      -2.8      2.839      3.868
REMARK  3 active torsions:
REMARK  status: ('A' for Active; 'I' for Inactive)
REMARK    1  A    between atoms: C2_2  and  O6_6 
REMARK    2  A    between atoms: C4_4  and  C5_5 
REMARK    3  A    between atoms: C4_4  and  O6_6 
ROOT
HETATM    1  C3  UNL     1     -33.845   4.210   3.705  1.00 20.00     0.049 C 
HETATM    2  C4  UNL     1     -33.700   5.685   3.480  1.00 20.00     0.231 C 
ENDROOT
BRANCH   2   3
HETATM    3  C5  UNL     1     -34.917   6.456   3.945  1.00 20.00     0.413 C 
HETATM    4  F7  UNL     1     -35.636   5.730   4.831  1.00 20.00    -0.168 F 
HETATM    5  F8  UNL     1     -34.559   7.604   4.561  1.00 20.00    -0.168 F 
HETATM    6  F9  UNL     1     -35.732   6.773   2.917  1.00 20.00    -0.168 F 
ENDBRANCH   2   3
BRANCH   2   7
HETATM    7  O6  UNL     1     -33.519   5.940   2.089  1.00 20.00    -0.350 OA
BRANCH   7   8
HETATM    8  C2  UNL     1     -32.361   6.499   1.770  1.00 20.00     0.125 C 
HETATM    9  C1  UNL     1     -32.112   7.810   1.794  1.00 20.00     0.037 C 
ENDBRANCH   7   8
ENDBRANCH   2   7
TORSDOF 3
ENDMDL
MODEL 4
REMARK VINA RESULT:      -2.8      2.838      3.921
REMARK  3 active torsions:
REMARK  status: ('A' for Active; 'I' for Inactive)
REMARK    1  A    between atoms: C2_2  and  O6_6 
REMARK    2  A    between atoms: C4_4  and  C5_5 
REMARK    3  A    between atoms: C4_4  and  O6_6 
ROOT
HETATM    1  C3  UNL     1     -33.840   4.206   3.701  1.00 20.00     0.049 C 
HETATM    2  C4  UNL     1     -33.697   5.682   3.483  1.00 20.00     0.231 C 
ENDROOT
BRANCH   2   3
HETATM    3  C5  UNL     1     -34.914   6.449   3.952  1.00 20.00     0.413 C 
HETATM    4  F7  UNL     1     -34.552   7.605   4.554  1.00 20.00    -0.168 F 
HETATM    5  F8  UNL     1     -35.718   6.771   2.914  1.00 20.00    -0.168 F 
HETATM    6  F9  UNL     1     -35.645   5.738   4.837  1.00 20.00    -0.168 F 
ENDBRANCH   2   3
BRANCH   2   7
HETATM    7  O6  UNL     1     -33.518   5.944   2.093  1.00 20.00    -0.350 OA
BRANCH   7   8
HETATM    8  C2  UNL     1     -32.360   6.504   1.775  1.00 20.00     0.125 C 
HETATM    9  C1  UNL     1     -32.115   7.816   1.791  1.00 20.00     0.037 C 
ENDBRANCH   7   8
ENDBRANCH   2   7
TORSDOF 3
ENDMDL
MODEL 5
REMARK VINA RESULT:      -2.8      2.189      3.637
REMARK  3 active torsions:
REMARK  status: ('A' for Active; 'I' for Inactive)
REMARK    1  A    between atoms: C2_2  and  O6_6 
REMARK    2  A    between atoms: C4_4  and  C5_5 
REMARK    3  A    between atoms: C4_4  and  O6_6 
ROOT
HETATM    1  C3  UNL     1     -33.515   7.448   3.530  1.00 20.00     0.049 C 
HETATM    2  C4  UNL     1     -33.121   7.349   2.087  1.00 20.00     0.231 C 
ENDROOT
BRANCH   2   3
HETATM    3  C5  UNL     1     -32.847   5.921   1.666  1.00 20.00     0.413 C 
HETATM    4  F7  UNL     1     -33.249   5.053   2.622  1.00 20.00    -0.168 F 
HETATM    5  F8  UNL     1     -33.515   5.611   0.533  1.00 20.00    -0.168 F 
HETATM    6  F9  UNL     1     -31.532   5.707   1.445  1.00 20.00    -0.168 F 
ENDBRANCH   2   3
BRANCH   2   7
HETATM    7  O6  UNL     1     -31.937   8.111   1.863  1.00 20.00    -0.350 OA
BRANCH   7   8
HETATM    8  C2  UNL     1     -31.910   8.777   0.718  1.00 20.00     0.125 C 
HETATM    9  C1  UNL     1     -32.533   9.936   0.492  1.00 20.00     0.037 C 
ENDBRANCH   7   8
ENDBRANCH   2   7
TORSDOF 3
ENDMDL
MODEL 6
REMARK VINA RESULT:      -2.7      2.637      3.785
REMARK  3 active torsions:
REMARK  status: ('A' for Active; 'I' for Inactive)
REMARK    1  A    between atoms: C2_2  and  O6_6 
REMARK    2  A    between atoms: C4_4  and  C5_5 
REMARK    3  A    between atoms: C4_4  and  O6_6 
ROOT
HETATM    1  C3  UNL     1     -33.310   5.691   1.760  1.00 20.00     0.049 C 
HETATM    2  C4  UNL     1     -33.271   6.482   3.032  1.00 20.00     0.231 C 
ENDROOT
BRANCH   2   3
HETATM    3  C5  UNL     1     -34.605   6.479   3.747  1.00 20.00     0.413 C 
HETATM    4  F7  UNL     1     -34.853   5.268   4.297  1.00 20.00    -0.168 F 
HETATM    5  F8  UNL     1     -34.624   7.387   4.748  1.00 20.00    -0.168 F 
HETATM    6  F9  UNL     1     -35.624   6.765   2.909  1.00 20.00    -0.168 F 
ENDBRANCH   2   3
BRANCH   2   7
HETATM    7  O6  UNL     1     -32.928   7.835   2.742  1.00 20.00    -0.350 OA
BRANCH   7   8
HETATM    8  C2  UNL     1     -32.090   7.994   1.728  1.00 20.00     0.125 C 
HETATM    9  C1  UNL     1     -32.092   9.031   0.888  1.00 20.00     0.037 C 
ENDBRANCH   7   8
ENDBRANCH   2   7
TORSDOF 3
ENDMDL
MODEL 7
REMARK VINA RESULT:      -2.7      2.320      2.732
REMARK  3 active torsions:
REMARK  status: ('A' for Active; 'I' for Inactive)
REMARK    1  A    between atoms: C2_2  and  O6_6 
REMARK    2  A    between atoms: C4_4  and  C5_5 
REMARK    3  A    between atoms: C4_4  and  O6_6 
ROOT
HETATM    1  C3  UNL     1     -34.567   6.760   3.579  1.00 20.00     0.049 C 
HETATM    2  C4  UNL     1     -33.408   5.879   3.223  1.00 20.00     0.231 C 
ENDROOT
BRANCH   2   3
HETATM    3  C5  UNL     1     -32.824   6.222   1.870  1.00 20.00     0.413 C 
HETATM    4  F7  UNL     1     -33.749   6.072   0.895  1.00 20.00    -0.168 F 
HETATM    5  F8  UNL     1     -32.403   7.505   1.831  1.00 20.00    -0.168 F 
HETATM    6  F9  UNL     1     -31.773   5.431   1.563  1.00 20.00    -0.168 F 
ENDBRANCH   2   3
BRANCH   2   7
HETATM    7  O6  UNL     1     -33.835   4.519   3.190  1.00 20.00    -0.350 OA
BRANCH   7   8
HETATM    8  C2  UNL     1     -33.902   3.926   4.373  1.00 20.00     0.125 C 
HETATM    9  C1  UNL     1     -33.158   2.884   4.749  1.00 20.00     0.037 C 
ENDBRANCH   7   8
ENDBRANCH   2   7
TORSDOF 3
ENDMDL
MODEL 8
REMARK VINA RESULT:      -2.7      2.321      2.833
REMARK  3 active torsions:
REMARK  status: ('A' for Active; 'I' for Inactive)
REMARK    1  A    between atoms: C2_2  and  O6_6 
REMARK    2  A    between atoms: C4_4  and  C5_5 
REMARK    3  A    between atoms: C4_4  and  O6_6 
ROOT
HETATM    1  C3  UNL     1     -34.564   6.739   3.534  1.00 20.00     0.049 C 
HETATM    2  C4  UNL     1     -33.400   5.867   3.173  1.00 20.00     0.231 C 
ENDROOT
BRANCH   2   3
HETATM    3  C5  UNL     1     -32.841   6.198   1.806  1.00 20.00     0.413 C 
HETATM    4  F7  UNL     1     -32.416   7.481   1.758  1.00 20.00    -0.168 F 
HETATM    5  F8  UNL     1     -31.782   5.411   1.509  1.00 20.00    -0.168 F 
HETATM    6  F9  UNL     1     -33.764   6.035   0.834  1.00 20.00    -0.168 F 
ENDBRANCH   2   3
BRANCH   2   7
HETATM    7  O6  UNL     1     -33.811   4.501   3.164  1.00 20.00    -0.350 OA
BRANCH   7   8
HETATM    8  C2  UNL     1     -33.897   3.937   4.360  1.00 20.00     0.125 C 
HETATM    9  C1  UNL     1     -33.165   2.899   4.771  1.00 20.00     0.037 C 
ENDBRANCH   7   8
ENDBRANCH   2   7
TORSDOF 3
ENDMDL
MODEL 9
REMARK VINA RESULT:      -2.6      1.918      2.494
REMARK  3 active torsions:
REMARK  status: ('A' for Active; 'I' for Inactive)
REMARK    1  A    between atoms: C2_2  and  O6_6 
REMARK    2  A    between atoms: C4_4  and  C5_5 
REMARK    3  A    between atoms: C4_4  and  O6_6 
ROOT
HETATM    1  C3  UNL     1     -31.791   8.142   1.534  1.00 20.00     0.049 C 
HETATM    2  C4  UNL     1     -32.482   7.118   2.383  1.00 20.00     0.231 C 
ENDROOT
BRANCH   2   3
HETATM    3  C5  UNL     1     -32.664   5.803   1.658  1.00 20.00     0.413 C 
HETATM    4  F7  UNL     1     -31.493   5.380   1.129  1.00 20.00    -0.168 F 
HETATM    5  F8  UNL     1     -33.098   4.838   2.500  1.00 20.00    -0.168 F 
HETATM    6  F9  UNL     1     -33.556   5.905   0.650  1.00 20.00    -0.168 F 
ENDBRANCH   2   3
BRANCH   2   7
HETATM    7  O6  UNL     1     -33.771   7.600   2.757  1.00 20.00    -0.350 OA
BRANCH   7   8
HETATM    8  C2  UNL     1     -34.204   7.181   3.937  1.00 20.00     0.125 C 
HETATM    9  C1  UNL     1     -35.259   6.386   4.126  1.00 20.00     0.037 C 
ENDBRANCH   7   8
ENDBRANCH   2   7
TORSDOF 3
ENDMDL
