MODEL 1
REMARK VINA RESULT:      -2.3      0.000      0.000
REMARK  2 active torsions:
REMARK  status: ('A' for Active; 'I' for Inactive)
REMARK    1  A    between atoms: C5_5  and  C9_9 
REMARK    2  A    between atoms: C6_6  and  C10_10 
ROOT
HETATM    1  C1  UNL     1     -32.134   6.541   1.261  1.00 20.00     0.005 C 
HETATM    2  C2  UNL     1     -33.012   8.089   3.052  1.00 20.00     0.005 C 
HETATM    3  C3  UNL     1     -33.039   5.425   1.780  1.00 20.00     0.006 C 
HETATM    4  C4  UNL     1     -33.917   6.973   3.572  1.00 20.00     0.006 C 
HETATM    5  C5  UNL     1     -32.717   7.929   1.555  1.00 20.00    -0.015 C 
HETATM    6  C6  UNL     1     -33.333   5.586   3.277  1.00 20.00     0.003 C 
ENDROOT
BRANCH   6   7
HETATM    7  C10 UNL     1     -34.278   4.489   3.762  1.00 20.00     0.082 C 
HETATM    8  C8  UNL     1     -35.379   5.053   4.644  1.00 20.00     0.027 C 
HETATM    9 CL11 UNL     1     -33.349   3.263   4.667  1.00 20.00    -0.125 Cl
ENDBRANCH   6   7
BRANCH   5  10
HETATM   10  C9  UNL     1     -31.770   9.025   1.072  1.00 20.00     0.000 C 
HETATM   11  C7  UNL     1     -32.441   9.947   0.106  1.00 20.00     0.005 C 
ENDBRANCH   5  10
TORSDOF 2
ENDMDL
MODEL 2
REMARK VINA RESULT:      -1.3      1.212      2.003
REMARK  2 active torsions:
REMARK  status: ('A' for Active; 'I' for Inactive)
REMARK    1  A    between atoms: C5_5  and  C9_9 
REMARK    2  A    between atoms: C6_6  and  C10_10 
ROOT
HETATM    1  C1  UNL     1     -32.949   8.460   2.484  1.00 20.00     0.005 C 
HETATM    2  C2  UNL     1     -32.304   6.491   1.041  1.00 20.00     0.005 C 
HETATM    3  C3  UNL     1     -33.331   7.506   3.615  1.00 20.00     0.006 C 
HETATM    4  C4  UNL     1     -32.686   5.537   2.171  1.00 20.00     0.006 C 
HETATM    5  C5  UNL     1     -31.867   7.860   1.577  1.00 20.00    -0.015 C 
HETATM    6  C6  UNL     1     -33.768   6.138   3.077  1.00 20.00     0.003 C 
ENDROOT
BRANCH   6   7
HETATM    7  C10 UNL     1     -34.097   5.187   4.227  1.00 20.00     0.082 C 
HETATM    8  C8  UNL     1     -33.723   3.754   3.887  1.00 20.00     0.027 C 
HETATM    9 CL11 UNL     1     -35.840   5.285   4.596  1.00 20.00    -0.125 Cl
ENDBRANCH   6   7
BRANCH   5  10
HETATM   10  C9  UNL     1     -31.540   8.811   0.427  1.00 20.00     0.000 C 
HETATM   11  C7  UNL     1     -32.543   9.912   0.320  1.00 20.00     0.005 C 
ENDBRANCH   5  10
TORSDOF 2
ENDMDL
MODEL 3
REMARK VINA RESULT:      -1.3      2.320      4.911
REMARK  2 active torsions:
REMARK  status: ('A' for Active; 'I' for Inactive)
REMARK    1  A    between atoms: C5_5  and  C9_9 
REMARK    2  A    between atoms: C6_6  and  C10_10 
ROOT
HETATM    1  C1  UNL     1     -33.093   5.449   1.908  1.00 20.00     0.005 C 
HETATM    2  C2  UNL     1     -34.052   6.996   3.659  1.00 20.00     0.005 C 
HETATM    3  C3  UNL     1     -32.224   6.588   1.377  1.00 20.00     0.006 C 
HETATM    4  C4  UNL     1     -33.182   8.134   3.129  1.00 20.00     0.006 C 
HETATM    5  C5  UNL     1     -33.413   5.626   3.398  1.00 20.00    -0.015 C 
HETATM    6  C6  UNL     1     -32.863   7.957   1.639  1.00 20.00     0.003 C 
ENDROOT
BRANCH   6   7
HETATM    7  C10 UNL     1     -31.954   9.080   1.145  1.00 20.00     0.082 C 
HETATM    8  C8  UNL     1     -32.758  10.259   0.625  1.00 20.00     0.027 C 
HETATM    9 CL11 UNL     1     -30.892   8.457  -0.148  1.00 20.00    -0.125 Cl
ENDBRANCH   6   7
BRANCH   5  10
HETATM   10  C9  UNL     1     -34.325   4.503   3.890  1.00 20.00     0.000 C 
HETATM   11  C7  UNL     1     -33.543   3.386   4.500  1.00 20.00     0.005 C 
ENDBRANCH   5  10
TORSDOF 2
ENDMDL
MODEL 4
REMARK VINA RESULT:      -1.2      2.325      5.006
REMARK  2 active torsions:
REMARK  status: ('A' for Active; 'I' for Inactive)
REMARK    1  A    between atoms: C5_5  and  C9_9 
REMARK    2  A    between atoms: C6_6  and  C10_10 
ROOT
HETATM    1  C1  UNL     1     -33.819   7.426   3.983  1.00 20.00     0.005 C 
HETATM    2  C2  UNL     1     -33.130   5.624   2.354  1.00 20.00     0.005 C 
HETATM    3  C3  UNL     1     -33.290   8.493   3.027  1.00 20.00     0.006 C 
HETATM    4  C4  UNL     1     -32.601   6.691   1.397  1.00 20.00     0.006 C 
HETATM    5  C5  UNL     1     -34.265   6.163   3.234  1.00 20.00    -0.015 C 
HETATM    6  C6  UNL     1     -32.156   7.953   2.147  1.00 20.00     0.003 C 
ENDROOT
BRANCH   6   7
HETATM    7  C10 UNL     1     -31.678   9.022   1.166  1.00 20.00     0.082 C 
HETATM    8  C8  UNL     1     -32.819   9.925   0.729  1.00 20.00     0.027 C 
HETATM    9 CL11 UNL     1     -30.951   8.235  -0.261  1.00 20.00    -0.125 Cl
ENDBRANCH   6   7
BRANCH   5  10
HETATM   10  C9  UNL     1     -34.740   5.094   4.216  1.00 20.00     0.000 C 
HETATM   11  C7  UNL     1     -33.851   3.894   4.197  1.00 20.00     0.005 C 
ENDBRANCH   5  10
TORSDOF 2
ENDMDL
MODEL 5
REMARK VINA RESULT:      -0.9      0.528      1.607
REMARK  2 active torsions:
REMARK  status: ('A' for Active; 'I' for Inactive)
REMARK    1  A    between atoms: C5_5  and  C9_9 
REMARK    2  A    between atoms: C6_6  and  C10_10 
ROOT
HETATM    1  C1  UNL     1     -33.137   8.215   2.664  1.00 20.00     0.005 C 
HETATM    2  C2  UNL     1     -32.215   6.471   1.087  1.00 20.00     0.005 C 
HETATM    3  C3  UNL     1     -33.702   7.110   3.556  1.00 20.00     0.006 C 
HETATM    4  C4  UNL     1     -32.779   5.366   1.979  1.00 20.00     0.006 C 
HETATM    5  C5  UNL     1     -31.901   7.742   1.888  1.00 20.00    -0.015 C 
HETATM    6  C6  UNL     1     -34.015   5.840   2.754  1.00 20.00     0.003 C 
ENDROOT
BRANCH   6   7
HETATM    7  C10 UNL     1     -34.531   4.736   3.674  1.00 20.00     0.082 C 
HETATM    8  C8  UNL     1     -35.350   5.305   4.821  1.00 20.00     0.027 C 
HETATM    9 CL11 UNL     1     -33.149   3.810   4.321  1.00 20.00    -0.125 Cl
ENDBRANCH   6   7
BRANCH   5  10
HETATM   10  C9  UNL     1     -31.388   8.846   0.967  1.00 20.00     0.000 C 
HETATM   11  C7  UNL     1     -32.505   9.681   0.431  1.00 20.00     0.005 C 
ENDBRANCH   5  10
TORSDOF 2
ENDMDL
MODEL 6
REMARK VINA RESULT:      -0.0      2.188      4.861
REMARK  2 active torsions:
REMARK  status: ('A' for Active; 'I' for Inactive)
REMARK    1  A    between atoms: C5_5  and  C9_9 
REMARK    2  A    between atoms: C6_6  and  C10_10 
ROOT
HETATM    1  C1  UNL     1     -32.852   4.975   2.195  1.00 20.00     0.005 C 
HETATM    2  C2  UNL     1     -34.347   6.253   3.779  1.00 20.00     0.005 C 
HETATM    3  C3  UNL     1     -32.171   6.279   1.784  1.00 20.00     0.006 C 
HETATM    4  C4  UNL     1     -33.667   7.557   3.368  1.00 20.00     0.006 C 
HETATM    5  C5  UNL     1     -33.408   5.050   3.623  1.00 20.00    -0.015 C 
HETATM    6  C6  UNL     1     -33.111   7.481   1.940  1.00 20.00     0.003 C 
ENDROOT
BRANCH   6   7
HETATM    7  C10 UNL     1     -32.393   8.778   1.571  1.00 20.00     0.082 C 
HETATM    8  C8  UNL     1     -31.948   8.773   0.119  1.00 20.00     0.027 C 
HETATM    9 CL11 UNL     1     -30.977   8.995   2.635  1.00 20.00    -0.125 Cl
ENDBRANCH   6   7
BRANCH   5  10
HETATM   10  C9  UNL     1     -34.127   3.753   3.990  1.00 20.00     0.000 C 
HETATM   11  C7  UNL     1     -33.218   2.797   4.690  1.00 20.00     0.005 C 
ENDBRANCH   5  10
TORSDOF 2
ENDMDL
