MODEL 1
REMARK VINA RESULT:      -0.5      0.000      0.000
REMARK  2 active torsions:
REMARK  status: ('A' for Active; 'I' for Inactive)
REMARK    1  A    between atoms: C4_4  and  C9_9 
REMARK    2  A    between atoms: C5_5  and  C8_8 
ROOT
HETATM    1  C1  UNL     1     -34.579   7.086   3.280  1.00 20.00     0.032 C 
HETATM    2  C2  UNL     1     -33.692   4.790   2.778  1.00 20.00     0.038 C 
HETATM    3  C3  UNL     1     -35.635   6.259   4.008  1.00 20.00     0.168 C 
HETATM    4  C4  UNL     1     -33.324   6.266   2.945  1.00 20.00     0.008 C 
HETATM    5  C5  UNL     1     -34.379   4.241   4.041  1.00 20.00     0.121 C 
HETATM    6  O10 UNL     1     -35.013   5.268   4.816  1.00 20.00    -0.386 OA
ENDROOT
BRANCH   4   7
HETATM    7  C9  UNL     1     -32.620   6.814   1.708  1.00 20.00     0.082 C 
HETATM    8  C7  UNL     1     -31.734   7.997   2.056  1.00 20.00     0.027 C 
HETATM    9 CL11 UNL     1     -31.640   5.521   0.968  1.00 20.00    -0.125 Cl
ENDBRANCH   4   7
BRANCH   5  10
HETATM   10  C8  UNL     1     -33.386   3.540   4.960  1.00 20.00     0.027 C 
HETATM   11  C6  UNL     1     -33.118   2.136   4.523  1.00 20.00     0.007 C 
ENDBRANCH   5  10
TORSDOF 2
ENDMDL
MODEL 2
REMARK VINA RESULT:      -0.4      2.825      3.811
REMARK  2 active torsions:
REMARK  status: ('A' for Active; 'I' for Inactive)
REMARK    1  A    between atoms: C4_4  and  C9_9 
REMARK    2  A    between atoms: C5_5  and  C8_8 
ROOT
HETATM    1  C1  UNL     1     -32.154   6.954   0.701  1.00 20.00     0.032 C 
HETATM    2  C2  UNL     1     -32.451   8.294   2.805  1.00 20.00     0.038 C 
HETATM    3  C3  UNL     1     -32.191   5.808   1.708  1.00 20.00     0.168 C 
HETATM    4  C4  UNL     1     -32.683   8.269   1.292  1.00 20.00     0.008 C 
HETATM    5  C5  UNL     1     -33.112   7.085   3.490  1.00 20.00     0.121 C 
HETATM    6  O10 UNL     1     -33.286   5.973   2.601  1.00 20.00    -0.386 OA
ENDROOT
BRANCH   4   7
HETATM    7  C9  UNL     1     -32.053   9.477   0.606  1.00 20.00     0.082 C 
HETATM    8  C7  UNL     1     -32.284   9.442  -0.894  1.00 20.00     0.027 C 
HETATM    9 CL11 UNL     1     -32.746  10.970   1.291  1.00 20.00    -0.125 Cl
ENDBRANCH   4   7
BRANCH   5  10
HETATM   10  C8  UNL     1     -34.490   7.435   4.037  1.00 20.00     0.027 C 
HETATM   11  C6  UNL     1     -35.416   6.260   4.006  1.00 20.00     0.007 C 
ENDBRANCH   5  10
TORSDOF 2
ENDMDL
MODEL 3
REMARK VINA RESULT:      -0.0      1.146      1.269
REMARK  2 active torsions:
REMARK  status: ('A' for Active; 'I' for Inactive)
REMARK    1  A    between atoms: C4_4  and  C9_9 
REMARK    2  A    between atoms: C5_5  and  C8_8 
ROOT
HETATM    1  C1  UNL     1     -34.314   7.384   3.308  1.00 20.00     0.032 C 
HETATM    2  C2  UNL     1     -33.454   5.071   2.837  1.00 20.00     0.038 C 
HETATM    3  C3  UNL     1     -35.526   6.581   3.774  1.00 20.00     0.168 C 
HETATM    4  C4  UNL     1     -33.058   6.513   3.163  1.00 20.00     0.008 C 
HETATM    5  C5  UNL     1     -34.393   4.496   3.912  1.00 20.00     0.121 C 
HETATM    6  O10 UNL     1     -35.114   5.514   4.619  1.00 20.00    -0.386 OA
ENDROOT
BRANCH   4   7
HETATM    7  C9  UNL     1     -32.107   7.085   2.115  1.00 20.00     0.082 C 
HETATM    8  C7  UNL     1     -31.985   6.160   0.917  1.00 20.00     0.027 C 
HETATM    9 CL11 UNL     1     -32.703   8.681   1.588  1.00 20.00    -0.125 Cl
ENDBRANCH   4   7
BRANCH   5  10
HETATM   10  C8  UNL     1     -33.625   3.691   4.955  1.00 20.00     0.027 C 
HETATM   11  C6  UNL     1     -33.195   2.361   4.424  1.00 20.00     0.007 C 
ENDBRANCH   5  10
TORSDOF 2
ENDMDL
MODEL 4
REMARK VINA RESULT:       0.1      2.659      4.910
REMARK  2 active torsions:
REMARK  status: ('A' for Active; 'I' for Inactive)
REMARK    1  A    between atoms: C4_4  and  C9_9 
REMARK    2  A    between atoms: C5_5  and  C8_8 
ROOT
HETATM    1  C1  UNL     1     -33.302   7.701   4.081  1.00 20.00     0.032 C 
HETATM    2  C2  UNL     1     -32.465   6.726   1.923  1.00 20.00     0.038 C 
HETATM    3  C3  UNL     1     -32.072   8.584   3.883  1.00 20.00     0.168 C 
HETATM    4  C4  UNL     1     -33.699   6.957   2.797  1.00 20.00     0.008 C 
HETATM    5  C5  UNL     1     -31.765   8.054   1.586  1.00 20.00     0.121 C 
HETATM    6  O10 UNL     1     -32.032   9.080   2.551  1.00 20.00    -0.386 OA
ENDROOT
BRANCH   4   7
HETATM    7  C9  UNL     1     -34.416   5.648   3.117  1.00 20.00     0.082 C 
HETATM    8  C7  UNL     1     -33.440   4.586   3.590  1.00 20.00     0.027 C 
HETATM    9 CL11 UNL     1     -35.647   5.943   4.373  1.00 20.00    -0.125 Cl
ENDBRANCH   4   7
BRANCH   5  10
HETATM   10  C8  UNL     1     -32.206   8.593   0.230  1.00 20.00     0.027 C 
HETATM   11  C6  UNL     1     -32.478  10.063   0.278  1.00 20.00     0.007 C 
ENDBRANCH   5  10
TORSDOF 2
ENDMDL
MODEL 5
REMARK VINA RESULT:       0.2      2.506      4.395
REMARK  2 active torsions:
REMARK  status: ('A' for Active; 'I' for Inactive)
REMARK    1  A    between atoms: C4_4  and  C9_9 
REMARK    2  A    between atoms: C5_5  and  C8_8 
ROOT
HETATM    1  C1  UNL     1     -32.727   5.044   1.828  1.00 20.00     0.032 C 
HETATM    2  C2  UNL     1     -33.962   6.709   3.247  1.00 20.00     0.038 C 
HETATM    3  C3  UNL     1     -32.417   6.309   1.033  1.00 20.00     0.168 C 
HETATM    4  C4  UNL     1     -33.250   5.354   3.238  1.00 20.00     0.008 C 
HETATM    5  C5  UNL     1     -33.031   7.830   2.754  1.00 20.00     0.121 C 
HETATM    6  O10 UNL     1     -31.982   7.344   1.905  1.00 20.00    -0.386 OA
ENDROOT
BRANCH   4   7
HETATM    7  C9  UNL     1     -34.157   4.239   3.749  1.00 20.00     0.082 C 
HETATM    8  C7  UNL     1     -33.386   3.249   4.605  1.00 20.00     0.027 C 
HETATM    9 CL11 UNL     1     -35.488   4.951   4.699  1.00 20.00    -0.125 Cl
ENDBRANCH   4   7
BRANCH   5  10
HETATM   10  C8  UNL     1     -32.361   8.555   3.915  1.00 20.00     0.027 C 
HETATM   11  C6  UNL     1     -33.099   8.348   5.200  1.00 20.00     0.007 C 
ENDBRANCH   5  10
TORSDOF 2
ENDMDL
MODEL 6
REMARK VINA RESULT:       0.6      1.453      2.015
REMARK  2 active torsions:
REMARK  status: ('A' for Active; 'I' for Inactive)
REMARK    1  A    between atoms: C4_4  and  C9_9 
REMARK    2  A    between atoms: C5_5  and  C8_8 
ROOT
HETATM    1  C1  UNL     1     -32.892   8.104   3.470  1.00 20.00     0.032 C 
HETATM    2  C2  UNL     1     -34.143   6.106   2.604  1.00 20.00     0.038 C 
HETATM    3  C3  UNL     1     -34.220   8.325   4.190  1.00 20.00     0.168 C 
HETATM    4  C4  UNL     1     -32.758   6.679   2.916  1.00 20.00     0.008 C 
HETATM    5  C5  UNL     1     -35.046   6.122   3.850  1.00 20.00     0.121 C 
HETATM    6  O10 UNL     1     -34.653   7.118   4.804  1.00 20.00    -0.386 OA
ENDROOT
BRANCH   4   7
HETATM    7  C9  UNL     1     -31.847   6.644   1.693  1.00 20.00     0.082 C 
HETATM    8  C7  UNL     1     -32.246   5.532   0.739  1.00 20.00     0.027 C 
HETATM    9 CL11 UNL     1     -31.924   8.217   0.856  1.00 20.00    -0.125 Cl
ENDBRANCH   4   7
BRANCH   5  10
HETATM   10  C8  UNL     1     -35.027   4.781   4.574  1.00 20.00     0.027 C 
HETATM   11  C6  UNL     1     -33.890   3.922   4.124  1.00 20.00     0.007 C 
ENDBRANCH   5  10
TORSDOF 2
ENDMDL
MODEL 7
REMARK VINA RESULT:       0.9      2.753      4.869
REMARK  2 active torsions:
REMARK  status: ('A' for Active; 'I' for Inactive)
REMARK    1  A    between atoms: C4_4  and  C9_9 
REMARK    2  A    between atoms: C5_5  and  C8_8 
ROOT
HETATM    1  C1  UNL     1     -33.520   7.053   3.237  1.00 20.00     0.032 C 
HETATM    2  C2  UNL     1     -31.816   7.124   1.394  1.00 20.00     0.038 C 
HETATM    3  C3  UNL     1     -32.865   8.390   3.572  1.00 20.00     0.168 C 
HETATM    4  C4  UNL     1     -33.179   6.574   1.818  1.00 20.00     0.008 C 
HETATM    5  C5  UNL     1     -31.787   8.660   1.470  1.00 20.00     0.121 C 
HETATM    6  O10 UNL     1     -32.745   9.186   2.399  1.00 20.00    -0.386 OA
ENDROOT
BRANCH   4   7
HETATM    7  C9  UNL     1     -33.227   5.052   1.722  1.00 20.00     0.082 C 
HETATM    8  C7  UNL     1     -31.947   4.497   1.123  1.00 20.00     0.027 C 
HETATM    9 CL11 UNL     1     -33.480   4.367   3.349  1.00 20.00    -0.125 Cl
ENDBRANCH   4   7
BRANCH   5  10
HETATM   10  C8  UNL     1     -32.086   9.296   0.117  1.00 20.00     0.027 C 
HETATM   11  C6  UNL     1     -32.743  10.631   0.263  1.00 20.00     0.007 C 
ENDBRANCH   5  10
TORSDOF 2
ENDMDL
MODEL 8
REMARK VINA RESULT:       1.1      2.831      4.114
REMARK  2 active torsions:
REMARK  status: ('A' for Active; 'I' for Inactive)
REMARK    1  A    between atoms: C4_4  and  C9_9 
REMARK    2  A    between atoms: C5_5  and  C8_8 
ROOT
HETATM    1  C1  UNL     1     -32.862   8.113   2.548  1.00 20.00     0.032 C 
HETATM    2  C2  UNL     1     -33.045   5.613   2.711  1.00 20.00     0.038 C 
HETATM    3  C3  UNL     1     -31.553   7.733   1.860  1.00 20.00     0.168 C 
HETATM    4  C4  UNL     1     -33.830   6.925   2.656  1.00 20.00     0.008 C 
HETATM    5  C5  UNL     1     -32.131   5.458   1.483  1.00 20.00     0.121 C 
HETATM    6  O10 UNL     1     -31.783   6.717   0.892  1.00 20.00    -0.386 OA
ENDROOT
BRANCH   4   7
HETATM    7  C9  UNL     1     -34.759   7.077   3.857  1.00 20.00     0.082 C 
HETATM    8  C7  UNL     1     -35.246   5.726   4.351  1.00 20.00     0.027 C 
HETATM    9 CL11 UNL     1     -33.894   7.925   5.166  1.00 20.00    -0.125 Cl
ENDBRANCH   4   7
BRANCH   5  10
HETATM   10  C8  UNL     1     -32.792   4.624   0.393  1.00 20.00     0.027 C 
HETATM   11  C6  UNL     1     -34.030   5.277  -0.133  1.00 20.00     0.007 C 
ENDBRANCH   5  10
TORSDOF 2
ENDMDL
MODEL 9
REMARK VINA RESULT:       1.2      2.677      4.889
REMARK  2 active torsions:
REMARK  status: ('A' for Active; 'I' for Inactive)
REMARK    1  A    between atoms: C4_4  and  C9_9 
REMARK    2  A    between atoms: C5_5  and  C8_8 
ROOT
HETATM    1  C1  UNL     1     -32.702   5.106   2.590  1.00 20.00     0.032 C 
HETATM    2  C2  UNL     1     -33.808   7.295   2.049  1.00 20.00     0.038 C 
HETATM    3  C3  UNL     1     -32.106   5.336   1.204  1.00 20.00     0.168 C 
HETATM    4  C4  UNL     1     -33.325   6.381   3.177  1.00 20.00     0.008 C 
HETATM    5  C5  UNL     1     -32.661   7.645   1.085  1.00 20.00     0.121 C 
HETATM    6  O10 UNL     1     -31.613   6.666   1.095  1.00 20.00    -0.386 OA
ENDROOT
BRANCH   4   7
HETATM    7  C9  UNL     1     -34.450   6.048   4.152  1.00 20.00     0.082 C 
HETATM    8  C7  UNL     1     -35.795   6.513   3.622  1.00 20.00     0.027 C 
HETATM    9 CL11 UNL     1     -34.485   4.287   4.431  1.00 20.00    -0.125 Cl
ENDBRANCH   4   7
BRANCH   5  10
HETATM   10  C8  UNL     1     -32.021   8.983   1.437  1.00 20.00     0.027 C 
HETATM   11  C6  UNL     1     -32.365  10.043   0.440  1.00 20.00     0.007 C 
ENDBRANCH   5  10
TORSDOF 2
ENDMDL
