MODEL 1
REMARK VINA RESULT:      -1.3      0.000      0.000
REMARK  2 active torsions:
REMARK  status: ('A' for Active; 'I' for Inactive)
REMARK    1  A    between atoms: C4_4  and  C8_8 
REMARK    2  A    between atoms: C5_5  and  C9_9 
ROOT
HETATM    1  C1  UNL     1     -31.991   6.964   0.820  1.00 20.00     0.005 C 
HETATM    2  C2  UNL     1     -32.574   5.646   1.340  1.00 20.00     0.006 C 
HETATM    3  C3  UNL     1     -33.226   7.407   2.840  1.00 20.00     0.010 C 
HETATM    4  C4  UNL     1     -32.093   7.960   1.980  1.00 20.00    -0.014 C 
HETATM    5  C5  UNL     1     -32.963   5.903   2.797  1.00 20.00    -0.000 C 
ENDROOT
BRANCH   5   6
HETATM    6  C9  UNL     1     -34.152   5.076   3.256  1.00 20.00     0.058 C 
HETATM    7  C7  UNL     1     -33.747   3.966   4.209  1.00 20.00     0.022 C 
HETATM    8 BR10 UNL     1     -35.429   6.249   4.163  1.00 20.00    -0.091 Br
ENDBRANCH   5   6
BRANCH   4   9
HETATM    9  C8  UNL     1     -32.331   9.390   1.524  1.00 20.00     0.000 C 
HETATM   10  C6  UNL     1     -32.349   9.506   0.033  1.00 20.00     0.005 C 
ENDBRANCH   4   9
TORSDOF 2
ENDMDL
MODEL 2
REMARK VINA RESULT:      -0.9      1.319      1.589
REMARK  2 active torsions:
REMARK  status: ('A' for Active; 'I' for Inactive)
REMARK    1  A    between atoms: C4_4  and  C8_8 
REMARK    2  A    between atoms: C5_5  and  C9_9 
ROOT
HETATM    1  C1  UNL     1     -32.095   6.510   1.058  1.00 20.00     0.005 C 
HETATM    2  C2  UNL     1     -32.888   5.758   2.132  1.00 20.00     0.006 C 
HETATM    3  C3  UNL     1     -33.130   8.116   2.525  1.00 20.00     0.010 C 
HETATM    4  C4  UNL     1     -31.955   7.948   1.565  1.00 20.00    -0.014 C 
HETATM    5  C5  UNL     1     -33.154   6.771   3.247  1.00 20.00    -0.000 C 
ENDROOT
BRANCH   5   6
HETATM    6  C9  UNL     1     -34.453   6.517   3.993  1.00 20.00     0.058 C 
HETATM    7  C7  UNL     1     -35.670   6.940   3.189  1.00 20.00     0.022 C 
HETATM    8 BR10 UNL     1     -34.593   4.606   4.391  1.00 20.00    -0.091 Br
ENDBRANCH   5   6
BRANCH   4   9
HETATM    9  C8  UNL     1     -31.943   8.979   0.448  1.00 20.00     0.000 C 
HETATM   10  C6  UNL     1     -32.719  10.206   0.812  1.00 20.00     0.005 C 
ENDBRANCH   4   9
TORSDOF 2
ENDMDL
MODEL 3
REMARK VINA RESULT:      -0.5      2.125      4.430
REMARK  2 active torsions:
REMARK  status: ('A' for Active; 'I' for Inactive)
REMARK    1  A    between atoms: C4_4  and  C8_8 
REMARK    2  A    between atoms: C5_5  and  C9_9 
ROOT
HETATM    1  C1  UNL     1     -33.111   5.033   2.220  1.00 20.00     0.005 C 
HETATM    2  C2  UNL     1     -32.455   6.238   1.539  1.00 20.00     0.006 C 
HETATM    3  C3  UNL     1     -33.786   7.036   3.375  1.00 20.00     0.010 C 
HETATM    4  C4  UNL     1     -34.226   5.599   3.104  1.00 20.00    -0.014 C 
HETATM    5  C5  UNL     1     -33.231   7.467   2.019  1.00 20.00    -0.000 C 
ENDROOT
BRANCH   5   6
HETATM    6  C9  UNL     1     -32.380   8.723   2.094  1.00 20.00     0.058 C 
HETATM    7  C7  UNL     1     -30.934   8.419   2.437  1.00 20.00     0.022 C 
HETATM    8 BR10 UNL     1     -32.439   9.633   0.363  1.00 20.00    -0.091 Br
ENDBRANCH   5   6
BRANCH   4   9
HETATM    9  C8  UNL     1     -34.452   4.794   4.373  1.00 20.00     0.000 C 
HETATM   10  C6  UNL     1     -33.669   3.520   4.374  1.00 20.00     0.005 C 
ENDBRANCH   4   9
TORSDOF 2
ENDMDL
MODEL 4
REMARK VINA RESULT:      -0.0      1.671      4.415
REMARK  2 active torsions:
REMARK  status: ('A' for Active; 'I' for Inactive)
REMARK    1  A    between atoms: C4_4  and  C8_8 
REMARK    2  A    between atoms: C5_5  and  C9_9 
ROOT
HETATM    1  C1  UNL     1     -33.070   4.675   2.121  1.00 20.00     0.005 C 
HETATM    2  C2  UNL     1     -32.267   5.721   1.343  1.00 20.00     0.006 C 
HETATM    3  C3  UNL     1     -33.493   6.844   3.078  1.00 20.00     0.010 C 
HETATM    4  C4  UNL     1     -34.108   5.454   2.934  1.00 20.00    -0.014 C 
HETATM    5  C5  UNL     1     -32.885   7.076   1.697  1.00 20.00    -0.000 C 
ENDROOT
BRANCH   5   6
HETATM    6  C9  UNL     1     -31.885   8.219   1.670  1.00 20.00     0.058 C 
HETATM    7  C7  UNL     1     -32.319   9.341   0.744  1.00 20.00     0.022 C 
HETATM    8 BR10 UNL     1     -31.689   8.935   3.480  1.00 20.00    -0.091 Br
ENDBRANCH   5   6
BRANCH   4   9
HETATM    9  C8  UNL     1     -34.438   4.804   4.267  1.00 20.00     0.000 C 
HETATM   10  C6  UNL     1     -33.702   3.515   4.458  1.00 20.00     0.005 C 
ENDBRANCH   4   9
TORSDOF 2
ENDMDL
MODEL 5
REMARK VINA RESULT:      -0.0      1.360      1.869
REMARK  2 active torsions:
REMARK  status: ('A' for Active; 'I' for Inactive)
REMARK    1  A    between atoms: C4_4  and  C8_8 
REMARK    2  A    between atoms: C5_5  and  C9_9 
ROOT
HETATM    1  C1  UNL     1     -32.535   6.680   0.771  1.00 20.00     0.005 C 
HETATM    2  C2  UNL     1     -33.097   6.082   2.065  1.00 20.00     0.006 C 
HETATM    3  C3  UNL     1     -32.538   8.383   2.475  1.00 20.00     0.010 C 
HETATM    4  C4  UNL     1     -31.846   7.987   1.173  1.00 20.00    -0.014 C 
HETATM    5  C5  UNL     1     -32.686   7.040   3.186  1.00 20.00    -0.000 C 
ENDROOT
BRANCH   5   6
HETATM    6  C9  UNL     1     -33.677   7.080   4.336  1.00 20.00     0.058 C 
HETATM    7  C7  UNL     1     -33.972   8.497   4.794  1.00 20.00     0.022 C 
HETATM    8 BR10 UNL     1     -35.350   6.242   3.761  1.00 20.00    -0.091 Br
ENDBRANCH   5   6
BRANCH   4   9
HETATM    9  C8  UNL     1     -31.928   9.062   0.101  1.00 20.00     0.000 C 
HETATM   10  C6  UNL     1     -32.674  10.269   0.576  1.00 20.00     0.005 C 
ENDBRANCH   4   9
TORSDOF 2
ENDMDL
MODEL 6
REMARK VINA RESULT:       0.1      1.918      4.877
REMARK  2 active torsions:
REMARK  status: ('A' for Active; 'I' for Inactive)
REMARK    1  A    between atoms: C4_4  and  C8_8 
REMARK    2  A    between atoms: C5_5  and  C9_9 
ROOT
HETATM    1  C1  UNL     1     -35.317   5.697   4.245  1.00 20.00     0.005 C 
HETATM    2  C2  UNL     1     -34.932   6.858   3.321  1.00 20.00     0.006 C 
HETATM    3  C3  UNL     1     -33.139   5.257   3.314  1.00 20.00     0.010 C 
HETATM    4  C4  UNL     1     -34.024   4.921   4.512  1.00 20.00    -0.014 C 
HETATM    5  C5  UNL     1     -33.421   6.744   3.108  1.00 20.00    -0.000 C 
ENDROOT
BRANCH   5   6
HETATM    6  C9  UNL     1     -32.965   7.256   1.753  1.00 20.00     0.058 C 
HETATM    7  C7  UNL     1     -31.850   8.279   1.869  1.00 20.00     0.022 C 
HETATM    8 BR10 UNL     1     -32.325   5.745   0.686  1.00 20.00    -0.091 Br
ENDBRANCH   5   6
BRANCH   4   9
HETATM    9  C8  UNL     1     -34.246   3.428   4.691  1.00 20.00     0.000 C 
HETATM   10  C6  UNL     1     -32.956   2.685   4.837  1.00 20.00     0.005 C 
ENDBRANCH   4   9
TORSDOF 2
ENDMDL
MODEL 7
REMARK VINA RESULT:       0.5      1.705      3.069
REMARK  2 active torsions:
REMARK  status: ('A' for Active; 'I' for Inactive)
REMARK    1  A    between atoms: C4_4  and  C8_8 
REMARK    2  A    between atoms: C5_5  and  C9_9 
ROOT
HETATM    1  C1  UNL     1     -31.582   7.147   1.461  1.00 20.00     0.005 C 
HETATM    2  C2  UNL     1     -32.593   7.962   2.274  1.00 20.00     0.006 C 
HETATM    3  C3  UNL     1     -33.246   5.651   2.353  1.00 20.00     0.010 C 
HETATM    4  C4  UNL     1     -32.236   5.784   1.216  1.00 20.00    -0.014 C 
HETATM    5  C5  UNL     1     -33.819   7.063   2.445  1.00 20.00    -0.000 C 
ENDROOT
BRANCH   5   6
HETATM    6  C9  UNL     1     -34.575   7.317   3.739  1.00 20.00     0.058 C 
HETATM    7  C7  UNL     1     -35.194   6.051   4.302  1.00 20.00     0.022 C 
HETATM    8 BR10 UNL     1     -33.336   8.055   5.062  1.00 20.00    -0.091 Br
ENDBRANCH   5   6
BRANCH   4   9
HETATM    9  C8  UNL     1     -31.237   4.639   1.167  1.00 20.00     0.000 C 
HETATM   10  C6  UNL     1     -31.259   3.934  -0.152  1.00 20.00     0.005 C 
ENDBRANCH   4   9
TORSDOF 2
ENDMDL
MODEL 8
REMARK VINA RESULT:       0.7      2.302      4.594
REMARK  2 active torsions:
REMARK  status: ('A' for Active; 'I' for Inactive)
REMARK    1  A    between atoms: C4_4  and  C8_8 
REMARK    2  A    between atoms: C5_5  and  C9_9 
ROOT
HETATM    1  C1  UNL     1     -33.179   7.993   4.430  1.00 20.00     0.005 C 
HETATM    2  C2  UNL     1     -32.090   8.741   3.655  1.00 20.00     0.006 C 
HETATM    3  C3  UNL     1     -33.306   7.360   2.109  1.00 20.00     0.010 C 
HETATM    4  C4  UNL     1     -33.655   6.864   3.511  1.00 20.00    -0.014 C 
HETATM    5  C5  UNL     1     -31.938   8.003   2.322  1.00 20.00    -0.000 C 
ENDROOT
BRANCH   5   6
HETATM    6  C9  UNL     1     -31.519   8.909   1.178  1.00 20.00     0.058 C 
HETATM    7  C7  UNL     1     -31.323   8.145  -0.119  1.00 20.00     0.022 C 
HETATM    8 BR10 UNL     1     -32.901  10.268   0.906  1.00 20.00    -0.091 Br
ENDBRANCH   5   6
BRANCH   4   9
HETATM    9  C8  UNL     1     -35.129   6.534   3.679  1.00 20.00     0.000 C 
HETATM   10  C6  UNL     1     -35.333   5.266   4.446  1.00 20.00     0.005 C 
ENDBRANCH   4   9
TORSDOF 2
ENDMDL
MODEL 9
REMARK VINA RESULT:       0.7      2.024      4.552
REMARK  2 active torsions:
REMARK  status: ('A' for Active; 'I' for Inactive)
REMARK    1  A    between atoms: C4_4  and  C8_8 
REMARK    2  A    between atoms: C5_5  and  C9_9 
ROOT
HETATM    1  C1  UNL     1     -34.969   7.083   3.813  1.00 20.00     0.005 C 
HETATM    2  C2  UNL     1     -34.116   8.077   3.018  1.00 20.00     0.006 C 
HETATM    3  C3  UNL     1     -32.937   5.985   3.129  1.00 20.00     0.010 C 
HETATM    4  C4  UNL     1     -34.036   5.927   4.187  1.00 20.00    -0.014 C 
HETATM    5  C5  UNL     1     -32.704   7.487   2.984  1.00 20.00    -0.000 C 
ENDROOT
BRANCH   5   6
HETATM    6  C9  UNL     1     -31.930   7.853   1.729  1.00 20.00     0.058 C 
HETATM    7  C7  UNL     1     -31.975   6.753   0.684  1.00 20.00     0.022 C 
HETATM    8 BR10 UNL     1     -32.697   9.482   0.963  1.00 20.00    -0.091 Br
ENDBRANCH   5   6
BRANCH   4   9
HETATM    9  C8  UNL     1     -34.741   4.582   4.244  1.00 20.00     0.000 C 
HETATM   10  C6  UNL     1     -33.776   3.452   4.420  1.00 20.00     0.005 C 
ENDBRANCH   4   9
TORSDOF 2
ENDMDL
