MODEL 1
REMARK VINA RESULT:      -1.6      0.000      0.000
REMARK  2 active torsions:
REMARK  status: ('A' for Active; 'I' for Inactive)
REMARK    1  A    between atoms: C3_3  and  C6_6 
REMARK    2  A    between atoms: C6_6  and  C7_7 
ROOT
HETATM    1  C4  UNL     1     -32.743   5.004   1.228  1.00 20.00     0.011 C 
HETATM    2  C6  UNL     1     -33.142   6.298   1.898  1.00 20.00    -0.001 C 
ENDROOT
BRANCH   2   3
HETATM    3  C3  UNL     1     -31.977   7.295   1.835  1.00 20.00    -0.010 A 
HETATM    4  C1  UNL     1     -32.161   8.634   1.175  1.00 20.00     0.005 A 
HETATM    5  C2  UNL     1     -32.006   8.546   2.668  1.00 20.00     0.005 A 
ENDBRANCH   2   3
BRANCH   2   6
HETATM    6  C7  UNL     1     -33.633   6.127   3.350  1.00 20.00     0.058 C 
HETATM    7  C5  UNL     1     -34.942   6.821   3.699  1.00 20.00     0.022 C 
HETATM    8 BR8  UNL     1     -33.810   4.216   3.780  1.00 20.00    -0.091 Br
ENDBRANCH   2   6
TORSDOF 2
ENDMDL
MODEL 2
REMARK VINA RESULT:      -1.2      1.345      1.464
REMARK  2 active torsions:
REMARK  status: ('A' for Active; 'I' for Inactive)
REMARK    1  A    between atoms: C3_3  and  C6_6 
REMARK    2  A    between atoms: C6_6  and  C7_7 
ROOT
HETATM    1  C4  UNL     1     -32.677   5.715   1.543  1.00 20.00     0.011 C 
HETATM    2  C6  UNL     1     -33.163   7.018   2.134  1.00 20.00    -0.001 C 
ENDROOT
BRANCH   2   3
HETATM    3  C3  UNL     1     -32.122   8.119   1.889  1.00 20.00    -0.010 A 
HETATM    4  C1  UNL     1     -31.557   8.334   0.512  1.00 20.00     0.005 A 
HETATM    5  C2  UNL     1     -32.492   9.349   1.108  1.00 20.00     0.005 A 
ENDBRANCH   2   3
BRANCH   2   6
HETATM    6  C7  UNL     1     -33.519   6.931   3.632  1.00 20.00     0.058 C 
HETATM    7  C5  UNL     1     -33.505   8.245   4.400  1.00 20.00     0.022 C 
HETATM    8 BR8  UNL     1     -35.287   6.099   3.857  1.00 20.00    -0.091 Br
ENDBRANCH   2   6
TORSDOF 2
ENDMDL
MODEL 3
REMARK VINA RESULT:      -1.0      1.642      2.905
REMARK  2 active torsions:
REMARK  status: ('A' for Active; 'I' for Inactive)
REMARK    1  A    between atoms: C3_3  and  C6_6 
REMARK    2  A    between atoms: C6_6  and  C7_7 
ROOT
HETATM    1  C4  UNL     1     -31.452   8.558   2.860  1.00 20.00     0.011 C 
HETATM    2  C6  UNL     1     -32.076   8.120   1.556  1.00 20.00    -0.001 C 
ENDROOT
BRANCH   2   3
HETATM    3  C3  UNL     1     -32.830   9.297   0.921  1.00 20.00    -0.010 A 
HETATM    4  C1  UNL     1     -32.079  10.511   0.449  1.00 20.00     0.005 A 
HETATM    5  C2  UNL     1     -32.699   9.574  -0.550  1.00 20.00     0.005 A 
ENDBRANCH   2   3
BRANCH   2   6
HETATM    6  C7  UNL     1     -32.997   6.890   1.683  1.00 20.00     0.058 C 
HETATM    7  C5  UNL     1     -32.325   5.533   1.525  1.00 20.00     0.022 C 
HETATM    8 BR8  UNL     1     -33.929   6.923   3.415  1.00 20.00    -0.091 Br
ENDBRANCH   2   6
TORSDOF 2
ENDMDL
MODEL 4
REMARK VINA RESULT:      -0.9      2.411      3.988
REMARK  2 active torsions:
REMARK  status: ('A' for Active; 'I' for Inactive)
REMARK    1  A    between atoms: C3_3  and  C6_6 
REMARK    2  A    between atoms: C6_6  and  C7_7 
ROOT
HETATM    1  C4  UNL     1     -33.125   7.987   4.568  1.00 20.00     0.011 C 
HETATM    2  C6  UNL     1     -33.484   7.704   3.127  1.00 20.00    -0.001 C 
ENDROOT
BRANCH   2   3
HETATM    3  C3  UNL     1     -34.355   6.443   3.048  1.00 20.00    -0.010 A 
HETATM    4  C1  UNL     1     -34.218   5.362   4.083  1.00 20.00     0.005 A 
HETATM    5  C2  UNL     1     -35.453   6.217   4.049  1.00 20.00     0.005 A 
ENDBRANCH   2   3
BRANCH   2   6
HETATM    6  C7  UNL     1     -32.265   7.584   2.191  1.00 20.00     0.058 C 
HETATM    7  C5  UNL     1     -32.151   6.284   1.406  1.00 20.00     0.022 C 
HETATM    8 BR8  UNL     1     -32.243   9.082   0.916  1.00 20.00    -0.091 Br
ENDBRANCH   2   6
TORSDOF 2
ENDMDL
MODEL 5
REMARK VINA RESULT:      -0.9      1.433      1.663
REMARK  2 active torsions:
REMARK  status: ('A' for Active; 'I' for Inactive)
REMARK    1  A    between atoms: C3_3  and  C6_6 
REMARK    2  A    between atoms: C6_6  and  C7_7 
ROOT
HETATM    1  C4  UNL     1     -32.152   5.334   1.471  1.00 20.00     0.011 C 
HETATM    2  C6  UNL     1     -33.105   6.470   1.761  1.00 20.00    -0.001 C 
ENDROOT
BRANCH   2   3
HETATM    3  C3  UNL     1     -32.314   7.761   2.008  1.00 20.00    -0.010 A 
HETATM    4  C1  UNL     1     -31.242   8.189   1.043  1.00 20.00     0.005 A 
HETATM    5  C2  UNL     1     -32.530   8.961   1.129  1.00 20.00     0.005 A 
ENDBRANCH   2   3
BRANCH   2   6
HETATM    6  C7  UNL     1     -34.072   6.193   2.930  1.00 20.00     0.058 C 
HETATM    7  C5  UNL     1     -33.883   4.867   3.653  1.00 20.00     0.022 C 
HETATM    8 BR8  UNL     1     -33.963   7.644   4.254  1.00 20.00    -0.091 Br
ENDBRANCH   2   6
TORSDOF 2
ENDMDL
MODEL 6
REMARK VINA RESULT:      -0.9      2.198      4.047
REMARK  2 active torsions:
REMARK  status: ('A' for Active; 'I' for Inactive)
REMARK    1  A    between atoms: C3_3  and  C6_6 
REMARK    2  A    between atoms: C6_6  and  C7_7 
ROOT
HETATM    1  C4  UNL     1     -33.947   7.996   3.772  1.00 20.00     0.011 C 
HETATM    2  C6  UNL     1     -33.942   6.611   3.166  1.00 20.00    -0.001 C 
ENDROOT
BRANCH   2   3
HETATM    3  C3  UNL     1     -33.989   5.558   4.281  1.00 20.00    -0.010 A 
HETATM    4  C1  UNL     1     -35.258   4.798   4.552  1.00 20.00     0.005 A 
HETATM    5  C2  UNL     1     -34.079   4.097   3.938  1.00 20.00     0.005 A 
ENDBRANCH   2   3
BRANCH   2   6
HETATM    6  C7  UNL     1     -32.754   6.347   2.219  1.00 20.00     0.058 C 
HETATM    7  C5  UNL     1     -33.068   5.555   0.958  1.00 20.00     0.022 C 
HETATM    8 BR8  UNL     1     -31.920   8.049   1.692  1.00 20.00    -0.091 Br
ENDBRANCH   2   6
TORSDOF 2
ENDMDL
MODEL 7
REMARK VINA RESULT:      -0.7      1.199      2.271
REMARK  2 active torsions:
REMARK  status: ('A' for Active; 'I' for Inactive)
REMARK    1  A    between atoms: C3_3  and  C6_6 
REMARK    2  A    between atoms: C6_6  and  C7_7 
ROOT
HETATM    1  C4  UNL     1     -33.377   8.389   4.712  1.00 20.00     0.011 C 
HETATM    2  C6  UNL     1     -33.398   7.100   3.925  1.00 20.00    -0.001 C 
ENDROOT
BRANCH   2   3
HETATM    3  C3  UNL     1     -33.280   7.405   2.426  1.00 20.00    -0.010 A 
HETATM    4  C1  UNL     1     -31.948   7.762   1.827  1.00 20.00     0.005 A 
HETATM    5  C2  UNL     1     -32.585   6.438   1.509  1.00 20.00     0.005 A 
ENDBRANCH   2   3
BRANCH   2   6
HETATM    6  C7  UNL     1     -34.630   6.215   4.205  1.00 20.00     0.058 C 
HETATM    7  C5  UNL     1     -35.846   6.466   3.325  1.00 20.00     0.022 C 
HETATM    8 BR8  UNL     1     -34.142   4.315   4.064  1.00 20.00    -0.091 Br
ENDBRANCH   2   6
TORSDOF 2
ENDMDL
MODEL 8
REMARK VINA RESULT:      -0.7      2.166      3.495
REMARK  2 active torsions:
REMARK  status: ('A' for Active; 'I' for Inactive)
REMARK    1  A    between atoms: C3_3  and  C6_6 
REMARK    2  A    between atoms: C6_6  and  C7_7 
ROOT
HETATM    1  C4  UNL     1     -32.455   5.707   1.206  1.00 20.00     0.011 C 
HETATM    2  C6  UNL     1     -32.864   6.383   2.494  1.00 20.00    -0.001 C 
ENDROOT
BRANCH   2   3
HETATM    3  C3  UNL     1     -34.297   5.975   2.860  1.00 20.00    -0.010 A 
HETATM    4  C1  UNL     1     -34.565   5.196   4.119  1.00 20.00     0.005 A 
HETATM    5  C2  UNL     1     -34.998   6.632   4.017  1.00 20.00     0.005 A 
ENDBRANCH   2   3
BRANCH   2   6
HETATM    6  C7  UNL     1     -32.726   7.918   2.466  1.00 20.00     0.058 C 
HETATM    7  C5  UNL     1     -31.922   8.538   3.600  1.00 20.00     0.022 C 
HETATM    8 BR8  UNL     1     -31.937   8.494   0.758  1.00 20.00    -0.091 Br
ENDBRANCH   2   6
TORSDOF 2
ENDMDL
MODEL 9
REMARK VINA RESULT:      -0.6      2.534      4.356
REMARK  2 active torsions:
REMARK  status: ('A' for Active; 'I' for Inactive)
REMARK    1  A    between atoms: C3_3  and  C6_6 
REMARK    2  A    between atoms: C6_6  and  C7_7 
ROOT
HETATM    1  C4  UNL     1     -35.562   5.406   4.351  1.00 20.00     0.011 C 
HETATM    2  C6  UNL     1     -34.337   4.743   3.765  1.00 20.00    -0.001 C 
ENDROOT
BRANCH   2   3
HETATM    3  C3  UNL     1     -33.720   3.790   4.796  1.00 20.00    -0.010 A 
HETATM    4  C1  UNL     1     -33.387   2.374   4.414  1.00 20.00     0.005 A 
HETATM    5  C2  UNL     1     -32.284   3.364   4.669  1.00 20.00     0.005 A 
ENDBRANCH   2   3
BRANCH   2   6
HETATM    6  C7  UNL     1     -33.279   5.736   3.241  1.00 20.00     0.058 C 
HETATM    7  C5  UNL     1     -33.014   5.701   1.743  1.00 20.00     0.022 C 
HETATM    8 BR8  UNL     1     -33.772   7.573   3.742  1.00 20.00    -0.091 Br
ENDBRANCH   2   6
TORSDOF 2
ENDMDL
