MODEL 1
REMARK VINA RESULT:      -2.2      0.000      0.000
REMARK  3 active torsions:
REMARK  status: ('A' for Active; 'I' for Inactive)
REMARK    1  A    between atoms: C4_4  and  C5_5 
REMARK    2  A    between atoms: C4_4  and  O7_7 
REMARK    3  A    between atoms: C5_5  and  C6_6 
ROOT
HETATM    1  C1  UNL     1     -33.689   7.894   4.491  1.00 20.00     0.014 C 
HETATM    2  C5  UNL     1     -33.795   6.650   3.632  1.00 20.00     0.023 C 
ENDROOT
BRANCH   2   3
HETATM    3  C4  UNL     1     -35.225   6.085   3.681  1.00 20.00     0.172 C 
BRANCH   3   4
HETATM    4  O7  UNL     1     -35.249   4.927   4.512  1.00 20.00    -0.396 OA
HETATM    5  C3  UNL     1     -34.108   4.110   4.296  1.00 20.00     0.201 C 
ENDBRANCH   3   4
ENDBRANCH   2   3
BRANCH   2   6
HETATM    6  C6  UNL     1     -33.326   6.871   2.173  1.00 20.00     0.084 C 
HETATM    7  C2  UNL     1     -32.801   5.603   1.505  1.00 20.00     0.027 C 
HETATM    8 CL8  UNL     1     -32.093   8.163   2.030  1.00 20.00    -0.125 Cl
ENDBRANCH   2   6
TORSDOF 3
ENDMDL
MODEL 2
REMARK VINA RESULT:      -2.2      2.949      4.319
REMARK  3 active torsions:
REMARK  status: ('A' for Active; 'I' for Inactive)
REMARK    1  A    between atoms: C4_4  and  C5_5 
REMARK    2  A    between atoms: C4_4  and  O7_7 
REMARK    3  A    between atoms: C5_5  and  C6_6 
ROOT
HETATM    1  C1  UNL     1     -32.725   5.786   1.095  1.00 20.00     0.014 C 
HETATM    2  C5  UNL     1     -32.758   6.474   2.444  1.00 20.00     0.023 C 
ENDROOT
BRANCH   2   3
HETATM    3  C4  UNL     1     -32.402   7.964   2.295  1.00 20.00     0.172 C 
BRANCH   3   4
HETATM    4  O7  UNL     1     -31.908   8.204   0.980  1.00 20.00    -0.396 OA
HETATM    5  C3  UNL     1     -32.301   9.482   0.504  1.00 20.00     0.201 C 
ENDBRANCH   3   4
ENDBRANCH   2   3
BRANCH   2   6
HETATM    6  C6  UNL     1     -34.099   6.288   3.196  1.00 20.00     0.084 C 
HETATM    7  C2  UNL     1     -34.373   7.376   4.230  1.00 20.00     0.027 C 
HETATM    8 CL8  UNL     1     -34.233   4.684   3.983  1.00 20.00    -0.125 Cl
ENDBRANCH   2   6
TORSDOF 3
ENDMDL
MODEL 3
REMARK VINA RESULT:      -2.2      1.045      1.341
REMARK  3 active torsions:
REMARK  status: ('A' for Active; 'I' for Inactive)
REMARK    1  A    between atoms: C4_4  and  C5_5 
REMARK    2  A    between atoms: C4_4  and  O7_7 
REMARK    3  A    between atoms: C5_5  and  C6_6 
ROOT
HETATM    1  C1  UNL     1     -34.997   6.624   3.837  1.00 20.00     0.014 C 
HETATM    2  C5  UNL     1     -33.724   5.958   3.355  1.00 20.00     0.023 C 
ENDROOT
BRANCH   2   3
HETATM    3  C4  UNL     1     -33.923   4.437   3.246  1.00 20.00     0.172 C 
BRANCH   3   4
HETATM    4  O7  UNL     1     -34.133   3.892   4.546  1.00 20.00    -0.396 OA
HETATM    5  C3  UNL     1     -33.165   2.902   4.856  1.00 20.00     0.201 C 
ENDBRANCH   3   4
ENDBRANCH   2   3
BRANCH   2   6
HETATM    6  C6  UNL     1     -33.185   6.553   2.031  1.00 20.00     0.084 C 
HETATM    7  C2  UNL     1     -32.399   5.550   1.190  1.00 20.00     0.027 C 
HETATM    8 CL8  UNL     1     -32.182   8.016   2.287  1.00 20.00    -0.125 Cl
ENDBRANCH   2   6
TORSDOF 3
ENDMDL
MODEL 4
REMARK VINA RESULT:      -1.7      1.565      2.590
REMARK  3 active torsions:
REMARK  status: ('A' for Active; 'I' for Inactive)
REMARK    1  A    between atoms: C4_4  and  C5_5 
REMARK    2  A    between atoms: C4_4  and  O7_7 
REMARK    3  A    between atoms: C5_5  and  C6_6 
ROOT
HETATM    1  C1  UNL     1     -32.629   5.605   1.442  1.00 20.00     0.014 C 
HETATM    2  C5  UNL     1     -33.008   7.030   1.786  1.00 20.00     0.023 C 
ENDROOT
BRANCH   2   3
HETATM    3  C4  UNL     1     -33.535   7.112   3.229  1.00 20.00     0.172 C 
BRANCH   3   4
HETATM    4  O7  UNL     1     -34.135   5.870   3.586  1.00 20.00    -0.396 OA
HETATM    5  C3  UNL     1     -35.436   6.057   4.123  1.00 20.00     0.201 C 
ENDBRANCH   3   4
ENDBRANCH   2   3
BRANCH   2   6
HETATM    6  C6  UNL     1     -31.863   8.045   1.546  1.00 20.00     0.084 C 
HETATM    7  C2  UNL     1     -31.292   8.633   2.833  1.00 20.00     0.027 C 
HETATM    8 CL8  UNL     1     -32.341   9.381   0.452  1.00 20.00    -0.125 Cl
ENDBRANCH   2   6
TORSDOF 3
ENDMDL
MODEL 5
REMARK VINA RESULT:      -1.5      2.808      3.834
REMARK  3 active torsions:
REMARK  status: ('A' for Active; 'I' for Inactive)
REMARK    1  A    between atoms: C4_4  and  C5_5 
REMARK    2  A    between atoms: C4_4  and  O7_7 
REMARK    3  A    between atoms: C5_5  and  C6_6 
ROOT
HETATM    1  C1  UNL     1     -33.808   7.733   3.946  1.00 20.00     0.014 C 
HETATM    2  C5  UNL     1     -33.419   7.441   2.511  1.00 20.00     0.023 C 
ENDROOT
BRANCH   2   3
HETATM    3  C4  UNL     1     -32.065   8.092   2.180  1.00 20.00     0.172 C 
BRANCH   3   4
HETATM    4  O7  UNL     1     -32.042   8.465   0.805  1.00 20.00    -0.396 OA
HETATM    5  C3  UNL     1     -32.444   9.815   0.627  1.00 20.00     0.201 C 
ENDBRANCH   3   4
ENDBRANCH   2   3
BRANCH   2   6
HETATM    6  C6  UNL     1     -33.415   5.930   2.172  1.00 20.00     0.084 C 
HETATM    7  C2  UNL     1     -33.711   5.036   3.373  1.00 20.00     0.027 C 
HETATM    8 CL8  UNL     1     -31.885   5.397   1.406  1.00 20.00    -0.125 Cl
ENDBRANCH   2   6
TORSDOF 3
ENDMDL
MODEL 6
REMARK VINA RESULT:      -1.5      2.938      3.861
REMARK  3 active torsions:
REMARK  status: ('A' for Active; 'I' for Inactive)
REMARK    1  A    between atoms: C4_4  and  C5_5 
REMARK    2  A    between atoms: C4_4  and  O7_7 
REMARK    3  A    between atoms: C5_5  and  C6_6 
ROOT
HETATM    1  C1  UNL     1     -34.058   7.534   3.950  1.00 20.00     0.014 C 
HETATM    2  C5  UNL     1     -33.372   7.258   2.627  1.00 20.00     0.023 C 
ENDROOT
BRANCH   2   3
HETATM    3  C4  UNL     1     -32.209   8.242   2.411  1.00 20.00     0.172 C 
BRANCH   3   4
HETATM    4  O7  UNL     1     -31.982   8.408   1.014  1.00 20.00    -0.396 OA
HETATM    5  C3  UNL     1     -32.460   9.664   0.557  1.00 20.00     0.201 C 
ENDBRANCH   3   4
ENDBRANCH   2   3
BRANCH   2   6
HETATM    6  C6  UNL     1     -32.904   5.790   2.474  1.00 20.00     0.084 C 
HETATM    7  C2  UNL     1     -32.964   5.279   1.037  1.00 20.00     0.027 C 
HETATM    8 CL8  UNL     1     -33.807   4.662   3.534  1.00 20.00    -0.125 Cl
ENDBRANCH   2   6
TORSDOF 3
ENDMDL
MODEL 7
REMARK VINA RESULT:      -1.4      2.621      3.849
REMARK  3 active torsions:
REMARK  status: ('A' for Active; 'I' for Inactive)
REMARK    1  A    between atoms: C4_4  and  C5_5 
REMARK    2  A    between atoms: C4_4  and  O7_7 
REMARK    3  A    between atoms: C5_5  and  C6_6 
ROOT
HETATM    1  C1  UNL     1     -33.600   4.267   3.513  1.00 20.00     0.014 C 
HETATM    2  C5  UNL     1     -33.302   5.710   3.161  1.00 20.00     0.023 C 
ENDROOT
BRANCH   2   3
HETATM    3  C4  UNL     1     -32.984   5.841   1.662  1.00 20.00     0.172 C 
BRANCH   3   4
HETATM    4  O7  UNL     1     -31.725   6.489   1.499  1.00 20.00    -0.396 OA
HETATM    5  C3  UNL     1     -31.863   7.902   1.510  1.00 20.00     0.201 C 
ENDBRANCH   3   4
ENDBRANCH   2   3
BRANCH   2   6
HETATM    6  C6  UNL     1     -34.423   6.690   3.587  1.00 20.00     0.084 C 
HETATM    7  C2  UNL     1     -33.926   7.844   4.453  1.00 20.00     0.027 C 
HETATM    8 CL8  UNL     1     -35.777   5.868   4.426  1.00 20.00    -0.125 Cl
ENDBRANCH   2   6
TORSDOF 3
ENDMDL
MODEL 8
REMARK VINA RESULT:      -1.3      1.664      2.271
REMARK  3 active torsions:
REMARK  status: ('A' for Active; 'I' for Inactive)
REMARK    1  A    between atoms: C4_4  and  C5_5 
REMARK    2  A    between atoms: C4_4  and  O7_7 
REMARK    3  A    between atoms: C5_5  and  C6_6 
ROOT
HETATM    1  C1  UNL     1     -32.649   5.400   1.724  1.00 20.00     0.014 C 
HETATM    2  C5  UNL     1     -33.751   6.049   2.536  1.00 20.00     0.023 C 
ENDROOT
BRANCH   2   3
HETATM    3  C4  UNL     1     -34.004   5.254   3.828  1.00 20.00     0.172 C 
BRANCH   3   4
HETATM    4  O7  UNL     1     -33.793   3.866   3.581  1.00 20.00    -0.396 OA
HETATM    5  C3  UNL     1     -33.357   3.191   4.751  1.00 20.00     0.201 C 
ENDBRANCH   3   4
ENDBRANCH   2   3
BRANCH   2   6
HETATM    6  C6  UNL     1     -33.493   7.546   2.836  1.00 20.00     0.084 C 
HETATM    7  C2  UNL     1     -32.161   8.054   2.292  1.00 20.00     0.027 C 
HETATM    8 CL8  UNL     1     -33.597   7.928   4.584  1.00 20.00    -0.125 Cl
ENDBRANCH   2   6
TORSDOF 3
ENDMDL
MODEL 9
REMARK VINA RESULT:      -1.2      2.665      3.830
REMARK  3 active torsions:
REMARK  status: ('A' for Active; 'I' for Inactive)
REMARK    1  A    between atoms: C4_4  and  C5_5 
REMARK    2  A    between atoms: C4_4  and  O7_7 
REMARK    3  A    between atoms: C5_5  and  C6_6 
ROOT
HETATM    1  C1  UNL     1     -33.113   8.154   4.725  1.00 20.00     0.014 C 
HETATM    2  C5  UNL     1     -33.359   7.967   3.241  1.00 20.00     0.023 C 
ENDROOT
BRANCH   2   3
HETATM    3  C4  UNL     1     -32.033   8.033   2.466  1.00 20.00     0.172 C 
BRANCH   3   4
HETATM    4  O7  UNL     1     -32.303   8.189   1.075  1.00 20.00    -0.396 OA
HETATM    5  C3  UNL     1     -32.325   9.559   0.701  1.00 20.00     0.201 C 
ENDBRANCH   3   4
ENDBRANCH   2   3
BRANCH   2   6
HETATM    6  C6  UNL     1     -34.143   6.674   2.908  1.00 20.00     0.084 C 
HETATM    7  C2  UNL     1     -35.077   6.223   4.027  1.00 20.00     0.027 C 
HETATM    8 CL8  UNL     1     -33.071   5.312   2.455  1.00 20.00    -0.125 Cl
ENDBRANCH   2   6
TORSDOF 3
ENDMDL
