MODEL 1
REMARK VINA RESULT:       0.8      0.000      0.000
REMARK  2 active torsions:
REMARK  status: ('A' for Active; 'I' for Inactive)
REMARK    1  A    between atoms: C5_5  and  S10_10 
REMARK    2  A    between atoms: C8_8  and  S10_10 
ROOT
HETATM    1  C1  UNL     1     -33.141   7.754   4.320  1.00 20.00     0.080 C 
HETATM    2  C2  UNL     1     -35.843   5.802   3.552  1.00 20.00     0.009 C 
HETATM    3  C3  UNL     1     -35.437   7.275   3.337  1.00 20.00     0.037 C 
HETATM    4  C4  UNL     1     -34.494   5.592   4.287  1.00 20.00     0.014 C 
HETATM    5  C5  UNL     1     -33.957   6.857   3.538  1.00 20.00     0.100 C 
HETATM    6  C6  UNL     1     -33.856   4.222   4.141  1.00 20.00     0.012 C 
HETATM    7  N9  UNL     1     -32.486   8.477   4.948  1.00 20.00    -0.196 NA
ENDROOT
BRANCH   5   8
HETATM    8  S10 UNL     1     -33.133   6.509   1.933  1.00 20.00    -0.144 SA
BRANCH   8   9
HETATM    9  C8  UNL     1     -31.972   7.890   1.954  1.00 20.00     0.071 C 
HETATM   10  C7  UNL     1     -32.331   8.906   0.888  1.00 20.00     0.016 C 
ENDBRANCH   8   9
ENDBRANCH   5   8
TORSDOF 2
ENDMDL
MODEL 2
REMARK VINA RESULT:       1.6      1.855      2.643
REMARK  2 active torsions:
REMARK  status: ('A' for Active; 'I' for Inactive)
REMARK    1  A    between atoms: C5_5  and  S10_10 
REMARK    2  A    between atoms: C8_8  and  S10_10 
ROOT
HETATM    1  C1  UNL     1     -33.726   4.530   3.897  1.00 20.00     0.080 C 
HETATM    2  C2  UNL     1     -34.395   7.875   4.161  1.00 20.00     0.009 C 
HETATM    3  C3  UNL     1     -33.148   6.975   4.293  1.00 20.00     0.037 C 
HETATM    4  C4  UNL     1     -35.222   6.596   3.870  1.00 20.00     0.014 C 
HETATM    5  C5  UNL     1     -33.885   5.896   3.458  1.00 20.00     0.100 C 
HETATM    6  C6  UNL     1     -36.391   6.756   2.915  1.00 20.00     0.012 C 
HETATM    7  N9  UNL     1     -33.598   3.433   4.251  1.00 20.00    -0.196 NA
ENDROOT
BRANCH   5   8
HETATM    8  S10 UNL     1     -33.466   6.026   1.674  1.00 20.00    -0.144 SA
BRANCH   8   9
HETATM    9  C8  UNL     1     -31.939   6.970   1.853  1.00 20.00     0.071 C 
HETATM   10  C7  UNL     1     -32.087   8.347   1.236  1.00 20.00     0.016 C 
ENDBRANCH   8   9
ENDBRANCH   5   8
TORSDOF 2
ENDMDL
MODEL 3
REMARK VINA RESULT:       1.7      2.080      4.038
REMARK  2 active torsions:
REMARK  status: ('A' for Active; 'I' for Inactive)
REMARK    1  A    between atoms: C5_5  and  S10_10 
REMARK    2  A    between atoms: C8_8  and  S10_10 
ROOT
HETATM    1  C1  UNL     1     -34.666   6.313   3.563  1.00 20.00     0.080 C 
HETATM    2  C2  UNL     1     -32.131   7.421   1.550  1.00 20.00     0.009 C 
HETATM    3  C3  UNL     1     -32.538   7.599   3.028  1.00 20.00     0.037 C 
HETATM    4  C4  UNL     1     -33.386   6.529   1.367  1.00 20.00     0.014 C 
HETATM    5  C5  UNL     1     -33.377   6.299   2.915  1.00 20.00     0.100 C 
HETATM    6  C6  UNL     1     -33.261   5.390   0.371  1.00 20.00     0.012 C 
HETATM    7  N9  UNL     1     -35.703   6.325   4.085  1.00 20.00    -0.196 NA
ENDROOT
BRANCH   5   8
HETATM    8  S10 UNL     1     -32.420   4.832   3.470  1.00 20.00    -0.144 SA
BRANCH   8   9
HETATM    9  C8  UNL     1     -33.805   3.869   4.109  1.00 20.00     0.071 C 
HETATM   10  C7  UNL     1     -33.306   2.646   4.854  1.00 20.00     0.016 C 
ENDBRANCH   8   9
ENDBRANCH   5   8
TORSDOF 2
ENDMDL
MODEL 4
REMARK VINA RESULT:       2.0      1.395      1.625
REMARK  2 active torsions:
REMARK  status: ('A' for Active; 'I' for Inactive)
REMARK    1  A    between atoms: C5_5  and  S10_10 
REMARK    2  A    between atoms: C8_8  and  S10_10 
ROOT
HETATM    1  C1  UNL     1     -33.043   7.433   3.650  1.00 20.00     0.080 C 
HETATM    2  C2  UNL     1     -35.640   5.279   4.215  1.00 20.00     0.009 C 
HETATM    3  C3  UNL     1     -35.488   6.734   3.724  1.00 20.00     0.037 C 
HETATM    4  C4  UNL     1     -34.098   5.221   4.357  1.00 20.00     0.014 C 
HETATM    5  C5  UNL     1     -34.018   6.412   3.347  1.00 20.00     0.100 C 
HETATM    6  C6  UNL     1     -33.449   3.875   4.089  1.00 20.00     0.012 C 
HETATM    7  N9  UNL     1     -32.261   8.255   3.894  1.00 20.00    -0.196 NA
ENDROOT
BRANCH   5   8
HETATM    8  S10 UNL     1     -33.869   5.918   1.583  1.00 20.00    -0.144 SA
BRANCH   8   9
HETATM    9  C8  UNL     1     -32.076   6.063   1.443  1.00 20.00     0.071 C 
HETATM   10  C7  UNL     1     -31.470   4.754   0.975  1.00 20.00     0.016 C 
ENDBRANCH   8   9
ENDBRANCH   5   8
TORSDOF 2
ENDMDL
MODEL 5
REMARK VINA RESULT:       2.0      1.784      4.050
REMARK  2 active torsions:
REMARK  status: ('A' for Active; 'I' for Inactive)
REMARK    1  A    between atoms: C5_5  and  S10_10 
REMARK    2  A    between atoms: C8_8  and  S10_10 
ROOT
HETATM    1  C1  UNL     1     -35.263   6.720   3.343  1.00 20.00     0.080 C 
HETATM    2  C2  UNL     1     -32.345   8.348   4.077  1.00 20.00     0.009 C 
HETATM    3  C3  UNL     1     -33.396   7.538   4.864  1.00 20.00     0.037 C 
HETATM    4  C4  UNL     1     -33.198   8.117   2.803  1.00 20.00     0.014 C 
HETATM    5  C5  UNL     1     -33.841   6.889   3.528  1.00 20.00     0.100 C 
HETATM    6  C6  UNL     1     -32.434   7.989   1.497  1.00 20.00     0.012 C 
HETATM    7  N9  UNL     1     -36.406   6.585   3.196  1.00 20.00    -0.196 NA
ENDROOT
BRANCH   5   8
HETATM    8  S10 UNL     1     -32.985   5.289   3.239  1.00 20.00    -0.144 SA
BRANCH   8   9
HETATM    9  C8  UNL     1     -34.096   4.244   4.203  1.00 20.00     0.071 C 
HETATM   10  C7  UNL     1     -33.367   3.014   4.710  1.00 20.00     0.016 C 
ENDBRANCH   8   9
ENDBRANCH   5   8
TORSDOF 2
ENDMDL
MODEL 6
REMARK VINA RESULT:       2.1      2.007      2.733
REMARK  2 active torsions:
REMARK  status: ('A' for Active; 'I' for Inactive)
REMARK    1  A    between atoms: C5_5  and  S10_10 
REMARK    2  A    between atoms: C8_8  and  S10_10 
ROOT
HETATM    1  C1  UNL     1     -32.414   6.544   1.979  1.00 20.00     0.080 C 
HETATM    2  C2  UNL     1     -33.774   7.811   4.851  1.00 20.00     0.009 C 
HETATM    3  C3  UNL     1     -32.427   7.936   4.108  1.00 20.00     0.037 C 
HETATM    4  C4  UNL     1     -34.241   6.844   3.733  1.00 20.00     0.014 C 
HETATM    5  C5  UNL     1     -33.142   7.471   2.813  1.00 20.00     0.100 C 
HETATM    6  C6  UNL     1     -35.719   6.883   3.386  1.00 20.00     0.012 C 
HETATM    7  N9  UNL     1     -31.827   5.800   1.310  1.00 20.00    -0.196 NA
ENDROOT
BRANCH   5   8
HETATM    8  S10 UNL     1     -33.705   8.900   1.805  1.00 20.00    -0.144 SA
BRANCH   8   9
HETATM    9  C8  UNL     1     -32.183   9.147   0.866  1.00 20.00     0.071 C 
HETATM   10  C7  UNL     1     -32.435  10.040  -0.333  1.00 20.00     0.016 C 
ENDBRANCH   8   9
ENDBRANCH   5   8
TORSDOF 2
ENDMDL
MODEL 7
REMARK VINA RESULT:       2.1      2.265      2.649
REMARK  2 active torsions:
REMARK  status: ('A' for Active; 'I' for Inactive)
REMARK    1  A    between atoms: C5_5  and  S10_10 
REMARK    2  A    between atoms: C8_8  and  S10_10 
ROOT
HETATM    1  C1  UNL     1     -33.566   7.142   3.107  1.00 20.00     0.080 C 
HETATM    2  C2  UNL     1     -33.168   5.237   0.293  1.00 20.00     0.009 C 
HETATM    3  C3  UNL     1     -33.983   6.487   0.685  1.00 20.00     0.037 C 
HETATM    4  C4  UNL     1     -32.616   5.208   1.741  1.00 20.00     0.014 C 
HETATM    5  C5  UNL     1     -32.989   6.723   1.851  1.00 20.00     0.100 C 
HETATM    6  C6  UNL     1     -31.194   4.701   1.907  1.00 20.00     0.012 C 
HETATM    7  N9  UNL     1     -34.030   7.478   4.115  1.00 20.00    -0.196 NA
ENDROOT
BRANCH   5   8
HETATM    8  S10 UNL     1     -31.649   7.884   1.368  1.00 20.00    -0.144 SA
BRANCH   8   9
HETATM    9  C8  UNL     1     -32.662   9.369   1.210  1.00 20.00     0.071 C 
HETATM   10  C7  UNL     1     -32.527   9.960  -0.180  1.00 20.00     0.016 C 
ENDBRANCH   8   9
ENDBRANCH   5   8
TORSDOF 2
ENDMDL
MODEL 8
REMARK VINA RESULT:       2.5      2.132      4.336
REMARK  2 active torsions:
REMARK  status: ('A' for Active; 'I' for Inactive)
REMARK    1  A    between atoms: C5_5  and  S10_10 
REMARK    2  A    between atoms: C8_8  and  S10_10 
ROOT
HETATM    1  C1  UNL     1     -32.385   5.925   1.517  1.00 20.00     0.080 C 
HETATM    2  C2  UNL     1     -32.193   9.305   1.020  1.00 20.00     0.009 C 
HETATM    3  C3  UNL     1     -33.001   8.135   0.419  1.00 20.00     0.037 C 
HETATM    4  C4  UNL     1     -31.490   8.276   1.942  1.00 20.00     0.014 C 
HETATM    5  C5  UNL     1     -32.705   7.320   1.705  1.00 20.00     0.100 C 
HETATM    6  C6  UNL     1     -31.094   8.771   3.322  1.00 20.00     0.012 C 
HETATM    7  N9  UNL     1     -32.127   4.804   1.365  1.00 20.00    -0.196 NA
ENDROOT
BRANCH   5   8
HETATM    8  S10 UNL     1     -34.064   7.483   2.932  1.00 20.00    -0.144 SA
BRANCH   8   9
HETATM    9  C8  UNL     1     -34.128   5.756   3.451  1.00 20.00     0.071 C 
HETATM   10  C7  UNL     1     -35.324   5.514   4.352  1.00 20.00     0.016 C 
ENDBRANCH   8   9
ENDBRANCH   5   8
TORSDOF 2
ENDMDL
MODEL 9
REMARK VINA RESULT:       2.5      2.412      3.835
REMARK  2 active torsions:
REMARK  status: ('A' for Active; 'I' for Inactive)
REMARK    1  A    between atoms: C5_5  and  S10_10 
REMARK    2  A    between atoms: C8_8  and  S10_10 
ROOT
HETATM    1  C1  UNL     1     -33.191   5.666   2.287  1.00 20.00     0.080 C 
HETATM    2  C2  UNL     1     -35.206   8.041   3.702  1.00 20.00     0.009 C 
HETATM    3  C3  UNL     1     -35.376   6.913   2.662  1.00 20.00     0.037 C 
HETATM    4  C4  UNL     1     -33.713   7.639   3.816  1.00 20.00     0.014 C 
HETATM    5  C5  UNL     1     -34.107   6.237   3.245  1.00 20.00     0.100 C 
HETATM    6  C6  UNL     1     -33.073   7.817   5.181  1.00 20.00     0.012 C 
HETATM    7  N9  UNL     1     -32.456   5.207   1.516  1.00 20.00    -0.196 NA
ENDROOT
BRANCH   5   8
HETATM    8  S10 UNL     1     -34.537   4.981   4.515  1.00 20.00    -0.144 SA
BRANCH   8   9
HETATM    9  C8  UNL     1     -33.559   3.619   3.849  1.00 20.00     0.071 C 
HETATM   10  C7  UNL     1     -32.981   2.779   4.971  1.00 20.00     0.016 C 
ENDBRANCH   8   9
ENDBRANCH   5   8
TORSDOF 2
ENDMDL
