MODEL 1
REMARK VINA RESULT:      -2.1      0.000      0.000
REMARK  2 active torsions:
REMARK  status: ('A' for Active; 'I' for Inactive)
REMARK    1  A    between atoms: C5_5  and  C7_7 
REMARK    2  A    between atoms: C6_6  and  C8_8 
ROOT
HETATM    1  C1  UNL     1     -32.251   5.599   1.392  1.00 20.00     0.001 C 
HETATM    2  C2  UNL     1     -32.022   7.044   0.963  1.00 20.00     0.005 C 
HETATM    3  C3  UNL     1     -33.581   5.433   2.124  1.00 20.00     0.013 C 
HETATM    4  C4  UNL     1     -33.461   7.841   2.883  1.00 20.00     0.018 C 
HETATM    5  C5  UNL     1     -32.122   8.010   2.151  1.00 20.00    -0.004 C 
HETATM    6  C6  UNL     1     -33.690   6.386   3.320  1.00 20.00     0.094 C 
ENDROOT
BRANCH   6   7
HETATM    7  C8  UNL     1     -35.046   6.237   4.007  1.00 20.00     0.391 C 
HETATM    8  F9  UNL     1     -35.102   7.029   5.089  1.00 20.00    -0.171 F 
HETATM    9  F10 UNL     1     -36.028   6.584   3.162  1.00 20.00    -0.171 F 
HETATM   10  F11 UNL     1     -35.230   4.964   4.389  1.00 20.00    -0.171 F 
ENDBRANCH   6   7
BRANCH   5  11
HETATM   11  C7  UNL     1     -31.938   9.454   1.689  1.00 20.00     0.089 C 
HETATM   12 BR12 UNL     1     -32.534   9.623  -0.148  1.00 20.00    -0.096 Br
ENDBRANCH   5  11
TORSDOF 2
ENDMDL
MODEL 2
REMARK VINA RESULT:      -1.3      2.560      3.583
REMARK  2 active torsions:
REMARK  status: ('A' for Active; 'I' for Inactive)
REMARK    1  A    between atoms: C5_5  and  C7_7 
REMARK    2  A    between atoms: C6_6  and  C8_8 
ROOT
HETATM    1  C1  UNL     1     -35.283   6.042   3.947  1.00 20.00     0.001 C 
HETATM    2  C2  UNL     1     -34.254   6.800   3.114  1.00 20.00     0.005 C 
HETATM    3  C3  UNL     1     -34.637   4.914   4.748  1.00 20.00     0.013 C 
HETATM    4  C4  UNL     1     -32.813   4.726   3.008  1.00 20.00     0.018 C 
HETATM    5  C5  UNL     1     -33.462   5.858   2.199  1.00 20.00    -0.004 C 
HETATM    6  C6  UNL     1     -33.849   3.958   3.843  1.00 20.00     0.094 C 
ENDROOT
BRANCH   6   7
HETATM    7  C8  UNL     1     -33.172   2.867   4.671  1.00 20.00     0.391 C 
HETATM    8  F9  UNL     1     -33.353   3.105   5.979  1.00 20.00    -0.171 F 
HETATM    9  F10 UNL     1     -33.696   1.671   4.369  1.00 20.00    -0.171 F 
HETATM   10  F11 UNL     1     -31.856   2.844   4.411  1.00 20.00    -0.171 F 
ENDBRANCH   6   7
BRANCH   5  11
HETATM   11  C7  UNL     1     -32.406   6.632   1.412  1.00 20.00     0.089 C 
HETATM   12 BR12 UNL     1     -32.082   8.338   2.274  1.00 20.00    -0.096 Br
ENDBRANCH   5  11
TORSDOF 2
ENDMDL
MODEL 3
REMARK VINA RESULT:      -1.3      2.565      3.620
REMARK  2 active torsions:
REMARK  status: ('A' for Active; 'I' for Inactive)
REMARK    1  A    between atoms: C5_5  and  C7_7 
REMARK    2  A    between atoms: C6_6  and  C8_8 
ROOT
HETATM    1  C1  UNL     1     -35.271   6.032   3.940  1.00 20.00     0.001 C 
HETATM    2  C2  UNL     1     -34.244   6.784   3.098  1.00 20.00     0.005 C 
HETATM    3  C3  UNL     1     -34.625   4.906   4.743  1.00 20.00     0.013 C 
HETATM    4  C4  UNL     1     -32.808   4.706   2.997  1.00 20.00     0.018 C 
HETATM    5  C5  UNL     1     -33.457   5.835   2.184  1.00 20.00    -0.004 C 
HETATM    6  C6  UNL     1     -33.843   3.944   3.839  1.00 20.00     0.094 C 
ENDROOT
BRANCH   6   7
HETATM    7  C8  UNL     1     -33.165   2.856   4.669  1.00 20.00     0.391 C 
HETATM    8  F9  UNL     1     -31.849   2.833   4.409  1.00 20.00    -0.171 F 
HETATM    9  F10 UNL     1     -33.347   3.095   5.976  1.00 20.00    -0.171 F 
HETATM   10  F11 UNL     1     -33.689   1.657   4.369  1.00 20.00    -0.171 F 
ENDBRANCH   6   7
BRANCH   5  11
HETATM   11  C7  UNL     1     -32.403   6.603   1.390  1.00 20.00     0.089 C 
HETATM   12 BR12 UNL     1     -32.087   8.321   2.231  1.00 20.00    -0.096 Br
ENDBRANCH   5  11
TORSDOF 2
ENDMDL
MODEL 4
REMARK VINA RESULT:      -0.5      3.632      4.845
REMARK  2 active torsions:
REMARK  status: ('A' for Active; 'I' for Inactive)
REMARK    1  A    between atoms: C5_5  and  C7_7 
REMARK    2  A    between atoms: C6_6  and  C8_8 
ROOT
HETATM    1  C1  UNL     1     -34.568   7.627   4.354  1.00 20.00     0.001 C 
HETATM    2  C2  UNL     1     -34.872   6.145   4.156  1.00 20.00     0.005 C 
HETATM    3  C3  UNL     1     -33.972   8.252   3.095  1.00 20.00     0.013 C 
HETATM    4  C4  UNL     1     -33.039   6.002   2.422  1.00 20.00     0.018 C 
HETATM    5  C5  UNL     1     -33.633   5.371   3.689  1.00 20.00    -0.004 C 
HETATM    6  C6  UNL     1     -32.726   7.492   2.622  1.00 20.00     0.094 C 
ENDROOT
BRANCH   6   7
HETATM    7  C8  UNL     1     -32.177   8.105   1.335  1.00 20.00     0.391 C 
HETATM    8  F9  UNL     1     -32.311   9.440   1.370  1.00 20.00    -0.171 F 
HETATM    9  F10 UNL     1     -30.879   7.801   1.199  1.00 20.00    -0.171 F 
HETATM   10  F11 UNL     1     -32.850   7.629   0.276  1.00 20.00    -0.171 F 
ENDBRANCH   6   7
BRANCH   5  11
HETATM   11  C7  UNL     1     -33.974   3.901   3.450  1.00 20.00     0.089 C 
HETATM   12 BR12 UNL     1     -33.125   2.813   4.812  1.00 20.00    -0.096 Br
ENDBRANCH   5  11
TORSDOF 2
ENDMDL
MODEL 5
REMARK VINA RESULT:      -0.5      3.634      4.862
REMARK  2 active torsions:
REMARK  status: ('A' for Active; 'I' for Inactive)
REMARK    1  A    between atoms: C5_5  and  C7_7 
REMARK    2  A    between atoms: C6_6  and  C8_8 
ROOT
HETATM    1  C1  UNL     1     -34.565   7.604   4.329  1.00 20.00     0.001 C 
HETATM    2  C2  UNL     1     -34.854   6.119   4.137  1.00 20.00     0.005 C 
HETATM    3  C3  UNL     1     -33.980   8.231   3.066  1.00 20.00     0.013 C 
HETATM    4  C4  UNL     1     -33.024   5.989   2.399  1.00 20.00     0.018 C 
HETATM    5  C5  UNL     1     -33.608   5.356   3.669  1.00 20.00    -0.004 C 
HETATM    6  C6  UNL     1     -32.727   7.483   2.593  1.00 20.00     0.094 C 
ENDROOT
BRANCH   6   7
HETATM    7  C8  UNL     1     -32.188   8.098   1.302  1.00 20.00     0.391 C 
HETATM    8  F9  UNL     1     -32.867   7.619   0.248  1.00 20.00    -0.171 F 
HETATM    9  F10 UNL     1     -32.321   9.431   1.338  1.00 20.00    -0.171 F 
HETATM   10  F11 UNL     1     -30.889   7.794   1.157  1.00 20.00    -0.171 F 
ENDBRANCH   6   7
BRANCH   5  11
HETATM   11  C7  UNL     1     -33.935   3.882   3.437  1.00 20.00     0.089 C 
HETATM   12 BR12 UNL     1     -33.108   2.812   4.826  1.00 20.00    -0.096 Br
ENDBRANCH   5  11
TORSDOF 2
ENDMDL
MODEL 6
REMARK VINA RESULT:      -0.0      3.654      4.848
REMARK  2 active torsions:
REMARK  status: ('A' for Active; 'I' for Inactive)
REMARK    1  A    between atoms: C5_5  and  C7_7 
REMARK    2  A    between atoms: C6_6  and  C8_8 
ROOT
HETATM    1  C1  UNL     1     -34.014   7.855   4.338  1.00 20.00     0.001 C 
HETATM    2  C2  UNL     1     -34.406   6.405   4.073  1.00 20.00     0.005 C 
HETATM    3  C3  UNL     1     -33.672   8.591   3.044  1.00 20.00     0.013 C 
HETATM    4  C4  UNL     1     -32.982   6.403   1.984  1.00 20.00     0.018 C 
HETATM    5  C5  UNL     1     -33.320   5.660   3.285  1.00 20.00    -0.004 C 
HETATM    6  C6  UNL     1     -32.581   7.861   2.250  1.00 20.00     0.094 C 
ENDROOT
BRANCH   6   7
HETATM    7  C8  UNL     1     -32.291   8.588   0.939  1.00 20.00     0.391 C 
HETATM    8  F9  UNL     1     -30.984   8.509   0.649  1.00 20.00    -0.171 F 
HETATM    9  F10 UNL     1     -32.993   8.032  -0.059  1.00 20.00    -0.171 F 
HETATM   10  F11 UNL     1     -32.636   9.881   1.045  1.00 20.00    -0.171 F 
ENDBRANCH   6   7
BRANCH   5  11
HETATM   11  C7  UNL     1     -33.757   4.226   2.989  1.00 20.00     0.089 C 
HETATM   12 BR12 UNL     1     -33.422   3.118   4.544  1.00 20.00    -0.096 Br
ENDBRANCH   5  11
TORSDOF 2
ENDMDL
MODEL 7
REMARK VINA RESULT:       0.0      1.254      2.048
REMARK  2 active torsions:
REMARK  status: ('A' for Active; 'I' for Inactive)
REMARK    1  A    between atoms: C5_5  and  C7_7 
REMARK    2  A    between atoms: C6_6  and  C8_8 
ROOT
HETATM    1  C1  UNL     1     -32.465   8.716   4.825  1.00 20.00     0.001 C 
HETATM    2  C2  UNL     1     -31.689   8.619   3.515  1.00 20.00     0.005 C 
HETATM    3  C3  UNL     1     -33.413   7.534   5.008  1.00 20.00     0.013 C 
HETATM    4  C4  UNL     1     -33.578   7.282   2.498  1.00 20.00     0.018 C 
HETATM    5  C5  UNL     1     -32.628   8.473   2.311  1.00 20.00    -0.004 C 
HETATM    6  C6  UNL     1     -34.364   7.383   3.814  1.00 20.00     0.094 C 
ENDROOT
BRANCH   6   7
HETATM    7  C8  UNL     1     -35.268   6.165   3.996  1.00 20.00     0.391 C 
HETATM    8  F9  UNL     1     -35.647   6.063   5.279  1.00 20.00    -0.171 F 
HETATM    9  F10 UNL     1     -36.361   6.285   3.228  1.00 20.00    -0.171 F 
HETATM   10  F11 UNL     1     -34.611   5.048   3.646  1.00 20.00    -0.171 F 
ENDBRANCH   6   7
BRANCH   5  11
HETATM   11  C7  UNL     1     -31.828   8.327   1.018  1.00 20.00     0.089 C 
HETATM   12 BR12 UNL     1     -32.312   9.754  -0.203  1.00 20.00    -0.096 Br
ENDBRANCH   5  11
TORSDOF 2
ENDMDL
MODEL 8
REMARK VINA RESULT:       0.3      1.804      2.656
REMARK  2 active torsions:
REMARK  status: ('A' for Active; 'I' for Inactive)
REMARK    1  A    between atoms: C5_5  and  C7_7 
REMARK    2  A    between atoms: C6_6  and  C8_8 
ROOT
HETATM    1  C1  UNL     1     -32.232   8.284   2.317  1.00 20.00     0.001 C 
HETATM    2  C2  UNL     1     -31.529   7.100   1.661  1.00 20.00     0.005 C 
HETATM    3  C3  UNL     1     -33.197   7.831   3.409  1.00 20.00     0.013 C 
HETATM    4  C4  UNL     1     -33.499   5.620   2.223  1.00 20.00     0.018 C 
HETATM    5  C5  UNL     1     -32.532   6.074   1.120  1.00 20.00    -0.004 C 
HETATM    6  C6  UNL     1     -34.213   6.811   2.879  1.00 20.00     0.094 C 
ENDROOT
BRANCH   6   7
HETATM    7  C8  UNL     1     -35.135   6.336   4.000  1.00 20.00     0.391 C 
HETATM    8  F9  UNL     1     -34.940   7.078   5.100  1.00 20.00    -0.171 F 
HETATM    9  F10 UNL     1     -36.416   6.448   3.620  1.00 20.00    -0.171 F 
HETATM   10  F11 UNL     1     -34.879   5.051   4.292  1.00 20.00    -0.171 F 
ENDBRANCH   6   7
BRANCH   5  11
HETATM   11  C7  UNL     1     -31.805   4.875   0.514  1.00 20.00     0.089 C 
HETATM   12 BR12 UNL     1     -33.066   3.794  -0.486  1.00 20.00    -0.096 Br
ENDBRANCH   5  11
TORSDOF 2
ENDMDL
MODEL 9
REMARK VINA RESULT:       0.4      3.453      4.427
REMARK  2 active torsions:
REMARK  status: ('A' for Active; 'I' for Inactive)
REMARK    1  A    between atoms: C5_5  and  C7_7 
REMARK    2  A    between atoms: C6_6  and  C8_8 
ROOT
HETATM    1  C1  UNL     1     -32.576   5.382   1.403  1.00 20.00     0.001 C 
HETATM    2  C2  UNL     1     -33.103   5.573   2.821  1.00 20.00     0.005 C 
HETATM    3  C3  UNL     1     -31.902   6.647   0.877  1.00 20.00     0.013 C 
HETATM    4  C4  UNL     1     -33.363   8.050   2.389  1.00 20.00     0.018 C 
HETATM    5  C5  UNL     1     -34.045   6.780   2.917  1.00 20.00    -0.004 C 
HETATM    6  C6  UNL     1     -32.837   7.861   0.959  1.00 20.00     0.094 C 
ENDROOT
BRANCH   6   7
HETATM    7  C8  UNL     1     -32.125   9.123   0.474  1.00 20.00     0.391 C 
HETATM    8  F9  UNL     1     -32.696   9.566  -0.656  1.00 20.00    -0.171 F 
HETATM    9  F10 UNL     1     -32.206  10.082   1.408  1.00 20.00    -0.171 F 
HETATM   10  F11 UNL     1     -30.832   8.857   0.233  1.00 20.00    -0.171 F 
ENDBRANCH   6   7
BRANCH   5  11
HETATM   11  C7  UNL     1     -34.520   6.981   4.355  1.00 20.00     0.089 C 
HETATM   12 BR12 UNL     1     -33.358   8.251   5.246  1.00 20.00    -0.096 Br
ENDBRANCH   5  11
TORSDOF 2
ENDMDL
