MODEL 1
REMARK VINA RESULT:      -1.2      0.000      0.000
REMARK  2 active torsions:
REMARK  status: ('A' for Active; 'I' for Inactive)
REMARK    1  A    between atoms: C4_4  and  C9_9 
REMARK    2  A    between atoms: C5_5  and  C8_8 
ROOT
HETATM    1  C1  UNL     1     -34.354   7.453   3.596  1.00 20.00     0.032 C 
HETATM    2  C2  UNL     1     -33.457   5.412   2.385  1.00 20.00     0.038 C 
HETATM    3  C3  UNL     1     -35.424   6.443   3.982  1.00 20.00     0.168 C 
HETATM    4  C4  UNL     1     -33.550   6.948   2.388  1.00 20.00     0.008 C 
HETATM    5  C5  UNL     1     -33.613   4.850   3.799  1.00 20.00     0.121 C 
HETATM    6  O10 UNL     1     -34.883   5.179   4.372  1.00 20.00    -0.386 OA
ENDROOT
BRANCH   4   7
HETATM    7  C9  UNL     1     -32.167   7.599   2.356  1.00 20.00     0.082 C 
HETATM    8  C7  UNL     1     -31.994   8.466   1.123  1.00 20.00     0.027 C 
HETATM    9 CL11 UNL     1     -31.947   8.586   3.826  1.00 20.00    -0.125 Cl
ENDBRANCH   4   7
BRANCH   5  10
HETATM   10  C8  UNL     1     -33.488   3.332   3.808  1.00 20.00     0.027 C 
HETATM   11  C6  UNL     1     -32.976   2.824   5.118  1.00 20.00     0.007 C 
ENDBRANCH   5  10
TORSDOF 2
ENDMDL
MODEL 2
REMARK VINA RESULT:      -0.9      0.969      1.041
REMARK  2 active torsions:
REMARK  status: ('A' for Active; 'I' for Inactive)
REMARK    1  A    between atoms: C4_4  and  C9_9 
REMARK    2  A    between atoms: C5_5  and  C8_8 
ROOT
HETATM    1  C1  UNL     1     -34.310   7.462   3.586  1.00 20.00     0.032 C 
HETATM    2  C2  UNL     1     -33.605   5.370   2.336  1.00 20.00     0.038 C 
HETATM    3  C3  UNL     1     -35.366   6.495   4.101  1.00 20.00     0.168 C 
HETATM    4  C4  UNL     1     -33.650   6.908   2.314  1.00 20.00     0.008 C 
HETATM    5  C5  UNL     1     -33.633   4.839   3.770  1.00 20.00     0.121 C 
HETATM    6  O10 UNL     1     -34.827   5.222   4.461  1.00 20.00    -0.386 OA
ENDROOT
BRANCH   4   7
HETATM    7  C9  UNL     1     -32.258   7.512   2.128  1.00 20.00     0.082 C 
HETATM    8  C7  UNL     1     -31.319   6.534   1.446  1.00 20.00     0.027 C 
HETATM    9 CL11 UNL     1     -32.388   9.003   1.158  1.00 20.00    -0.125 Cl
ENDBRANCH   4   7
BRANCH   5  10
HETATM   10  C8  UNL     1     -33.555   3.319   3.800  1.00 20.00     0.027 C 
HETATM   11  C6  UNL     1     -32.960   2.817   5.077  1.00 20.00     0.007 C 
ENDBRANCH   5  10
TORSDOF 2
ENDMDL
MODEL 3
REMARK VINA RESULT:      -0.5      2.235      3.259
REMARK  2 active torsions:
REMARK  status: ('A' for Active; 'I' for Inactive)
REMARK    1  A    between atoms: C4_4  and  C9_9 
REMARK    2  A    between atoms: C5_5  and  C8_8 
ROOT
HETATM    1  C1  UNL     1     -31.949   6.926   0.641  1.00 20.00     0.032 C 
HETATM    2  C2  UNL     1     -32.374   8.217   2.783  1.00 20.00     0.038 C 
HETATM    3  C3  UNL     1     -32.234   5.765   1.581  1.00 20.00     0.168 C 
HETATM    4  C4  UNL     1     -31.621   8.195   1.441  1.00 20.00     0.008 C 
HETATM    5  C5  UNL     1     -33.646   7.370   2.713  1.00 20.00     0.121 C 
HETATM    6  O10 UNL     1     -33.362   5.996   2.427  1.00 20.00    -0.386 OA
ENDROOT
BRANCH   4   7
HETATM    7  C9  UNL     1     -31.914   9.443   0.608  1.00 20.00     0.082 C 
HETATM    8  C7  UNL     1     -32.592   9.085  -0.701  1.00 20.00     0.027 C 
HETATM    9 CL11 UNL     1     -32.955  10.547   1.547  1.00 20.00    -0.125 Cl
ENDBRANCH   4   7
BRANCH   5  10
HETATM   10  C8  UNL     1     -34.414   7.414   4.027  1.00 20.00     0.027 C 
HETATM   11  C6  UNL     1     -35.294   6.217   4.197  1.00 20.00     0.007 C 
ENDBRANCH   5  10
TORSDOF 2
ENDMDL
MODEL 4
REMARK VINA RESULT:       0.1      1.212      1.257
REMARK  2 active torsions:
REMARK  status: ('A' for Active; 'I' for Inactive)
REMARK    1  A    between atoms: C4_4  and  C9_9 
REMARK    2  A    between atoms: C5_5  and  C8_8 
ROOT
HETATM    1  C1  UNL     1     -34.367   7.339   3.394  1.00 20.00     0.032 C 
HETATM    2  C2  UNL     1     -33.734   5.136   2.306  1.00 20.00     0.038 C 
HETATM    3  C3  UNL     1     -35.373   6.425   4.076  1.00 20.00     0.168 C 
HETATM    4  C4  UNL     1     -33.796   6.665   2.137  1.00 20.00     0.008 C 
HETATM    5  C5  UNL     1     -33.653   4.749   3.784  1.00 20.00     0.121 C 
HETATM    6  O10 UNL     1     -34.797   5.195   4.520  1.00 20.00    -0.386 OA
ENDROOT
BRANCH   4   7
HETATM    7  C9  UNL     1     -32.427   7.250   1.792  1.00 20.00     0.082 C 
HETATM    8  C7  UNL     1     -31.907   8.134   2.910  1.00 20.00     0.027 C 
HETATM    9 CL11 UNL     1     -31.277   5.921   1.487  1.00 20.00    -0.125 Cl
ENDBRANCH   4   7
BRANCH   5  10
HETATM   10  C8  UNL     1     -33.558   3.239   3.957  1.00 20.00     0.027 C 
HETATM   11  C6  UNL     1     -32.858   2.867   5.224  1.00 20.00     0.007 C 
ENDBRANCH   5  10
TORSDOF 2
ENDMDL
MODEL 5
REMARK VINA RESULT:       0.2      2.615      4.823
REMARK  2 active torsions:
REMARK  status: ('A' for Active; 'I' for Inactive)
REMARK    1  A    between atoms: C4_4  and  C9_9 
REMARK    2  A    between atoms: C5_5  and  C8_8 
ROOT
HETATM    1  C1  UNL     1     -32.405   5.105   2.044  1.00 20.00     0.032 C 
HETATM    2  C2  UNL     1     -33.615   7.334   2.031  1.00 20.00     0.038 C 
HETATM    3  C3  UNL     1     -31.744   5.741   0.831  1.00 20.00     0.168 C 
HETATM    4  C4  UNL     1     -33.707   5.841   2.394  1.00 20.00     0.008 C 
HETATM    5  C5  UNL     1     -32.160   7.808   2.017  1.00 20.00     0.121 C 
HETATM    6  O10 UNL     1     -31.376   7.104   1.048  1.00 20.00    -0.386 OA
ENDROOT
BRANCH   4   7
HETATM    7  C9  UNL     1     -34.056   5.638   3.868  1.00 20.00     0.082 C 
HETATM    8  C7  UNL     1     -35.444   6.165   4.183  1.00 20.00     0.027 C 
HETATM    9 CL11 UNL     1     -33.965   3.901   4.261  1.00 20.00    -0.125 Cl
ENDBRANCH   4   7
BRANCH   5  10
HETATM   10  C8  UNL     1     -32.065   9.292   1.691  1.00 20.00     0.027 C 
HETATM   11  C6  UNL     1     -32.389   9.570   0.258  1.00 20.00     0.007 C 
ENDBRANCH   5  10
TORSDOF 2
ENDMDL
MODEL 6
REMARK VINA RESULT:       0.4      2.173      4.561
REMARK  2 active torsions:
REMARK  status: ('A' for Active; 'I' for Inactive)
REMARK    1  A    between atoms: C4_4  and  C9_9 
REMARK    2  A    between atoms: C5_5  and  C8_8 
ROOT
HETATM    1  C1  UNL     1     -33.051   5.422   2.606  1.00 20.00     0.032 C 
HETATM    2  C2  UNL     1     -33.569   7.706   1.632  1.00 20.00     0.038 C 
HETATM    3  C3  UNL     1     -32.036   5.446   1.473  1.00 20.00     0.168 C 
HETATM    4  C4  UNL     1     -34.136   6.485   2.378  1.00 20.00     0.008 C 
HETATM    5  C5  UNL     1     -32.061   7.835   1.855  1.00 20.00     0.121 C 
HETATM    6  O10 UNL     1     -31.346   6.693   1.370  1.00 20.00    -0.386 OA
ENDROOT
BRANCH   4   7
HETATM    7  C9  UNL     1     -34.781   6.883   3.705  1.00 20.00     0.082 C 
HETATM    8  C7  UNL     1     -35.247   5.664   4.479  1.00 20.00     0.027 C 
HETATM    9 CL11 UNL     1     -33.605   7.805   4.679  1.00 20.00    -0.125 Cl
ENDBRANCH   4   7
BRANCH   5  10
HETATM   10  C8  UNL     1     -31.499   9.060   1.147  1.00 20.00     0.027 C 
HETATM   11  C6  UNL     1     -32.529   9.732   0.295  1.00 20.00     0.007 C 
ENDBRANCH   5  10
TORSDOF 2
ENDMDL
MODEL 7
REMARK VINA RESULT:       1.0      2.337      4.744
REMARK  2 active torsions:
REMARK  status: ('A' for Active; 'I' for Inactive)
REMARK    1  A    between atoms: C4_4  and  C9_9 
REMARK    2  A    between atoms: C5_5  and  C8_8 
ROOT
HETATM    1  C1  UNL     1     -33.081   7.661   4.131  1.00 20.00     0.032 C 
HETATM    2  C2  UNL     1     -32.317   6.821   1.862  1.00 20.00     0.038 C 
HETATM    3  C3  UNL     1     -32.038   8.720   3.811  1.00 20.00     0.168 C 
HETATM    4  C4  UNL     1     -32.885   6.427   3.238  1.00 20.00     0.008 C 
HETATM    5  C5  UNL     1     -32.666   8.271   1.519  1.00 20.00     0.121 C 
HETATM    6  O10 UNL     1     -32.119   9.195   2.466  1.00 20.00    -0.386 OA
ENDROOT
BRANCH   4   7
HETATM    7  C9  UNL     1     -34.193   5.648   3.106  1.00 20.00     0.082 C 
HETATM    8  C7  UNL     1     -34.100   4.294   3.784  1.00 20.00     0.027 C 
HETATM    9 CL11 UNL     1     -35.519   6.597   3.831  1.00 20.00    -0.125 Cl
ENDBRANCH   4   7
BRANCH   5  10
HETATM   10  C8  UNL     1     -32.136   8.657   0.145  1.00 20.00     0.027 C 
HETATM   11  C6  UNL     1     -32.531  10.049  -0.233  1.00 20.00     0.007 C 
ENDBRANCH   5  10
TORSDOF 2
ENDMDL
MODEL 8
REMARK VINA RESULT:       1.3      2.784      4.610
REMARK  2 active torsions:
REMARK  status: ('A' for Active; 'I' for Inactive)
REMARK    1  A    between atoms: C4_4  and  C9_9 
REMARK    2  A    between atoms: C5_5  and  C8_8 
ROOT
HETATM    1  C1  UNL     1     -33.753   6.122   2.924  1.00 20.00     0.032 C 
HETATM    2  C2  UNL     1     -31.747   6.935   1.602  1.00 20.00     0.038 C 
HETATM    3  C3  UNL     1     -33.502   7.442   3.637  1.00 20.00     0.168 C 
HETATM    4  C4  UNL     1     -32.516   5.705   2.116  1.00 20.00     0.008 C 
HETATM    5  C5  UNL     1     -32.671   8.148   1.478  1.00 20.00     0.121 C 
HETATM    6  O10 UNL     1     -33.241   8.521   2.737  1.00 20.00    -0.386 OA
ENDROOT
BRANCH   4   7
HETATM    7  C9  UNL     1     -32.913   4.769   0.974  1.00 20.00     0.082 C 
HETATM    8  C7  UNL     1     -33.885   5.443   0.022  1.00 20.00     0.027 C 
HETATM    9 CL11 UNL     1     -31.449   4.266   0.088  1.00 20.00    -0.125 Cl
ENDBRANCH   4   7
BRANCH   5  10
HETATM   10  C8  UNL     1     -31.924   9.360   0.938  1.00 20.00     0.027 C 
HETATM   11  C6  UNL     1     -32.635   9.982  -0.221  1.00 20.00     0.007 C 
ENDBRANCH   5  10
TORSDOF 2
ENDMDL
MODEL 9
REMARK VINA RESULT:       1.3      2.567      3.659
REMARK  2 active torsions:
REMARK  status: ('A' for Active; 'I' for Inactive)
REMARK    1  A    between atoms: C4_4  and  C9_9 
REMARK    2  A    between atoms: C5_5  and  C8_8 
ROOT
HETATM    1  C1  UNL     1     -33.369   8.083   3.147  1.00 20.00     0.032 C 
HETATM    2  C2  UNL     1     -33.075   5.572   2.929  1.00 20.00     0.038 C 
HETATM    3  C3  UNL     1     -32.127   8.052   2.271  1.00 20.00     0.168 C 
HETATM    4  C4  UNL     1     -33.585   6.719   3.820  1.00 20.00     0.008 C 
HETATM    5  C5  UNL     1     -33.074   5.981   1.455  1.00 20.00     0.121 C 
HETATM    6  O10 UNL     1     -32.217   7.101   1.208  1.00 20.00    -0.386 OA
ENDROOT
BRANCH   4   7
HETATM    7  C9  UNL     1     -35.056   6.534   4.192  1.00 20.00     0.082 C 
HETATM    8  C7  UNL     1     -35.970   6.951   3.054  1.00 20.00     0.027 C 
HETATM    9 CL11 UNL     1     -35.348   4.824   4.606  1.00 20.00    -0.125 Cl
ENDBRANCH   4   7
BRANCH   5  10
HETATM   10  C8  UNL     1     -32.601   4.839   0.565  1.00 20.00     0.027 C 
HETATM   11  C6  UNL     1     -31.177   4.474   0.838  1.00 20.00     0.007 C 
ENDBRANCH   5  10
TORSDOF 2
ENDMDL
