MODEL 1
REMARK VINA RESULT:       2.3      0.000      0.000
REMARK  1 active torsions:
REMARK  status: ('A' for Active; 'I' for Inactive)
REMARK    1  A    between atoms: C6_6  and  C11_11 
ROOT
HETATM    1  C1  UNL     1     -32.888   5.926   1.234  1.00 20.00     0.001 C 
HETATM    2  C2  UNL     1     -31.612   6.683   1.581  1.00 20.00     0.006 C 
HETATM    3  C3  UNL     1     -32.638   8.598   2.960  1.00 20.00     0.007 C 
HETATM    4  C4  UNL     1     -33.715   5.458   2.429  1.00 20.00     0.008 C 
HETATM    5  C5  UNL     1     -34.033   7.972   3.052  1.00 20.00     0.009 C 
HETATM    6  C6  UNL     1     -31.774   8.198   1.760  1.00 20.00     0.003 C 
HETATM    7  C7  UNL     1     -34.116   6.494   3.512  1.00 20.00    -0.048 C 
HETATM    8  C8  UNL     1     -35.591   6.216   3.898  1.00 20.00     0.015 C 
HETATM    9  C9  UNL     1     -33.277   6.257   4.787  1.00 20.00     0.015 C 
ENDROOT
BRANCH   6  10
HETATM   10  C11 UNL     1     -32.244   8.893   0.475  1.00 20.00     0.082 C 
HETATM   11  C10 UNL     1     -31.139   8.923  -0.564  1.00 20.00     0.027 C 
HETATM   12 CL12 UNL     1     -32.762  10.553   0.865  1.00 20.00    -0.125 Cl
ENDBRANCH   6  10
TORSDOF 1
ENDMDL
MODEL 2
REMARK VINA RESULT:       3.3      2.491      4.501
REMARK  1 active torsions:
REMARK  status: ('A' for Active; 'I' for Inactive)
REMARK    1  A    between atoms: C6_6  and  C11_11 
ROOT
HETATM    1  C1  UNL     1     -32.281   5.414   1.805  1.00 20.00     0.001 C 
HETATM    2  C2  UNL     1     -33.804   5.444   1.763  1.00 20.00     0.006 C 
HETATM    3  C3  UNL     1     -34.216   7.407   3.374  1.00 20.00     0.007 C 
HETATM    4  C4  UNL     1     -31.591   6.712   1.392  1.00 20.00     0.008 C 
HETATM    5  C5  UNL     1     -32.749   7.846   3.436  1.00 20.00     0.009 C 
HETATM    6  C6  UNL     1     -34.488   5.936   3.044  1.00 20.00     0.003 C 
HETATM    7  C7  UNL     1     -32.010   8.034   2.087  1.00 20.00    -0.048 C 
HETATM    8  C8  UNL     1     -30.715   8.835   2.382  1.00 20.00     0.015 C 
HETATM    9  C9  UNL     1     -32.840   8.889   1.106  1.00 20.00     0.015 C 
ENDROOT
BRANCH   6  10
HETATM   10  C11 UNL     1     -34.198   5.030   4.248  1.00 20.00     0.082 C 
HETATM   11  C10 UNL     1     -33.724   3.661   3.799  1.00 20.00     0.027 C 
HETATM   12 CL12 UNL     1     -35.678   4.873   5.229  1.00 20.00    -0.125 Cl
ENDBRANCH   6  10
TORSDOF 1
ENDMDL
MODEL 3
REMARK VINA RESULT:       4.0      1.838      3.860
REMARK  1 active torsions:
REMARK  status: ('A' for Active; 'I' for Inactive)
REMARK    1  A    between atoms: C6_6  and  C11_11 
ROOT
HETATM    1  C1  UNL     1     -33.819   5.162   3.734  1.00 20.00     0.001 C 
HETATM    2  C2  UNL     1     -34.647   6.437   3.629  1.00 20.00     0.006 C 
HETATM    3  C3  UNL     1     -33.040   7.851   2.202  1.00 20.00     0.007 C 
HETATM    4  C4  UNL     1     -33.439   4.519   2.403  1.00 20.00     0.008 C 
HETATM    5  C5  UNL     1     -32.098   6.691   1.862  1.00 20.00     0.009 C 
HETATM    6  C6  UNL     1     -33.843   7.736   3.502  1.00 20.00     0.003 C 
HETATM    7  C7  UNL     1     -32.746   5.390   1.322  1.00 20.00    -0.048 C 
HETATM    8  C8  UNL     1     -31.612   4.539   0.697  1.00 20.00     0.015 C 
HETATM    9  C9  UNL     1     -33.746   5.691   0.185  1.00 20.00     0.015 C 
ENDROOT
BRANCH   6  10
HETATM   10  C11 UNL     1     -32.962   8.003   4.730  1.00 20.00     0.082 C 
HETATM   11  C10 UNL     1     -33.763   8.646   5.846  1.00 20.00     0.027 C 
HETATM   12 CL12 UNL     1     -31.610   9.064   4.258  1.00 20.00    -0.125 Cl
ENDBRANCH   6  10
TORSDOF 1
ENDMDL
MODEL 4
REMARK VINA RESULT:       4.5      2.383      4.634
REMARK  1 active torsions:
REMARK  status: ('A' for Active; 'I' for Inactive)
REMARK    1  A    between atoms: C6_6  and  C11_11 
ROOT
HETATM    1  C1  UNL     1     -33.843   8.644   3.157  1.00 20.00     0.001 C 
HETATM    2  C2  UNL     1     -32.967   7.636   3.890  1.00 20.00     0.006 C 
HETATM    3  C3  UNL     1     -32.270   6.174   1.890  1.00 20.00     0.007 C 
HETATM    4  C4  UNL     1     -33.152   9.416   2.035  1.00 20.00     0.008 C 
HETATM    5  C5  UNL     1     -32.816   7.130   0.823  1.00 20.00     0.009 C 
HETATM    6  C6  UNL     1     -32.924   6.231   3.273  1.00 20.00     0.003 C 
HETATM    7  C7  UNL     1     -32.405   8.620   0.932  1.00 20.00    -0.048 C 
HETATM    8  C8  UNL     1     -32.736   9.288  -0.427  1.00 20.00     0.015 C 
HETATM    9  C9  UNL     1     -30.882   8.769   1.133  1.00 20.00     0.015 C 
ENDROOT
BRANCH   6  10
HETATM   10  C11 UNL     1     -34.299   5.551   3.272  1.00 20.00     0.082 C 
HETATM   11  C10 UNL     1     -35.320   6.381   4.026  1.00 20.00     0.027 C 
HETATM   12 CL12 UNL     1     -34.153   3.938   4.016  1.00 20.00    -0.125 Cl
ENDBRANCH   6  10
TORSDOF 1
ENDMDL
MODEL 5
REMARK VINA RESULT:       4.9      1.795      2.738
REMARK  1 active torsions:
REMARK  status: ('A' for Active; 'I' for Inactive)
REMARK    1  A    between atoms: C6_6  and  C11_11 
ROOT
HETATM    1  C1  UNL     1     -33.109   8.089   4.155  1.00 20.00     0.001 C 
HETATM    2  C2  UNL     1     -33.375   8.710   2.790  1.00 20.00     0.006 C 
HETATM    3  C3  UNL     1     -33.817   6.562   1.444  1.00 20.00     0.007 C 
HETATM    4  C4  UNL     1     -34.240   7.229   4.713  1.00 20.00     0.008 C 
HETATM    5  C5  UNL     1     -33.891   5.644   2.669  1.00 20.00     0.009 C 
HETATM    6  C6  UNL     1     -32.989   7.842   1.585  1.00 20.00     0.003 C 
HETATM    7  C7  UNL     1     -34.816   6.089   3.831  1.00 20.00    -0.048 C 
HETATM    8  C8  UNL     1     -35.028   4.856   4.746  1.00 20.00     0.015 C 
HETATM    9  C9  UNL     1     -36.212   6.495   3.313  1.00 20.00     0.015 C 
ENDROOT
BRANCH   6  10
HETATM   10  C11 UNL     1     -31.485   7.545   1.536  1.00 20.00     0.082 C 
HETATM   11  C10 UNL     1     -30.792   8.399   0.491  1.00 20.00     0.027 C 
HETATM   12 CL12 UNL     1     -31.244   5.817   1.170  1.00 20.00    -0.125 Cl
ENDBRANCH   6  10
TORSDOF 1
ENDMDL
