MODEL 1
REMARK VINA RESULT:      -2.8      0.000      0.000
REMARK  2 active torsions:
REMARK  status: ('A' for Active; 'I' for Inactive)
REMARK    1  A    between atoms: C2_2  and  C3_3 
REMARK    2  A    between atoms: C2_2  and  N4_4 
ROOT
HETATM    1  C1  UNL     1     -32.447   7.087   1.799  1.00 20.00     0.332 C 
HETATM    2  N4  UNL     1     -33.126   6.131   1.875  1.00 20.00    -0.242 NA
HETATM    3  O5  UNL     1     -31.766   8.042   1.720  1.00 20.00    -0.260 OA
ENDROOT
BRANCH   2   4
HETATM    4  C2  UNL     1     -33.564   5.809   3.235  1.00 20.00     0.224 C 
BRANCH   4   5
HETATM    5  C3  UNL     1     -34.699   6.729   3.621  1.00 20.00     0.372 C 
HETATM    6  F6  UNL     1     -34.256   7.685   4.472  1.00 20.00    -0.213 F 
HETATM    7  F7  UNL     1     -35.663   6.032   4.272  1.00 20.00    -0.213 F 
ENDBRANCH   4   5
ENDBRANCH   2   4
TORSDOF 2
ENDMDL
MODEL 2
REMARK VINA RESULT:      -2.8      2.872      3.213
REMARK  2 active torsions:
REMARK  status: ('A' for Active; 'I' for Inactive)
REMARK    1  A    between atoms: C2_2  and  C3_3 
REMARK    2  A    between atoms: C2_2  and  N4_4 
ROOT
HETATM    1  C1  UNL     1     -33.633   3.497   4.528  1.00 20.00     0.332 C 
HETATM    2  N4  UNL     1     -34.404   4.265   4.085  1.00 20.00    -0.242 NA
HETATM    3  O5  UNL     1     -32.864   2.726   4.973  1.00 20.00    -0.260 OA
ENDROOT
BRANCH   2   4
HETATM    4  C2  UNL     1     -33.792   5.401   3.392  1.00 20.00     0.224 C 
BRANCH   4   5
HETATM    5  C3  UNL     1     -34.634   6.634   3.624  1.00 20.00     0.372 C 
HETATM    6  F6  UNL     1     -33.934   7.550   4.336  1.00 20.00    -0.213 F 
HETATM    7  F7  UNL     1     -35.732   6.318   4.354  1.00 20.00    -0.213 F 
ENDBRANCH   4   5
ENDBRANCH   2   4
TORSDOF 2
ENDMDL
MODEL 3
REMARK VINA RESULT:      -2.7      3.084      3.615
REMARK  2 active torsions:
REMARK  status: ('A' for Active; 'I' for Inactive)
REMARK    1  A    between atoms: C2_2  and  C3_3 
REMARK    2  A    between atoms: C2_2  and  N4_4 
ROOT
HETATM    1  C1  UNL     1     -34.562   6.695   3.778  1.00 20.00     0.332 C 
HETATM    2  N4  UNL     1     -33.594   7.278   3.458  1.00 20.00    -0.242 NA
HETATM    3  O5  UNL     1     -35.532   6.113   4.103  1.00 20.00    -0.260 OA
ENDROOT
BRANCH   2   4
HETATM    4  C2  UNL     1     -33.049   6.874   2.160  1.00 20.00     0.224 C 
BRANCH   4   5
HETATM    5  C3  UNL     1     -31.909   7.795   1.793  1.00 20.00     0.372 C 
HETATM    6  F6  UNL     1     -31.455   8.437   2.896  1.00 20.00    -0.213 F 
HETATM    7  F7  UNL     1     -32.338   8.745   0.927  1.00 20.00    -0.213 F 
ENDBRANCH   4   5
ENDBRANCH   2   4
TORSDOF 2
ENDMDL
MODEL 4
REMARK VINA RESULT:      -2.6      1.271      1.330
REMARK  2 active torsions:
REMARK  status: ('A' for Active; 'I' for Inactive)
REMARK    1  A    between atoms: C2_2  and  C3_3 
REMARK    2  A    between atoms: C2_2  and  N4_4 
ROOT
HETATM    1  C1  UNL     1     -32.506   7.323   1.997  1.00 20.00     0.332 C 
HETATM    2  N4  UNL     1     -33.331   6.654   2.498  1.00 20.00    -0.242 NA
HETATM    3  O5  UNL     1     -31.678   7.991   1.494  1.00 20.00    -0.260 OA
ENDROOT
BRANCH   2   4
HETATM    4  C2  UNL     1     -33.957   7.251   3.679  1.00 20.00     0.224 C 
BRANCH   4   5
HETATM    5  C3  UNL     1     -35.055   6.337   4.173  1.00 20.00     0.372 C 
HETATM    6  F6  UNL     1     -34.665   5.044   4.072  1.00 20.00    -0.213 F 
HETATM    7  F7  UNL     1     -36.162   6.481   3.405  1.00 20.00    -0.213 F 
ENDBRANCH   4   5
ENDBRANCH   2   4
TORSDOF 2
ENDMDL
MODEL 5
REMARK VINA RESULT:      -2.6      3.804      4.431
REMARK  2 active torsions:
REMARK  status: ('A' for Active; 'I' for Inactive)
REMARK    1  A    between atoms: C2_2  and  C3_3 
REMARK    2  A    between atoms: C2_2  and  N4_4 
ROOT
HETATM    1  C1  UNL     1     -32.463   6.990   1.794  1.00 20.00     0.332 C 
HETATM    2  N4  UNL     1     -32.068   8.077   2.001  1.00 20.00    -0.242 NA
HETATM    3  O5  UNL     1     -32.858   5.900   1.591  1.00 20.00    -0.260 OA
ENDROOT
BRANCH   2   4
HETATM    4  C2  UNL     1     -31.643   8.802   0.801  1.00 20.00     0.224 C 
BRANCH   4   5
HETATM    5  C3  UNL     1     -32.703   9.814   0.433  1.00 20.00     0.372 C 
HETATM    6  F6  UNL     1     -32.969   9.749  -0.894  1.00 20.00    -0.213 F 
HETATM    7  F7  UNL     1     -32.259  11.069   0.690  1.00 20.00    -0.213 F 
ENDBRANCH   4   5
ENDBRANCH   2   4
TORSDOF 2
ENDMDL
MODEL 6
REMARK VINA RESULT:      -2.5      1.129      1.602
REMARK  2 active torsions:
REMARK  status: ('A' for Active; 'I' for Inactive)
REMARK    1  A    between atoms: C2_2  and  C3_3 
REMARK    2  A    between atoms: C2_2  and  N4_4 
ROOT
HETATM    1  C1  UNL     1     -32.256   8.279   1.642  1.00 20.00     0.332 C 
HETATM    2  N4  UNL     1     -32.411   7.614   2.598  1.00 20.00    -0.242 NA
HETATM    3  O5  UNL     1     -32.097   8.948   0.688  1.00 20.00    -0.260 OA
ENDROOT
BRANCH   2   4
HETATM    4  C2  UNL     1     -33.535   6.679   2.505  1.00 20.00     0.224 C 
BRANCH   4   5
HETATM    5  C3  UNL     1     -34.288   6.678   3.814  1.00 20.00     0.372 C 
HETATM    6  F6  UNL     1     -35.609   6.475   3.592  1.00 20.00    -0.213 F 
HETATM    7  F7  UNL     1     -34.167   7.884   4.423  1.00 20.00    -0.213 F 
ENDBRANCH   4   5
ENDBRANCH   2   4
TORSDOF 2
ENDMDL
MODEL 7
REMARK VINA RESULT:      -2.5      1.419      1.481
REMARK  2 active torsions:
REMARK  status: ('A' for Active; 'I' for Inactive)
REMARK    1  A    between atoms: C2_2  and  C3_3 
REMARK    2  A    between atoms: C2_2  and  N4_4 
ROOT
HETATM    1  C1  UNL     1     -32.202   8.614   1.322  1.00 20.00     0.332 C 
HETATM    2  N4  UNL     1     -32.066   7.891   2.238  1.00 20.00    -0.242 NA
HETATM    3  O5  UNL     1     -32.336   9.340   0.406  1.00 20.00    -0.260 OA
ENDROOT
BRANCH   2   4
HETATM    4  C2  UNL     1     -33.124   6.887   2.376  1.00 20.00     0.224 C 
BRANCH   4   5
HETATM    5  C3  UNL     1     -34.066   7.311   3.480  1.00 20.00     0.372 C 
HETATM    6  F6  UNL     1     -33.365   7.826   4.519  1.00 20.00    -0.213 F 
HETATM    7  F7  UNL     1     -34.745   6.236   3.951  1.00 20.00    -0.213 F 
ENDBRANCH   4   5
ENDBRANCH   2   4
TORSDOF 2
ENDMDL
MODEL 8
REMARK VINA RESULT:      -2.5      2.658      3.030
REMARK  2 active torsions:
REMARK  status: ('A' for Active; 'I' for Inactive)
REMARK    1  A    between atoms: C2_2  and  C3_3 
REMARK    2  A    between atoms: C2_2  and  N4_4 
ROOT
HETATM    1  C1  UNL     1     -32.202   9.337   0.628  1.00 20.00     0.332 C 
HETATM    2  N4  UNL     1     -31.662   8.363   1.001  1.00 20.00    -0.242 NA
HETATM    3  O5  UNL     1     -32.739  10.313   0.252  1.00 20.00    -0.260 OA
ENDROOT
BRANCH   2   4
HETATM    4  C2  UNL     1     -32.290   7.734   2.166  1.00 20.00     0.224 C 
BRANCH   4   5
HETATM    5  C3  UNL     1     -32.935   6.436   1.740  1.00 20.00     0.372 C 
HETATM    6  F6  UNL     1     -33.644   5.909   2.767  1.00 20.00    -0.213 F 
HETATM    7  F7  UNL     1     -31.984   5.530   1.405  1.00 20.00    -0.213 F 
ENDBRANCH   4   5
ENDBRANCH   2   4
TORSDOF 2
ENDMDL
MODEL 9
REMARK VINA RESULT:      -2.4      2.944      3.222
REMARK  2 active torsions:
REMARK  status: ('A' for Active; 'I' for Inactive)
REMARK    1  A    between atoms: C2_2  and  C3_3 
REMARK    2  A    between atoms: C2_2  and  N4_4 
ROOT
HETATM    1  C1  UNL     1     -33.804   3.991   4.159  1.00 20.00     0.332 C 
HETATM    2  N4  UNL     1     -34.126   4.897   3.484  1.00 20.00    -0.242 NA
HETATM    3  O5  UNL     1     -33.481   3.082   4.832  1.00 20.00    -0.260 OA
ENDROOT
BRANCH   2   4
HETATM    4  C2  UNL     1     -34.930   5.908   4.175  1.00 20.00     0.224 C 
BRANCH   4   5
HETATM    5  C3  UNL     1     -34.414   7.281   3.814  1.00 20.00     0.372 C 
HETATM    6  F6  UNL     1     -33.350   7.176   2.981  1.00 20.00    -0.213 F 
HETATM    7  F7  UNL     1     -33.986   7.926   4.927  1.00 20.00    -0.213 F 
ENDBRANCH   4   5
ENDBRANCH   2   4
TORSDOF 2
ENDMDL
