MODEL 1
REMARK VINA RESULT:       1.2      0.000      0.000
REMARK  1 active torsions:
REMARK  status: ('A' for Active; 'I' for Inactive)
REMARK    1  A    between atoms: C4_4  and  C9_9 
ROOT
HETATM    1  C1  UNL     1     -32.881   5.210   1.867  1.00 20.00     0.032 C 
HETATM    2  C2  UNL     1     -33.134   7.373   3.098  1.00 20.00     0.043 C 
HETATM    3  C3  UNL     1     -31.888   5.911   0.953  1.00 20.00     0.169 C 
HETATM    4  C4  UNL     1     -33.887   6.208   2.444  1.00 20.00     0.008 C 
HETATM    5  C5  UNL     1     -32.081   7.995   2.162  1.00 20.00     0.054 C 
HETATM    6  C6  UNL     1     -31.171   8.927   2.976  1.00 20.00     0.045 C 
HETATM    7  C7  UNL     1     -32.720   8.815   1.032  1.00 20.00     0.045 C 
HETATM    8  O10 UNL     1     -31.222   6.976   1.627  1.00 20.00    -0.381 OA
ENDROOT
BRANCH   4   9
HETATM    9  C9  UNL     1     -34.819   5.527   3.446  1.00 20.00     0.082 C 
HETATM   10  C8  UNL     1     -35.236   6.481   4.553  1.00 20.00     0.027 C 
HETATM   11 CL11 UNL     1     -33.996   4.109   4.151  1.00 20.00    -0.125 Cl
ENDBRANCH   4   9
TORSDOF 1
ENDMDL
MODEL 2
REMARK VINA RESULT:       1.3      2.189      4.230
REMARK  1 active torsions:
REMARK  status: ('A' for Active; 'I' for Inactive)
REMARK    1  A    between atoms: C4_4  and  C9_9 
ROOT
HETATM    1  C1  UNL     1     -32.676   8.293   3.839  1.00 20.00     0.032 C 
HETATM    2  C2  UNL     1     -33.564   6.166   2.867  1.00 20.00     0.043 C 
HETATM    3  C3  UNL     1     -33.878   8.303   4.771  1.00 20.00     0.169 C 
HETATM    4  C4  UNL     1     -33.002   7.555   2.539  1.00 20.00     0.008 C 
HETATM    5  C5  UNL     1     -34.724   6.222   3.880  1.00 20.00     0.054 C 
HETATM    6  C6  UNL     1     -35.018   4.803   4.388  1.00 20.00     0.045 C 
HETATM    7  C7  UNL     1     -36.010   6.787   3.259  1.00 20.00     0.045 C 
HETATM    8  O10 UNL     1     -34.342   6.982   5.037  1.00 20.00    -0.381 OA
ENDROOT
BRANCH   4   9
HETATM    9  C9  UNL     1     -31.768   7.449   1.646  1.00 20.00     0.082 C 
HETATM   10  C8  UNL     1     -31.801   8.479   0.528  1.00 20.00     0.027 C 
HETATM   11 CL11 UNL     1     -31.680   5.808   0.950  1.00 20.00    -0.125 Cl
ENDBRANCH   4   9
TORSDOF 1
ENDMDL
MODEL 3
REMARK VINA RESULT:       1.9      2.542      4.066
REMARK  1 active torsions:
REMARK  status: ('A' for Active; 'I' for Inactive)
REMARK    1  A    between atoms: C4_4  and  C9_9 
ROOT
HETATM    1  C1  UNL     1     -31.881   7.014   1.065  1.00 20.00     0.032 C 
HETATM    2  C2  UNL     1     -33.579   8.368   2.307  1.00 20.00     0.043 C 
HETATM    3  C3  UNL     1     -32.129   5.892   2.062  1.00 20.00     0.169 C 
HETATM    4  C4  UNL     1     -32.172   8.377   1.697  1.00 20.00     0.008 C 
HETATM    5  C5  UNL     1     -33.808   7.167   3.244  1.00 20.00     0.054 C 
HETATM    6  C6  UNL     1     -35.307   7.055   3.562  1.00 20.00     0.045 C 
HETATM    7  C7  UNL     1     -33.046   7.309   4.569  1.00 20.00     0.045 C 
HETATM    8  O10 UNL     1     -33.455   5.942   2.583  1.00 20.00    -0.381 OA
ENDROOT
BRANCH   4   9
HETATM    9  C9  UNL     1     -32.028   9.498   0.669  1.00 20.00     0.082 C 
HETATM   10  C8  UNL     1     -32.852  10.715   1.056  1.00 20.00     0.027 C 
HETATM   11 CL11 UNL     1     -32.548   8.903  -0.932  1.00 20.00    -0.125 Cl
ENDBRANCH   4   9
TORSDOF 1
ENDMDL
MODEL 4
REMARK VINA RESULT:       1.9      1.357      2.199
REMARK  1 active torsions:
REMARK  status: ('A' for Active; 'I' for Inactive)
REMARK    1  A    between atoms: C4_4  and  C9_9 
ROOT
HETATM    1  C1  UNL     1     -33.446   7.527   4.243  1.00 20.00     0.032 C 
HETATM    2  C2  UNL     1     -33.305   6.974   1.808  1.00 20.00     0.043 C 
HETATM    3  C3  UNL     1     -32.368   8.576   4.009  1.00 20.00     0.169 C 
HETATM    4  C4  UNL     1     -33.327   6.391   3.225  1.00 20.00     0.008 C 
HETATM    5  C5  UNL     1     -32.255   8.090   1.645  1.00 20.00     0.054 C 
HETATM    6  C6  UNL     1     -32.503   8.825   0.319  1.00 20.00     0.045 C 
HETATM    7  C7  UNL     1     -30.821   7.542   1.629  1.00 20.00     0.045 C 
HETATM    8  O10 UNL     1     -32.410   9.078   2.676  1.00 20.00    -0.381 OA
ENDROOT
BRANCH   4   9
HETATM    9  C9  UNL     1     -34.470   5.391   3.388  1.00 20.00     0.082 C 
HETATM   10  C8  UNL     1     -35.595   5.965   4.234  1.00 20.00     0.027 C 
HETATM   11 CL11 UNL     1     -33.848   3.899   4.146  1.00 20.00    -0.125 Cl
ENDBRANCH   4   9
TORSDOF 1
ENDMDL
MODEL 5
REMARK VINA RESULT:       2.0      1.451      2.881
REMARK  1 active torsions:
REMARK  status: ('A' for Active; 'I' for Inactive)
REMARK    1  A    between atoms: C4_4  and  C9_9 
ROOT
HETATM    1  C1  UNL     1     -32.570   8.231   2.377  1.00 20.00     0.032 C 
HETATM    2  C2  UNL     1     -33.580   5.950   2.193  1.00 20.00     0.043 C 
HETATM    3  C3  UNL     1     -31.464   7.754   1.447  1.00 20.00     0.169 C 
HETATM    4  C4  UNL     1     -33.160   7.059   3.164  1.00 20.00     0.008 C 
HETATM    5  C5  UNL     1     -32.453   5.562   1.217  1.00 20.00     0.054 C 
HETATM    6  C6  UNL     1     -33.037   4.689   0.096  1.00 20.00     0.045 C 
HETATM    7  C7  UNL     1     -31.333   4.771   1.907  1.00 20.00     0.045 C 
HETATM    8  O10 UNL     1     -31.926   6.730   0.570  1.00 20.00    -0.381 OA
ENDROOT
BRANCH   4   9
HETATM    9  C9  UNL     1     -34.341   7.515   4.019  1.00 20.00     0.082 C 
HETATM   10  C8  UNL     1     -33.875   8.131   5.328  1.00 20.00     0.027 C 
HETATM   11 CL11 UNL     1     -35.403   6.120   4.354  1.00 20.00    -0.125 Cl
ENDBRANCH   4   9
TORSDOF 1
ENDMDL
MODEL 6
REMARK VINA RESULT:       2.4      2.621      4.269
REMARK  1 active torsions:
REMARK  status: ('A' for Active; 'I' for Inactive)
REMARK    1  A    between atoms: C4_4  and  C9_9 
ROOT
HETATM    1  C1  UNL     1     -33.170   8.029   2.845  1.00 20.00     0.032 C 
HETATM    2  C2  UNL     1     -31.895   6.891   1.018  1.00 20.00     0.043 C 
HETATM    3  C3  UNL     1     -33.838   6.692   3.134  1.00 20.00     0.169 C 
HETATM    4  C4  UNL     1     -32.743   8.117   1.379  1.00 20.00     0.008 C 
HETATM    5  C5  UNL     1     -32.578   5.566   1.406  1.00 20.00     0.054 C 
HETATM    6  C6  UNL     1     -31.556   4.424   1.305  1.00 20.00     0.045 C 
HETATM    7  C7  UNL     1     -33.763   5.232   0.489  1.00 20.00     0.045 C 
HETATM    8  O10 UNL     1     -32.993   5.600   2.781  1.00 20.00    -0.381 OA
ENDROOT
BRANCH   4   9
HETATM    9  C9  UNL     1     -31.977   9.411   1.110  1.00 20.00     0.082 C 
HETATM   10  C8  UNL     1     -32.911  10.533   0.690  1.00 20.00     0.027 C 
HETATM   11 CL11 UNL     1     -30.764   9.126  -0.168  1.00 20.00    -0.125 Cl
ENDBRANCH   4   9
TORSDOF 1
ENDMDL
MODEL 7
REMARK VINA RESULT:       2.7      1.839      3.179
REMARK  1 active torsions:
REMARK  status: ('A' for Active; 'I' for Inactive)
REMARK    1  A    between atoms: C4_4  and  C9_9 
ROOT
HETATM    1  C1  UNL     1     -33.755   6.014   2.753  1.00 20.00     0.032 C 
HETATM    2  C2  UNL     1     -32.294   7.076   1.022  1.00 20.00     0.043 C 
HETATM    3  C3  UNL     1     -33.679   7.318   3.535  1.00 20.00     0.169 C 
HETATM    4  C4  UNL     1     -32.508   5.828   1.886  1.00 20.00     0.008 C 
HETATM    5  C5  UNL     1     -32.309   8.376   1.849  1.00 20.00     0.054 C 
HETATM    6  C6  UNL     1     -32.402   9.577   0.896  1.00 20.00     0.045 C 
HETATM    7  C7  UNL     1     -31.043   8.538   2.702  1.00 20.00     0.045 C 
HETATM    8  O10 UNL     1     -33.486   8.434   2.669  1.00 20.00    -0.381 OA
ENDROOT
BRANCH   4   9
HETATM    9  C9  UNL     1     -32.628   4.576   1.019  1.00 20.00     0.082 C 
HETATM   10  C8  UNL     1     -31.324   4.272   0.299  1.00 20.00     0.027 C 
HETATM   11 CL11 UNL     1     -33.936   4.805  -0.173  1.00 20.00    -0.125 Cl
ENDBRANCH   4   9
TORSDOF 1
ENDMDL
MODEL 8
REMARK VINA RESULT:       2.9      2.001      3.854
REMARK  1 active torsions:
REMARK  status: ('A' for Active; 'I' for Inactive)
REMARK    1  A    between atoms: C4_4  and  C9_9 
ROOT
HETATM    1  C1  UNL     1     -32.441   7.406   2.540  1.00 20.00     0.032 C 
HETATM    2  C2  UNL     1     -33.972   5.435   2.711  1.00 20.00     0.043 C 
HETATM    3  C3  UNL     1     -33.347   8.124   3.530  1.00 20.00     0.169 C 
HETATM    4  C4  UNL     1     -33.227   6.362   1.744  1.00 20.00     0.008 C 
HETATM    5  C5  UNL     1     -34.809   6.211   3.746  1.00 20.00     0.054 C 
HETATM    6  C6  UNL     1     -35.264   5.247   4.851  1.00 20.00     0.045 C 
HETATM    7  C7  UNL     1     -36.057   6.851   3.123  1.00 20.00     0.045 C 
HETATM    8  O10 UNL     1     -34.002   7.203   4.400  1.00 20.00    -0.381 OA
ENDROOT
BRANCH   4   9
HETATM    9  C9  UNL     1     -32.301   5.565   0.826  1.00 20.00     0.082 C 
HETATM   10  C8  UNL     1     -33.066   4.509   0.046  1.00 20.00     0.027 C 
HETATM   11 CL11 UNL     1     -31.027   4.785   1.804  1.00 20.00    -0.125 Cl
ENDBRANCH   4   9
TORSDOF 1
ENDMDL
MODEL 9
REMARK VINA RESULT:       3.3      2.656      4.430
REMARK  1 active torsions:
REMARK  status: ('A' for Active; 'I' for Inactive)
REMARK    1  A    between atoms: C4_4  and  C9_9 
ROOT
HETATM    1  C1  UNL     1     -35.114   6.679   3.924  1.00 20.00     0.032 C 
HETATM    2  C2  UNL     1     -32.953   5.430   3.754  1.00 20.00     0.043 C 
HETATM    3  C3  UNL     1     -35.799   5.345   4.186  1.00 20.00     0.169 C 
HETATM    4  C4  UNL     1     -33.847   6.484   3.089  1.00 20.00     0.008 C 
HETATM    5  C5  UNL     1     -33.714   4.129   4.075  1.00 20.00     0.054 C 
HETATM    6  C6  UNL     1     -32.853   3.259   5.003  1.00 20.00     0.045 C 
HETATM    7  C7  UNL     1     -34.032   3.315   2.813  1.00 20.00     0.045 C 
HETATM    8  O10 UNL     1     -34.913   4.418   4.809  1.00 20.00    -0.381 OA
ENDROOT
BRANCH   4   9
HETATM    9  C9  UNL     1     -33.099   7.804   2.915  1.00 20.00     0.082 C 
HETATM   10  C8  UNL     1     -31.935   7.661   1.948  1.00 20.00     0.027 C 
HETATM   11 CL11 UNL     1     -32.498   8.358   4.502  1.00 20.00    -0.125 Cl
ENDBRANCH   4   9
TORSDOF 1
ENDMDL
