MODEL 1
REMARK VINA RESULT:       0.1      0.000      0.000
REMARK  1 active torsions:
REMARK  status: ('A' for Active; 'I' for Inactive)
REMARK    1  A    between atoms: C1_1  and  C7_7 
ROOT
HETATM    1  C2  UNL     1     -32.199   5.612   1.213  1.00 20.00     0.002 C 
HETATM    2  C3  UNL     1     -32.684   5.100   2.566  1.00 20.00     0.012 C 
HETATM    3  C4  UNL     1     -33.752   7.082   3.744  1.00 20.00     0.013 C 
HETATM    4  C5  UNL     1     -32.633   7.005   0.755  1.00 20.00     0.008 C 
HETATM    5  C6  UNL     1     -33.617   8.243   2.762  1.00 20.00     0.009 C 
HETATM    6  C7  UNL     1     -33.978   5.718   3.090  1.00 20.00     0.055 C 
HETATM    7  C8  UNL     1     -32.462   8.189   1.734  1.00 20.00    -0.048 C 
HETATM    8  C10 UNL     1     -32.549   9.491   0.899  1.00 20.00     0.015 C 
HETATM    9  C11 UNL     1     -31.089   8.180   2.425  1.00 20.00     0.015 C 
ENDROOT
BRANCH   6  10
HETATM   10  C1  UNL     1     -34.545   4.790   4.126  1.00 20.00     0.127 C 
HETATM   11  C9  UNL     1     -33.730   3.569   4.460  1.00 20.00     0.091 C 
HETATM   12  O12 UNL     1     -35.621   5.017   4.676  1.00 20.00    -0.298 OA
ENDBRANCH   6  10
TORSDOF 1
ENDMDL
MODEL 2
REMARK VINA RESULT:       0.7      0.892      2.190
REMARK  1 active torsions:
REMARK  status: ('A' for Active; 'I' for Inactive)
REMARK    1  A    between atoms: C1_1  and  C7_7 
ROOT
HETATM    1  C2  UNL     1     -33.490   8.311   3.940  1.00 20.00     0.002 C 
HETATM    2  C3  UNL     1     -34.295   7.015   3.925  1.00 20.00     0.012 C 
HETATM    3  C4  UNL     1     -33.221   5.522   2.170  1.00 20.00     0.013 C 
HETATM    4  C5  UNL     1     -32.170   8.366   3.170  1.00 20.00     0.008 C 
HETATM    5  C6  UNL     1     -32.057   6.339   1.617  1.00 20.00     0.009 C 
HETATM    6  C7  UNL     1     -33.501   5.738   3.658  1.00 20.00     0.055 C 
HETATM    7  C8  UNL     1     -32.152   7.881   1.702  1.00 20.00    -0.048 C 
HETATM    8  C10 UNL     1     -30.864   8.443   1.049  1.00 20.00     0.015 C 
HETATM    9  C11 UNL     1     -33.346   8.420   0.896  1.00 20.00     0.015 C 
ENDROOT
BRANCH   6  10
HETATM   10  C1  UNL     1     -34.315   4.578   4.156  1.00 20.00     0.127 C 
HETATM   11  C9  UNL     1     -33.609   3.252   4.261  1.00 20.00     0.091 C 
HETATM   12  O12 UNL     1     -35.498   4.705   4.464  1.00 20.00    -0.298 OA
ENDBRANCH   6  10
TORSDOF 1
ENDMDL
MODEL 3
REMARK VINA RESULT:       2.1      2.360      4.812
REMARK  1 active torsions:
REMARK  status: ('A' for Active; 'I' for Inactive)
REMARK    1  A    between atoms: C1_1  and  C7_7 
ROOT
HETATM    1  C2  UNL     1     -32.836   8.146   4.449  1.00 20.00     0.002 C 
HETATM    2  C3  UNL     1     -32.024   8.291   3.165  1.00 20.00     0.012 C 
HETATM    3  C4  UNL     1     -33.171   6.838   1.423  1.00 20.00     0.013 C 
HETATM    4  C5  UNL     1     -34.191   7.441   4.387  1.00 20.00     0.008 C 
HETATM    5  C6  UNL     1     -34.366   6.223   2.147  1.00 20.00     0.009 C 
HETATM    6  C7  UNL     1     -32.822   8.261   1.863  1.00 20.00     0.055 C 
HETATM    7  C8  UNL     1     -34.276   6.067   3.684  1.00 20.00    -0.048 C 
HETATM    8  C10 UNL     1     -35.597   5.398   4.140  1.00 20.00     0.015 C 
HETATM    9  C11 UNL     1     -33.126   5.132   4.092  1.00 20.00     0.015 C 
ENDROOT
BRANCH   6  10
HETATM   10  C1  UNL     1     -31.978   8.890   0.791  1.00 20.00     0.127 C 
HETATM   11  C9  UNL     1     -32.512  10.148   0.161  1.00 20.00     0.091 C 
HETATM   12  O12 UNL     1     -30.903   8.402   0.448  1.00 20.00    -0.298 OA
ENDBRANCH   6  10
TORSDOF 1
ENDMDL
MODEL 4
REMARK VINA RESULT:       2.6      1.235      2.364
REMARK  1 active torsions:
REMARK  status: ('A' for Active; 'I' for Inactive)
REMARK    1  A    between atoms: C1_1  and  C7_7 
ROOT
HETATM    1  C2  UNL     1     -31.978   8.459   3.779  1.00 20.00     0.002 C 
HETATM    2  C3  UNL     1     -33.219   7.592   3.978  1.00 20.00     0.012 C 
HETATM    3  C4  UNL     1     -33.694   6.491   1.738  1.00 20.00     0.013 C 
HETATM    4  C5  UNL     1     -31.182   8.316   2.482  1.00 20.00     0.008 C 
HETATM    5  C6  UNL     1     -32.596   7.001   0.808  1.00 20.00     0.009 C 
HETATM    6  C7  UNL     1     -33.255   6.286   3.189  1.00 20.00     0.055 C 
HETATM    7  C8  UNL     1     -31.945   8.366   1.139  1.00 20.00    -0.048 C 
HETATM    8  C10 UNL     1     -30.901   8.642   0.028  1.00 20.00     0.015 C 
HETATM    9  C11 UNL     1     -32.973   9.509   1.095  1.00 20.00     0.015 C 
ENDROOT
BRANCH   6  10
HETATM   10  C1  UNL     1     -34.245   5.373   3.853  1.00 20.00     0.127 C 
HETATM   11  C9  UNL     1     -35.567   5.979   4.244  1.00 20.00     0.091 C 
HETATM   12  O12 UNL     1     -33.990   4.189   4.066  1.00 20.00    -0.298 OA
ENDBRANCH   6  10
TORSDOF 1
ENDMDL
MODEL 5
REMARK VINA RESULT:       2.9      2.395      4.586
REMARK  1 active torsions:
REMARK  status: ('A' for Active; 'I' for Inactive)
REMARK    1  A    between atoms: C1_1  and  C7_7 
ROOT
HETATM    1  C2  UNL     1     -33.357   5.395   1.524  1.00 20.00     0.002 C 
HETATM    2  C3  UNL     1     -33.082   6.762   0.902  1.00 20.00     0.012 C 
HETATM    3  C4  UNL     1     -33.521   8.480   2.723  1.00 20.00     0.013 C 
HETATM    4  C5  UNL     1     -33.566   5.303   3.035  1.00 20.00     0.008 C 
HETATM    5  C6  UNL     1     -33.935   7.663   3.944  1.00 20.00     0.009 C 
HETATM    6  C7  UNL     1     -32.474   7.809   1.833  1.00 20.00     0.055 C 
HETATM    7  C8  UNL     1     -34.569   6.273   3.701  1.00 20.00    -0.048 C 
HETATM    8  C10 UNL     1     -34.914   5.692   5.096  1.00 20.00     0.015 C 
HETATM    9  C11 UNL     1     -35.886   6.381   2.913  1.00 20.00     0.015 C 
ENDROOT
BRANCH   6  10
HETATM   10  C1  UNL     1     -31.835   8.867   0.980  1.00 20.00     0.127 C 
HETATM   11  C9  UNL     1     -32.619  10.136   0.776  1.00 20.00     0.091 C 
HETATM   12  O12 UNL     1     -30.726   8.706   0.474  1.00 20.00    -0.298 OA
ENDBRANCH   6  10
TORSDOF 1
ENDMDL
