MODEL 1
REMARK VINA RESULT:       0.9      0.000      0.000
REMARK  3 active torsions:
REMARK  status: ('A' for Active; 'I' for Inactive)
REMARK    1  A    between atoms: C5_5  and  S11_11 
REMARK    2  A    between atoms: C8_8  and  C9_9 
REMARK    3  A    between atoms: C9_9  and  S11_11 
ROOT
HETATM    1  C1  UNL     1     -32.954   6.351   2.159  1.00 20.00     0.080 C 
HETATM    2  C2  UNL     1     -33.917   8.018   4.986  1.00 20.00     0.009 C 
HETATM    3  C3  UNL     1     -32.582   7.622   4.328  1.00 20.00     0.037 C 
HETATM    4  C4  UNL     1     -34.662   7.412   3.768  1.00 20.00     0.014 C 
HETATM    5  C5  UNL     1     -33.320   7.483   2.974  1.00 20.00     0.100 C 
HETATM    6  C6  UNL     1     -35.277   6.043   4.041  1.00 20.00     0.012 C 
HETATM    7  N10 UNL     1     -32.659   5.441   1.504  1.00 20.00    -0.196 NA
ENDROOT
BRANCH   5   8
HETATM    8  S11 UNL     1     -33.195   9.020   1.962  1.00 20.00    -0.143 SA
BRANCH   8   9
HETATM    9  C9  UNL     1     -31.726   8.573   1.014  1.00 20.00     0.075 C 
BRANCH   9  10
HETATM   10  C8  UNL     1     -31.682   9.348  -0.298  1.00 20.00     0.006 C 
HETATM   11  C7  UNL     1     -32.814  10.364  -0.372  1.00 20.00     0.006 C 
ENDBRANCH   9  10
ENDBRANCH   8   9
ENDBRANCH   5   8
TORSDOF 3
ENDMDL
MODEL 2
REMARK VINA RESULT:       1.4      1.812      2.797
REMARK  3 active torsions:
REMARK  status: ('A' for Active; 'I' for Inactive)
REMARK    1  A    between atoms: C5_5  and  S11_11 
REMARK    2  A    between atoms: C8_8  and  C9_9 
REMARK    3  A    between atoms: C9_9  and  S11_11 
ROOT
HETATM    1  C1  UNL     1     -33.832   7.156   3.309  1.00 20.00     0.080 C 
HETATM    2  C2  UNL     1     -32.911   4.815   0.991  1.00 20.00     0.009 C 
HETATM    3  C3  UNL     1     -33.717   6.128   0.988  1.00 20.00     0.037 C 
HETATM    4  C4  UNL     1     -32.608   5.041   2.495  1.00 20.00     0.014 C 
HETATM    5  C5  UNL     1     -33.007   6.538   2.300  1.00 20.00     0.100 C 
HETATM    6  C6  UNL     1     -33.449   4.177   3.429  1.00 20.00     0.012 C 
HETATM    7  N10 UNL     1     -34.496   7.653   4.119  1.00 20.00    -0.196 NA
ENDROOT
BRANCH   5   8
HETATM    8  S11 UNL     1     -31.540   7.609   1.983  1.00 20.00    -0.143 SA
BRANCH   8   9
HETATM    9  C9  UNL     1     -32.426   9.110   1.514  1.00 20.00     0.075 C 
BRANCH   9  10
HETATM   10  C8  UNL     1     -32.100   9.494   0.075  1.00 20.00     0.006 C 
HETATM   11  C7  UNL     1     -33.013  10.611  -0.414  1.00 20.00     0.006 C 
ENDBRANCH   9  10
ENDBRANCH   8   9
ENDBRANCH   5   8
TORSDOF 3
ENDMDL
MODEL 3
REMARK VINA RESULT:       1.4      1.640      1.704
REMARK  3 active torsions:
REMARK  status: ('A' for Active; 'I' for Inactive)
REMARK    1  A    between atoms: C5_5  and  S11_11 
REMARK    2  A    between atoms: C8_8  and  C9_9 
REMARK    3  A    between atoms: C9_9  and  S11_11 
ROOT
HETATM    1  C1  UNL     1     -33.391   4.688   3.659  1.00 20.00     0.080 C 
HETATM    2  C2  UNL     1     -34.268   7.985   3.893  1.00 20.00     0.009 C 
HETATM    3  C3  UNL     1     -33.028   7.136   4.233  1.00 20.00     0.037 C 
HETATM    4  C4  UNL     1     -34.938   6.716   3.306  1.00 20.00     0.014 C 
HETATM    5  C5  UNL     1     -33.523   6.061   3.237  1.00 20.00     0.100 C 
HETATM    6  C6  UNL     1     -35.987   6.094   4.223  1.00 20.00     0.012 C 
HETATM    7  N10 UNL     1     -33.284   3.584   3.999  1.00 20.00    -0.196 NA
ENDROOT
BRANCH   5   8
HETATM    8  S11 UNL     1     -32.751   6.256   1.574  1.00 20.00    -0.143 SA
BRANCH   8   9
HETATM    9  C9  UNL     1     -31.995   7.874   1.841  1.00 20.00     0.075 C 
BRANCH   9  10
HETATM   10  C8  UNL     1     -31.796   8.595   0.513  1.00 20.00     0.006 C 
HETATM   11  C7  UNL     1     -32.551   9.918   0.489  1.00 20.00     0.006 C 
ENDBRANCH   9  10
ENDBRANCH   8   9
ENDBRANCH   5   8
TORSDOF 3
ENDMDL
MODEL 4
REMARK VINA RESULT:       1.7      2.305      4.793
REMARK  3 active torsions:
REMARK  status: ('A' for Active; 'I' for Inactive)
REMARK    1  A    between atoms: C5_5  and  S11_11 
REMARK    2  A    between atoms: C8_8  and  C9_9 
REMARK    3  A    between atoms: C9_9  and  S11_11 
ROOT
HETATM    1  C1  UNL     1     -33.262   7.926   3.429  1.00 20.00     0.080 C 
HETATM    2  C2  UNL     1     -31.205   8.285   0.720  1.00 20.00     0.009 C 
HETATM    3  C3  UNL     1     -31.072   7.738   2.154  1.00 20.00     0.037 C 
HETATM    4  C4  UNL     1     -32.712   8.531   0.986  1.00 20.00     0.014 C 
HETATM    5  C5  UNL     1     -32.607   7.553   2.199  1.00 20.00     0.100 C 
HETATM    6  C6  UNL     1     -33.059   9.992   1.255  1.00 20.00     0.012 C 
HETATM    7  N10 UNL     1     -33.787   8.226   4.418  1.00 20.00    -0.196 NA
ENDROOT
BRANCH   5   8
HETATM    8  S11 UNL     1     -33.107   5.836   1.747  1.00 20.00    -0.143 SA
BRANCH   8   9
HETATM    9  C9  UNL     1     -33.738   5.330   3.361  1.00 20.00     0.075 C 
BRANCH   9  10
HETATM   10  C8  UNL     1     -33.803   3.810   3.455  1.00 20.00     0.006 C 
HETATM   11  C7  UNL     1     -33.293   3.323   4.805  1.00 20.00     0.006 C 
ENDBRANCH   9  10
ENDBRANCH   8   9
ENDBRANCH   5   8
TORSDOF 3
ENDMDL
MODEL 5
REMARK VINA RESULT:       1.7      2.023      4.704
REMARK  3 active torsions:
REMARK  status: ('A' for Active; 'I' for Inactive)
REMARK    1  A    between atoms: C5_5  and  S11_11 
REMARK    2  A    between atoms: C8_8  and  C9_9 
REMARK    3  A    between atoms: C9_9  and  S11_11 
ROOT
HETATM    1  C1  UNL     1     -32.481   8.283   3.622  1.00 20.00     0.080 C 
HETATM    2  C2  UNL     1     -31.615   8.224   0.313  1.00 20.00     0.009 C 
HETATM    3  C3  UNL     1     -31.048   7.644   1.623  1.00 20.00     0.037 C 
HETATM    4  C4  UNL     1     -32.816   8.785   1.118  1.00 20.00     0.014 C 
HETATM    5  C5  UNL     1     -32.448   7.793   2.265  1.00 20.00     0.100 C 
HETATM    6  C6  UNL     1     -32.727  10.283   1.391  1.00 20.00     0.012 C 
HETATM    7  N10 UNL     1     -32.507   8.678   4.712  1.00 20.00    -0.196 NA
ENDROOT
BRANCH   5   8
HETATM    8  S11 UNL     1     -33.420   6.230   2.167  1.00 20.00    -0.143 SA
BRANCH   8   9
HETATM    9  C9  UNL     1     -34.482   6.508   3.599  1.00 20.00     0.075 C 
BRANCH   9  10
HETATM   10  C8  UNL     1     -34.981   5.181   4.159  1.00 20.00     0.006 C 
HETATM   11  C7  UNL     1     -33.914   4.100   4.040  1.00 20.00     0.006 C 
ENDBRANCH   9  10
ENDBRANCH   8   9
ENDBRANCH   5   8
TORSDOF 3
ENDMDL
MODEL 6
REMARK VINA RESULT:       2.0      2.642      4.798
REMARK  3 active torsions:
REMARK  status: ('A' for Active; 'I' for Inactive)
REMARK    1  A    between atoms: C5_5  and  S11_11 
REMARK    2  A    between atoms: C8_8  and  C9_9 
REMARK    3  A    between atoms: C9_9  and  S11_11 
ROOT
HETATM    1  C1  UNL     1     -33.375   5.722   2.083  1.00 20.00     0.080 C 
HETATM    2  C2  UNL     1     -34.504   8.137   4.226  1.00 20.00     0.009 C 
HETATM    3  C3  UNL     1     -35.105   7.288   3.089  1.00 20.00     0.037 C 
HETATM    4  C4  UNL     1     -33.170   7.367   4.054  1.00 20.00     0.014 C 
HETATM    5  C5  UNL     1     -33.961   6.264   3.284  1.00 20.00     0.100 C 
HETATM    6  C6  UNL     1     -32.098   8.153   3.306  1.00 20.00     0.012 C 
HETATM    7  N10 UNL     1     -32.904   5.287   1.117  1.00 20.00    -0.196 NA
ENDROOT
BRANCH   5   8
HETATM    8  S11 UNL     1     -34.463   4.875   4.389  1.00 20.00    -0.143 SA
BRANCH   8   9
HETATM    9  C9  UNL     1     -33.478   3.575   3.614  1.00 20.00     0.075 C 
BRANCH   9  10
HETATM   10  C8  UNL     1     -33.076   2.525   4.644  1.00 20.00     0.006 C 
HETATM   11  C7  UNL     1     -32.658   3.177   5.955  1.00 20.00     0.006 C 
ENDBRANCH   9  10
ENDBRANCH   8   9
ENDBRANCH   5   8
TORSDOF 3
ENDMDL
MODEL 7
REMARK VINA RESULT:       2.0      2.388      4.950
REMARK  3 active torsions:
REMARK  status: ('A' for Active; 'I' for Inactive)
REMARK    1  A    between atoms: C5_5  and  S11_11 
REMARK    2  A    between atoms: C8_8  and  C9_9 
REMARK    3  A    between atoms: C9_9  and  S11_11 
ROOT
HETATM    1  C1  UNL     1     -33.055   7.649   4.138  1.00 20.00     0.080 C 
HETATM    2  C2  UNL     1     -32.681   5.983   1.174  1.00 20.00     0.009 C 
HETATM    3  C3  UNL     1     -32.441   5.672   2.664  1.00 20.00     0.037 C 
HETATM    4  C4  UNL     1     -33.257   7.362   1.586  1.00 20.00     0.014 C 
HETATM    5  C5  UNL     1     -33.432   6.802   3.033  1.00 20.00     0.100 C 
HETATM    6  C6  UNL     1     -32.293   8.523   1.364  1.00 20.00     0.012 C 
HETATM    7  N10 UNL     1     -32.751   8.330   5.026  1.00 20.00    -0.196 NA
ENDROOT
BRANCH   5   8
HETATM    8  S11 UNL     1     -35.134   6.156   3.324  1.00 20.00    -0.143 SA
BRANCH   8   9
HETATM    9  C9  UNL     1     -34.723   4.933   4.586  1.00 20.00     0.075 C 
BRANCH   9  10
HETATM   10  C8  UNL     1     -33.997   3.746   3.963  1.00 20.00     0.006 C 
HETATM   11  C7  UNL     1     -33.167   3.005   5.003  1.00 20.00     0.006 C 
ENDBRANCH   9  10
ENDBRANCH   8   9
ENDBRANCH   5   8
TORSDOF 3
ENDMDL
MODEL 8
REMARK VINA RESULT:       2.1      2.531      4.727
REMARK  3 active torsions:
REMARK  status: ('A' for Active; 'I' for Inactive)
REMARK    1  A    between atoms: C5_5  and  S11_11 
REMARK    2  A    between atoms: C8_8  and  C9_9 
REMARK    3  A    between atoms: C9_9  and  S11_11 
ROOT
HETATM    1  C1  UNL     1     -32.632   7.431   2.166  1.00 20.00     0.080 C 
HETATM    2  C2  UNL     1     -35.337   6.645   4.107  1.00 20.00     0.009 C 
HETATM    3  C3  UNL     1     -35.063   6.833   2.602  1.00 20.00     0.037 C 
HETATM    4  C4  UNL     1     -33.828   6.878   4.379  1.00 20.00     0.014 C 
HETATM    5  C5  UNL     1     -33.560   6.580   2.870  1.00 20.00     0.100 C 
HETATM    6  C6  UNL     1     -33.508   8.269   4.917  1.00 20.00     0.012 C 
HETATM    7  N10 UNL     1     -31.886   8.116   1.600  1.00 20.00    -0.196 NA
ENDROOT
BRANCH   5   8
HETATM    8  S11 UNL     1     -33.097   4.818   2.585  1.00 20.00    -0.143 SA
BRANCH   8   9
HETATM    9  C9  UNL     1     -33.970   4.102   3.993  1.00 20.00     0.075 C 
BRANCH   9  10
HETATM   10  C8  UNL     1     -33.234   2.870   4.507  1.00 20.00     0.006 C 
HETATM   11  C7  UNL     1     -32.654   3.117   5.893  1.00 20.00     0.006 C 
ENDBRANCH   9  10
ENDBRANCH   8   9
ENDBRANCH   5   8
TORSDOF 3
ENDMDL
MODEL 9
REMARK VINA RESULT:       2.3      1.898      4.138
REMARK  3 active torsions:
REMARK  status: ('A' for Active; 'I' for Inactive)
REMARK    1  A    between atoms: C5_5  and  S11_11 
REMARK    2  A    between atoms: C8_8  and  C9_9 
REMARK    3  A    between atoms: C9_9  and  S11_11 
ROOT
HETATM    1  C1  UNL     1     -32.424   8.855   0.816  1.00 20.00     0.080 C 
HETATM    2  C2  UNL     1     -31.860   5.581   1.627  1.00 20.00     0.009 C 
HETATM    3  C3  UNL     1     -30.994   6.830   1.373  1.00 20.00     0.037 C 
HETATM    4  C4  UNL     1     -33.125   6.458   1.447  1.00 20.00     0.014 C 
HETATM    5  C5  UNL     1     -32.227   7.714   1.676  1.00 20.00     0.100 C 
HETATM    6  C6  UNL     1     -33.805   6.285   0.092  1.00 20.00     0.012 C 
HETATM    7  N10 UNL     1     -32.582   9.772   0.124  1.00 20.00    -0.196 NA
ENDROOT
BRANCH   5   8
HETATM    8  S11 UNL     1     -32.257   8.273   3.433  1.00 20.00    -0.143 SA
BRANCH   8   9
HETATM    9  C9  UNL     1     -34.045   8.235   3.675  1.00 20.00     0.075 C 
BRANCH   9  10
HETATM   10  C8  UNL     1     -34.429   7.121   4.643  1.00 20.00     0.006 C 
HETATM   11  C7  UNL     1     -35.355   6.112   3.977  1.00 20.00     0.006 C 
ENDBRANCH   9  10
ENDBRANCH   8   9
ENDBRANCH   5   8
TORSDOF 3
ENDMDL
