MODEL 1
REMARK VINA RESULT:      -0.8      0.000      0.000
REMARK  3 active torsions:
REMARK  status: ('A' for Active; 'I' for Inactive)
REMARK    1  A    between atoms: C1_1  and  C7_7 
REMARK    2  A    between atoms: C8_8  and  C11_11 
REMARK    3  A    between atoms: C11_11  and  C12_12 
ROOT
HETATM    1  C2  UNL     1     -34.638   7.191   4.327  1.00 20.00     0.001 C 
HETATM    2  C3  UNL     1     -33.340   7.647   3.668  1.00 20.00     0.012 C 
HETATM    3  C4  UNL     1     -33.273   5.986   1.652  1.00 20.00     0.012 C 
HETATM    4  C5  UNL     1     -35.258   5.905   3.789  1.00 20.00     0.005 C 
HETATM    5  C6  UNL     1     -33.086   4.927   2.737  1.00 20.00     0.005 C 
HETATM    6  C7  UNL     1     -33.275   7.445   2.150  1.00 20.00     0.055 C 
HETATM    7  C8  UNL     1     -34.316   4.701   3.639  1.00 20.00    -0.014 C 
ENDROOT
BRANCH   6   8
HETATM    8  C1  UNL     1     -32.030   8.119   1.649  1.00 20.00     0.127 C 
HETATM    9  C9  UNL     1     -32.219   9.340   0.790  1.00 20.00     0.091 C 
HETATM   10  O13 UNL     1     -30.909   7.695   1.928  1.00 20.00    -0.298 OA
ENDBRANCH   6   8
BRANCH   7  11
HETATM   11  C11 UNL     1     -33.879   4.155   5.001  1.00 20.00     0.004 C 
BRANCH  11  12
HETATM   12  C12 UNL     1     -32.769   3.125   4.846  1.00 20.00    -0.004 C 
HETATM   13  C10 UNL     1     -33.341   1.746   4.559  1.00 20.00     0.005 C 
ENDBRANCH  11  12
ENDBRANCH   7  11
TORSDOF 3
ENDMDL
MODEL 2
REMARK VINA RESULT:      -0.4      1.919      5.343
REMARK  3 active torsions:
REMARK  status: ('A' for Active; 'I' for Inactive)
REMARK    1  A    between atoms: C1_1  and  C7_7 
REMARK    2  A    between atoms: C8_8  and  C11_11 
REMARK    3  A    between atoms: C11_11  and  C12_12 
ROOT
HETATM    1  C2  UNL     1     -32.531   5.321   1.261  1.00 20.00     0.001 C 
HETATM    2  C3  UNL     1     -32.709   4.728   2.655  1.00 20.00     0.012 C 
HETATM    3  C4  UNL     1     -34.618   6.275   3.544  1.00 20.00     0.012 C 
HETATM    4  C5  UNL     1     -33.271   6.625   0.979  1.00 20.00     0.005 C 
HETATM    5  C6  UNL     1     -33.553   7.368   3.458  1.00 20.00     0.005 C 
HETATM    6  C7  UNL     1     -34.121   4.848   3.239  1.00 20.00     0.055 C 
HETATM    7  C8  UNL     1     -33.120   7.739   2.025  1.00 20.00    -0.014 C 
ENDROOT
BRANCH   6   8
HETATM    8  C1  UNL     1     -34.162   4.050   4.511  1.00 20.00     0.127 C 
HETATM    9  C9  UNL     1     -33.056   3.050   4.719  1.00 20.00     0.091 C 
HETATM   10  O13 UNL     1     -35.055   4.206   5.342  1.00 20.00    -0.298 OA
ENDBRANCH   6   8
BRANCH   7  11
HETATM   11  C11 UNL     1     -31.701   8.314   2.035  1.00 20.00     0.004 C 
BRANCH  11  12
HETATM   12  C12 UNL     1     -31.380   8.997   0.713  1.00 20.00    -0.004 C 
HETATM   13  C10 UNL     1     -32.438  10.030   0.361  1.00 20.00     0.005 C 
ENDBRANCH  11  12
ENDBRANCH   7  11
TORSDOF 3
ENDMDL
MODEL 3
REMARK VINA RESULT:      -0.0      1.919      5.311
REMARK  3 active torsions:
REMARK  status: ('A' for Active; 'I' for Inactive)
REMARK    1  A    between atoms: C1_1  and  C7_7 
REMARK    2  A    between atoms: C8_8  and  C11_11 
REMARK    3  A    between atoms: C11_11  and  C12_12 
ROOT
HETATM    1  C2  UNL     1     -33.289   8.260   3.568  1.00 20.00     0.001 C 
HETATM    2  C3  UNL     1     -34.139   7.002   3.713  1.00 20.00     0.012 C 
HETATM    3  C4  UNL     1     -32.498   5.250   2.681  1.00 20.00     0.012 C 
HETATM    4  C5  UNL     1     -32.015   8.127   2.740  1.00 20.00     0.005 C 
HETATM    5  C6  UNL     1     -32.739   6.025   1.385  1.00 20.00     0.005 C 
HETATM    6  C7  UNL     1     -33.351   5.699   3.884  1.00 20.00     0.055 C 
HETATM    7  C8  UNL     1     -32.157   7.452   1.367  1.00 20.00    -0.014 C 
ENDROOT
BRANCH   6   8
HETATM    8  C1  UNL     1     -34.331   4.606   4.205  1.00 20.00     0.127 C 
HETATM    9  C9  UNL     1     -33.775   3.214   4.331  1.00 20.00     0.091 C 
HETATM   10  O13 UNL     1     -35.529   4.839   4.358  1.00 20.00    -0.298 OA
ENDBRANCH   6   8
BRANCH   7  11
HETATM   11  C11 UNL     1     -32.940   8.330   0.387  1.00 20.00     0.004 C 
BRANCH  11  12
HETATM   12  C12 UNL     1     -32.137   9.562  -0.004  1.00 20.00    -0.004 C 
HETATM   13  C10 UNL     1     -32.830  10.834   0.456  1.00 20.00     0.005 C 
ENDBRANCH  11  12
ENDBRANCH   7  11
TORSDOF 3
ENDMDL
MODEL 4
REMARK VINA RESULT:       0.7      1.486      2.724
REMARK  3 active torsions:
REMARK  status: ('A' for Active; 'I' for Inactive)
REMARK    1  A    between atoms: C1_1  and  C7_7 
REMARK    2  A    between atoms: C8_8  and  C11_11 
REMARK    3  A    between atoms: C11_11  and  C12_12 
ROOT
HETATM    1  C2  UNL     1     -32.946   5.765   1.035  1.00 20.00     0.001 C 
HETATM    2  C3  UNL     1     -33.191   7.176   0.510  1.00 20.00     0.012 C 
HETATM    3  C4  UNL     1     -32.367   8.554   2.571  1.00 20.00     0.012 C 
HETATM    4  C5  UNL     1     -32.576   5.645   2.510  1.00 20.00     0.005 C 
HETATM    5  C6  UNL     1     -33.572   7.926   3.271  1.00 20.00     0.005 C 
HETATM    6  C7  UNL     1     -32.249   8.251   1.064  1.00 20.00     0.055 C 
HETATM    7  C8  UNL     1     -33.465   6.406   3.504  1.00 20.00    -0.014 C 
ENDROOT
BRANCH   6   8
HETATM    8  C1  UNL     1     -32.502   9.521   0.304  1.00 20.00     0.127 C 
HETATM    9  C9  UNL     1     -32.543  10.794   1.106  1.00 20.00     0.091 C 
HETATM   10  O13 UNL     1     -32.667   9.522  -0.915  1.00 20.00    -0.298 OA
ENDBRANCH   6   8
BRANCH   7  11
HETATM   11  C11 UNL     1     -34.862   5.787   3.599  1.00 20.00     0.004 C 
BRANCH  11  12
HETATM   12  C12 UNL     1     -34.902   4.685   4.648  1.00 20.00    -0.004 C 
HETATM   13  C10 UNL     1     -33.824   3.645   4.388  1.00 20.00     0.005 C 
ENDBRANCH  11  12
ENDBRANCH   7  11
TORSDOF 3
ENDMDL
MODEL 5
REMARK VINA RESULT:       1.3      2.106      5.248
REMARK  3 active torsions:
REMARK  status: ('A' for Active; 'I' for Inactive)
REMARK    1  A    between atoms: C1_1  and  C7_7 
REMARK    2  A    between atoms: C8_8  and  C11_11 
REMARK    3  A    between atoms: C11_11  and  C12_12 
ROOT
HETATM    1  C2  UNL     1     -32.357   5.176   1.421  1.00 20.00     0.001 C 
HETATM    2  C3  UNL     1     -32.262   4.393   2.728  1.00 20.00     0.012 C 
HETATM    3  C4  UNL     1     -34.462   5.206   3.880  1.00 20.00     0.012 C 
HETATM    4  C5  UNL     1     -33.452   6.236   1.343  1.00 20.00     0.005 C 
HETATM    5  C6  UNL     1     -33.757   6.562   3.908  1.00 20.00     0.005 C 
HETATM    6  C7  UNL     1     -33.606   4.030   3.369  1.00 20.00     0.055 C 
HETATM    7  C8  UNL     1     -33.547   7.212   2.525  1.00 20.00    -0.014 C 
ENDROOT
BRANCH   6   8
HETATM    8  C1  UNL     1     -33.331   3.107   4.522  1.00 20.00     0.127 C 
HETATM    9  C9  UNL     1     -32.621   3.700   5.709  1.00 20.00     0.091 C 
HETATM   10  O13 UNL     1     -33.671   1.926   4.497  1.00 20.00    -0.298 OA
ENDBRANCH   6   8
BRANCH   7  11
HETATM   11  C11 UNL     1     -32.350   8.165   2.566  1.00 20.00     0.004 C 
BRANCH  11  12
HETATM   12  C12 UNL     1     -31.817   8.433   1.165  1.00 20.00    -0.004 C 
HETATM   13  C10 UNL     1     -32.435   9.691   0.578  1.00 20.00     0.005 C 
ENDBRANCH  11  12
ENDBRANCH   7  11
TORSDOF 3
ENDMDL
MODEL 6
REMARK VINA RESULT:       1.9      1.996      3.342
REMARK  3 active torsions:
REMARK  status: ('A' for Active; 'I' for Inactive)
REMARK    1  A    between atoms: C1_1  and  C7_7 
REMARK    2  A    between atoms: C8_8  and  C11_11 
REMARK    3  A    between atoms: C11_11  and  C12_12 
ROOT
HETATM    1  C2  UNL     1     -32.831   5.667   0.714  1.00 20.00     0.001 C 
HETATM    2  C3  UNL     1     -33.178   7.108   0.350  1.00 20.00     0.012 C 
HETATM    3  C4  UNL     1     -32.076   8.341   2.373  1.00 20.00     0.012 C 
HETATM    4  C5  UNL     1     -32.240   5.441   2.102  1.00 20.00     0.005 C 
HETATM    5  C6  UNL     1     -33.150   7.624   3.190  1.00 20.00     0.005 C 
HETATM    6  C7  UNL     1     -32.183   8.163   0.846  1.00 20.00     0.055 C 
HETATM    7  C8  UNL     1     -32.982   6.093   3.278  1.00 20.00    -0.014 C 
ENDROOT
BRANCH   6   8
HETATM    8  C1  UNL     1     -32.570   9.481   0.240  1.00 20.00     0.127 C 
HETATM    9  C9  UNL     1     -32.590  10.671   1.162  1.00 20.00     0.091 C 
HETATM   10  O13 UNL     1     -32.857   9.585  -0.952  1.00 20.00    -0.298 OA
ENDBRANCH   6   8
BRANCH   7  11
HETATM   11  C11 UNL     1     -34.338   5.427   3.527  1.00 20.00     0.004 C 
BRANCH  11  12
HETATM   12  C12 UNL     1     -35.343   6.426   4.082  1.00 20.00    -0.004 C 
HETATM   13  C10 UNL     1     -36.402   6.766   3.045  1.00 20.00     0.005 C 
ENDBRANCH  11  12
ENDBRANCH   7  11
TORSDOF 3
ENDMDL
