MODEL 1
REMARK VINA RESULT:      -2.4      0.000      0.000
REMARK  3 active torsions:
REMARK  status: ('A' for Active; 'I' for Inactive)
REMARK    1  A    between atoms: C4_4  and  C5_5 
REMARK    2  A    between atoms: C4_4  and  O7_7 
REMARK    3  A    between atoms: C5_5  and  C6_6 
ROOT
HETATM    1  C1  UNL     1     -32.763   5.787   1.553  1.00 20.00     0.014 C 
HETATM    2  C5  UNL     1     -33.241   7.069   2.202  1.00 20.00     0.023 C 
ENDROOT
BRANCH   2   3
HETATM    3  C4  UNL     1     -32.156   8.155   2.104  1.00 20.00     0.172 C 
BRANCH   3   4
HETATM    4  O7  UNL     1     -31.948   8.495   0.737  1.00 20.00    -0.396 OA
HETATM    5  C3  UNL     1     -32.454   9.790   0.442  1.00 20.00     0.201 C 
ENDBRANCH   3   4
ENDBRANCH   2   3
BRANCH   2   6
HETATM    6  C6  UNL     1     -33.710   6.883   3.666  1.00 20.00     0.084 C 
HETATM    7  C2  UNL     1     -33.560   8.139   4.520  1.00 20.00     0.027 C 
HETATM    8 CL8  UNL     1     -35.401   6.301   3.770  1.00 20.00    -0.125 Cl
ENDBRANCH   2   6
TORSDOF 3
ENDMDL
MODEL 2
REMARK VINA RESULT:      -2.3      1.255      1.263
REMARK  3 active torsions:
REMARK  status: ('A' for Active; 'I' for Inactive)
REMARK    1  A    between atoms: C4_4  and  C5_5 
REMARK    2  A    between atoms: C4_4  and  O7_7 
REMARK    3  A    between atoms: C5_5  and  C6_6 
ROOT
HETATM    1  C1  UNL     1     -32.457   5.534   1.425  1.00 20.00     0.014 C 
HETATM    2  C5  UNL     1     -33.245   6.609   2.146  1.00 20.00     0.023 C 
ENDROOT
BRANCH   2   3
HETATM    3  C4  UNL     1     -32.403   7.888   2.286  1.00 20.00     0.172 C 
BRANCH   3   4
HETATM    4  O7  UNL     1     -31.866   8.244   1.016  1.00 20.00    -0.396 OA
HETATM    5  C3  UNL     1     -32.357   9.505   0.581  1.00 20.00     0.201 C 
ENDBRANCH   3   4
ENDBRANCH   2   3
BRANCH   2   6
HETATM    6  C6  UNL     1     -33.797   6.154   3.519  1.00 20.00     0.084 C 
HETATM    7  C2  UNL     1     -35.185   6.705   3.833  1.00 20.00     0.027 C 
HETATM    8 CL8  UNL     1     -33.825   4.369   3.684  1.00 20.00    -0.125 Cl
ENDBRANCH   2   6
TORSDOF 3
ENDMDL
MODEL 3
REMARK VINA RESULT:      -2.1      1.242      1.418
REMARK  3 active torsions:
REMARK  status: ('A' for Active; 'I' for Inactive)
REMARK    1  A    between atoms: C4_4  and  C5_5 
REMARK    2  A    between atoms: C4_4  and  O7_7 
REMARK    3  A    between atoms: C5_5  and  C6_6 
ROOT
HETATM    1  C1  UNL     1     -32.849   5.809   1.874  1.00 20.00     0.014 C 
HETATM    2  C5  UNL     1     -33.258   7.248   2.111  1.00 20.00     0.023 C 
ENDROOT
BRANCH   2   3
HETATM    3  C4  UNL     1     -32.028   8.170   2.056  1.00 20.00     0.172 C 
BRANCH   3   4
HETATM    4  O7  UNL     1     -31.825   8.611   0.718  1.00 20.00    -0.396 OA
HETATM    5  C3  UNL     1     -32.477   9.851   0.475  1.00 20.00     0.201 C 
ENDBRANCH   3   4
ENDBRANCH   2   3
BRANCH   2   6
HETATM    6  C6  UNL     1     -34.050   7.456   3.426  1.00 20.00     0.084 C 
HETATM    7  C2  UNL     1     -34.801   6.212   3.890  1.00 20.00     0.027 C 
HETATM    8 CL8  UNL     1     -33.011   8.046   4.761  1.00 20.00    -0.125 Cl
ENDBRANCH   2   6
TORSDOF 3
ENDMDL
MODEL 4
REMARK VINA RESULT:      -1.8      2.968      4.549
REMARK  3 active torsions:
REMARK  status: ('A' for Active; 'I' for Inactive)
REMARK    1  A    between atoms: C4_4  and  C5_5 
REMARK    2  A    between atoms: C4_4  and  O7_7 
REMARK    3  A    between atoms: C5_5  and  C6_6 
ROOT
HETATM    1  C1  UNL     1     -34.246   7.551   4.157  1.00 20.00     0.014 C 
HETATM    2  C5  UNL     1     -34.223   6.336   3.252  1.00 20.00     0.023 C 
ENDROOT
BRANCH   2   3
HETATM    3  C4  UNL     1     -34.461   5.055   4.069  1.00 20.00     0.172 C 
BRANCH   3   4
HETATM    4  O7  UNL     1     -33.479   4.083   3.724  1.00 20.00    -0.396 OA
HETATM    5  C3  UNL     1     -33.371   3.078   4.723  1.00 20.00     0.201 C 
ENDBRANCH   3   4
ENDBRANCH   2   3
BRANCH   2   6
HETATM    6  C6  UNL     1     -32.933   6.223   2.404  1.00 20.00     0.084 C 
HETATM    7  C2  UNL     1     -33.143   5.530   1.061  1.00 20.00     0.027 C 
HETATM    8 CL8  UNL     1     -32.157   7.814   2.127  1.00 20.00    -0.125 Cl
ENDBRANCH   2   6
TORSDOF 3
ENDMDL
MODEL 5
REMARK VINA RESULT:      -1.8      3.128      4.337
REMARK  3 active torsions:
REMARK  status: ('A' for Active; 'I' for Inactive)
REMARK    1  A    between atoms: C4_4  and  C5_5 
REMARK    2  A    between atoms: C4_4  and  O7_7 
REMARK    3  A    between atoms: C5_5  and  C6_6 
ROOT
HETATM    1  C1  UNL     1     -35.543   6.010   4.353  1.00 20.00     0.014 C 
HETATM    2  C5  UNL     1     -34.453   6.085   3.304  1.00 20.00     0.023 C 
ENDROOT
BRANCH   2   3
HETATM    3  C4  UNL     1     -33.442   4.943   3.501  1.00 20.00     0.172 C 
BRANCH   3   4
HETATM    4  O7  UNL     1     -34.090   3.837   4.122  1.00 20.00    -0.396 OA
HETATM    5  C3  UNL     1     -33.153   2.979   4.759  1.00 20.00     0.201 C 
ENDBRANCH   3   4
ENDBRANCH   2   3
BRANCH   2   6
HETATM    6  C6  UNL     1     -33.738   7.457   3.253  1.00 20.00     0.084 C 
HETATM    7  C2  UNL     1     -33.298   7.969   4.622  1.00 20.00     0.027 C 
HETATM    8 CL8  UNL     1     -32.327   7.450   2.149  1.00 20.00    -0.125 Cl
ENDBRANCH   2   6
TORSDOF 3
ENDMDL
MODEL 6
REMARK VINA RESULT:      -1.7      3.165      4.495
REMARK  3 active torsions:
REMARK  status: ('A' for Active; 'I' for Inactive)
REMARK    1  A    between atoms: C4_4  and  C5_5 
REMARK    2  A    between atoms: C4_4  and  O7_7 
REMARK    3  A    between atoms: C5_5  and  C6_6 
ROOT
HETATM    1  C1  UNL     1     -34.257   7.188   3.933  1.00 20.00     0.014 C 
HETATM    2  C5  UNL     1     -33.888   6.074   2.976  1.00 20.00     0.023 C 
ENDROOT
BRANCH   2   3
HETATM    3  C4  UNL     1     -33.145   4.952   3.721  1.00 20.00     0.172 C 
BRANCH   3   4
HETATM    4  O7  UNL     1     -34.066   3.926   4.074  1.00 20.00    -0.396 OA
HETATM    5  C3  UNL     1     -33.408   2.825   4.685  1.00 20.00     0.201 C 
ENDBRANCH   3   4
ENDBRANCH   2   3
BRANCH   2   6
HETATM    6  C6  UNL     1     -33.077   6.559   1.749  1.00 20.00     0.084 C 
HETATM    7  C2  UNL     1     -32.249   7.812   2.019  1.00 20.00     0.027 C 
HETATM    8 CL8  UNL     1     -32.007   5.280   1.091  1.00 20.00    -0.125 Cl
ENDBRANCH   2   6
TORSDOF 3
ENDMDL
MODEL 7
REMARK VINA RESULT:      -1.4      1.335      2.339
REMARK  3 active torsions:
REMARK  status: ('A' for Active; 'I' for Inactive)
REMARK    1  A    between atoms: C4_4  and  C5_5 
REMARK    2  A    between atoms: C4_4  and  O7_7 
REMARK    3  A    between atoms: C5_5  and  C6_6 
ROOT
HETATM    1  C1  UNL     1     -32.091   8.526   3.190  1.00 20.00     0.014 C 
HETATM    2  C5  UNL     1     -31.902   7.633   1.981  1.00 20.00     0.023 C 
ENDROOT
BRANCH   2   3
HETATM    3  C4  UNL     1     -31.717   8.481   0.712  1.00 20.00     0.172 C 
BRANCH   3   4
HETATM    4  O7  UNL     1     -32.465   9.687   0.833  1.00 20.00    -0.396 OA
HETATM    5  C3  UNL     1     -32.797  10.222  -0.440  1.00 20.00     0.201 C 
ENDBRANCH   3   4
ENDBRANCH   2   3
BRANCH   2   6
HETATM    6  C6  UNL     1     -33.036   6.595   1.797  1.00 20.00     0.084 C 
HETATM    7  C2  UNL     1     -32.545   5.233   1.316  1.00 20.00     0.027 C 
HETATM    8 CL8  UNL     1     -34.008   6.377   3.286  1.00 20.00    -0.125 Cl
ENDBRANCH   2   6
TORSDOF 3
ENDMDL
MODEL 8
REMARK VINA RESULT:      -1.4      2.777      4.235
REMARK  3 active torsions:
REMARK  status: ('A' for Active; 'I' for Inactive)
REMARK    1  A    between atoms: C4_4  and  C5_5 
REMARK    2  A    between atoms: C4_4  and  O7_7 
REMARK    3  A    between atoms: C5_5  and  C6_6 
ROOT
HETATM    1  C1  UNL     1     -33.108   8.158   4.545  1.00 20.00     0.014 C 
HETATM    2  C5  UNL     1     -33.435   7.738   3.127  1.00 20.00     0.023 C 
ENDROOT
BRANCH   2   3
HETATM    3  C4  UNL     1     -34.098   6.350   3.119  1.00 20.00     0.172 C 
BRANCH   3   4
HETATM    4  O7  UNL     1     -35.217   6.353   3.999  1.00 20.00    -0.396 OA
HETATM    5  C3  UNL     1     -35.379   5.094   4.637  1.00 20.00     0.201 C 
ENDBRANCH   3   4
ENDBRANCH   2   3
BRANCH   2   6
HETATM    6  C6  UNL     1     -32.215   7.777   2.174  1.00 20.00     0.084 C 
HETATM    7  C2  UNL     1     -31.975   6.464   1.435  1.00 20.00     0.027 C 
HETATM    8 CL8  UNL     1     -32.325   9.110   0.981  1.00 20.00    -0.125 Cl
ENDBRANCH   2   6
TORSDOF 3
ENDMDL
MODEL 9
REMARK VINA RESULT:      -1.4      1.318      2.138
REMARK  3 active torsions:
REMARK  status: ('A' for Active; 'I' for Inactive)
REMARK    1  A    between atoms: C4_4  and  C5_5 
REMARK    2  A    between atoms: C4_4  and  O7_7 
REMARK    3  A    between atoms: C5_5  and  C6_6 
ROOT
HETATM    1  C1  UNL     1     -33.756   7.879   4.045  1.00 20.00     0.014 C 
HETATM    2  C5  UNL     1     -33.265   6.631   3.342  1.00 20.00     0.023 C 
ENDROOT
BRANCH   2   3
HETATM    3  C4  UNL     1     -32.853   6.956   1.897  1.00 20.00     0.172 C 
BRANCH   3   4
HETATM    4  O7  UNL     1     -31.912   8.025   1.901  1.00 20.00    -0.396 OA
HETATM    5  C3  UNL     1     -32.180   8.955   0.861  1.00 20.00     0.201 C 
ENDBRANCH   3   4
ENDBRANCH   2   3
BRANCH   2   6
HETATM    6  C6  UNL     1     -34.280   5.461   3.381  1.00 20.00     0.084 C 
HETATM    7  C2  UNL     1     -33.707   4.175   3.968  1.00 20.00     0.027 C 
HETATM    8 CL8  UNL     1     -35.780   5.890   4.261  1.00 20.00    -0.125 Cl
ENDBRANCH   2   6
TORSDOF 3
ENDMDL
