MODEL 1
REMARK VINA RESULT:       0.4      0.000      0.000
REMARK  1 active torsions:
REMARK  status: ('A' for Active; 'I' for Inactive)
REMARK    1  A    between atoms: C6_6  and  C10_10 
ROOT
HETATM    1  C1  UNL     1     -32.369   5.594   1.310  1.00 20.00     0.001 C 
HETATM    2  C2  UNL     1     -32.879   5.165   2.684  1.00 20.00     0.005 C 
HETATM    3  C3  UNL     1     -33.827   7.254   3.775  1.00 20.00     0.006 C 
HETATM    4  C4  UNL     1     -32.726   6.985   0.791  1.00 20.00     0.008 C 
HETATM    5  C5  UNL     1     -33.628   8.358   2.740  1.00 20.00     0.009 C 
HETATM    6  C6  UNL     1     -34.142   5.864   3.199  1.00 20.00    -0.005 C 
HETATM    7  C7  UNL     1     -32.481   8.197   1.717  1.00 20.00    -0.048 C 
HETATM    8  C8  UNL     1     -31.108   8.137   2.407  1.00 20.00     0.015 C 
HETATM    9  C9  UNL     1     -32.494   9.466   0.827  1.00 20.00     0.015 C 
ENDROOT
BRANCH   6  10
HETATM   10  C10 UNL     1     -34.771   5.003   4.304  1.00 20.00     0.089 C 
HETATM   11 BR11 UNL     1     -33.665   3.443   4.604  1.00 20.00    -0.096 Br
ENDBRANCH   6  10
TORSDOF 1
ENDMDL
MODEL 2
REMARK VINA RESULT:       0.8      0.983      2.267
REMARK  1 active torsions:
REMARK  status: ('A' for Active; 'I' for Inactive)
REMARK    1  A    between atoms: C6_6  and  C10_10 
ROOT
HETATM    1  C1  UNL     1     -33.603   8.059   3.990  1.00 20.00     0.001 C 
HETATM    2  C2  UNL     1     -34.361   6.746   3.809  1.00 20.00     0.005 C 
HETATM    3  C3  UNL     1     -33.164   5.482   1.960  1.00 20.00     0.006 C 
HETATM    4  C4  UNL     1     -32.255   8.235   3.295  1.00 20.00     0.008 C 
HETATM    5  C5  UNL     1     -32.008   6.391   1.552  1.00 20.00     0.009 C 
HETATM    6  C6  UNL     1     -33.526   5.511   3.453  1.00 20.00    -0.005 C 
HETATM    7  C7  UNL     1     -32.161   7.912   1.787  1.00 20.00    -0.048 C 
HETATM    8  C8  UNL     1     -33.340   8.494   0.990  1.00 20.00     0.015 C 
HETATM    9  C9  UNL     1     -30.869   8.579   1.253  1.00 20.00     0.015 C 
ENDROOT
BRANCH   6  10
HETATM   10  C10 UNL     1     -34.335   4.250   3.790  1.00 20.00     0.089 C 
HETATM   11 BR11 UNL     1     -33.190   2.984   4.703  1.00 20.00    -0.096 Br
ENDBRANCH   6  10
TORSDOF 1
ENDMDL
MODEL 3
REMARK VINA RESULT:       1.0      2.502      4.259
REMARK  1 active torsions:
REMARK  status: ('A' for Active; 'I' for Inactive)
REMARK    1  A    between atoms: C6_6  and  C10_10 
ROOT
HETATM    1  C1  UNL     1     -33.296   5.436   1.569  1.00 20.00     0.001 C 
HETATM    2  C2  UNL     1     -32.803   6.823   1.164  1.00 20.00     0.005 C 
HETATM    3  C3  UNL     1     -33.294   8.354   3.130  1.00 20.00     0.006 C 
HETATM    4  C4  UNL     1     -33.702   5.191   3.020  1.00 20.00     0.008 C 
HETATM    5  C5  UNL     1     -33.940   7.450   4.176  1.00 20.00     0.009 C 
HETATM    6  C6  UNL     1     -32.202   7.692   2.274  1.00 20.00    -0.005 C 
HETATM    7  C7  UNL     1     -34.679   6.184   3.685  1.00 20.00    -0.048 C 
HETATM    8  C8  UNL     1     -35.866   6.537   2.772  1.00 20.00     0.015 C 
HETATM    9  C9  UNL     1     -35.258   5.489   4.943  1.00 20.00     0.015 C 
ENDROOT
BRANCH   6  10
HETATM   10  C10 UNL     1     -31.341   8.791   1.635  1.00 20.00     0.089 C 
HETATM   11 BR11 UNL     1     -32.417   9.793   0.376  1.00 20.00    -0.096 Br
ENDBRANCH   6  10
TORSDOF 1
ENDMDL
MODEL 4
REMARK VINA RESULT:       1.3      2.694      4.591
REMARK  1 active torsions:
REMARK  status: ('A' for Active; 'I' for Inactive)
REMARK    1  A    between atoms: C6_6  and  C10_10 
ROOT
HETATM    1  C1  UNL     1     -32.870   8.166   4.400  1.00 20.00     0.001 C 
HETATM    2  C2  UNL     1     -31.926   8.186   3.201  1.00 20.00     0.005 C 
HETATM    3  C3  UNL     1     -32.917   6.591   1.490  1.00 20.00     0.006 C 
HETATM    4  C4  UNL     1     -34.226   7.478   4.262  1.00 20.00     0.008 C 
HETATM    5  C5  UNL     1     -34.192   6.063   2.142  1.00 20.00     0.009 C 
HETATM    6  C6  UNL     1     -32.568   8.052   1.816  1.00 20.00    -0.005 C 
HETATM    7  C7  UNL     1     -34.265   6.046   3.686  1.00 20.00    -0.048 C 
HETATM    8  C8  UNL     1     -33.181   5.141   4.296  1.00 20.00     0.015 C 
HETATM    9  C9  UNL     1     -35.639   5.435   4.061  1.00 20.00     0.015 C 
ENDROOT
BRANCH   6  10
HETATM   10  C10 UNL     1     -31.585   8.573   0.758  1.00 20.00     0.089 C 
HETATM   11 BR11 UNL     1     -32.386  10.068  -0.175  1.00 20.00    -0.096 Br
ENDBRANCH   6  10
TORSDOF 1
ENDMDL
