MODEL 1
REMARK VINA RESULT:      -1.2      0.000      0.000
REMARK  1 active torsions:
REMARK  status: ('A' for Active; 'I' for Inactive)
REMARK    1  A    between atoms: C9_9  and  N10_10 
ROOT
HETATM    1  C1  UNL     1     -32.591  10.202   0.197  1.00 20.00     0.013 C 
HETATM    2  C2  UNL     1     -32.223   9.102   0.512  1.00 20.00    -0.087 C 
HETATM    3  C9  UNL     1     -31.770   7.763   0.892  1.00 20.00     0.364 C 
ENDROOT
BRANCH   3   4
HETATM    4  N10 UNL     1     -32.275   7.403   2.208  1.00 20.00     0.100 N 
HETATM    5  C3  UNL     1     -32.649   8.574   3.009  1.00 20.00     0.278 C 
HETATM    6  C5  UNL     1     -33.694   8.053   4.009  1.00 20.00     0.015 C 
HETATM    7  C6  UNL     1     -33.928   6.591   3.596  1.00 20.00     0.015 C 
HETATM    8  C7  UNL     1     -33.238   8.176   5.457  1.00 20.00     0.012 C 
HETATM    9  C4  UNL     1     -33.471   6.563   2.142  1.00 20.00     0.278 C 
HETATM   10  C8  UNL     1     -35.368   6.133   3.772  1.00 20.00     0.012 C 
ENDBRANCH   3   4
TORSDOF 1
ENDMDL
MODEL 2
REMARK VINA RESULT:      -0.6      1.930      4.524
REMARK  1 active torsions:
REMARK  status: ('A' for Active; 'I' for Inactive)
REMARK    1  A    between atoms: C9_9  and  N10_10 
ROOT
HETATM    1  C1  UNL     1     -33.645   3.248   4.791  1.00 20.00     0.013 C 
HETATM    2  C2  UNL     1     -34.159   4.297   4.511  1.00 20.00    -0.087 C 
HETATM    3  C9  UNL     1     -34.788   5.576   4.176  1.00 20.00     0.364 C 
ENDROOT
BRANCH   3   4
HETATM    4  N10 UNL     1     -34.168   6.160   2.996  1.00 20.00     0.100 N 
HETATM    5  C3  UNL     1     -33.274   7.276   3.322  1.00 20.00     0.278 C 
HETATM    6  C5  UNL     1     -32.275   7.337   2.155  1.00 20.00     0.015 C 
HETATM    7  C6  UNL     1     -32.625   6.119   1.284  1.00 20.00     0.015 C 
HETATM    8  C7  UNL     1     -32.356   8.644   1.377  1.00 20.00     0.012 C 
HETATM    9  C4  UNL     1     -33.356   5.198   2.252  1.00 20.00     0.278 C 
HETATM   10  C8  UNL     1     -31.411   5.462   0.643  1.00 20.00     0.012 C 
ENDBRANCH   3   4
TORSDOF 1
ENDMDL
MODEL 3
REMARK VINA RESULT:      -0.5      0.417      2.011
REMARK  1 active torsions:
REMARK  status: ('A' for Active; 'I' for Inactive)
REMARK    1  A    between atoms: C9_9  and  N10_10 
ROOT
HETATM    1  C1  UNL     1     -32.233  10.228  -0.347  1.00 20.00     0.013 C 
HETATM    2  C2  UNL     1     -32.129   9.197   0.262  1.00 20.00    -0.087 C 
HETATM    3  C9  UNL     1     -31.997   7.941   1.001  1.00 20.00     0.364 C 
ENDROOT
BRANCH   3   4
HETATM    4  N10 UNL     1     -33.022   7.839   2.028  1.00 20.00     0.100 N 
HETATM    5  C3  UNL     1     -33.367   6.449   2.347  1.00 20.00     0.278 C 
HETATM    6  C5  UNL     1     -33.914   6.496   3.783  1.00 20.00     0.015 C 
HETATM    7  C6  UNL     1     -33.714   7.954   4.225  1.00 20.00     0.015 C 
HETATM    8  C7  UNL     1     -35.373   6.062   3.872  1.00 20.00     0.012 C 
HETATM    9  C4  UNL     1     -32.616   8.452   3.292  1.00 20.00     0.278 C 
HETATM   10  C8  UNL     1     -33.352   8.099   5.695  1.00 20.00     0.012 C 
ENDBRANCH   3   4
TORSDOF 1
ENDMDL
MODEL 4
REMARK VINA RESULT:      -0.4      1.197      4.482
REMARK  1 active torsions:
REMARK  status: ('A' for Active; 'I' for Inactive)
REMARK    1  A    between atoms: C9_9  and  N10_10 
ROOT
HETATM    1  C1  UNL     1     -35.703   5.331   4.495  1.00 20.00     0.013 C 
HETATM    2  C2  UNL     1     -35.025   6.310   4.338  1.00 20.00    -0.087 C 
HETATM    3  C9  UNL     1     -34.201   7.506   4.152  1.00 20.00     0.364 C 
ENDROOT
BRANCH   3   4
HETATM    4  N10 UNL     1     -33.078   7.224   3.271  1.00 20.00     0.100 N 
HETATM    5  C3  UNL     1     -33.366   6.151   2.313  1.00 20.00     0.278 C 
HETATM    6  C5  UNL     1     -32.420   6.411   1.130  1.00 20.00     0.015 C 
HETATM    7  C6  UNL     1     -31.727   7.739   1.476  1.00 20.00     0.015 C 
HETATM    8  C7  UNL     1     -31.421   5.280   0.914  1.00 20.00     0.012 C 
HETATM    9  C4  UNL     1     -32.685   8.382   2.470  1.00 20.00     0.278 C 
HETATM   10  C8  UNL     1     -31.456   8.616   0.262  1.00 20.00     0.012 C 
ENDBRANCH   3   4
TORSDOF 1
ENDMDL
MODEL 5
REMARK VINA RESULT:      -0.2      1.276      2.268
REMARK  1 active torsions:
REMARK  status: ('A' for Active; 'I' for Inactive)
REMARK    1  A    between atoms: C9_9  and  N10_10 
ROOT
HETATM    1  C1  UNL     1     -32.696   9.869  -0.395  1.00 20.00     0.013 C 
HETATM    2  C2  UNL     1     -32.321   9.587   0.711  1.00 20.00    -0.087 C 
HETATM    3  C9  UNL     1     -31.864   9.248   2.060  1.00 20.00     0.364 C 
ENDROOT
BRANCH   3   4
HETATM    4  N10 UNL     1     -32.132   7.850   2.358  1.00 20.00     0.100 N 
HETATM    5  C3  UNL     1     -33.496   7.628   2.851  1.00 20.00     0.278 C 
HETATM    6  C5  UNL     1     -33.809   6.163   2.508  1.00 20.00     0.015 C 
HETATM    7  C6  UNL     1     -32.588   5.686   1.704  1.00 20.00     0.015 C 
HETATM    8  C7  UNL     1     -34.054   5.307   3.744  1.00 20.00     0.012 C 
HETATM    9  C4  UNL     1     -31.983   6.986   1.187  1.00 20.00     0.278 C 
HETATM   10  C8  UNL     1     -32.938   4.712   0.589  1.00 20.00     0.012 C 
ENDBRANCH   3   4
TORSDOF 1
ENDMDL
MODEL 6
REMARK VINA RESULT:       0.2      1.381      2.648
REMARK  1 active torsions:
REMARK  status: ('A' for Active; 'I' for Inactive)
REMARK    1  A    between atoms: C9_9  and  N10_10 
ROOT
HETATM    1  C1  UNL     1     -32.593  10.614  -0.154  1.00 20.00     0.013 C 
HETATM    2  C2  UNL     1     -32.375   9.879   0.771  1.00 20.00    -0.087 C 
HETATM    3  C9  UNL     1     -32.108   8.987   1.901  1.00 20.00     0.364 C 
ENDROOT
BRANCH   3   4
HETATM    4  N10 UNL     1     -32.797   7.718   1.728  1.00 20.00     0.100 N 
HETATM    5  C3  UNL     1     -31.918   6.661   1.216  1.00 20.00     0.278 C 
HETATM    6  C5  UNL     1     -32.561   5.347   1.686  1.00 20.00     0.015 C 
HETATM    7  C6  UNL     1     -33.739   5.788   2.569  1.00 20.00     0.015 C 
HETATM    8  C7  UNL     1     -33.009   4.462   0.529  1.00 20.00     0.012 C 
HETATM    9  C4  UNL     1     -33.354   7.204   2.979  1.00 20.00     0.278 C 
HETATM   10  C8  UNL     1     -33.982   4.872   3.759  1.00 20.00     0.012 C 
ENDBRANCH   3   4
TORSDOF 1
ENDMDL
MODEL 7
REMARK VINA RESULT:       0.3      2.246      4.627
REMARK  1 active torsions:
REMARK  status: ('A' for Active; 'I' for Inactive)
REMARK    1  A    between atoms: C9_9  and  N10_10 
ROOT
HETATM    1  C1  UNL     1     -32.788   2.543   5.237  1.00 20.00     0.013 C 
HETATM    2  C2  UNL     1     -33.448   3.272   4.548  1.00 20.00    -0.087 C 
HETATM    3  C9  UNL     1     -34.257   4.157   3.708  1.00 20.00     0.364 C 
ENDROOT
BRANCH   3   4
HETATM    4  N10 UNL     1     -33.627   5.463   3.582  1.00 20.00     0.100 N 
HETATM    5  C3  UNL     1     -33.194   5.751   2.210  1.00 20.00     0.278 C 
HETATM    6  C5  UNL     1     -33.168   7.285   2.117  1.00 20.00     0.015 C 
HETATM    7  C6  UNL     1     -33.729   7.763   3.466  1.00 20.00     0.015 C 
HETATM    8  C7  UNL     1     -31.773   7.836   1.846  1.00 20.00     0.012 C 
HETATM    9  C4  UNL     1     -34.520   6.557   3.960  1.00 20.00     0.278 C 
HETATM   10  C8  UNL     1     -34.576   9.023   3.359  1.00 20.00     0.012 C 
ENDBRANCH   3   4
TORSDOF 1
ENDMDL
MODEL 8
REMARK VINA RESULT:       0.8      1.313      3.895
REMARK  1 active torsions:
REMARK  status: ('A' for Active; 'I' for Inactive)
REMARK    1  A    between atoms: C9_9  and  N10_10 
ROOT
HETATM    1  C1  UNL     1     -33.124   8.492   5.802  1.00 20.00     0.013 C 
HETATM    2  C2  UNL     1     -33.770   7.862   5.009  1.00 20.00    -0.087 C 
HETATM    3  C9  UNL     1     -34.563   7.095   4.045  1.00 20.00     0.364 C 
ENDROOT
BRANCH   3   4
HETATM    4  N10 UNL     1     -33.902   7.059   2.750  1.00 20.00     0.100 N 
HETATM    5  C3  UNL     1     -32.756   7.971   2.674  1.00 20.00     0.278 C 
HETATM    6  C5  UNL     1     -31.846   7.376   1.587  1.00 20.00     0.015 C 
HETATM    7  C6  UNL     1     -32.522   6.049   1.203  1.00 20.00     0.015 C 
HETATM    8  C7  UNL     1     -31.674   8.302   0.389  1.00 20.00     0.012 C 
HETATM    9  C4  UNL     1     -33.381   5.732   2.421  1.00 20.00     0.278 C 
HETATM   10  C8  UNL     1     -31.535   4.940   0.870  1.00 20.00     0.012 C 
ENDBRANCH   3   4
TORSDOF 1
ENDMDL
MODEL 9
REMARK VINA RESULT:       0.9      1.457      3.003
REMARK  1 active torsions:
REMARK  status: ('A' for Active; 'I' for Inactive)
REMARK    1  A    between atoms: C9_9  and  N10_10 
ROOT
HETATM    1  C1  UNL     1     -31.784   4.317   0.362  1.00 20.00     0.013 C 
HETATM    2  C2  UNL     1     -31.796   5.465   0.717  1.00 20.00    -0.087 C 
HETATM    3  C9  UNL     1     -31.808   6.865   1.146  1.00 20.00     0.364 C 
ENDROOT
BRANCH   3   4
HETATM    4  N10 UNL     1     -32.941   7.125   2.020  1.00 20.00     0.100 N 
HETATM    5  C3  UNL     1     -33.483   5.903   2.623  1.00 20.00     0.278 C 
HETATM    6  C5  UNL     1     -34.170   6.369   3.916  1.00 20.00     0.015 C 
HETATM    7  C6  UNL     1     -33.843   7.868   4.007  1.00 20.00     0.015 C 
HETATM    8  C7  UNL     1     -35.671   6.106   3.914  1.00 20.00     0.012 C 
HETATM    9  C4  UNL     1     -32.600   8.006   3.136  1.00 20.00     0.278 C 
HETATM   10  C8  UNL     1     -33.625   8.356   5.432  1.00 20.00     0.012 C 
ENDBRANCH   3   4
TORSDOF 1
ENDMDL
