MODEL 1
REMARK VINA RESULT:      -1.2      0.000      0.000
REMARK  2 active torsions:
REMARK  status: ('A' for Active; 'I' for Inactive)
REMARK    1  A    between atoms: C8_8  and  C9_9 
REMARK    2  A    between atoms: C9_9  and  N11_11 
ROOT
HETATM    1  C1  UNL     1     -34.430   4.294   4.487  1.00 20.00     0.060 C 
HETATM    2  C8  UNL     1     -35.401   5.382   4.296  1.00 20.00     0.154 C 
HETATM    3  N10 UNL     1     -33.666   3.435   4.639  1.00 20.00    -0.197 NA
ENDROOT
BRANCH   2   4
HETATM    4  C9  UNL     1     -34.720   6.743   4.191  1.00 20.00     0.286 C 
BRANCH   4   5
HETATM    5  N11 UNL     1     -33.513   6.657   3.384  1.00 20.00     0.090 N 
HETATM    6  C2  UNL     1     -33.682   5.806   2.202  1.00 20.00     0.277 C 
HETATM    7  C4  UNL     1     -32.638   6.314   1.195  1.00 20.00     0.015 C 
HETATM    8  C5  UNL     1     -32.015   7.546   1.873  1.00 20.00     0.015 C 
HETATM    9  C6  UNL     1     -31.594   5.261   0.846  1.00 20.00     0.012 C 
HETATM   10  C3  UNL     1     -33.079   7.961   2.882  1.00 20.00     0.277 C 
HETATM   11  C7  UNL     1     -31.658   8.659   0.900  1.00 20.00     0.012 C 
ENDBRANCH   4   5
ENDBRANCH   2   4
TORSDOF 2
ENDMDL
MODEL 2
REMARK VINA RESULT:      -1.1      0.304      1.900
REMARK  2 active torsions:
REMARK  status: ('A' for Active; 'I' for Inactive)
REMARK    1  A    between atoms: C8_8  and  C9_9 
REMARK    2  A    between atoms: C9_9  and  N11_11 
ROOT
HETATM    1  C1  UNL     1     -34.497   4.392   4.447  1.00 20.00     0.060 C 
HETATM    2  C8  UNL     1     -35.346   5.582   4.291  1.00 20.00     0.154 C 
HETATM    3  N10 UNL     1     -33.829   3.451   4.571  1.00 20.00    -0.197 NA
ENDROOT
BRANCH   2   4
HETATM    4  C9  UNL     1     -34.526   6.868   4.267  1.00 20.00     0.286 C 
BRANCH   4   5
HETATM    5  N11 UNL     1     -33.912   7.066   2.964  1.00 20.00     0.090 N 
HETATM    6  C2  UNL     1     -32.800   8.021   3.002  1.00 20.00     0.277 C 
HETATM    7  C4  UNL     1     -31.911   7.644   1.806  1.00 20.00     0.015 C 
HETATM    8  C5  UNL     1     -32.557   6.372   1.232  1.00 20.00     0.015 C 
HETATM    9  C6  UNL     1     -31.812   8.756   0.770  1.00 20.00     0.012 C 
HETATM   10  C3  UNL     1     -33.361   5.830   2.407  1.00 20.00     0.277 C 
HETATM   11  C7  UNL     1     -31.548   5.369   0.694  1.00 20.00     0.012 C 
ENDBRANCH   4   5
ENDBRANCH   2   4
TORSDOF 2
ENDMDL
MODEL 3
REMARK VINA RESULT:      -1.1      2.037      5.105
REMARK  2 active torsions:
REMARK  status: ('A' for Active; 'I' for Inactive)
REMARK    1  A    between atoms: C8_8  and  C9_9 
REMARK    2  A    between atoms: C9_9  and  N11_11 
ROOT
HETATM    1  C1  UNL     1     -32.318   9.596  -0.110  1.00 20.00     0.060 C 
HETATM    2  C8  UNL     1     -31.416   8.825   0.758  1.00 20.00     0.154 C 
HETATM    3  N10 UNL     1     -33.029  10.207  -0.794  1.00 20.00    -0.197 NA
ENDROOT
BRANCH   2   4
HETATM    4  C9  UNL     1     -31.870   7.376   0.909  1.00 20.00     0.286 C 
BRANCH   4   5
HETATM    5  N11 UNL     1     -32.371   7.127   2.251  1.00 20.00     0.090 N 
HETATM    6  C2  UNL     1     -32.737   8.359   2.957  1.00 20.00     0.277 C 
HETATM    7  C4  UNL     1     -33.780   7.926   3.998  1.00 20.00     0.015 C 
HETATM    8  C5  UNL     1     -34.021   6.436   3.706  1.00 20.00     0.015 C 
HETATM    9  C6  UNL     1     -33.317   8.163   5.430  1.00 20.00     0.012 C 
HETATM   10  C3  UNL     1     -33.571   6.290   2.258  1.00 20.00     0.277 C 
HETATM   11  C7  UNL     1     -35.463   6.001   3.923  1.00 20.00     0.012 C 
ENDBRANCH   4   5
ENDBRANCH   2   4
TORSDOF 2
ENDMDL
MODEL 4
REMARK VINA RESULT:      -1.1      2.027      4.850
REMARK  2 active torsions:
REMARK  status: ('A' for Active; 'I' for Inactive)
REMARK    1  A    between atoms: C8_8  and  C9_9 
REMARK    2  A    between atoms: C9_9  and  N11_11 
ROOT
HETATM    1  C1  UNL     1     -32.300   9.556  -0.114  1.00 20.00     0.060 C 
HETATM    2  C8  UNL     1     -31.291   8.796   0.639  1.00 20.00     0.154 C 
HETATM    3  N10 UNL     1     -33.095  10.157  -0.708  1.00 20.00    -0.197 NA
ENDROOT
BRANCH   2   4
HETATM    4  C9  UNL     1     -31.793   7.408   1.026  1.00 20.00     0.286 C 
BRANCH   4   5
HETATM    5  N11 UNL     1     -32.897   7.501   1.968  1.00 20.00     0.090 N 
HETATM    6  C2  UNL     1     -33.375   6.187   2.411  1.00 20.00     0.277 C 
HETATM    7  C4  UNL     1     -34.022   6.442   3.781  1.00 20.00     0.015 C 
HETATM    8  C5  UNL     1     -33.740   7.925   4.072  1.00 20.00     0.015 C 
HETATM    9  C6  UNL     1     -35.512   6.126   3.798  1.00 20.00     0.012 C 
HETATM   10  C3  UNL     1     -32.539   8.230   3.185  1.00 20.00     0.277 C 
HETATM   11  C7  UNL     1     -33.477   8.216   5.542  1.00 20.00     0.012 C 
ENDBRANCH   4   5
ENDBRANCH   2   4
TORSDOF 2
ENDMDL
MODEL 5
REMARK VINA RESULT:       0.1      1.969      4.661
REMARK  2 active torsions:
REMARK  status: ('A' for Active; 'I' for Inactive)
REMARK    1  A    between atoms: C8_8  and  C9_9 
REMARK    2  A    between atoms: C9_9  and  N11_11 
ROOT
HETATM    1  C1  UNL     1     -32.356   9.396   0.489  1.00 20.00     0.060 C 
HETATM    2  C8  UNL     1     -31.993   8.462   1.565  1.00 20.00     0.154 C 
HETATM    3  N10 UNL     1     -32.644  10.135  -0.358  1.00 20.00    -0.197 NA
ENDROOT
BRANCH   2   4
HETATM    4  C9  UNL     1     -31.928   7.020   1.070  1.00 20.00     0.286 C 
BRANCH   4   5
HETATM    5  N11 UNL     1     -32.901   6.191   1.764  1.00 20.00     0.090 N 
HETATM    6  C2  UNL     1     -32.277   5.239   2.688  1.00 20.00     0.277 C 
HETATM    7  C4  UNL     1     -33.358   4.938   3.738  1.00 20.00     0.015 C 
HETATM    8  C5  UNL     1     -34.520   5.878   3.376  1.00 20.00     0.015 C 
HETATM    9  C6  UNL     1     -33.784   3.476   3.745  1.00 20.00     0.012 C 
HETATM   10  C3  UNL     1     -33.839   6.976   2.568  1.00 20.00     0.277 C 
HETATM   11  C7  UNL     1     -35.266   6.415   4.588  1.00 20.00     0.012 C 
ENDBRANCH   4   5
ENDBRANCH   2   4
TORSDOF 2
ENDMDL
MODEL 6
REMARK VINA RESULT:       0.2      2.146      4.624
REMARK  2 active torsions:
REMARK  status: ('A' for Active; 'I' for Inactive)
REMARK    1  A    between atoms: C8_8  and  C9_9 
REMARK    2  A    between atoms: C9_9  and  N11_11 
ROOT
HETATM    1  C1  UNL     1     -32.705  10.045   0.043  1.00 20.00     0.060 C 
HETATM    2  C8  UNL     1     -32.520  10.307   1.478  1.00 20.00     0.154 C 
HETATM    3  N10 UNL     1     -32.854   9.840  -1.089  1.00 20.00    -0.197 NA
ENDROOT
BRANCH   2   4
HETATM    4  C9  UNL     1     -31.918   9.108   2.204  1.00 20.00     0.286 C 
BRANCH   4   5
HETATM    5  N11 UNL     1     -32.695   7.905   1.949  1.00 20.00     0.090 N 
HETATM    6  C2  UNL     1     -31.879   6.805   1.427  1.00 20.00     0.277 C 
HETATM    7  C4  UNL     1     -32.640   5.527   1.814  1.00 20.00     0.015 C 
HETATM    8  C5  UNL     1     -33.818   6.025   2.669  1.00 20.00     0.015 C 
HETATM    9  C6  UNL     1     -33.106   4.728   0.605  1.00 20.00     0.012 C 
HETATM   10  C3  UNL     1     -33.342   7.388   3.156  1.00 20.00     0.277 C 
HETATM   11  C7  UNL     1     -34.179   5.084   3.809  1.00 20.00     0.012 C 
ENDBRANCH   4   5
ENDBRANCH   2   4
TORSDOF 2
ENDMDL
MODEL 7
REMARK VINA RESULT:       0.2      2.022      4.664
REMARK  2 active torsions:
REMARK  status: ('A' for Active; 'I' for Inactive)
REMARK    1  A    between atoms: C8_8  and  C9_9 
REMARK    2  A    between atoms: C9_9  and  N11_11 
ROOT
HETATM    1  C1  UNL     1     -32.452   9.841   0.019  1.00 20.00     0.060 C 
HETATM    2  C8  UNL     1     -31.548   9.245   1.013  1.00 20.00     0.154 C 
HETATM    3  N10 UNL     1     -33.164  10.313  -0.767  1.00 20.00    -0.197 NA
ENDROOT
BRANCH   2   4
HETATM    4  C9  UNL     1     -32.269   8.921   2.318  1.00 20.00     0.286 C 
BRANCH   4   5
HETATM    5  N11 UNL     1     -32.369   7.483   2.512  1.00 20.00     0.090 N 
HETATM    6  C2  UNL     1     -33.676   7.072   3.033  1.00 20.00     0.277 C 
HETATM    7  C4  UNL     1     -33.841   5.612   2.583  1.00 20.00     0.015 C 
HETATM    8  C5  UNL     1     -32.611   5.338   1.701  1.00 20.00     0.015 C 
HETATM    9  C6  UNL     1     -33.935   4.641   3.754  1.00 20.00     0.012 C 
HETATM   10  C3  UNL     1     -32.177   6.733   1.269  1.00 20.00     0.277 C 
HETATM   11  C7  UNL     1     -32.902   4.420   0.524  1.00 20.00     0.012 C 
ENDBRANCH   4   5
ENDBRANCH   2   4
TORSDOF 2
ENDMDL
MODEL 8
REMARK VINA RESULT:       0.4      1.988      4.984
REMARK  2 active torsions:
REMARK  status: ('A' for Active; 'I' for Inactive)
REMARK    1  A    between atoms: C8_8  and  C9_9 
REMARK    2  A    between atoms: C9_9  and  N11_11 
ROOT
HETATM    1  C1  UNL     1     -32.498   9.563   0.148  1.00 20.00     0.060 C 
HETATM    2  C8  UNL     1     -31.979   8.916   1.362  1.00 20.00     0.154 C 
HETATM    3  N10 UNL     1     -32.909  10.076  -0.808  1.00 20.00    -0.197 NA
ENDROOT
BRANCH   2   4
HETATM    4  C9  UNL     1     -32.036   7.395   1.267  1.00 20.00     0.286 C 
BRANCH   4   5
HETATM    5  N11 UNL     1     -32.642   6.823   2.460  1.00 20.00     0.090 N 
HETATM    6  C2  UNL     1     -34.087   7.059   2.529  1.00 20.00     0.277 C 
HETATM    7  C4  UNL     1     -34.633   5.925   3.410  1.00 20.00     0.015 C 
HETATM    8  C5  UNL     1     -33.414   5.027   3.682  1.00 20.00     0.015 C 
HETATM    9  C6  UNL     1     -35.272   6.431   4.697  1.00 20.00     0.012 C 
HETATM   10  C3  UNL     1     -32.467   5.372   2.539  1.00 20.00     0.277 C 
HETATM   11  C7  UNL     1     -33.753   3.545   3.740  1.00 20.00     0.012 C 
ENDBRANCH   4   5
ENDBRANCH   2   4
TORSDOF 2
ENDMDL
MODEL 9
REMARK VINA RESULT:       1.0      1.491      2.516
REMARK  2 active torsions:
REMARK  status: ('A' for Active; 'I' for Inactive)
REMARK    1  A    between atoms: C8_8  and  C9_9 
REMARK    2  A    between atoms: C9_9  and  N11_11 
ROOT
HETATM    1  C1  UNL     1     -32.678   3.119   5.593  1.00 20.00     0.060 C 
HETATM    2  C8  UNL     1     -33.186   2.861   4.237  1.00 20.00     0.154 C 
HETATM    3  N10 UNL     1     -32.277   3.319   6.663  1.00 20.00    -0.197 NA
ENDROOT
BRANCH   2   4
HETATM    4  C9  UNL     1     -34.212   3.904   3.804  1.00 20.00     0.286 C 
BRANCH   4   5
HETATM    5  N11 UNL     1     -33.592   5.211   3.659  1.00 20.00     0.090 N 
HETATM    6  C2  UNL     1     -33.237   5.518   2.270  1.00 20.00     0.277 C 
HETATM    7  C4  UNL     1     -33.219   7.052   2.193  1.00 20.00     0.015 C 
HETATM    8  C5  UNL     1     -33.705   7.513   3.577  1.00 20.00     0.015 C 
HETATM    9  C6  UNL     1     -31.843   7.610   1.853  1.00 20.00     0.012 C 
HETATM   10  C3  UNL     1     -34.465   6.300   4.099  1.00 20.00     0.277 C 
HETATM   11  C7  UNL     1     -34.559   8.771   3.532  1.00 20.00     0.012 C 
ENDBRANCH   4   5
ENDBRANCH   2   4
TORSDOF 2
ENDMDL
