MODEL 1
REMARK VINA RESULT:      -0.4      0.000      0.000
REMARK  2 active torsions:
REMARK  status: ('A' for Active; 'I' for Inactive)
REMARK    1  A    between atoms: C1_1  and  C7_7 
REMARK    2  A    between atoms: C8_8  and  C12_12 
ROOT
HETATM    1  C2  UNL     1     -31.852   6.306   1.019  1.00 20.00     0.001 C 
HETATM    2  C3  UNL     1     -31.271   7.521   1.740  1.00 20.00     0.012 C 
HETATM    3  C4  UNL     1     -33.574   8.397   2.561  1.00 20.00     0.012 C 
HETATM    4  C5  UNL     1     -33.143   5.715   1.592  1.00 20.00     0.005 C 
HETATM    5  C6  UNL     1     -33.549   7.293   3.620  1.00 20.00     0.006 C 
HETATM    6  C7  UNL     1     -32.221   8.708   1.915  1.00 20.00     0.055 C 
HETATM    7  C8  UNL     1     -33.299   5.852   3.113  1.00 20.00    -0.011 C 
ENDROOT
BRANCH   6   8
HETATM    8  C1  UNL     1     -32.440   9.401   0.598  1.00 20.00     0.127 C 
HETATM    9  C9  UNL     1     -32.802  10.861   0.654  1.00 20.00     0.091 C 
HETATM   10  O13 UNL     1     -32.326   8.804  -0.471  1.00 20.00    -0.298 OA
ENDBRANCH   6   8
BRANCH   7  11
HETATM   11  C12 UNL     1     -34.425   4.931   3.599  1.00 20.00    -0.019 C 
HETATM   12  C10 UNL     1     -33.849   3.760   4.388  1.00 20.00     0.010 C 
HETATM   13  C11 UNL     1     -35.424   5.714   4.444  1.00 20.00     0.010 C 
ENDBRANCH   7  11
TORSDOF 2
ENDMDL
MODEL 2
REMARK VINA RESULT:       2.1      2.121      5.137
REMARK  2 active torsions:
REMARK  status: ('A' for Active; 'I' for Inactive)
REMARK    1  A    between atoms: C1_1  and  C7_7 
REMARK    2  A    between atoms: C8_8  and  C12_12 
ROOT
HETATM    1  C2  UNL     1     -33.712   8.373   3.846  1.00 20.00     0.001 C 
HETATM    2  C3  UNL     1     -32.908   7.144   4.266  1.00 20.00     0.012 C 
HETATM    3  C4  UNL     1     -33.156   5.940   1.979  1.00 20.00     0.012 C 
HETATM    4  C5  UNL     1     -33.672   8.752   2.363  1.00 20.00     0.005 C 
HETATM    5  C6  UNL     1     -32.102   6.901   1.426  1.00 20.00     0.006 C 
HETATM    6  C7  UNL     1     -33.219   5.854   3.507  1.00 20.00     0.055 C 
HETATM    7  C8  UNL     1     -32.359   8.411   1.644  1.00 20.00    -0.011 C 
ENDROOT
BRANCH   6   8
HETATM    8  C1  UNL     1     -34.557   5.310   3.925  1.00 20.00     0.127 C 
HETATM    9  C9  UNL     1     -35.737   6.233   3.783  1.00 20.00     0.091 C 
HETATM   10  O13 UNL     1     -34.681   4.166   4.360  1.00 20.00    -0.298 OA
ENDBRANCH   6   8
BRANCH   7  11
HETATM   11  C12 UNL     1     -32.306   9.144   0.297  1.00 20.00    -0.019 C 
HETATM   12  C10 UNL     1     -32.661  10.616   0.480  1.00 20.00     0.010 C 
HETATM   13  C11 UNL     1     -30.927   8.994  -0.336  1.00 20.00     0.010 C 
ENDBRANCH   7  11
TORSDOF 2
ENDMDL
MODEL 3
REMARK VINA RESULT:       2.3      2.142      4.969
REMARK  2 active torsions:
REMARK  status: ('A' for Active; 'I' for Inactive)
REMARK    1  A    between atoms: C1_1  and  C7_7 
REMARK    2  A    between atoms: C8_8  and  C12_12 
ROOT
HETATM    1  C2  UNL     1     -33.660   8.516   3.991  1.00 20.00     0.001 C 
HETATM    2  C3  UNL     1     -33.010   7.179   4.341  1.00 20.00     0.012 C 
HETATM    3  C4  UNL     1     -33.296   6.178   1.962  1.00 20.00     0.012 C 
HETATM    4  C5  UNL     1     -33.519   8.995   2.544  1.00 20.00     0.005 C 
HETATM    5  C6  UNL     1     -32.122   7.053   1.518  1.00 20.00     0.006 C 
HETATM    6  C7  UNL     1     -33.429   5.989   3.476  1.00 20.00     0.055 C 
HETATM    7  C8  UNL     1     -32.223   8.564   1.842  1.00 20.00    -0.011 C 
ENDROOT
BRANCH   6   8
HETATM    8  C1  UNL     1     -34.833   5.568   3.809  1.00 20.00     0.127 C 
HETATM    9  C9  UNL     1     -35.941   6.462   3.322  1.00 20.00     0.091 C 
HETATM   10  O13 UNL     1     -35.065   4.542   4.446  1.00 20.00    -0.298 OA
ENDBRANCH   6   8
BRANCH   7  11
HETATM   11  C12 UNL     1     -32.038   9.382   0.558  1.00 20.00    -0.019 C 
HETATM   12  C10 UNL     1     -32.607   8.627  -0.638  1.00 20.00     0.010 C 
HETATM   13  C11 UNL     1     -32.699  10.749   0.700  1.00 20.00     0.010 C 
ENDBRANCH   7  11
TORSDOF 2
ENDMDL
