MODEL 1
REMARK VINA RESULT:       0.5      0.000      0.000
REMARK  1 active torsions:
REMARK  status: ('A' for Active; 'I' for Inactive)
REMARK    1  A    between atoms: C1_1  and  C2_2 
ROOT
HETATM    1  C2  UNL     1     -33.813   7.460   2.435  1.00 20.00     0.089 A 
HETATM    2  C3  UNL     1     -32.957   6.448   1.689  1.00 20.00    -0.028 A 
HETATM    3  C4  UNL     1     -32.438   7.875   1.935  1.00 20.00    -0.028 A 
HETATM    4  C5  UNL     1     -33.405   6.050   0.299  1.00 20.00     0.016 C 
HETATM    5  C6  UNL     1     -32.331   5.289   2.434  1.00 20.00     0.016 C 
HETATM    6  C7  UNL     1     -31.309   8.099   2.917  1.00 20.00     0.016 C 
HETATM    7  C8  UNL     1     -32.385   8.854   0.782  1.00 20.00     0.016 C 
ENDROOT
BRANCH   1   8
HETATM    8  C1  UNL     1     -34.089   7.314   3.871  1.00 20.00     0.224 C 
HETATM    9  O9  UNL     1     -33.504   7.989   4.714  1.00 20.00    -0.279 OA
HETATM   10 CL10 UNL     1     -35.303   6.110   4.185  1.00 20.00    -0.043 Cl
ENDBRANCH   1   8
TORSDOF 1
ENDMDL
MODEL 2
REMARK VINA RESULT:       0.7      2.232      3.332
REMARK  1 active torsions:
REMARK  status: ('A' for Active; 'I' for Inactive)
REMARK    1  A    between atoms: C1_1  and  C2_2 
ROOT
HETATM    1  C2  UNL     1     -33.341   5.600   3.875  1.00 20.00     0.089 A 
HETATM    2  C3  UNL     1     -34.108   6.852   3.478  1.00 20.00    -0.028 A 
HETATM    3  C4  UNL     1     -33.261   6.097   2.440  1.00 20.00    -0.028 A 
HETATM    4  C5  UNL     1     -33.611   8.174   4.022  1.00 20.00     0.016 C 
HETATM    5  C6  UNL     1     -35.618   6.816   3.376  1.00 20.00     0.016 C 
HETATM    6  C7  UNL     1     -33.949   5.329   1.332  1.00 20.00     0.016 C 
HETATM    7  C8  UNL     1     -31.946   6.690   1.983  1.00 20.00     0.016 C 
ENDROOT
BRANCH   1   8
HETATM    8  C1  UNL     1     -34.040   4.353   4.213  1.00 20.00     0.224 C 
HETATM    9  O9  UNL     1     -35.241   4.334   4.469  1.00 20.00    -0.279 OA
HETATM   10 CL10 UNL     1     -32.975   2.979   4.195  1.00 20.00    -0.043 Cl
ENDBRANCH   1   8
TORSDOF 1
ENDMDL
MODEL 3
REMARK VINA RESULT:       1.4      2.727      3.663
REMARK  1 active torsions:
REMARK  status: ('A' for Active; 'I' for Inactive)
REMARK    1  A    between atoms: C1_1  and  C2_2 
ROOT
HETATM    1  C2  UNL     1     -33.044   8.158   1.377  1.00 20.00     0.089 A 
HETATM    2  C3  UNL     1     -32.806   7.859   2.849  1.00 20.00    -0.028 A 
HETATM    3  C4  UNL     1     -32.447   6.817   1.775  1.00 20.00    -0.028 A 
HETATM    4  C5  UNL     1     -34.024   7.638   3.719  1.00 20.00     0.016 C 
HETATM    5  C6  UNL     1     -31.699   8.569   3.598  1.00 20.00     0.016 C 
HETATM    6  C7  UNL     1     -30.993   6.517   1.484  1.00 20.00     0.016 C 
HETATM    7  C8  UNL     1     -33.319   5.592   1.610  1.00 20.00     0.016 C 
ENDROOT
BRANCH   1   8
HETATM    8  C1  UNL     1     -32.246   9.166   0.665  1.00 20.00     0.224 C 
HETATM    9  O9  UNL     1     -31.225   8.867   0.052  1.00 20.00    -0.279 OA
HETATM   10 CL10 UNL     1     -32.925  10.760   0.809  1.00 20.00    -0.043 Cl
ENDBRANCH   1   8
TORSDOF 1
ENDMDL
MODEL 4
REMARK VINA RESULT:       1.4      0.912      2.583
REMARK  1 active torsions:
REMARK  status: ('A' for Active; 'I' for Inactive)
REMARK    1  A    between atoms: C1_1  and  C2_2 
ROOT
HETATM    1  C2  UNL     1     -32.841   6.817   2.973  1.00 20.00     0.089 A 
HETATM    2  C3  UNL     1     -32.264   7.680   1.862  1.00 20.00    -0.028 A 
HETATM    3  C4  UNL     1     -32.783   6.264   1.558  1.00 20.00    -0.028 A 
HETATM    4  C5  UNL     1     -30.772   7.935   1.883  1.00 20.00     0.016 C 
HETATM    5  C6  UNL     1     -33.035   8.881   1.356  1.00 20.00     0.016 C 
HETATM    6  C7  UNL     1     -34.056   6.092   0.758  1.00 20.00     0.016 C 
HETATM    7  C8  UNL     1     -31.792   5.153   1.286  1.00 20.00     0.016 C 
ENDROOT
BRANCH   1   8
HETATM    8  C1  UNL     1     -34.123   7.150   3.610  1.00 20.00     0.224 C 
HETATM    9  O9  UNL     1     -34.449   8.312   3.837  1.00 20.00    -0.279 OA
HETATM   10 CL10 UNL     1     -35.062   5.733   3.973  1.00 20.00    -0.043 Cl
ENDBRANCH   1   8
TORSDOF 1
ENDMDL
MODEL 5
REMARK VINA RESULT:       1.5      2.032      3.178
REMARK  1 active torsions:
REMARK  status: ('A' for Active; 'I' for Inactive)
REMARK    1  A    between atoms: C1_1  and  C2_2 
ROOT
HETATM    1  C2  UNL     1     -33.277   5.687   3.749  1.00 20.00     0.089 A 
HETATM    2  C3  UNL     1     -34.084   6.933   3.417  1.00 20.00    -0.028 A 
HETATM    3  C4  UNL     1     -33.216   6.257   2.340  1.00 20.00    -0.028 A 
HETATM    4  C5  UNL     1     -33.626   8.240   4.026  1.00 20.00     0.016 C 
HETATM    5  C6  UNL     1     -35.592   6.855   3.315  1.00 20.00     0.016 C 
HETATM    6  C7  UNL     1     -33.883   5.525   1.196  1.00 20.00     0.016 C 
HETATM    7  C8  UNL     1     -31.921   6.913   1.912  1.00 20.00     0.016 C 
ENDROOT
BRANCH   1   8
HETATM    8  C1  UNL     1     -33.936   4.402   4.023  1.00 20.00     0.224 C 
HETATM    9  O9  UNL     1     -33.418   3.332   3.717  1.00 20.00    -0.279 OA
HETATM   10 CL10 UNL     1     -35.475   4.610   4.804  1.00 20.00    -0.043 Cl
ENDBRANCH   1   8
TORSDOF 1
ENDMDL
MODEL 6
REMARK VINA RESULT:       1.9      1.430      2.792
REMARK  1 active torsions:
REMARK  status: ('A' for Active; 'I' for Inactive)
REMARK    1  A    between atoms: C1_1  and  C2_2 
ROOT
HETATM    1  C2  UNL     1     -32.724   6.896   3.006  1.00 20.00     0.089 A 
HETATM    2  C3  UNL     1     -32.260   7.738   1.827  1.00 20.00    -0.028 A 
HETATM    3  C4  UNL     1     -32.706   6.280   1.615  1.00 20.00    -0.028 A 
HETATM    4  C5  UNL     1     -30.787   8.081   1.755  1.00 20.00     0.016 C 
HETATM    5  C6  UNL     1     -33.128   8.865   1.312  1.00 20.00     0.016 C 
HETATM    6  C7  UNL     1     -34.006   5.995   0.895  1.00 20.00     0.016 C 
HETATM    7  C8  UNL     1     -31.663   5.219   1.339  1.00 20.00     0.016 C 
ENDROOT
BRANCH   1   8
HETATM    8  C1  UNL     1     -33.989   7.182   3.696  1.00 20.00     0.224 C 
HETATM    9  O9  UNL     1     -35.059   6.730   3.299  1.00 20.00    -0.279 OA
HETATM   10 CL10 UNL     1     -33.760   8.201   5.086  1.00 20.00    -0.043 Cl
ENDBRANCH   1   8
TORSDOF 1
ENDMDL
MODEL 7
REMARK VINA RESULT:       2.0      2.124      3.220
REMARK  1 active torsions:
REMARK  status: ('A' for Active; 'I' for Inactive)
REMARK    1  A    between atoms: C1_1  and  C2_2 
ROOT
HETATM    1  C2  UNL     1     -32.149   6.533   2.168  1.00 20.00     0.089 A 
HETATM    2  C3  UNL     1     -33.033   5.753   1.207  1.00 20.00    -0.028 A 
HETATM    3  C4  UNL     1     -33.385   5.826   2.703  1.00 20.00    -0.028 A 
HETATM    4  C5  UNL     1     -32.475   4.466   0.638  1.00 20.00     0.016 C 
HETATM    5  C6  UNL     1     -33.894   6.488   0.202  1.00 20.00     0.016 C 
HETATM    6  C7  UNL     1     -34.586   6.631   3.148  1.00 20.00     0.016 C 
HETATM    7  C8  UNL     1     -33.165   4.610   3.577  1.00 20.00     0.016 C 
ENDROOT
BRANCH   1   8
HETATM    8  C1  UNL     1     -32.073   7.999   2.115  1.00 20.00     0.224 C 
HETATM    9  O9  UNL     1     -32.130   8.611   1.051  1.00 20.00    -0.279 OA
HETATM   10 CL10 UNL     1     -31.900   8.705   3.694  1.00 20.00    -0.043 Cl
ENDBRANCH   1   8
TORSDOF 1
ENDMDL
MODEL 8
REMARK VINA RESULT:       2.1      2.490      3.829
REMARK  1 active torsions:
REMARK  status: ('A' for Active; 'I' for Inactive)
REMARK    1  A    between atoms: C1_1  and  C2_2 
ROOT
HETATM    1  C2  UNL     1     -33.870   6.877   2.386  1.00 20.00     0.089 A 
HETATM    2  C3  UNL     1     -33.831   7.551   3.749  1.00 20.00    -0.028 A 
HETATM    3  C4  UNL     1     -34.402   6.129   3.599  1.00 20.00    -0.028 A 
HETATM    4  C5  UNL     1     -34.778   8.710   3.979  1.00 20.00     0.016 C 
HETATM    5  C6  UNL     1     -32.510   7.752   4.459  1.00 20.00     0.016 C 
HETATM    6  C7  UNL     1     -33.633   4.954   4.162  1.00 20.00     0.016 C 
HETATM    7  C8  UNL     1     -35.898   5.918   3.683  1.00 20.00     0.016 C 
ENDROOT
BRANCH   1   8
HETATM    8  C1  UNL     1     -32.636   6.453   1.710  1.00 20.00     0.224 C 
HETATM    9  O9  UNL     1     -32.458   5.290   1.359  1.00 20.00    -0.279 OA
HETATM   10 CL10 UNL     1     -31.523   7.771   1.491  1.00 20.00    -0.043 Cl
ENDBRANCH   1   8
TORSDOF 1
ENDMDL
MODEL 9
REMARK VINA RESULT:       2.1      2.541      3.637
REMARK  1 active torsions:
REMARK  status: ('A' for Active; 'I' for Inactive)
REMARK    1  A    between atoms: C1_1  and  C2_2 
ROOT
HETATM    1  C2  UNL     1     -33.365   6.369   3.246  1.00 20.00     0.089 A 
HETATM    2  C3  UNL     1     -34.834   6.442   3.631  1.00 20.00    -0.028 A 
HETATM    3  C4  UNL     1     -33.889   7.617   3.938  1.00 20.00    -0.028 A 
HETATM    4  C5  UNL     1     -35.302   5.551   4.762  1.00 20.00     0.016 C 
HETATM    5  C6  UNL     1     -35.892   6.597   2.560  1.00 20.00     0.016 C 
HETATM    6  C7  UNL     1     -34.032   8.910   3.165  1.00 20.00     0.016 C 
HETATM    7  C8  UNL     1     -33.446   7.859   5.365  1.00 20.00     0.016 C 
ENDROOT
BRANCH   1   8
HETATM    8  C1  UNL     1     -32.943   6.397   1.839  1.00 20.00     0.224 C 
HETATM    9  O9  UNL     1     -33.328   5.556   1.032  1.00 20.00    -0.279 OA
HETATM   10 CL10 UNL     1     -31.876   7.727   1.501  1.00 20.00    -0.043 Cl
ENDBRANCH   1   8
TORSDOF 1
ENDMDL
