MODEL 1
REMARK VINA RESULT:       0.3      0.000      0.000
REMARK  2 active torsions:
REMARK  status: ('A' for Active; 'I' for Inactive)
REMARK    1  A    between atoms: C2_2  and  C3_3 
REMARK    2  A    between atoms: C2_2  and  C10_10 
ROOT
HETATM    1  C1  UNL     1     -34.598   4.925   4.286  1.00 20.00     0.066 C 
HETATM    2  C10 UNL     1     -35.065   6.304   4.110  1.00 20.00     0.202 C 
HETATM    3  N11 UNL     1     -34.232   3.833   4.425  1.00 20.00    -0.197 NA
ENDROOT
BRANCH   2   4
HETATM    4  C2  UNL     1     -33.937   7.252   3.775  1.00 20.00     0.145 C 
HETATM    5  O12 UNL     1     -33.220   7.805   4.598  1.00 20.00    -0.296 OA
BRANCH   4   6
HETATM    6  C3  UNL     1     -33.727   7.493   2.340  1.00 20.00     0.073 A 
HETATM    7  C4  UNL     1     -32.845   6.576   1.507  1.00 20.00    -0.029 A 
HETATM    8  C5  UNL     1     -32.398   8.016   1.816  1.00 20.00    -0.029 A 
HETATM    9  C6  UNL     1     -33.324   6.231   0.113  1.00 20.00     0.016 C 
HETATM   10  C7  UNL     1     -32.126   5.416   2.159  1.00 20.00     0.016 C 
HETATM   11  C8  UNL     1     -31.245   8.250   2.768  1.00 20.00     0.016 C 
HETATM   12  C9  UNL     1     -32.445   9.058   0.719  1.00 20.00     0.016 C 
ENDBRANCH   4   6
ENDBRANCH   2   4
TORSDOF 2
ENDMDL
MODEL 2
REMARK VINA RESULT:       0.6      0.860      2.375
REMARK  2 active torsions:
REMARK  status: ('A' for Active; 'I' for Inactive)
REMARK    1  A    between atoms: C2_2  and  C3_3 
REMARK    2  A    between atoms: C2_2  and  C10_10 
ROOT
HETATM    1  C1  UNL     1     -34.405   4.597   4.122  1.00 20.00     0.066 C 
HETATM    2  C10 UNL     1     -35.088   5.843   3.758  1.00 20.00     0.202 C 
HETATM    3  N11 UNL     1     -33.868   3.611   4.411  1.00 20.00    -0.197 NA
ENDROOT
BRANCH   2   4
HETATM    4  C2  UNL     1     -34.129   7.002   3.619  1.00 20.00     0.145 C 
HETATM    5  O12 UNL     1     -34.340   8.138   4.022  1.00 20.00    -0.296 OA
BRANCH   4   6
HETATM    6  C3  UNL     1     -32.862   6.689   2.941  1.00 20.00     0.073 A 
HETATM    7  C4  UNL     1     -32.290   7.610   1.875  1.00 20.00    -0.029 A 
HETATM    8  C5  UNL     1     -32.837   6.224   1.493  1.00 20.00    -0.029 A 
HETATM    9  C6  UNL     1     -30.794   7.840   1.887  1.00 20.00     0.016 C 
HETATM   10  C7  UNL     1     -33.047   8.852   1.458  1.00 20.00     0.016 C 
HETATM   11  C8  UNL     1     -34.125   6.121   0.706  1.00 20.00     0.016 C 
HETATM   12  C9  UNL     1     -31.868   5.117   1.136  1.00 20.00     0.016 C 
ENDBRANCH   4   6
ENDBRANCH   2   4
TORSDOF 2
ENDMDL
MODEL 3
REMARK VINA RESULT:       1.3      2.614      4.417
REMARK  2 active torsions:
REMARK  status: ('A' for Active; 'I' for Inactive)
REMARK    1  A    between atoms: C2_2  and  C3_3 
REMARK    2  A    between atoms: C2_2  and  C10_10 
ROOT
HETATM    1  C1  UNL     1     -32.094   8.870   0.886  1.00 20.00     0.066 C 
HETATM    2  C10 UNL     1     -31.569   7.715   1.622  1.00 20.00     0.202 C 
HETATM    3  N11 UNL     1     -32.505   9.785   0.304  1.00 20.00    -0.197 NA
ENDROOT
BRANCH   2   4
HETATM    4  C2  UNL     1     -32.594   6.614   1.766  1.00 20.00     0.145 C 
HETATM    5  O12 UNL     1     -32.446   5.464   1.376  1.00 20.00    -0.296 OA
BRANCH   4   6
HETATM    6  C3  UNL     1     -33.844   7.007   2.432  1.00 20.00     0.073 A 
HETATM    7  C4  UNL     1     -33.839   7.603   3.831  1.00 20.00    -0.029 A 
HETATM    8  C5  UNL     1     -34.409   6.195   3.588  1.00 20.00    -0.029 A 
HETATM    9  C6  UNL     1     -34.787   8.752   4.100  1.00 20.00     0.016 C 
HETATM   10  C7  UNL     1     -32.536   7.761   4.585  1.00 20.00     0.016 C 
HETATM   11  C8  UNL     1     -33.659   4.987   4.107  1.00 20.00     0.016 C 
HETATM   12  C9  UNL     1     -35.908   5.986   3.624  1.00 20.00     0.016 C 
ENDBRANCH   4   6
ENDBRANCH   2   4
TORSDOF 2
ENDMDL
MODEL 4
REMARK VINA RESULT:       1.3      2.657      4.241
REMARK  2 active torsions:
REMARK  status: ('A' for Active; 'I' for Inactive)
REMARK    1  A    between atoms: C2_2  and  C3_3 
REMARK    2  A    between atoms: C2_2  and  C10_10 
ROOT
HETATM    1  C1  UNL     1     -32.298   9.698   0.436  1.00 20.00     0.066 C 
HETATM    2  C10 UNL     1     -31.601   8.443   0.736  1.00 20.00     0.202 C 
HETATM    3  N11 UNL     1     -32.847  10.691   0.196  1.00 20.00    -0.197 NA
ENDROOT
BRANCH   2   4
HETATM    4  C2  UNL     1     -32.025   7.857   2.063  1.00 20.00     0.145 C 
HETATM    5  O12 UNL     1     -32.270   8.508   3.070  1.00 20.00    -0.296 OA
BRANCH   4   6
HETATM    6  C3  UNL     1     -32.135   6.391   2.093  1.00 20.00     0.073 A 
HETATM    7  C4  UNL     1     -33.088   5.653   1.167  1.00 20.00    -0.029 A 
HETATM    8  C5  UNL     1     -33.359   5.705   2.680  1.00 20.00    -0.029 A 
HETATM    9  C6  UNL     1     -32.594   4.364   0.546  1.00 20.00     0.016 C 
HETATM   10  C7  UNL     1     -33.981   6.427   0.221  1.00 20.00     0.016 C 
HETATM   11  C8  UNL     1     -34.515   6.531   3.202  1.00 20.00     0.016 C 
HETATM   12  C9  UNL     1     -33.127   4.467   3.519  1.00 20.00     0.016 C 
ENDBRANCH   4   6
ENDBRANCH   2   4
TORSDOF 2
ENDMDL
MODEL 5
REMARK VINA RESULT:       1.9      2.664      4.311
REMARK  2 active torsions:
REMARK  status: ('A' for Active; 'I' for Inactive)
REMARK    1  A    between atoms: C2_2  and  C3_3 
REMARK    2  A    between atoms: C2_2  and  C10_10 
ROOT
HETATM    1  C1  UNL     1     -32.151   8.791   0.816  1.00 20.00     0.066 C 
HETATM    2  C10 UNL     1     -31.781   7.644   1.652  1.00 20.00     0.202 C 
HETATM    3  N11 UNL     1     -32.440   9.700   0.156  1.00 20.00    -0.197 NA
ENDROOT
BRANCH   2   4
HETATM    4  C2  UNL     1     -32.938   6.696   1.866  1.00 20.00     0.145 C 
HETATM    5  O12 UNL     1     -33.523   6.092   0.977  1.00 20.00    -0.296 OA
BRANCH   4   6
HETATM    6  C3  UNL     1     -33.354   6.521   3.266  1.00 20.00     0.073 A 
HETATM    7  C4  UNL     1     -34.824   6.444   3.647  1.00 20.00    -0.029 A 
HETATM    8  C5  UNL     1     -33.978   7.665   4.050  1.00 20.00    -0.029 A 
HETATM    9  C6  UNL     1     -35.215   5.432   4.702  1.00 20.00     0.016 C 
HETATM   10  C7  UNL     1     -35.893   6.594   2.587  1.00 20.00     0.016 C 
HETATM   11  C8  UNL     1     -34.228   8.999   3.380  1.00 20.00     0.016 C 
HETATM   12  C9  UNL     1     -33.555   7.829   5.494  1.00 20.00     0.016 C 
ENDBRANCH   4   6
ENDBRANCH   2   4
TORSDOF 2
ENDMDL
MODEL 6
REMARK VINA RESULT:       2.1      1.970      3.248
REMARK  2 active torsions:
REMARK  status: ('A' for Active; 'I' for Inactive)
REMARK    1  A    between atoms: C2_2  and  C3_3 
REMARK    2  A    between atoms: C2_2  and  C10_10 
ROOT
HETATM    1  C1  UNL     1     -32.782   3.042   5.400  1.00 20.00     0.066 C 
HETATM    2  C10 UNL     1     -33.439   3.284   4.111  1.00 20.00     0.202 C 
HETATM    3  N11 UNL     1     -32.260   2.848   6.418  1.00 20.00    -0.197 NA
ENDROOT
BRANCH   2   4
HETATM    4  C2  UNL     1     -34.259   4.553   4.117  1.00 20.00     0.145 C 
HETATM    5  O12 UNL     1     -35.462   4.610   4.338  1.00 20.00    -0.296 OA
BRANCH   4   6
HETATM    6  C3  UNL     1     -33.509   5.785   3.830  1.00 20.00     0.073 A 
HETATM    7  C4  UNL     1     -34.218   7.054   3.387  1.00 20.00    -0.029 A 
HETATM    8  C5  UNL     1     -33.323   6.280   2.404  1.00 20.00    -0.029 A 
HETATM    9  C6  UNL     1     -33.726   8.364   3.965  1.00 20.00     0.016 C 
HETATM   10  C7  UNL     1     -35.718   7.056   3.186  1.00 20.00     0.016 C 
HETATM   11  C8  UNL     1     -33.954   5.530   1.251  1.00 20.00     0.016 C 
HETATM   12  C9  UNL     1     -31.967   6.843   2.035  1.00 20.00     0.016 C 
ENDBRANCH   4   6
ENDBRANCH   2   4
TORSDOF 2
ENDMDL
MODEL 7
REMARK VINA RESULT:       2.1      1.740      2.882
REMARK  2 active torsions:
REMARK  status: ('A' for Active; 'I' for Inactive)
REMARK    1  A    between atoms: C2_2  and  C3_3 
REMARK    2  A    between atoms: C2_2  and  C10_10 
ROOT
HETATM    1  C1  UNL     1     -33.557   3.590   4.274  1.00 20.00     0.066 C 
HETATM    2  C10 UNL     1     -34.233   4.570   3.417  1.00 20.00     0.202 C 
HETATM    3  N11 UNL     1     -33.027   2.813   4.952  1.00 20.00    -0.197 NA
ENDROOT
BRANCH   2   4
HETATM    4  C2  UNL     1     -33.255   5.404   2.621  1.00 20.00     0.145 C 
HETATM    5  O12 UNL     1     -32.931   5.187   1.461  1.00 20.00    -0.296 OA
BRANCH   4   6
HETATM    6  C3  UNL     1     -32.679   6.549   3.340  1.00 20.00     0.073 A 
HETATM    7  C4  UNL     1     -33.545   7.716   3.789  1.00 20.00    -0.029 A 
HETATM    8  C5  UNL     1     -32.512   7.901   2.664  1.00 20.00    -0.029 A 
HETATM    9  C6  UNL     1     -33.266   8.302   5.156  1.00 20.00     0.016 C 
HETATM   10  C7  UNL     1     -35.021   7.737   3.457  1.00 20.00     0.016 C 
HETATM   11  C8  UNL     1     -32.987   8.102   1.241  1.00 20.00     0.016 C 
HETATM   12  C9  UNL     1     -31.238   8.668   2.946  1.00 20.00     0.016 C 
ENDBRANCH   4   6
ENDBRANCH   2   4
TORSDOF 2
ENDMDL
MODEL 8
REMARK VINA RESULT:       2.2      2.704      4.234
REMARK  2 active torsions:
REMARK  status: ('A' for Active; 'I' for Inactive)
REMARK    1  A    between atoms: C2_2  and  C3_3 
REMARK    2  A    between atoms: C2_2  and  C10_10 
ROOT
HETATM    1  C1  UNL     1     -32.363   9.673  -0.113  1.00 20.00     0.066 C 
HETATM    2  C10 UNL     1     -31.388   8.919   0.683  1.00 20.00     0.202 C 
HETATM    3  N11 UNL     1     -33.131  10.269  -0.745  1.00 20.00    -0.197 NA
ENDROOT
BRANCH   2   4
HETATM    4  C2  UNL     1     -31.995   8.357   1.948  1.00 20.00     0.145 C 
HETATM    5  O12 UNL     1     -31.573   8.563   3.078  1.00 20.00    -0.296 OA
BRANCH   4   6
HETATM    6  C3  UNL     1     -33.177   7.507   1.751  1.00 20.00     0.073 A 
HETATM    7  C4  UNL     1     -33.739   6.663   2.885  1.00 20.00    -0.029 A 
HETATM    8  C5  UNL     1     -33.056   5.992   1.680  1.00 20.00    -0.029 A 
HETATM    9  C6  UNL     1     -35.245   6.592   3.018  1.00 20.00     0.016 C 
HETATM   10  C7  UNL     1     -33.053   6.651   4.234  1.00 20.00     0.016 C 
HETATM   11  C8  UNL     1     -31.707   5.329   1.862  1.00 20.00     0.016 C 
HETATM   12  C9  UNL     1     -33.903   5.274   0.653  1.00 20.00     0.016 C 
ENDBRANCH   4   6
ENDBRANCH   2   4
TORSDOF 2
ENDMDL
MODEL 9
REMARK VINA RESULT:       2.4      2.462      4.197
REMARK  2 active torsions:
REMARK  status: ('A' for Active; 'I' for Inactive)
REMARK    1  A    between atoms: C2_2  and  C3_3 
REMARK    2  A    between atoms: C2_2  and  C10_10 
ROOT
HETATM    1  C1  UNL     1     -32.216   8.904   1.118  1.00 20.00     0.066 C 
HETATM    2  C10 UNL     1     -32.045   7.947   2.216  1.00 20.00     0.202 C 
HETATM    3  N11 UNL     1     -32.348   9.660   0.248  1.00 20.00    -0.197 NA
ENDROOT
BRANCH   2   4
HETATM    4  C2  UNL     1     -33.234   7.926   3.148  1.00 20.00     0.145 C 
HETATM    5  O12 UNL     1     -33.941   8.893   3.403  1.00 20.00    -0.296 OA
BRANCH   4   6
HETATM    6  C3  UNL     1     -33.522   6.625   3.768  1.00 20.00     0.073 A 
HETATM    7  C4  UNL     1     -33.700   5.372   2.925  1.00 20.00    -0.029 A 
HETATM    8  C5  UNL     1     -34.900   5.990   3.664  1.00 20.00    -0.029 A 
HETATM    9  C6  UNL     1     -33.087   4.091   3.448  1.00 20.00     0.016 C 
HETATM   10  C7  UNL     1     -33.629   5.456   1.416  1.00 20.00     0.016 C 
HETATM   11  C8  UNL     1     -35.993   6.673   2.870  1.00 20.00     0.016 C 
HETATM   12  C9  UNL     1     -35.444   5.304   4.898  1.00 20.00     0.016 C 
ENDBRANCH   4   6
ENDBRANCH   2   4
TORSDOF 2
ENDMDL
