MODEL 1
REMARK VINA RESULT:       1.1      0.000      0.000
REMARK  4 active torsions:
REMARK  status: ('A' for Active; 'I' for Inactive)
REMARK    1  A    between atoms: C1_1  and  C7_7 
REMARK    2  A    between atoms: C1_1  and  C9_9 
REMARK    3  A    between atoms: C8_8  and  C9_9 
REMARK    4  A    between atoms: C9_9  and  N10_10 
ROOT
HETATM    1  C4  UNL     1     -31.795   5.316   1.664  1.00 20.00     0.058 C 
HETATM    2  C9  UNL     1     -32.836   6.419   1.891  1.00 20.00     0.214 C 
ENDROOT
BRANCH   2   3
HETATM    3  C1  UNL     1     -32.167   7.809   1.876  1.00 20.00     0.165 C 
HETATM    4  O11 UNL     1     -31.811   8.365   2.918  1.00 20.00    -0.295 OA
BRANCH   3   5
HETATM    5  C7  UNL     1     -31.972   8.486   0.524  1.00 20.00     0.076 C 
HETATM    6  C2  UNL     1     -32.523   9.903   0.498  1.00 20.00     0.013 C 
ENDBRANCH   3   5
ENDBRANCH   2   3
BRANCH   2   7
HETATM    7  C8  UNL     1     -33.951   6.319   0.827  1.00 20.00     0.045 C 
HETATM    8  C3  UNL     1     -33.882   5.090  -0.076  1.00 20.00     0.008 C 
ENDBRANCH   2   7
BRANCH   2   9
HETATM    9  N10 UNL     1     -33.397   6.208   3.233  1.00 20.00     0.096 N 
HETATM   10  C5  UNL     1     -33.628   4.785   3.464  1.00 20.00     0.310 C 
HETATM   11  C6  UNL     1     -34.636   6.965   3.386  1.00 20.00     0.310 C 
ENDBRANCH   2   9
TORSDOF 4
ENDMDL
MODEL 2
REMARK VINA RESULT:       1.2      2.187      4.208
REMARK  4 active torsions:
REMARK  status: ('A' for Active; 'I' for Inactive)
REMARK    1  A    between atoms: C1_1  and  C7_7 
REMARK    2  A    between atoms: C1_1  and  C9_9 
REMARK    3  A    between atoms: C8_8  and  C9_9 
REMARK    4  A    between atoms: C9_9  and  N10_10 
ROOT
HETATM    1  C4  UNL     1     -35.531   6.928   3.112  1.00 20.00     0.058 C 
HETATM    2  C9  UNL     1     -34.190   6.184   3.096  1.00 20.00     0.214 C 
ENDROOT
BRANCH   2   3
HETATM    3  C1  UNL     1     -34.275   4.895   3.941  1.00 20.00     0.165 C 
HETATM    4  O11 UNL     1     -35.258   4.647   4.644  1.00 20.00    -0.295 OA
BRANCH   3   5
HETATM    5  C7  UNL     1     -33.091   3.937   3.889  1.00 20.00     0.076 C 
HETATM    6  C2  UNL     1     -33.186   2.838   4.935  1.00 20.00     0.013 C 
ENDBRANCH   3   5
ENDBRANCH   2   3
BRANCH   2   7
HETATM    7  C8  UNL     1     -33.773   5.878   1.641  1.00 20.00     0.045 C 
HETATM    8  C3  UNL     1     -32.312   5.478   1.453  1.00 20.00     0.008 C 
ENDBRANCH   2   7
BRANCH   2   9
HETATM    9  N10 UNL     1     -33.202   7.068   3.731  1.00 20.00     0.096 N 
HETATM   10  C5  UNL     1     -33.833   7.846   4.794  1.00 20.00     0.310 C 
HETATM   11  C6  UNL     1     -32.599   7.947   2.735  1.00 20.00     0.310 C 
ENDBRANCH   2   9
TORSDOF 4
ENDMDL
MODEL 3
REMARK VINA RESULT:       1.4      1.447      3.679
REMARK  4 active torsions:
REMARK  status: ('A' for Active; 'I' for Inactive)
REMARK    1  A    between atoms: C1_1  and  C7_7 
REMARK    2  A    between atoms: C1_1  and  C9_9 
REMARK    3  A    between atoms: C8_8  and  C9_9 
REMARK    4  A    between atoms: C9_9  and  N10_10 
ROOT
HETATM    1  C4  UNL     1     -33.794   6.713   0.662  1.00 20.00     0.058 C 
HETATM    2  C9  UNL     1     -32.916   6.853   1.911  1.00 20.00     0.214 C 
ENDROOT
BRANCH   2   3
HETATM    3  C1  UNL     1     -33.757   6.663   3.191  1.00 20.00     0.165 C 
HETATM    4  O11 UNL     1     -34.084   7.620   3.897  1.00 20.00    -0.295 OA
BRANCH   3   5
HETATM    5  C7  UNL     1     -34.163   5.241   3.565  1.00 20.00     0.076 C 
HETATM    6  C2  UNL     1     -35.362   5.207   4.500  1.00 20.00     0.013 C 
ENDBRANCH   3   5
ENDBRANCH   2   3
BRANCH   2   7
HETATM    7  C8  UNL     1     -31.747   5.845   1.850  1.00 20.00     0.045 C 
HETATM    8  C3  UNL     1     -31.844   4.801   0.741  1.00 20.00     0.008 C 
ENDBRANCH   2   7
BRANCH   2   9
HETATM    9  N10 UNL     1     -32.399   8.229   1.919  1.00 20.00     0.096 N 
HETATM   10  C5  UNL     1     -32.363   8.761   0.559  1.00 20.00     0.310 C 
HETATM   11  C6  UNL     1     -31.070   8.264   2.523  1.00 20.00     0.310 C 
ENDBRANCH   2   9
TORSDOF 4
ENDMDL
MODEL 4
REMARK VINA RESULT:       1.5      1.690      3.130
REMARK  4 active torsions:
REMARK  status: ('A' for Active; 'I' for Inactive)
REMARK    1  A    between atoms: C1_1  and  C7_7 
REMARK    2  A    between atoms: C1_1  and  C9_9 
REMARK    3  A    between atoms: C8_8  and  C9_9 
REMARK    4  A    between atoms: C9_9  and  N10_10 
ROOT
HETATM    1  C4  UNL     1     -35.172   7.278   2.996  1.00 20.00     0.058 C 
HETATM    2  C9  UNL     1     -33.895   6.469   3.252  1.00 20.00     0.214 C 
ENDROOT
BRANCH   2   3
HETATM    3  C1  UNL     1     -33.021   6.417   1.981  1.00 20.00     0.165 C 
HETATM    4  O11 UNL     1     -33.225   5.588   1.091  1.00 20.00    -0.295 OA
BRANCH   3   5
HETATM    5  C7  UNL     1     -31.879   7.421   1.867  1.00 20.00     0.076 C 
HETATM    6  C2  UNL     1     -32.289   8.685   1.128  1.00 20.00     0.013 C 
ENDBRANCH   3   5
ENDBRANCH   2   3
BRANCH   2   7
HETATM    7  C8  UNL     1     -33.120   7.069   4.445  1.00 20.00     0.045 C 
HETATM    8  C3  UNL     1     -33.698   8.363   5.014  1.00 20.00     0.008 C 
ENDBRANCH   2   7
BRANCH   2   9
HETATM    9  N10 UNL     1     -34.314   5.094   3.560  1.00 20.00     0.096 N 
HETATM   10  C5  UNL     1     -35.389   5.105   4.549  1.00 20.00     0.310 C 
HETATM   11  C6  UNL     1     -33.176   4.317   4.042  1.00 20.00     0.310 C 
ENDBRANCH   2   9
TORSDOF 4
ENDMDL
MODEL 5
REMARK VINA RESULT:       1.5      1.157      3.290
REMARK  4 active torsions:
REMARK  status: ('A' for Active; 'I' for Inactive)
REMARK    1  A    between atoms: C1_1  and  C7_7 
REMARK    2  A    between atoms: C1_1  and  C9_9 
REMARK    3  A    between atoms: C8_8  and  C9_9 
REMARK    4  A    between atoms: C9_9  and  N10_10 
ROOT
HETATM    1  C4  UNL     1     -31.139   7.640   2.224  1.00 20.00     0.058 C 
HETATM    2  C9  UNL     1     -32.657   7.467   2.100  1.00 20.00     0.214 C 
ENDROOT
BRANCH   2   3
HETATM    3  C1  UNL     1     -33.336   7.628   3.476  1.00 20.00     0.165 C 
HETATM    4  O11 UNL     1     -32.707   8.012   4.466  1.00 20.00    -0.295 OA
BRANCH   3   5
HETATM    5  C7  UNL     1     -34.817   7.282   3.579  1.00 20.00     0.076 C 
HETATM    6  C2  UNL     1     -35.052   5.906   4.182  1.00 20.00     0.013 C 
ENDBRANCH   3   5
ENDBRANCH   2   3
BRANCH   2   7
HETATM    7  C8  UNL     1     -33.221   8.472   1.072  1.00 20.00     0.045 C 
HETATM    8  C3  UNL     1     -32.222   9.503   0.553  1.00 20.00     0.008 C 
ENDBRANCH   2   7
BRANCH   2   9
HETATM    9  N10 UNL     1     -32.895   6.090   1.645  1.00 20.00     0.096 N 
HETATM   10  C5  UNL     1     -31.628   5.377   1.513  1.00 20.00     0.310 C 
HETATM   11  C6  UNL     1     -33.620   6.096   0.378  1.00 20.00     0.310 C 
ENDBRANCH   2   9
TORSDOF 4
ENDMDL
MODEL 6
REMARK VINA RESULT:       1.6      0.756      2.265
REMARK  4 active torsions:
REMARK  status: ('A' for Active; 'I' for Inactive)
REMARK    1  A    between atoms: C1_1  and  C7_7 
REMARK    2  A    between atoms: C1_1  and  C9_9 
REMARK    3  A    between atoms: C8_8  and  C9_9 
REMARK    4  A    between atoms: C9_9  and  N10_10 
ROOT
HETATM    1  C4  UNL     1     -33.795   6.450   0.573  1.00 20.00     0.058 C 
HETATM    2  C9  UNL     1     -33.164   6.728   1.942  1.00 20.00     0.214 C 
ENDROOT
BRANCH   2   3
HETATM    3  C1  UNL     1     -32.185   7.918   1.857  1.00 20.00     0.165 C 
HETATM    4  O11 UNL     1     -31.517   8.274   2.831  1.00 20.00    -0.295 OA
BRANCH   3   5
HETATM    5  C7  UNL     1     -32.080   8.654   0.526  1.00 20.00     0.076 C 
HETATM    6  C2  UNL     1     -32.625  10.071   0.602  1.00 20.00     0.013 C 
ENDBRANCH   3   5
ENDBRANCH   2   3
BRANCH   2   7
HETATM    7  C8  UNL     1     -34.269   6.981   2.991  1.00 20.00     0.045 C 
HETATM    8  C3  UNL     1     -33.859   7.860   4.170  1.00 20.00     0.008 C 
ENDBRANCH   2   7
BRANCH   2   9
HETATM    9  N10 UNL     1     -32.385   5.535   2.305  1.00 20.00     0.096 N 
HETATM   10  C5  UNL     1     -31.878   4.880   1.102  1.00 20.00     0.310 C 
HETATM   11  C6  UNL     1     -33.206   4.616   3.087  1.00 20.00     0.310 C 
ENDBRANCH   2   9
TORSDOF 4
ENDMDL
MODEL 7
REMARK VINA RESULT:       2.1      1.456      2.020
REMARK  4 active torsions:
REMARK  status: ('A' for Active; 'I' for Inactive)
REMARK    1  A    between atoms: C1_1  and  C7_7 
REMARK    2  A    between atoms: C1_1  and  C9_9 
REMARK    3  A    between atoms: C8_8  and  C9_9 
REMARK    4  A    between atoms: C9_9  and  N10_10 
ROOT
HETATM    1  C4  UNL     1     -31.243   7.667   2.823  1.00 20.00     0.058 C 
HETATM    2  C9  UNL     1     -32.668   7.768   2.265  1.00 20.00     0.214 C 
ENDROOT
BRANCH   2   3
HETATM    3  C1  UNL     1     -32.819   9.027   1.385  1.00 20.00     0.165 C 
HETATM    4  O11 UNL     1     -33.528   9.975   1.731  1.00 20.00    -0.295 OA
BRANCH   3   5
HETATM    5  C7  UNL     1     -32.070   9.056   0.058  1.00 20.00     0.076 C 
HETATM    6  C2  UNL     1     -32.551  10.172  -0.856  1.00 20.00     0.013 C 
ENDBRANCH   3   5
ENDBRANCH   2   3
BRANCH   2   7
HETATM    7  C8  UNL     1     -33.019   6.486   1.478  1.00 20.00     0.045 C 
HETATM    8  C3  UNL     1     -31.864   5.508   1.278  1.00 20.00     0.008 C 
ENDBRANCH   2   7
BRANCH   2   9
HETATM    9  N10 UNL     1     -33.570   7.918   3.416  1.00 20.00     0.096 N 
HETATM   10  C5  UNL     1     -32.799   8.186   4.627  1.00 20.00     0.310 C 
HETATM   11  C6  UNL     1     -34.386   6.719   3.576  1.00 20.00     0.310 C 
ENDBRANCH   2   9
TORSDOF 4
ENDMDL
MODEL 8
REMARK VINA RESULT:       2.1      2.204      4.429
REMARK  4 active torsions:
REMARK  status: ('A' for Active; 'I' for Inactive)
REMARK    1  A    between atoms: C1_1  and  C7_7 
REMARK    2  A    between atoms: C1_1  and  C9_9 
REMARK    3  A    between atoms: C8_8  and  C9_9 
REMARK    4  A    between atoms: C9_9  and  N10_10 
ROOT
HETATM    1  C4  UNL     1     -34.109   7.444   4.488  1.00 20.00     0.058 C 
HETATM    2  C9  UNL     1     -34.205   6.370   3.398  1.00 20.00     0.214 C 
ENDROOT
BRANCH   2   3
HETATM    3  C1  UNL     1     -34.418   4.977   4.026  1.00 20.00     0.165 C 
HETATM    4  O11 UNL     1     -35.412   4.722   4.712  1.00 20.00    -0.295 OA
BRANCH   3   5
HETATM    5  C7  UNL     1     -33.346   3.920   3.784  1.00 20.00     0.076 C 
HETATM    6  C2  UNL     1     -33.162   2.995   4.976  1.00 20.00     0.013 C 
ENDBRANCH   3   5
ENDBRANCH   2   3
BRANCH   2   7
HETATM    7  C8  UNL     1     -35.338   6.721   2.410  1.00 20.00     0.045 C 
HETATM    8  C3  UNL     1     -36.715   6.918   3.039  1.00 20.00     0.008 C 
ENDBRANCH   2   7
BRANCH   2   9
HETATM    9  N10 UNL     1     -32.912   6.351   2.700  1.00 20.00     0.096 N 
HETATM   10  C5  UNL     1     -32.388   7.708   2.573  1.00 20.00     0.310 C 
HETATM   11  C6  UNL     1     -33.057   5.728   1.387  1.00 20.00     0.310 C 
ENDBRANCH   2   9
TORSDOF 4
ENDMDL
MODEL 9
REMARK VINA RESULT:       2.4      1.827      3.972
REMARK  4 active torsions:
REMARK  status: ('A' for Active; 'I' for Inactive)
REMARK    1  A    between atoms: C1_1  and  C7_7 
REMARK    2  A    between atoms: C1_1  and  C9_9 
REMARK    3  A    between atoms: C8_8  and  C9_9 
REMARK    4  A    between atoms: C9_9  and  N10_10 
ROOT
HETATM    1  C4  UNL     1     -34.278   6.402   1.468  1.00 20.00     0.058 C 
HETATM    2  C9  UNL     1     -33.551   6.310   2.816  1.00 20.00     0.214 C 
ENDROOT
BRANCH   2   3
HETATM    3  C1  UNL     1     -33.081   4.864   3.081  1.00 20.00     0.165 C 
HETATM    4  O11 UNL     1     -32.099   4.389   2.506  1.00 20.00    -0.295 OA
BRANCH   3   5
HETATM    5  C7  UNL     1     -33.885   4.030   4.072  1.00 20.00     0.076 C 
HETATM    6  C2  UNL     1     -33.045   2.953   4.740  1.00 20.00     0.013 C 
ENDBRANCH   3   5
ENDBRANCH   2   3
BRANCH   2   7
HETATM    7  C8  UNL     1     -32.368   7.301   2.847  1.00 20.00     0.045 C 
HETATM    8  C3  UNL     1     -31.983   7.899   1.496  1.00 20.00     0.008 C 
ENDBRANCH   2   7
BRANCH   2   9
HETATM    9  N10 UNL     1     -34.531   6.657   3.855  1.00 20.00     0.096 N 
HETATM   10  C5  UNL     1     -35.853   6.834   3.261  1.00 20.00     0.310 C 
HETATM   11  C6  UNL     1     -34.113   7.867   4.557  1.00 20.00     0.310 C 
ENDBRANCH   2   9
TORSDOF 4
ENDMDL
