MODEL 1
REMARK VINA RESULT:      -0.8      0.000      0.000
REMARK  4 active torsions:
REMARK  status: ('A' for Active; 'I' for Inactive)
REMARK    1  A    between atoms: C4_4  and  C9_9 
REMARK    2  A    between atoms: C7_7  and  C8_8 
REMARK    3  A    between atoms: C8_8  and  C9_9 
REMARK    4  A    between atoms: C9_9  and  O11_11 
ROOT
HETATM    1  C1  UNL     1     -32.671   5.784   1.595  1.00 20.00     0.067 C 
HETATM    2  C8  UNL     1     -33.251   7.064   2.069  1.00 20.00     0.126 C 
HETATM    3  N10 UNL     1     -32.222   4.779   1.225  1.00 20.00    -0.197 NA
ENDROOT
BRANCH   2   4
HETATM    4  C7  UNL     1     -33.637   6.919   3.561  1.00 20.00     0.018 C 
HETATM    5  C5  UNL     1     -35.096   6.522   3.765  1.00 20.00     0.006 C 
ENDBRANCH   2   4
BRANCH   2   6
HETATM    6  C9  UNL     1     -32.269   8.254   1.801  1.00 20.00     0.074 C 
HETATM    7  C6  UNL     1     -31.727   8.820   3.101  1.00 20.00     0.047 C 
BRANCH   6   8
HETATM    8  C4  UNL     1     -32.948   9.394   1.019  1.00 20.00     0.021 A 
HETATM    9  C2  UNL     1     -32.164  10.617   0.629  1.00 20.00     0.008 A 
HETATM   10  C3  UNL     1     -32.599   9.635  -0.424  1.00 20.00     0.008 A 
ENDBRANCH   6   8
BRANCH   6  11
HETATM   11  O11 UNL     1     -31.166   7.779   1.024  1.00 20.00    -0.388 OA
HETATM   12  H26 UNL     1     -31.482   7.723   0.110  1.00 20.00     0.210 HD
ENDBRANCH   6  11
ENDBRANCH   2   6
TORSDOF 4
ENDMDL
MODEL 2
REMARK VINA RESULT:      -0.2      2.318      3.226
REMARK  4 active torsions:
REMARK  status: ('A' for Active; 'I' for Inactive)
REMARK    1  A    between atoms: C4_4  and  C9_9 
REMARK    2  A    between atoms: C7_7  and  C8_8 
REMARK    3  A    between atoms: C8_8  and  C9_9 
REMARK    4  A    between atoms: C9_9  and  O11_11 
ROOT
HETATM    1  C1  UNL     1     -34.475   6.122   3.602  1.00 20.00     0.067 C 
HETATM    2  C8  UNL     1     -33.231   5.424   3.195  1.00 20.00     0.126 C 
HETATM    3  N10 UNL     1     -35.447   6.667   3.926  1.00 20.00    -0.197 NA
ENDROOT
BRANCH   2   4
HETATM    4  C7  UNL     1     -33.469   3.895   3.262  1.00 20.00     0.018 C 
HETATM    5  C5  UNL     1     -33.442   3.348   4.687  1.00 20.00     0.006 C 
ENDBRANCH   2   4
BRANCH   2   6
HETATM    6  C9  UNL     1     -32.754   5.909   1.785  1.00 20.00     0.074 C 
HETATM    7  C6  UNL     1     -32.041   4.798   1.035  1.00 20.00     0.047 C 
BRANCH   6   8
HETATM    8  C4  UNL     1     -31.804   7.117   1.885  1.00 20.00     0.021 A 
HETATM    9  C2  UNL     1     -32.053   8.347   1.055  1.00 20.00     0.008 A 
HETATM   10  C3  UNL     1     -32.263   8.389   2.544  1.00 20.00     0.008 A 
ENDBRANCH   6   8
BRANCH   6  11
HETATM   11  O11 UNL     1     -33.897   6.305   1.020  1.00 20.00    -0.388 OA
HETATM   12  H26 UNL     1     -34.384   5.491   0.821  1.00 20.00     0.210 HD
ENDBRANCH   6  11
ENDBRANCH   2   6
TORSDOF 4
ENDMDL
MODEL 3
REMARK VINA RESULT:       0.0      1.472      2.241
REMARK  4 active torsions:
REMARK  status: ('A' for Active; 'I' for Inactive)
REMARK    1  A    between atoms: C4_4  and  C9_9 
REMARK    2  A    between atoms: C7_7  and  C8_8 
REMARK    3  A    between atoms: C8_8  and  C9_9 
REMARK    4  A    between atoms: C9_9  and  O11_11 
ROOT
HETATM    1  C1  UNL     1     -33.957   6.712   3.212  1.00 20.00     0.067 C 
HETATM    2  C8  UNL     1     -32.756   6.566   2.354  1.00 20.00     0.126 C 
HETATM    3  N10 UNL     1     -34.898   6.821   3.884  1.00 20.00    -0.197 NA
ENDROOT
BRANCH   2   4
HETATM    4  C7  UNL     1     -33.152   5.817   1.059  1.00 20.00     0.018 C 
HETATM    5  C5  UNL     1     -32.137   4.753   0.648  1.00 20.00     0.006 C 
ENDBRANCH   2   4
BRANCH   2   6
HETATM    6  C9  UNL     1     -32.093   7.957   2.081  1.00 20.00     0.074 C 
HETATM    7  C6  UNL     1     -31.951   8.758   3.363  1.00 20.00     0.047 C 
BRANCH   6   8
HETATM    8  C4  UNL     1     -32.903   8.792   1.072  1.00 20.00     0.021 A 
HETATM    9  C2  UNL     1     -32.655  10.269   0.938  1.00 20.00     0.008 A 
HETATM   10  C3  UNL     1     -32.243   9.334  -0.166  1.00 20.00     0.008 A 
ENDBRANCH   6   8
BRANCH   6  11
HETATM   11  O11 UNL     1     -30.786   7.748   1.535  1.00 20.00    -0.388 OA
HETATM   12  H26 UNL     1     -30.862   7.907   0.583  1.00 20.00     0.210 HD
ENDBRANCH   6  11
ENDBRANCH   2   6
TORSDOF 4
ENDMDL
MODEL 4
REMARK VINA RESULT:       0.5      1.793      2.549
REMARK  4 active torsions:
REMARK  status: ('A' for Active; 'I' for Inactive)
REMARK    1  A    between atoms: C4_4  and  C9_9 
REMARK    2  A    between atoms: C7_7  and  C8_8 
REMARK    3  A    between atoms: C8_8  and  C9_9 
REMARK    4  A    between atoms: C9_9  and  O11_11 
ROOT
HETATM    1  C1  UNL     1     -34.098   4.869   3.683  1.00 20.00     0.067 C 
HETATM    2  C8  UNL     1     -34.325   6.088   2.868  1.00 20.00     0.126 C 
HETATM    3  N10 UNL     1     -33.925   3.916   4.323  1.00 20.00    -0.197 NA
ENDROOT
BRANCH   2   4
HETATM    4  C7  UNL     1     -34.598   7.282   3.815  1.00 20.00     0.018 C 
HETATM    5  C5  UNL     1     -33.458   7.539   4.797  1.00 20.00     0.006 C 
ENDBRANCH   2   4
BRANCH   2   6
HETATM    6  C9  UNL     1     -33.127   6.339   1.893  1.00 20.00     0.074 C 
HETATM    7  C6  UNL     1     -32.069   5.260   2.036  1.00 20.00     0.047 C 
BRANCH   6   8
HETATM    8  C4  UNL     1     -32.464   7.707   2.138  1.00 20.00     0.021 A 
HETATM    9  C2  UNL     1     -31.155   8.044   1.479  1.00 20.00     0.008 A 
HETATM   10  C3  UNL     1     -32.417   8.734   1.040  1.00 20.00     0.008 A 
ENDBRANCH   6   8
BRANCH   6  11
HETATM   11  O11 UNL     1     -33.612   6.316   0.547  1.00 20.00    -0.388 OA
HETATM   12  H26 UNL     1     -33.174   7.049   0.089  1.00 20.00     0.210 HD
ENDBRANCH   6  11
ENDBRANCH   2   6
TORSDOF 4
ENDMDL
MODEL 5
REMARK VINA RESULT:       0.6      1.630      3.998
REMARK  4 active torsions:
REMARK  status: ('A' for Active; 'I' for Inactive)
REMARK    1  A    between atoms: C4_4  and  C9_9 
REMARK    2  A    between atoms: C7_7  and  C8_8 
REMARK    3  A    between atoms: C8_8  and  C9_9 
REMARK    4  A    between atoms: C9_9  and  O11_11 
ROOT
HETATM    1  C1  UNL     1     -32.208   6.446   1.673  1.00 20.00     0.067 C 
HETATM    2  C8  UNL     1     -32.401   7.733   2.384  1.00 20.00     0.126 C 
HETATM    3  N10 UNL     1     -32.053   5.440   1.113  1.00 20.00    -0.197 NA
ENDROOT
BRANCH   2   4
HETATM    4  C7  UNL     1     -32.586   8.861   1.341  1.00 20.00     0.018 C 
HETATM    5  C5  UNL     1     -31.470   8.902   0.300  1.00 20.00     0.006 C 
ENDBRANCH   2   4
BRANCH   2   6
HETATM    6  C9  UNL     1     -33.588   7.637   3.401  1.00 20.00     0.074 C 
HETATM    7  C6  UNL     1     -33.091   7.723   4.833  1.00 20.00     0.047 C 
BRANCH   6   8
HETATM    8  C4  UNL     1     -34.379   6.325   3.238  1.00 20.00     0.021 A 
HETATM    9  C2  UNL     1     -34.274   5.243   4.277  1.00 20.00     0.008 A 
HETATM   10  C3  UNL     1     -35.548   6.030   4.137  1.00 20.00     0.008 A 
ENDBRANCH   6   8
BRANCH   6  11
HETATM   11  O11 UNL     1     -34.485   8.728   3.170  1.00 20.00    -0.388 OA
HETATM   12  H26 UNL     1     -34.400   8.954   2.232  1.00 20.00     0.210 HD
ENDBRANCH   6  11
ENDBRANCH   2   6
TORSDOF 4
ENDMDL
MODEL 6
REMARK VINA RESULT:       0.7      3.131      4.124
REMARK  4 active torsions:
REMARK  status: ('A' for Active; 'I' for Inactive)
REMARK    1  A    between atoms: C4_4  and  C9_9 
REMARK    2  A    between atoms: C7_7  and  C8_8 
REMARK    3  A    between atoms: C8_8  and  C9_9 
REMARK    4  A    between atoms: C9_9  and  O11_11 
ROOT
HETATM    1  C1  UNL     1     -33.695   4.170   3.945  1.00 20.00     0.067 C 
HETATM    2  C8  UNL     1     -33.600   5.523   3.344  1.00 20.00     0.126 C 
HETATM    3  N10 UNL     1     -33.765   3.110   4.414  1.00 20.00    -0.197 NA
ENDROOT
BRANCH   2   4
HETATM    4  C7  UNL     1     -33.456   5.381   1.809  1.00 20.00     0.018 C 
HETATM    5  C5  UNL     1     -32.081   5.802   1.296  1.00 20.00     0.006 C 
ENDBRANCH   2   4
BRANCH   2   6
HETATM    6  C9  UNL     1     -34.818   6.409   3.767  1.00 20.00     0.074 C 
HETATM    7  C6  UNL     1     -35.771   6.622   2.604  1.00 20.00     0.047 C 
BRANCH   6   8
HETATM    8  C4  UNL     1     -34.372   7.787   4.290  1.00 20.00     0.021 A 
HETATM    9  C2  UNL     1     -33.196   7.900   5.220  1.00 20.00     0.008 A 
HETATM   10  C3  UNL     1     -33.087   8.401   3.806  1.00 20.00     0.008 A 
ENDBRANCH   6   8
BRANCH   6  11
HETATM   11  O11 UNL     1     -35.531   5.746   4.816  1.00 20.00    -0.388 OA
HETATM   12  H26 UNL     1     -34.873   5.234   5.309  1.00 20.00     0.210 HD
ENDBRANCH   6  11
ENDBRANCH   2   6
TORSDOF 4
ENDMDL
MODEL 7
REMARK VINA RESULT:       0.8      2.035      2.695
REMARK  4 active torsions:
REMARK  status: ('A' for Active; 'I' for Inactive)
REMARK    1  A    between atoms: C4_4  and  C9_9 
REMARK    2  A    between atoms: C7_7  and  C8_8 
REMARK    3  A    between atoms: C8_8  and  C9_9 
REMARK    4  A    between atoms: C9_9  and  O11_11 
ROOT
HETATM    1  C1  UNL     1     -33.046   7.703   4.252  1.00 20.00     0.067 C 
HETATM    2  C8  UNL     1     -33.432   6.569   3.378  1.00 20.00     0.126 C 
HETATM    3  N10 UNL     1     -32.746   8.589   4.941  1.00 20.00    -0.197 NA
ENDROOT
BRANCH   2   4
HETATM    4  C7  UNL     1     -34.974   6.437   3.377  1.00 20.00     0.018 C 
HETATM    5  C5  UNL     1     -35.486   5.388   4.361  1.00 20.00     0.006 C 
ENDBRANCH   2   4
BRANCH   2   6
HETATM    6  C9  UNL     1     -32.829   6.739   1.944  1.00 20.00     0.074 C 
HETATM    7  C6  UNL     1     -31.889   5.596   1.606  1.00 20.00     0.047 C 
BRANCH   6   8
HETATM    8  C4  UNL     1     -32.058   8.064   1.798  1.00 20.00     0.021 A 
HETATM    9  C2  UNL     1     -31.381   8.407   0.500  1.00 20.00     0.008 A 
HETATM   10  C3  UNL     1     -32.605   9.167   0.933  1.00 20.00     0.008 A 
ENDBRANCH   6   8
BRANCH   6  11
HETATM   11  O11 UNL     1     -33.896   6.739   0.990  1.00 20.00    -0.388 OA
HETATM   12  H26 UNL     1     -33.549   7.171   0.196  1.00 20.00     0.210 HD
ENDBRANCH   6  11
ENDBRANCH   2   6
TORSDOF 4
ENDMDL
MODEL 8
REMARK VINA RESULT:       0.9      1.551      1.769
REMARK  4 active torsions:
REMARK  status: ('A' for Active; 'I' for Inactive)
REMARK    1  A    between atoms: C4_4  and  C9_9 
REMARK    2  A    between atoms: C7_7  and  C8_8 
REMARK    3  A    between atoms: C8_8  and  C9_9 
REMARK    4  A    between atoms: C9_9  and  O11_11 
ROOT
HETATM    1  C1  UNL     1     -33.914   6.458   3.314  1.00 20.00     0.067 C 
HETATM    2  C8  UNL     1     -33.389   7.825   3.078  1.00 20.00     0.126 C 
HETATM    3  N10 UNL     1     -34.329   5.390   3.502  1.00 20.00    -0.197 NA
ENDROOT
BRANCH   2   4
HETATM    4  C7  UNL     1     -32.769   8.358   4.393  1.00 20.00     0.018 C 
HETATM    5  C5  UNL     1     -33.736   8.312   5.573  1.00 20.00     0.006 C 
ENDBRANCH   2   4
BRANCH   2   6
HETATM    6  C9  UNL     1     -32.387   7.839   1.876  1.00 20.00     0.074 C 
HETATM    7  C6  UNL     1     -31.014   8.318   2.313  1.00 20.00     0.047 C 
BRANCH   6   8
HETATM    8  C4  UNL     1     -32.877   8.743   0.730  1.00 20.00     0.021 A 
HETATM    9  C2  UNL     1     -32.639  10.227   0.781  1.00 20.00     0.008 A 
HETATM   10  C3  UNL     1     -31.889   9.379  -0.209  1.00 20.00     0.008 A 
ENDBRANCH   6   8
BRANCH   6  11
HETATM   11  O11 UNL     1     -32.256   6.508   1.367  1.00 20.00    -0.388 OA
HETATM   12  H26 UNL     1     -32.899   5.969   1.852  1.00 20.00     0.210 HD
ENDBRANCH   6  11
ENDBRANCH   2   6
TORSDOF 4
ENDMDL
MODEL 9
REMARK VINA RESULT:       1.0      2.567      4.572
REMARK  4 active torsions:
REMARK  status: ('A' for Active; 'I' for Inactive)
REMARK    1  A    between atoms: C4_4  and  C9_9 
REMARK    2  A    between atoms: C7_7  and  C8_8 
REMARK    3  A    between atoms: C8_8  and  C9_9 
REMARK    4  A    between atoms: C9_9  and  O11_11 
ROOT
HETATM    1  C1  UNL     1     -32.377   7.668   2.143  1.00 20.00     0.067 C 
HETATM    2  C8  UNL     1     -33.578   6.803   2.068  1.00 20.00     0.126 C 
HETATM    3  N10 UNL     1     -31.435   8.346   2.197  1.00 20.00    -0.197 NA
ENDROOT
BRANCH   2   4
HETATM    4  C7  UNL     1     -33.201   5.480   1.357  1.00 20.00     0.018 C 
HETATM    5  C5  UNL     1     -31.709   5.367   1.057  1.00 20.00     0.006 C 
ENDBRANCH   2   4
BRANCH   2   6
HETATM    6  C9  UNL     1     -34.197   6.581   3.488  1.00 20.00     0.074 C 
HETATM    7  C6  UNL     1     -33.904   7.757   4.403  1.00 20.00     0.047 C 
BRANCH   6   8
HETATM    8  C4  UNL     1     -33.662   5.300   4.155  1.00 20.00     0.021 A 
HETATM    9  C2  UNL     1     -34.600   4.376   4.882  1.00 20.00     0.008 A 
HETATM   10  C3  UNL     1     -33.990   3.951   3.575  1.00 20.00     0.008 A 
ENDBRANCH   6   8
BRANCH   6  11
HETATM   11  O11 UNL     1     -35.617   6.456   3.361  1.00 20.00    -0.388 OA
HETATM   12  H26 UNL     1     -35.847   5.592   3.735  1.00 20.00     0.210 HD
ENDBRANCH   6  11
ENDBRANCH   2   6
TORSDOF 4
ENDMDL
