MODEL 1
REMARK VINA RESULT:       0.1      0.000      0.000
REMARK  3 active torsions:
REMARK  status: ('A' for Active; 'I' for Inactive)
REMARK    1  A    between atoms: C3_3  and  C11_11 
REMARK    2  A    between atoms: C8_8  and  N12_12 
REMARK    3  A    between atoms: C11_11  and  N12_12 
ROOT
HETATM    1  C1  UNL     1     -34.234   4.866   3.748  1.00 20.00     0.127 C 
HETATM    2  C4  UNL     1     -34.976   6.123   4.143  1.00 20.00     0.080 C 
HETATM    3  C5  UNL     1     -33.541   4.884   2.402  1.00 20.00     0.080 C 
HETATM    4  C6  UNL     1     -34.090   7.350   3.964  1.00 20.00     0.040 C 
HETATM    5  C7  UNL     1     -32.683   6.136   2.257  1.00 20.00     0.040 C 
HETATM    6  C8  UNL     1     -33.493   7.395   2.558  1.00 20.00     0.189 C 
HETATM    7  O13 UNL     1     -34.278   3.847   4.435  1.00 20.00    -0.298 OA
ENDROOT
BRANCH   6   8
HETATM    8  N12 UNL     1     -32.597   8.578   2.457  1.00 20.00    -0.067 N 
HETATM    9  C10 UNL     1     -31.611   8.654   3.595  1.00 20.00     0.270 C 
HETATM   10  H33 UNL     1     -33.185   9.425   2.529  1.00 20.00     0.280 HD
BRANCH   8  11
HETATM   11  C11 UNL     1     -31.901   8.663   1.121  1.00 20.00     0.268 C 
BRANCH  11  12
HETATM   12  C3  UNL     1     -32.426   9.758   0.237  1.00 20.00    -0.068 C 
HETATM   13  C2  UNL     1     -32.550   9.590  -1.089  1.00 20.00     0.015 C 
HETATM   14  C9  UNL     1     -32.837  11.037   0.908  1.00 20.00     0.044 C 
ENDBRANCH  11  12
ENDBRANCH   8  11
ENDBRANCH   6   8
TORSDOF 3
ENDMDL
MODEL 2
REMARK VINA RESULT:       0.8      2.665      5.620
REMARK  3 active torsions:
REMARK  status: ('A' for Active; 'I' for Inactive)
REMARK    1  A    between atoms: C3_3  and  C11_11 
REMARK    2  A    between atoms: C8_8  and  N12_12 
REMARK    3  A    between atoms: C11_11  and  N12_12 
ROOT
HETATM    1  C1  UNL     1     -32.209   8.113   1.502  1.00 20.00     0.127 C 
HETATM    2  C4  UNL     1     -32.287   8.516   2.957  1.00 20.00     0.080 C 
HETATM    3  C5  UNL     1     -32.062   6.635   1.216  1.00 20.00     0.080 C 
HETATM    4  C6  UNL     1     -33.326   7.677   3.692  1.00 20.00     0.040 C 
HETATM    5  C7  UNL     1     -33.105   5.833   1.985  1.00 20.00     0.040 C 
HETATM    6  C8  UNL     1     -33.083   6.185   3.471  1.00 20.00     0.189 C 
HETATM    7  O13 UNL     1     -32.162   8.951   0.602  1.00 20.00    -0.298 OA
ENDROOT
BRANCH   6   8
HETATM    8  N12 UNL     1     -34.154   5.419   4.162  1.00 20.00    -0.067 N 
HETATM    9  C10 UNL     1     -35.519   6.027   3.964  1.00 20.00     0.270 C 
HETATM   10  H33 UNL     1     -33.965   5.460   5.177  1.00 20.00     0.280 HD
BRANCH   8  11
HETATM   11  C11 UNL     1     -34.147   3.956   3.793  1.00 20.00     0.268 C 
BRANCH  11  12
HETATM   12  C3  UNL     1     -33.334   3.103   4.725  1.00 20.00    -0.068 C 
HETATM   13  C2  UNL     1     -32.684   3.633   5.773  1.00 20.00     0.015 C 
HETATM   14  C9  UNL     1     -33.310   1.627   4.451  1.00 20.00     0.044 C 
ENDBRANCH  11  12
ENDBRANCH   8  11
ENDBRANCH   6   8
TORSDOF 3
ENDMDL
MODEL 3
REMARK VINA RESULT:       1.4      2.592      5.193
REMARK  3 active torsions:
REMARK  status: ('A' for Active; 'I' for Inactive)
REMARK    1  A    between atoms: C3_3  and  C11_11 
REMARK    2  A    between atoms: C8_8  and  N12_12 
REMARK    3  A    between atoms: C11_11  and  N12_12 
ROOT
HETATM    1  C1  UNL     1     -32.373   9.588  -0.008  1.00 20.00     0.127 C 
HETATM    2  C4  UNL     1     -32.853  10.318   1.227  1.00 20.00     0.080 C 
HETATM    3  C5  UNL     1     -31.420   8.434   0.216  1.00 20.00     0.080 C 
HETATM    4  C6  UNL     1     -33.372   9.331   2.267  1.00 20.00     0.040 C 
HETATM    5  C7  UNL     1     -31.967   7.484   1.276  1.00 20.00     0.040 C 
HETATM    6  C8  UNL     1     -32.341   8.240   2.549  1.00 20.00     0.189 C 
HETATM    7  O13 UNL     1     -32.658   9.977  -1.140  1.00 20.00    -0.298 OA
ENDROOT
BRANCH   6   8
HETATM    8  N12 UNL     1     -32.918   7.278   3.525  1.00 20.00    -0.067 N 
HETATM    9  C10 UNL     1     -33.786   7.953   4.557  1.00 20.00     0.270 C 
HETATM   10  H33 UNL     1     -32.134   6.849   4.045  1.00 20.00     0.280 HD
BRANCH   8  11
HETATM   11  C11 UNL     1     -33.648   6.141   2.854  1.00 20.00     0.268 C 
BRANCH  11  12
HETATM   12  C3  UNL     1     -34.394   5.255   3.811  1.00 20.00    -0.068 C 
HETATM   13  C2  UNL     1     -35.594   5.604   4.298  1.00 20.00     0.015 C 
HETATM   14  C9  UNL     1     -33.750   3.948   4.172  1.00 20.00     0.044 C 
ENDBRANCH  11  12
ENDBRANCH   8  11
ENDBRANCH   6   8
TORSDOF 3
ENDMDL
MODEL 4
REMARK VINA RESULT:       1.8      1.049      1.873
REMARK  3 active torsions:
REMARK  status: ('A' for Active; 'I' for Inactive)
REMARK    1  A    between atoms: C3_3  and  C11_11 
REMARK    2  A    between atoms: C8_8  and  N12_12 
REMARK    3  A    between atoms: C11_11  and  N12_12 
ROOT
HETATM    1  C1  UNL     1     -34.782   5.774   4.091  1.00 20.00     0.127 C 
HETATM    2  C4  UNL     1     -33.665   5.057   3.365  1.00 20.00     0.080 C 
HETATM    3  C5  UNL     1     -34.463   7.151   4.630  1.00 20.00     0.080 C 
HETATM    4  C6  UNL     1     -33.041   5.962   2.310  1.00 20.00     0.040 C 
HETATM    5  C7  UNL     1     -33.822   8.016   3.550  1.00 20.00     0.040 C 
HETATM    6  C8  UNL     1     -32.631   7.305   2.913  1.00 20.00     0.189 C 
HETATM    7  O13 UNL     1     -35.858   5.225   4.322  1.00 20.00    -0.298 OA
ENDROOT
BRANCH   6   8
HETATM    8  N12 UNL     1     -32.080   8.166   1.832  1.00 20.00    -0.067 N 
HETATM    9  C10 UNL     1     -31.196   7.401   0.879  1.00 20.00     0.270 C 
HETATM   10  H33 UNL     1     -31.477   8.879   2.275  1.00 20.00     0.280 HD
BRANCH   8  11
HETATM   11  C11 UNL     1     -33.155   8.925   1.094  1.00 20.00     0.268 C 
BRANCH  11  12
HETATM   12  C3  UNL     1     -32.640  10.117   0.339  1.00 20.00    -0.068 C 
HETATM   13  C2  UNL     1     -32.431  10.072  -0.985  1.00 20.00     0.015 C 
HETATM   14  C9  UNL     1     -32.401  11.372   1.129  1.00 20.00     0.044 C 
ENDBRANCH  11  12
ENDBRANCH   8  11
ENDBRANCH   6   8
TORSDOF 3
ENDMDL
MODEL 5
REMARK VINA RESULT:       2.0      1.203      2.210
REMARK  3 active torsions:
REMARK  status: ('A' for Active; 'I' for Inactive)
REMARK    1  A    between atoms: C3_3  and  C11_11 
REMARK    2  A    between atoms: C8_8  and  N12_12 
REMARK    3  A    between atoms: C11_11  and  N12_12 
ROOT
HETATM    1  C1  UNL     1     -34.912   5.318   4.370  1.00 20.00     0.127 C 
HETATM    2  C4  UNL     1     -33.775   4.500   3.799  1.00 20.00     0.080 C 
HETATM    3  C5  UNL     1     -34.649   6.794   4.572  1.00 20.00     0.080 C 
HETATM    4  C6  UNL     1     -33.210   5.165   2.549  1.00 20.00     0.040 C 
HETATM    5  C7  UNL     1     -34.067   7.414   3.307  1.00 20.00     0.040 C 
HETATM    6  C8  UNL     1     -32.854   6.626   2.818  1.00 20.00     0.189 C 
HETATM    7  O13 UNL     1     -35.959   4.792   4.749  1.00 20.00    -0.298 OA
ENDROOT
BRANCH   6   8
HETATM    8  N12 UNL     1     -32.361   7.238   1.555  1.00 20.00    -0.067 N 
HETATM    9  C10 UNL     1     -33.105   6.737   0.343  1.00 20.00     0.270 C 
HETATM   10  H33 UNL     1     -31.377   6.949   1.429  1.00 20.00     0.280 HD
BRANCH   8  11
HETATM   11  C11 UNL     1     -32.353   8.745   1.609  1.00 20.00     0.268 C 
BRANCH  11  12
HETATM   12  C3  UNL     1     -32.072   9.394   0.283  1.00 20.00    -0.068 C 
HETATM   13  C2  UNL     1     -32.859  10.366  -0.203  1.00 20.00     0.015 C 
HETATM   14  C9  UNL     1     -30.852   8.928  -0.458  1.00 20.00     0.044 C 
ENDBRANCH  11  12
ENDBRANCH   8  11
ENDBRANCH   6   8
TORSDOF 3
ENDMDL
MODEL 6
REMARK VINA RESULT:       2.8      1.121      1.308
REMARK  3 active torsions:
REMARK  status: ('A' for Active; 'I' for Inactive)
REMARK    1  A    between atoms: C3_3  and  C11_11 
REMARK    2  A    between atoms: C8_8  and  N12_12 
REMARK    3  A    between atoms: C11_11  and  N12_12 
ROOT
HETATM    1  C1  UNL     1     -34.929   5.208   4.270  1.00 20.00     0.127 C 
HETATM    2  C4  UNL     1     -35.415   6.625   4.060  1.00 20.00     0.080 C 
HETATM    3  C5  UNL     1     -34.065   4.620   3.176  1.00 20.00     0.080 C 
HETATM    4  C6  UNL     1     -34.256   7.540   3.681  1.00 20.00     0.040 C 
HETATM    5  C7  UNL     1     -32.933   5.574   2.815  1.00 20.00     0.040 C 
HETATM    6  C8  UNL     1     -33.469   6.969   2.502  1.00 20.00     0.189 C 
HETATM    7  O13 UNL     1     -35.302   4.533   5.229  1.00 20.00    -0.298 OA
ENDROOT
BRANCH   6   8
HETATM    8  N12 UNL     1     -32.323   7.870   2.212  1.00 20.00    -0.067 N 
HETATM    9  C10 UNL     1     -31.287   7.220   1.328  1.00 20.00     0.270 C 
HETATM   10  H33 UNL     1     -31.849   8.075   3.107  1.00 20.00     0.280 HD
BRANCH   8  11
HETATM   11  C11 UNL     1     -32.761   9.202   1.654  1.00 20.00     0.268 C 
BRANCH  11  12
HETATM   12  C3  UNL     1     -32.130   9.539   0.333  1.00 20.00    -0.068 C 
HETATM   13  C2  UNL     1     -30.864   9.193   0.052  1.00 20.00     0.015 C 
HETATM   14  C9  UNL     1     -32.990  10.251  -0.671  1.00 20.00     0.044 C 
ENDBRANCH  11  12
ENDBRANCH   8  11
ENDBRANCH   6   8
TORSDOF 3
ENDMDL
MODEL 7
REMARK VINA RESULT:       2.9      2.851      5.395
REMARK  3 active torsions:
REMARK  status: ('A' for Active; 'I' for Inactive)
REMARK    1  A    between atoms: C3_3  and  C11_11 
REMARK    2  A    between atoms: C8_8  and  N12_12 
REMARK    3  A    between atoms: C11_11  and  N12_12 
ROOT
HETATM    1  C1  UNL     1     -32.140  10.224   0.039  1.00 20.00     0.127 C 
HETATM    2  C4  UNL     1     -32.820  10.326   1.386  1.00 20.00     0.080 C 
HETATM    3  C5  UNL     1     -31.129   9.110  -0.126  1.00 20.00     0.080 C 
HETATM    4  C6  UNL     1     -33.374   8.971   1.812  1.00 20.00     0.040 C 
HETATM    5  C7  UNL     1     -31.716   7.780   0.330  1.00 20.00     0.040 C 
HETATM    6  C8  UNL     1     -32.297   7.890   1.738  1.00 20.00     0.189 C 
HETATM    7  O13 UNL     1     -32.321  11.065  -0.841  1.00 20.00    -0.298 OA
ENDROOT
BRANCH   6   8
HETATM    8  N12 UNL     1     -32.904   6.584   2.110  1.00 20.00    -0.067 N 
HETATM    9  C10 UNL     1     -32.105   5.411   1.602  1.00 20.00     0.270 C 
HETATM   10  H33 UNL     1     -33.828   6.524   1.650  1.00 20.00     0.280 HD
BRANCH   8  11
HETATM   11  C11 UNL     1     -33.165   6.470   3.591  1.00 20.00     0.268 C 
BRANCH  11  12
HETATM   12  C3  UNL     1     -34.407   5.693   3.926  1.00 20.00    -0.068 C 
HETATM   13  C2  UNL     1     -35.618   6.269   3.914  1.00 20.00     0.015 C 
HETATM   14  C9  UNL     1     -34.234   4.235   4.241  1.00 20.00     0.044 C 
ENDBRANCH  11  12
ENDBRANCH   8  11
ENDBRANCH   6   8
TORSDOF 3
ENDMDL
MODEL 8
REMARK VINA RESULT:       3.0      2.705      5.283
REMARK  3 active torsions:
REMARK  status: ('A' for Active; 'I' for Inactive)
REMARK    1  A    between atoms: C3_3  and  C11_11 
REMARK    2  A    between atoms: C8_8  and  N12_12 
REMARK    3  A    between atoms: C11_11  and  N12_12 
ROOT
HETATM    1  C1  UNL     1     -32.323   9.979   0.743  1.00 20.00     0.127 C 
HETATM    2  C4  UNL     1     -31.679   9.422   1.993  1.00 20.00     0.080 C 
HETATM    3  C5  UNL     1     -32.426   9.042  -0.440  1.00 20.00     0.080 C 
HETATM    4  C6  UNL     1     -32.301   8.081   2.367  1.00 20.00     0.040 C 
HETATM    5  C7  UNL     1     -33.033   7.709  -0.019  1.00 20.00     0.040 C 
HETATM    6  C8  UNL     1     -32.290   7.121   1.178  1.00 20.00     0.189 C 
HETATM    7  O13 UNL     1     -32.651  11.162   0.659  1.00 20.00    -0.298 OA
ENDROOT
BRANCH   6   8
HETATM    8  N12 UNL     1     -32.955   5.854   1.581  1.00 20.00    -0.067 N 
HETATM    9  C10 UNL     1     -32.533   4.684   0.728  1.00 20.00     0.270 C 
HETATM   10  H33 UNL     1     -33.971   5.970   1.428  1.00 20.00     0.280 HD
BRANCH   8  11
HETATM   11  C11 UNL     1     -32.784   5.552   3.049  1.00 20.00     0.268 C 
BRANCH  11  12
HETATM   12  C3  UNL     1     -34.066   5.191   3.744  1.00 20.00    -0.068 C 
HETATM   13  C2  UNL     1     -34.236   3.994   4.324  1.00 20.00     0.015 C 
HETATM   14  C9  UNL     1     -35.136   6.244   3.788  1.00 20.00     0.044 C 
ENDBRANCH  11  12
ENDBRANCH   8  11
ENDBRANCH   6   8
TORSDOF 3
ENDMDL
