MODEL 1
REMARK VINA RESULT:       1.1      0.000      0.000
REMARK  3 active torsions:
REMARK  status: ('A' for Active; 'I' for Inactive)
REMARK    1  A    between atoms: C6_6  and  C7_7 
REMARK    2  A    between atoms: C7_7  and  C8_8 
REMARK    3  A    between atoms: C8_8  and  O10_10 
ROOT
HETATM    1  C1  UNL     1     -33.316   7.487   4.181  1.00 20.00     0.072 C 
HETATM    2  C3  UNL     1     -35.294   6.828   2.905  1.00 20.00     0.034 C 
HETATM    3  C7  UNL     1     -33.810   6.492   3.184  1.00 20.00     0.075 C 
HETATM    4  N9  UNL     1     -32.935   8.262   4.955  1.00 20.00    -0.196 NA
ENDROOT
BRANCH   3   5
HETATM    5  C6  UNL     1     -33.689   5.068   3.808  1.00 20.00     0.023 C 
HETATM    6  C2  UNL     1     -34.912   4.577   4.583  1.00 20.00     0.007 C 
ENDBRANCH   3   5
BRANCH   3   7
HETATM    7  C8  UNL     1     -32.950   6.617   1.856  1.00 20.00     0.071 C 
HETATM    8  C4  UNL     1     -31.973   5.446   1.654  1.00 20.00     0.047 C 
HETATM    9  C5  UNL     1     -32.147   7.927   1.758  1.00 20.00     0.047 C 
BRANCH   7  10
HETATM   10  O10 UNL     1     -33.825   6.570   0.716  1.00 20.00    -0.389 OA
HETATM   11  H25 UNL     1     -34.713   6.432   1.070  1.00 20.00     0.210 HD
ENDBRANCH   7  10
ENDBRANCH   3   7
TORSDOF 3
ENDMDL
MODEL 2
REMARK VINA RESULT:       1.1      1.903      3.305
REMARK  3 active torsions:
REMARK  status: ('A' for Active; 'I' for Inactive)
REMARK    1  A    between atoms: C6_6  and  C7_7 
REMARK    2  A    between atoms: C7_7  and  C8_8 
REMARK    3  A    between atoms: C8_8  and  O10_10 
ROOT
HETATM    1  C1  UNL     1     -33.366   7.705   3.328  1.00 20.00     0.072 C 
HETATM    2  C3  UNL     1     -31.125   7.801   2.357  1.00 20.00     0.034 C 
HETATM    3  C7  UNL     1     -32.613   7.504   2.055  1.00 20.00     0.075 C 
HETATM    4  N9  UNL     1     -33.948   7.860   4.319  1.00 20.00    -0.196 NA
ENDROOT
BRANCH   3   5
HETATM    5  C6  UNL     1     -33.157   8.512   0.997  1.00 20.00     0.023 C 
HETATM    6  C2  UNL     1     -32.148   9.533   0.471  1.00 20.00     0.007 C 
ENDBRANCH   3   5
BRANCH   3   7
HETATM    7  C8  UNL     1     -32.797   6.004   1.574  1.00 20.00     0.071 C 
HETATM    8  C4  UNL     1     -31.465   5.303   1.254  1.00 20.00     0.047 C 
HETATM    9  C5  UNL     1     -33.717   5.854   0.348  1.00 20.00     0.047 C 
BRANCH   7  10
HETATM   10  O10 UNL     1     -33.377   5.230   2.637  1.00 20.00    -0.389 OA
HETATM   11  H25 UNL     1     -33.845   5.861   3.198  1.00 20.00     0.210 HD
ENDBRANCH   7  10
ENDBRANCH   3   7
TORSDOF 3
ENDMDL
MODEL 3
REMARK VINA RESULT:       1.1      2.126      3.590
REMARK  3 active torsions:
REMARK  status: ('A' for Active; 'I' for Inactive)
REMARK    1  A    between atoms: C6_6  and  C7_7 
REMARK    2  A    between atoms: C7_7  and  C8_8 
REMARK    3  A    between atoms: C8_8  and  O10_10 
ROOT
HETATM    1  C1  UNL     1     -32.629   8.852   1.185  1.00 20.00     0.072 C 
HETATM    2  C3  UNL     1     -31.055   7.590   2.565  1.00 20.00     0.034 C 
HETATM    3  C7  UNL     1     -32.520   7.657   2.071  1.00 20.00     0.075 C 
HETATM    4  N9  UNL     1     -32.711   9.783   0.498  1.00 20.00    -0.196 NA
ENDROOT
BRANCH   3   5
HETATM    5  C6  UNL     1     -32.861   6.388   1.231  1.00 20.00     0.023 C 
HETATM    6  C2  UNL     1     -31.813   5.276   1.252  1.00 20.00     0.007 C 
ENDBRANCH   3   5
BRANCH   3   7
HETATM    7  C8  UNL     1     -33.514   7.825   3.296  1.00 20.00     0.071 C 
HETATM    8  C4  UNL     1     -32.806   8.224   4.602  1.00 20.00     0.047 C 
HETATM    9  C5  UNL     1     -34.365   6.573   3.581  1.00 20.00     0.047 C 
BRANCH   7  10
HETATM   10  O10 UNL     1     -34.426   8.904   3.025  1.00 20.00    -0.389 OA
HETATM   11  H25 UNL     1     -33.877   9.688   2.899  1.00 20.00     0.210 HD
ENDBRANCH   7  10
ENDBRANCH   3   7
TORSDOF 3
ENDMDL
MODEL 4
REMARK VINA RESULT:       1.4      2.186      3.744
REMARK  3 active torsions:
REMARK  status: ('A' for Active; 'I' for Inactive)
REMARK    1  A    between atoms: C6_6  and  C7_7 
REMARK    2  A    between atoms: C7_7  and  C8_8 
REMARK    3  A    between atoms: C8_8  and  O10_10 
ROOT
HETATM    1  C1  UNL     1     -32.054   5.567   1.706  1.00 20.00     0.072 C 
HETATM    2  C3  UNL     1     -33.908   6.775   0.668  1.00 20.00     0.034 C 
HETATM    3  C7  UNL     1     -32.953   6.745   1.885  1.00 20.00     0.075 C 
HETATM    4  N9  UNL     1     -31.357   4.651   1.565  1.00 20.00    -0.196 NA
ENDROOT
BRANCH   3   5
HETATM    5  C6  UNL     1     -32.077   8.034   1.911  1.00 20.00     0.023 C 
HETATM    6  C2  UNL     1     -32.330   9.033   0.781  1.00 20.00     0.007 C 
ENDBRANCH   3   5
BRANCH   3   7
HETATM    7  C8  UNL     1     -33.772   6.574   3.233  1.00 20.00     0.071 C 
HETATM    8  C4  UNL     1     -35.290   6.735   3.044  1.00 20.00     0.047 C 
HETATM    9  C5  UNL     1     -33.329   7.533   4.353  1.00 20.00     0.047 C 
BRANCH   7  10
HETATM   10  O10 UNL     1     -33.600   5.235   3.729  1.00 20.00    -0.389 OA
HETATM   11  H25 UNL     1     -32.656   5.046   3.655  1.00 20.00     0.210 HD
ENDBRANCH   7  10
ENDBRANCH   3   7
TORSDOF 3
ENDMDL
MODEL 5
REMARK VINA RESULT:       1.4      2.224      3.383
REMARK  3 active torsions:
REMARK  status: ('A' for Active; 'I' for Inactive)
REMARK    1  A    between atoms: C6_6  and  C7_7 
REMARK    2  A    between atoms: C7_7  and  C8_8 
REMARK    3  A    between atoms: C8_8  and  O10_10 
ROOT
HETATM    1  C1  UNL     1     -32.330   6.677   1.539  1.00 20.00     0.072 C 
HETATM    2  C3  UNL     1     -31.151   8.372   2.847  1.00 20.00     0.034 C 
HETATM    3  C7  UNL     1     -32.376   8.114   1.938  1.00 20.00     0.075 C 
HETATM    4  N9  UNL     1     -32.291   5.559   1.230  1.00 20.00    -0.196 NA
ENDROOT
BRANCH   3   5
HETATM    5  C6  UNL     1     -33.695   8.362   2.731  1.00 20.00     0.023 C 
HETATM    6  C2  UNL     1     -34.021   7.335   3.816  1.00 20.00     0.007 C 
ENDBRANCH   3   5
BRANCH   3   7
HETATM    7  C8  UNL     1     -32.306   9.017   0.635  1.00 20.00     0.071 C 
HETATM    8  C4  UNL     1     -30.902   9.066   0.007  1.00 20.00     0.047 C 
HETATM    9  C5  UNL     1     -32.776  10.466   0.859  1.00 20.00     0.047 C 
BRANCH   7  10
HETATM   10  O10 UNL     1     -33.148   8.451  -0.384  1.00 20.00    -0.389 OA
HETATM   11  H25 UNL     1     -33.680   7.778   0.058  1.00 20.00     0.210 HD
ENDBRANCH   7  10
ENDBRANCH   3   7
TORSDOF 3
ENDMDL
MODEL 6
REMARK VINA RESULT:       1.4      1.861      2.893
REMARK  3 active torsions:
REMARK  status: ('A' for Active; 'I' for Inactive)
REMARK    1  A    between atoms: C6_6  and  C7_7 
REMARK    2  A    between atoms: C7_7  and  C8_8 
REMARK    3  A    between atoms: C8_8  and  O10_10 
ROOT
HETATM    1  C1  UNL     1     -33.887   6.394   2.912  1.00 20.00     0.072 C 
HETATM    2  C3  UNL     1     -33.786   6.481   0.472  1.00 20.00     0.034 C 
HETATM    3  C7  UNL     1     -32.939   6.513   1.767  1.00 20.00     0.075 C 
HETATM    4  N9  UNL     1     -34.627   6.303   3.801  1.00 20.00    -0.196 NA
ENDROOT
BRANCH   3   5
HETATM    5  C6  UNL     1     -31.968   5.293   1.802  1.00 20.00     0.023 C 
HETATM    6  C2  UNL     1     -31.799   4.540   0.483  1.00 20.00     0.007 C 
ENDBRANCH   3   5
BRANCH   3   7
HETATM    7  C8  UNL     1     -32.150   7.884   1.885  1.00 20.00     0.071 C 
HETATM    8  C4  UNL     1     -32.221   8.505   3.291  1.00 20.00     0.047 C 
HETATM    9  C5  UNL     1     -32.606   8.950   0.872  1.00 20.00     0.047 C 
BRANCH   7  10
HETATM   10  O10 UNL     1     -30.750   7.650   1.653  1.00 20.00    -0.389 OA
HETATM   11  H25 UNL     1     -30.657   7.530   0.700  1.00 20.00     0.210 HD
ENDBRANCH   7  10
ENDBRANCH   3   7
TORSDOF 3
ENDMDL
MODEL 7
REMARK VINA RESULT:       1.5      1.593      2.022
REMARK  3 active torsions:
REMARK  status: ('A' for Active; 'I' for Inactive)
REMARK    1  A    between atoms: C6_6  and  C7_7 
REMARK    2  A    between atoms: C7_7  and  C8_8 
REMARK    3  A    between atoms: C8_8  and  O10_10 
ROOT
HETATM    1  C1  UNL     1     -33.041   8.075   4.618  1.00 20.00     0.072 C 
HETATM    2  C3  UNL     1     -34.708   8.595   2.908  1.00 20.00     0.034 C 
HETATM    3  C7  UNL     1     -33.537   7.653   3.275  1.00 20.00     0.075 C 
HETATM    4  N9  UNL     1     -32.657   8.405   5.661  1.00 20.00    -0.196 NA
ENDROOT
BRANCH   3   5
HETATM    5  C6  UNL     1     -34.043   6.181   3.377  1.00 20.00     0.023 C 
HETATM    6  C2  UNL     1     -35.345   5.979   4.152  1.00 20.00     0.007 C 
ENDBRANCH   3   5
BRANCH   3   7
HETATM    7  C8  UNL     1     -32.360   7.788   2.220  1.00 20.00     0.071 C 
HETATM    8  C4  UNL     1     -32.638   8.841   1.133  1.00 20.00     0.047 C 
HETATM    9  C5  UNL     1     -32.001   6.465   1.519  1.00 20.00     0.047 C 
BRANCH   7  10
HETATM   10  O10 UNL     1     -31.173   8.250   2.888  1.00 20.00    -0.389 OA
HETATM   11  H25 UNL     1     -30.761   8.883   2.286  1.00 20.00     0.210 HD
ENDBRANCH   7  10
ENDBRANCH   3   7
TORSDOF 3
ENDMDL
MODEL 8
REMARK VINA RESULT:       1.7      1.900      3.309
REMARK  3 active torsions:
REMARK  status: ('A' for Active; 'I' for Inactive)
REMARK    1  A    between atoms: C6_6  and  C7_7 
REMARK    2  A    between atoms: C7_7  and  C8_8 
REMARK    3  A    between atoms: C8_8  and  O10_10 
ROOT
HETATM    1  C1  UNL     1     -32.441   7.654   1.622  1.00 20.00     0.072 C 
HETATM    2  C3  UNL     1     -31.903   5.277   1.807  1.00 20.00     0.034 C 
HETATM    3  C7  UNL     1     -33.057   6.308   1.808  1.00 20.00     0.075 C 
HETATM    4  N9  UNL     1     -31.959   8.700   1.479  1.00 20.00    -0.196 NA
ENDROOT
BRANCH   3   5
HETATM    5  C6  UNL     1     -34.019   6.037   0.610  1.00 20.00     0.023 C 
HETATM    6  C2  UNL     1     -33.822   4.705  -0.112  1.00 20.00     0.007 C 
ENDBRANCH   3   5
BRANCH   3   7
HETATM    7  C8  UNL     1     -33.832   6.277   3.191  1.00 20.00     0.071 C 
HETATM    8  C4  UNL     1     -33.772   4.908   3.890  1.00 20.00     0.047 C 
HETATM    9  C5  UNL     1     -35.312   6.689   3.082  1.00 20.00     0.047 C 
BRANCH   7  10
HETATM   10  O10 UNL     1     -33.205   7.190   4.109  1.00 20.00    -0.389 OA
HETATM   11  H25 UNL     1     -32.347   7.404   3.723  1.00 20.00     0.210 HD
ENDBRANCH   7  10
ENDBRANCH   3   7
TORSDOF 3
ENDMDL
MODEL 9
REMARK VINA RESULT:       1.7      1.782      2.512
REMARK  3 active torsions:
REMARK  status: ('A' for Active; 'I' for Inactive)
REMARK    1  A    between atoms: C6_6  and  C7_7 
REMARK    2  A    between atoms: C7_7  and  C8_8 
REMARK    3  A    between atoms: C8_8  and  O10_10 
ROOT
HETATM    1  C1  UNL     1     -33.529   5.006   3.654  1.00 20.00     0.072 C 
HETATM    2  C3  UNL     1     -32.902   7.314   4.158  1.00 20.00     0.034 C 
HETATM    3  C7  UNL     1     -33.564   6.393   3.106  1.00 20.00     0.075 C 
HETATM    4  N9  UNL     1     -33.499   3.929   4.083  1.00 20.00    -0.196 NA
ENDROOT
BRANCH   3   5
HETATM    5  C6  UNL     1     -35.054   6.802   2.896  1.00 20.00     0.023 C 
HETATM    6  C2  UNL     1     -36.045   6.250   3.920  1.00 20.00     0.007 C 
ENDBRANCH   3   5
BRANCH   3   7
HETATM    7  C8  UNL     1     -32.755   6.433   1.741  1.00 20.00     0.071 C 
HETATM    8  C4  UNL     1     -31.982   7.747   1.533  1.00 20.00     0.047 C 
HETATM    9  C5  UNL     1     -33.628   6.194   0.496  1.00 20.00     0.047 C 
BRANCH   7  10
HETATM   10  O10 UNL     1     -31.747   5.408   1.755  1.00 20.00    -0.389 OA
HETATM   11  H25 UNL     1     -31.499   5.294   2.681  1.00 20.00     0.210 HD
ENDBRANCH   7  10
ENDBRANCH   3   7
TORSDOF 3
ENDMDL
