MODEL 1
REMARK VINA RESULT:      -1.1      0.000      0.000
REMARK  4 active torsions:
REMARK  status: ('A' for Active; 'I' for Inactive)
REMARK    1  A    between atoms: C5_5  and  C7_7 
REMARK    2  A    between atoms: C6_6  and  C8_8 
REMARK    3  A    between atoms: C7_7  and  C8_8 
REMARK    4  A    between atoms: C8_8  and  O10_10 
ROOT
HETATM    1  C1  UNL     1     -32.959   5.986   1.770  1.00 20.00     0.067 C 
HETATM    2  C7  UNL     1     -33.353   7.350   2.202  1.00 20.00     0.126 C 
HETATM    3  N9  UNL     1     -32.655   4.918   1.430  1.00 20.00    -0.197 NA
ENDROOT
BRANCH   2   4
HETATM    4  C5  UNL     1     -33.807   7.323   3.678  1.00 20.00     0.018 C 
HETATM    5  C2  UNL     1     -35.009   6.412   3.913  1.00 20.00     0.006 C 
ENDBRANCH   2   4
BRANCH   2   6
HETATM    6  C8  UNL     1     -32.205   8.376   1.914  1.00 20.00     0.070 C 
HETATM    7  C4  UNL     1     -31.123   7.810   0.983  1.00 20.00     0.047 C 
BRANCH   6   8
HETATM    8  C6  UNL     1     -32.777   9.704   1.350  1.00 20.00     0.034 C 
HETATM    9  C3  UNL     1     -32.547   9.919  -0.143  1.00 20.00     0.008 C 
ENDBRANCH   6   8
BRANCH   6  10
HETATM   10  O10 UNL     1     -31.564   8.682   3.163  1.00 20.00    -0.389 OA
HETATM   11  H25 UNL     1     -32.174   9.262   3.639  1.00 20.00     0.210 HD
ENDBRANCH   6  10
ENDBRANCH   2   6
TORSDOF 4
ENDMDL
MODEL 2
REMARK VINA RESULT:      -0.4      1.972      4.226
REMARK  4 active torsions:
REMARK  status: ('A' for Active; 'I' for Inactive)
REMARK    1  A    between atoms: C5_5  and  C7_7 
REMARK    2  A    between atoms: C6_6  and  C8_8 
REMARK    3  A    between atoms: C7_7  and  C8_8 
REMARK    4  A    between atoms: C8_8  and  O10_10 
ROOT
HETATM    1  C1  UNL     1     -32.422   7.665   1.876  1.00 20.00     0.067 C 
HETATM    2  C7  UNL     1     -33.541   6.693   1.954  1.00 20.00     0.126 C 
HETATM    3  N9  UNL     1     -31.549   8.427   1.811  1.00 20.00    -0.197 NA
ENDROOT
BRANCH   2   4
HETATM    4  C5  UNL     1     -33.192   5.425   1.144  1.00 20.00     0.018 C 
HETATM    5  C2  UNL     1     -31.688   5.213   0.989  1.00 20.00     0.006 C 
ENDBRANCH   2   4
BRANCH   2   6
HETATM    6  C8  UNL     1     -33.922   6.404   3.446  1.00 20.00     0.070 C 
HETATM    7  C4  UNL     1     -35.439   6.390   3.678  1.00 20.00     0.047 C 
BRANCH   6   8
HETATM    8  C6  UNL     1     -33.278   5.081   3.937  1.00 20.00     0.034 C 
HETATM    9  C3  UNL     1     -34.269   4.019   4.406  1.00 20.00     0.008 C 
ENDBRANCH   6   8
BRANCH   6  10
HETATM   10  O10 UNL     1     -33.385   7.467   4.251  1.00 20.00    -0.389 OA
HETATM   11  H25 UNL     1     -33.390   7.138   5.160  1.00 20.00     0.210 HD
ENDBRANCH   6  10
ENDBRANCH   2   6
TORSDOF 4
ENDMDL
MODEL 3
REMARK VINA RESULT:      -0.4      2.380      2.922
REMARK  4 active torsions:
REMARK  status: ('A' for Active; 'I' for Inactive)
REMARK    1  A    between atoms: C5_5  and  C7_7 
REMARK    2  A    between atoms: C6_6  and  C8_8 
REMARK    3  A    between atoms: C7_7  and  C8_8 
REMARK    4  A    between atoms: C8_8  and  O10_10 
ROOT
HETATM    1  C1  UNL     1     -34.022   6.904   3.741  1.00 20.00     0.067 C 
HETATM    2  C7  UNL     1     -33.179   5.813   3.193  1.00 20.00     0.126 C 
HETATM    3  N9  UNL     1     -34.679   7.756   4.175  1.00 20.00    -0.197 NA
ENDROOT
BRANCH   2   4
HETATM    4  C5  UNL     1     -33.970   4.487   3.192  1.00 20.00     0.018 C 
HETATM    5  C2  UNL     1     -33.621   3.586   4.375  1.00 20.00     0.006 C 
ENDBRANCH   2   4
BRANCH   2   6
HETATM    6  C8  UNL     1     -32.606   6.206   1.788  1.00 20.00     0.070 C 
HETATM    7  C4  UNL     1     -33.690   6.276   0.704  1.00 20.00     0.047 C 
BRANCH   6   8
HETATM    8  C6  UNL     1     -31.817   7.540   1.865  1.00 20.00     0.034 C 
HETATM    9  C3  UNL     1     -32.337   8.647   0.951  1.00 20.00     0.008 C 
ENDBRANCH   6   8
BRANCH   6  10
HETATM   10  O10 UNL     1     -31.679   5.183   1.388  1.00 20.00    -0.389 OA
HETATM   11  H25 UNL     1     -30.799   5.531   1.587  1.00 20.00     0.210 HD
ENDBRANCH   6  10
ENDBRANCH   2   6
TORSDOF 4
ENDMDL
MODEL 4
REMARK VINA RESULT:      -0.3      1.718      2.542
REMARK  4 active torsions:
REMARK  status: ('A' for Active; 'I' for Inactive)
REMARK    1  A    between atoms: C5_5  and  C7_7 
REMARK    2  A    between atoms: C6_6  and  C8_8 
REMARK    3  A    between atoms: C7_7  and  C8_8 
REMARK    4  A    between atoms: C8_8  and  O10_10 
ROOT
HETATM    1  C1  UNL     1     -34.146   6.482   3.359  1.00 20.00     0.067 C 
HETATM    2  C7  UNL     1     -32.880   6.619   2.597  1.00 20.00     0.126 C 
HETATM    3  N9  UNL     1     -35.134   6.371   3.958  1.00 20.00    -0.197 NA
ENDROOT
BRANCH   2   4
HETATM    4  C5  UNL     1     -32.965   5.809   1.286  1.00 20.00     0.018 C 
HETATM    5  C2  UNL     1     -31.779   4.869   1.089  1.00 20.00     0.006 C 
ENDBRANCH   2   4
BRANCH   2   6
HETATM    6  C8  UNL     1     -32.522   8.130   2.383  1.00 20.00     0.070 C 
HETATM    7  C4  UNL     1     -31.545   8.663   3.441  1.00 20.00     0.047 C 
BRANCH   6   8
HETATM    8  C6  UNL     1     -31.972   8.372   0.953  1.00 20.00     0.034 C 
HETATM    9  C3  UNL     1     -32.407   9.687   0.313  1.00 20.00     0.008 C 
ENDBRANCH   6   8
BRANCH   6  10
HETATM   10  O10 UNL     1     -33.734   8.892   2.511  1.00 20.00    -0.389 OA
HETATM   11  H25 UNL     1     -34.172   8.560   3.306  1.00 20.00     0.210 HD
ENDBRANCH   6  10
ENDBRANCH   2   6
TORSDOF 4
ENDMDL
MODEL 5
REMARK VINA RESULT:      -0.2      1.877      2.344
REMARK  4 active torsions:
REMARK  status: ('A' for Active; 'I' for Inactive)
REMARK    1  A    between atoms: C5_5  and  C7_7 
REMARK    2  A    between atoms: C6_6  and  C8_8 
REMARK    3  A    between atoms: C7_7  and  C8_8 
REMARK    4  A    between atoms: C8_8  and  O10_10 
ROOT
HETATM    1  C1  UNL     1     -33.950   5.218   3.505  1.00 20.00     0.067 C 
HETATM    2  C7  UNL     1     -33.709   6.538   2.872  1.00 20.00     0.126 C 
HETATM    3  N9  UNL     1     -34.143   4.186   4.001  1.00 20.00    -0.197 NA
ENDROOT
BRANCH   2   4
HETATM    4  C5  UNL     1     -33.180   7.536   3.924  1.00 20.00     0.018 C 
HETATM    5  C2  UNL     1     -34.228   7.908   4.971  1.00 20.00     0.006 C 
ENDBRANCH   2   4
BRANCH   2   6
HETATM    6  C8  UNL     1     -32.781   6.391   1.618  1.00 20.00     0.070 C 
HETATM    7  C4  UNL     1     -33.570   6.241   0.310  1.00 20.00     0.047 C 
BRANCH   6   8
HETATM    8  C6  UNL     1     -31.782   7.574   1.526  1.00 20.00     0.034 C 
HETATM    9  C3  UNL     1     -32.309   8.804   0.791  1.00 20.00     0.008 C 
ENDBRANCH   6   8
BRANCH   6  10
HETATM   10  O10 UNL     1     -32.008   5.190   1.781  1.00 20.00    -0.389 OA
HETATM   11  H25 UNL     1     -31.082   5.469   1.785  1.00 20.00     0.210 HD
ENDBRANCH   6  10
ENDBRANCH   2   6
TORSDOF 4
ENDMDL
MODEL 6
REMARK VINA RESULT:      -0.1      2.250      3.887
REMARK  4 active torsions:
REMARK  status: ('A' for Active; 'I' for Inactive)
REMARK    1  A    between atoms: C5_5  and  C7_7 
REMARK    2  A    between atoms: C6_6  and  C8_8 
REMARK    3  A    between atoms: C7_7  and  C8_8 
REMARK    4  A    between atoms: C8_8  and  O10_10 
ROOT
HETATM    1  C1  UNL     1     -33.663   7.442   3.387  1.00 20.00     0.067 C 
HETATM    2  C7  UNL     1     -33.180   7.254   1.997  1.00 20.00     0.126 C 
HETATM    3  N9  UNL     1     -34.045   7.593   4.473  1.00 20.00    -0.197 NA
ENDROOT
BRANCH   2   4
HETATM    4  C5  UNL     1     -31.889   8.072   1.775  1.00 20.00     0.018 C 
HETATM    5  C2  UNL     1     -32.060   9.182   0.739  1.00 20.00     0.006 C 
ENDBRANCH   2   4
BRANCH   2   6
HETATM    6  C8  UNL     1     -33.026   5.731   1.664  1.00 20.00     0.070 C 
HETATM    7  C4  UNL     1     -33.882   5.295   0.467  1.00 20.00     0.047 C 
BRANCH   6   8
HETATM    8  C6  UNL     1     -31.536   5.360   1.440  1.00 20.00     0.034 C 
HETATM    9  C3  UNL     1     -31.291   4.314   0.355  1.00 20.00     0.008 C 
ENDBRANCH   6   8
BRANCH   6  10
HETATM   10  O10 UNL     1     -33.487   4.983   2.802  1.00 20.00    -0.389 OA
HETATM   11  H25 UNL     1     -33.759   5.639   3.457  1.00 20.00     0.210 HD
ENDBRANCH   6  10
ENDBRANCH   2   6
TORSDOF 4
ENDMDL
MODEL 7
REMARK VINA RESULT:      -0.1      1.135      3.599
REMARK  4 active torsions:
REMARK  status: ('A' for Active; 'I' for Inactive)
REMARK    1  A    between atoms: C5_5  and  C7_7 
REMARK    2  A    between atoms: C6_6  and  C8_8 
REMARK    3  A    between atoms: C7_7  and  C8_8 
REMARK    4  A    between atoms: C8_8  and  O10_10 
ROOT
HETATM    1  C1  UNL     1     -32.278   6.426   1.630  1.00 20.00     0.067 C 
HETATM    2  C7  UNL     1     -32.370   7.726   2.339  1.00 20.00     0.126 C 
HETATM    3  N9  UNL     1     -32.201   5.409   1.075  1.00 20.00    -0.197 NA
ENDROOT
BRANCH   2   4
HETATM    4  C5  UNL     1     -32.694   8.851   1.333  1.00 20.00     0.018 C 
HETATM    5  C2  UNL     1     -31.600   9.046   0.286  1.00 20.00     0.006 C 
ENDBRANCH   2   4
BRANCH   2   6
HETATM    6  C8  UNL     1     -33.381   7.637   3.533  1.00 20.00     0.070 C 
HETATM    7  C4  UNL     1     -34.514   8.667   3.430  1.00 20.00     0.047 C 
BRANCH   6   8
HETATM    8  C6  UNL     1     -33.953   6.201   3.669  1.00 20.00     0.034 C 
HETATM    9  C3  UNL     1     -35.428   6.131   4.055  1.00 20.00     0.008 C 
ENDBRANCH   6   8
BRANCH   6  10
HETATM   10  O10 UNL     1     -32.660   7.927   4.742  1.00 20.00    -0.389 OA
HETATM   11  H25 UNL     1     -32.484   8.877   4.724  1.00 20.00     0.210 HD
ENDBRANCH   6  10
ENDBRANCH   2   6
TORSDOF 4
ENDMDL
MODEL 8
REMARK VINA RESULT:      -0.1      0.973      1.084
REMARK  4 active torsions:
REMARK  status: ('A' for Active; 'I' for Inactive)
REMARK    1  A    between atoms: C5_5  and  C7_7 
REMARK    2  A    between atoms: C6_6  and  C8_8 
REMARK    3  A    between atoms: C7_7  and  C8_8 
REMARK    4  A    between atoms: C8_8  and  O10_10 
ROOT
HETATM    1  C1  UNL     1     -32.554   5.869   1.541  1.00 20.00     0.067 C 
HETATM    2  C7  UNL     1     -33.261   7.054   2.087  1.00 20.00     0.126 C 
HETATM    3  N9  UNL     1     -32.005   4.941   1.111  1.00 20.00    -0.197 NA
ENDROOT
BRANCH   2   4
HETATM    4  C5  UNL     1     -33.649   6.800   3.560  1.00 20.00     0.018 C 
HETATM    5  C2  UNL     1     -35.132   6.482   3.738  1.00 20.00     0.006 C 
ENDBRANCH   2   4
BRANCH   2   6
HETATM    6  C8  UNL     1     -32.413   8.354   1.873  1.00 20.00     0.070 C 
HETATM    7  C4  UNL     1     -31.150   8.389   2.745  1.00 20.00     0.047 C 
BRANCH   6   8
HETATM    8  C6  UNL     1     -32.055   8.541   0.375  1.00 20.00     0.034 C 
HETATM    9  C3  UNL     1     -32.478   9.879  -0.224  1.00 20.00     0.008 C 
ENDBRANCH   6   8
BRANCH   6  10
HETATM   10  O10 UNL     1     -33.222   9.476   2.263  1.00 20.00    -0.389 OA
HETATM   11  H25 UNL     1     -33.875   9.128   2.885  1.00 20.00     0.210 HD
ENDBRANCH   6  10
ENDBRANCH   2   6
TORSDOF 4
ENDMDL
MODEL 9
REMARK VINA RESULT:      -0.0      2.277      3.713
REMARK  4 active torsions:
REMARK  status: ('A' for Active; 'I' for Inactive)
REMARK    1  A    between atoms: C5_5  and  C7_7 
REMARK    2  A    between atoms: C6_6  and  C8_8 
REMARK    3  A    between atoms: C7_7  and  C8_8 
REMARK    4  A    between atoms: C8_8  and  O10_10 
ROOT
HETATM    1  C1  UNL     1     -32.359   8.373   1.543  1.00 20.00     0.067 C 
HETATM    2  C7  UNL     1     -32.639   7.395   2.624  1.00 20.00     0.126 C 
HETATM    3  N9  UNL     1     -32.135   9.139   0.700  1.00 20.00    -0.197 NA
ENDROOT
BRANCH   2   4
HETATM    4  C5  UNL     1     -33.698   7.970   3.590  1.00 20.00     0.018 C 
HETATM    5  C2  UNL     1     -33.168   8.159   5.009  1.00 20.00     0.006 C 
ENDBRANCH   2   4
BRANCH   2   6
HETATM    6  C8  UNL     1     -33.022   6.000   2.024  1.00 20.00     0.070 C 
HETATM    7  C4  UNL     1     -31.798   5.111   1.760  1.00 20.00     0.047 C 
BRANCH   6   8
HETATM    8  C6  UNL     1     -34.047   5.269   2.931  1.00 20.00     0.034 C 
HETATM    9  C3  UNL     1     -33.471   4.122   3.757  1.00 20.00     0.008 C 
ENDBRANCH   6   8
BRANCH   6  10
HETATM   10  O10 UNL     1     -33.658   6.225   0.755  1.00 20.00    -0.389 OA
HETATM   11  H25 UNL     1     -34.430   6.778   0.940  1.00 20.00     0.210 HD
ENDBRANCH   6  10
ENDBRANCH   2   6
TORSDOF 4
ENDMDL
