MODEL 1
REMARK VINA RESULT:      -0.1      0.000      0.000
REMARK  4 active torsions:
REMARK  status: ('A' for Active; 'I' for Inactive)
REMARK    1  A    between atoms: C4_4  and  C9_9 
REMARK    2  A    between atoms: C7_7  and  C9_9 
REMARK    3  A    between atoms: C8_8  and  C9_9 
REMARK    4  A    between atoms: C9_9  and  O11_11 
ROOT
HETATM    1  C1  UNL     1     -33.839   4.598   3.876  1.00 20.00     0.066 C 
HETATM    2  C6  UNL     1     -35.314   6.537   3.720  1.00 20.00     0.028 C 
HETATM    3  C8  UNL     1     -33.857   6.060   3.637  1.00 20.00     0.123 C 
HETATM    4  N10 UNL     1     -33.826   3.454   4.068  1.00 20.00    -0.197 NA
ENDROOT
BRANCH   3   5
HETATM    5  C9  UNL     1     -33.159   6.430   2.289  1.00 20.00     0.077 C 
BRANCH   5   6
HETATM    6  C4  UNL     1     -32.690   7.875   2.301  1.00 20.00     0.021 A 
HETATM    7  C2  UNL     1     -31.272   8.214   1.931  1.00 20.00     0.008 A 
HETATM    8  C3  UNL     1     -32.399   8.587   1.008  1.00 20.00     0.008 A 
ENDBRANCH   5   6
BRANCH   5   9
HETATM    9  C7  UNL     1     -31.972   5.495   1.927  1.00 20.00     0.035 C 
HETATM   10  C5  UNL     1     -32.090   4.770   0.593  1.00 20.00     0.008 C 
ENDBRANCH   5   9
BRANCH   5  11
HETATM   11  O11 UNL     1     -34.127   6.300   1.236  1.00 20.00    -0.388 OA
HETATM   12  H26 UNL     1     -33.802   6.847   0.509  1.00 20.00     0.210 HD
ENDBRANCH   5  11
ENDBRANCH   3   5
TORSDOF 4
ENDMDL
MODEL 2
REMARK VINA RESULT:       0.3      1.369      1.648
REMARK  4 active torsions:
REMARK  status: ('A' for Active; 'I' for Inactive)
REMARK    1  A    between atoms: C4_4  and  C9_9 
REMARK    2  A    between atoms: C7_7  and  C9_9 
REMARK    3  A    between atoms: C8_8  and  C9_9 
REMARK    4  A    between atoms: C9_9  and  O11_11 
ROOT
HETATM    1  C1  UNL     1     -34.566   6.497   3.720  1.00 20.00     0.066 C 
HETATM    2  C6  UNL     1     -33.001   8.274   4.317  1.00 20.00     0.028 C 
HETATM    3  C8  UNL     1     -33.155   6.928   3.593  1.00 20.00     0.123 C 
HETATM    4  N10 UNL     1     -35.671   6.159   3.825  1.00 20.00    -0.197 NA
ENDROOT
BRANCH   3   5
HETATM    5  C9  UNL     1     -32.701   6.972   2.098  1.00 20.00     0.077 C 
BRANCH   5   6
HETATM    6  C4  UNL     1     -32.006   8.286   1.782  1.00 20.00     0.021 A 
HETATM    7  C2  UNL     1     -31.369   8.502   0.437  1.00 20.00     0.008 A 
HETATM    8  C3  UNL     1     -32.620   9.250   0.804  1.00 20.00     0.008 A 
ENDBRANCH   5   6
BRANCH   5   9
HETATM    9  C7  UNL     1     -31.786   5.784   1.692  1.00 20.00     0.035 C 
HETATM   10  C5  UNL     1     -32.351   4.858   0.623  1.00 20.00     0.008 C 
ENDBRANCH   5   9
BRANCH   5  11
HETATM   11  O11 UNL     1     -33.875   6.896   1.274  1.00 20.00    -0.388 OA
HETATM   12  H26 UNL     1     -34.481   7.567   1.615  1.00 20.00     0.210 HD
ENDBRANCH   5  11
ENDBRANCH   3   5
TORSDOF 4
ENDMDL
MODEL 3
REMARK VINA RESULT:       0.3      1.518      1.787
REMARK  4 active torsions:
REMARK  status: ('A' for Active; 'I' for Inactive)
REMARK    1  A    between atoms: C4_4  and  C9_9 
REMARK    2  A    between atoms: C7_7  and  C9_9 
REMARK    3  A    between atoms: C8_8  and  C9_9 
REMARK    4  A    between atoms: C9_9  and  O11_11 
ROOT
HETATM    1  C1  UNL     1     -34.091   7.165   4.019  1.00 20.00     0.066 C 
HETATM    2  C6  UNL     1     -33.913   4.753   3.682  1.00 20.00     0.028 C 
HETATM    3  C8  UNL     1     -34.096   6.108   2.982  1.00 20.00     0.123 C 
HETATM    4  N10 UNL     1     -34.093   7.991   4.833  1.00 20.00    -0.197 NA
ENDROOT
BRANCH   3   5
HETATM    5  C9  UNL     1     -33.026   6.384   1.876  1.00 20.00     0.077 C 
BRANCH   5   6
HETATM    6  C4  UNL     1     -32.387   7.748   2.071  1.00 20.00     0.021 A 
HETATM    7  C2  UNL     1     -31.123   8.104   1.337  1.00 20.00     0.008 A 
HETATM    8  C3  UNL     1     -32.420   8.765   0.962  1.00 20.00     0.008 A 
ENDBRANCH   5   6
BRANCH   5   9
HETATM    9  C7  UNL     1     -31.922   5.294   1.794  1.00 20.00     0.035 C 
HETATM   10  C5  UNL     1     -31.791   4.594   0.449  1.00 20.00     0.008 C 
ENDBRANCH   5   9
BRANCH   5  11
HETATM   11  O11 UNL     1     -33.694   6.398   0.605  1.00 20.00    -0.388 OA
HETATM   12  H26 UNL     1     -33.299   7.126   0.106  1.00 20.00     0.210 HD
ENDBRANCH   5  11
ENDBRANCH   3   5
TORSDOF 4
ENDMDL
MODEL 4
REMARK VINA RESULT:       0.4      2.666      4.436
REMARK  4 active torsions:
REMARK  status: ('A' for Active; 'I' for Inactive)
REMARK    1  A    between atoms: C4_4  and  C9_9 
REMARK    2  A    between atoms: C7_7  and  C9_9 
REMARK    3  A    between atoms: C8_8  and  C9_9 
REMARK    4  A    between atoms: C9_9  and  O11_11 
ROOT
HETATM    1  C1  UNL     1     -32.279   8.581   1.214  1.00 20.00     0.066 C 
HETATM    2  C6  UNL     1     -32.254   6.140   1.266  1.00 20.00     0.028 C 
HETATM    3  C8  UNL     1     -32.238   7.414   2.125  1.00 20.00     0.123 C 
HETATM    4  N10 UNL     1     -32.306   9.494   0.498  1.00 20.00    -0.197 NA
ENDROOT
BRANCH   3   5
HETATM    5  C9  UNL     1     -33.391   7.467   3.177  1.00 20.00     0.077 C 
BRANCH   5   6
HETATM    6  C4  UNL     1     -34.291   6.248   3.057  1.00 20.00     0.021 A 
HETATM    7  C2  UNL     1     -34.273   5.185   4.120  1.00 20.00     0.008 A 
HETATM    8  C3  UNL     1     -35.469   6.083   3.977  1.00 20.00     0.008 A 
ENDBRANCH   5   6
BRANCH   5   9
HETATM    9  C7  UNL     1     -32.890   7.607   4.641  1.00 20.00     0.035 C 
HETATM   10  C5  UNL     1     -33.683   8.567   5.517  1.00 20.00     0.008 C 
ENDBRANCH   5   9
BRANCH   5  11
HETATM   11  O11 UNL     1     -34.195   8.624   2.900  1.00 20.00    -0.388 OA
HETATM   12  H26 UNL     1     -34.171   8.739   1.940  1.00 20.00     0.210 HD
ENDBRANCH   5  11
ENDBRANCH   3   5
TORSDOF 4
ENDMDL
MODEL 5
REMARK VINA RESULT:       0.5      2.336      4.304
REMARK  4 active torsions:
REMARK  status: ('A' for Active; 'I' for Inactive)
REMARK    1  A    between atoms: C4_4  and  C9_9 
REMARK    2  A    between atoms: C7_7  and  C9_9 
REMARK    3  A    between atoms: C8_8  and  C9_9 
REMARK    4  A    between atoms: C9_9  and  O11_11 
ROOT
HETATM    1  C1  UNL     1     -32.290   7.843   1.659  1.00 20.00     0.066 C 
HETATM    2  C6  UNL     1     -32.759   5.502   1.150  1.00 20.00     0.028 C 
HETATM    3  C8  UNL     1     -32.604   6.534   2.277  1.00 20.00     0.123 C 
HETATM    4  N10 UNL     1     -32.039   8.867   1.174  1.00 20.00    -0.197 NA
ENDROOT
BRANCH   3   5
HETATM    5  C9  UNL     1     -33.853   6.626   3.211  1.00 20.00     0.077 C 
BRANCH   5   6
HETATM    6  C4  UNL     1     -33.834   5.517   4.250  1.00 20.00     0.021 A 
HETATM    7  C2  UNL     1     -35.103   4.794   4.609  1.00 20.00     0.008 A 
HETATM    8  C3  UNL     1     -34.028   4.085   3.833  1.00 20.00     0.008 A 
ENDBRANCH   5   6
BRANCH   5   9
HETATM    9  C7  UNL     1     -34.002   8.003   3.915  1.00 20.00     0.035 C 
HETATM   10  C5  UNL     1     -33.225   8.163   5.214  1.00 20.00     0.008 C 
ENDBRANCH   5   9
BRANCH   5  11
HETATM   11  O11 UNL     1     -35.027   6.440   2.404  1.00 20.00    -0.388 OA
HETATM   12  H26 UNL     1     -35.272   5.511   2.503  1.00 20.00     0.210 HD
ENDBRANCH   5  11
ENDBRANCH   3   5
TORSDOF 4
ENDMDL
MODEL 6
REMARK VINA RESULT:       0.5      2.194      3.250
REMARK  4 active torsions:
REMARK  status: ('A' for Active; 'I' for Inactive)
REMARK    1  A    between atoms: C4_4  and  C9_9 
REMARK    2  A    between atoms: C7_7  and  C9_9 
REMARK    3  A    between atoms: C8_8  and  C9_9 
REMARK    4  A    between atoms: C9_9  and  O11_11 
ROOT
HETATM    1  C1  UNL     1     -33.344   8.143   4.614  1.00 20.00     0.066 C 
HETATM    2  C6  UNL     1     -34.817   6.438   3.673  1.00 20.00     0.028 C 
HETATM    3  C8  UNL     1     -33.949   7.664   3.350  1.00 20.00     0.123 C 
HETATM    4  N10 UNL     1     -32.875   8.520   5.606  1.00 20.00    -0.197 NA
ENDROOT
BRANCH   3   5
HETATM    5  C9  UNL     1     -32.863   7.385   2.263  1.00 20.00     0.077 C 
BRANCH   5   6
HETATM    6  C4  UNL     1     -32.758   5.898   1.970  1.00 20.00     0.021 A 
HETATM    7  C2  UNL     1     -33.139   5.363   0.617  1.00 20.00     0.008 A 
HETATM    8  C3  UNL     1     -31.696   5.382   1.038  1.00 20.00     0.008 A 
ENDBRANCH   5   6
BRANCH   5   9
HETATM    9  C7  UNL     1     -33.094   8.165   0.940  1.00 20.00     0.035 C 
HETATM   10  C5  UNL     1     -32.215   9.393   0.740  1.00 20.00     0.008 C 
ENDBRANCH   5   9
BRANCH   5  11
HETATM   11  O11 UNL     1     -31.594   7.812   2.782  1.00 20.00    -0.388 OA
HETATM   12  H26 UNL     1     -31.534   7.441   3.673  1.00 20.00     0.210 HD
ENDBRANCH   5  11
ENDBRANCH   3   5
TORSDOF 4
ENDMDL
MODEL 7
REMARK VINA RESULT:       0.6      1.564      2.883
REMARK  4 active torsions:
REMARK  status: ('A' for Active; 'I' for Inactive)
REMARK    1  A    between atoms: C4_4  and  C9_9 
REMARK    2  A    between atoms: C7_7  and  C9_9 
REMARK    3  A    between atoms: C8_8  and  C9_9 
REMARK    4  A    between atoms: C9_9  and  O11_11 
ROOT
HETATM    1  C1  UNL     1     -33.551   5.351   2.800  1.00 20.00     0.066 C 
HETATM    2  C6  UNL     1     -31.749   5.444   1.154  1.00 20.00     0.028 C 
HETATM    3  C8  UNL     1     -33.006   6.154   1.682  1.00 20.00     0.123 C 
HETATM    4  N10 UNL     1     -33.979   4.717   3.673  1.00 20.00    -0.197 NA
ENDROOT
BRANCH   3   5
HETATM    5  C9  UNL     1     -32.748   7.634   2.111  1.00 20.00     0.077 C 
BRANCH   5   6
HETATM    6  C4  UNL     1     -32.959   8.581   0.941  1.00 20.00     0.021 A 
HETATM    7  C2  UNL     1     -32.548  10.024   1.052  1.00 20.00     0.008 A 
HETATM    8  C3  UNL     1     -31.780   9.091   0.158  1.00 20.00     0.008 A 
ENDBRANCH   5   6
BRANCH   5   9
HETATM    9  C7  UNL     1     -33.613   8.090   3.318  1.00 20.00     0.035 C 
HETATM   10  C5  UNL     1     -32.869   8.242   4.638  1.00 20.00     0.008 C 
ENDBRANCH   5   9
BRANCH   5  11
HETATM   11  O11 UNL     1     -31.375   7.748   2.516  1.00 20.00    -0.388 OA
HETATM   12  H26 UNL     1     -31.385   7.779   3.482  1.00 20.00     0.210 HD
ENDBRANCH   5  11
ENDBRANCH   3   5
TORSDOF 4
ENDMDL
MODEL 8
REMARK VINA RESULT:       0.8      2.604      3.940
REMARK  4 active torsions:
REMARK  status: ('A' for Active; 'I' for Inactive)
REMARK    1  A    between atoms: C4_4  and  C9_9 
REMARK    2  A    between atoms: C7_7  and  C9_9 
REMARK    3  A    between atoms: C8_8  and  C9_9 
REMARK    4  A    between atoms: C9_9  and  O11_11 
ROOT
HETATM    1  C1  UNL     1     -32.460   8.977   0.761  1.00 20.00     0.066 C 
HETATM    2  C6  UNL     1     -31.020   8.508   2.676  1.00 20.00     0.028 C 
HETATM    3  C8  UNL     1     -32.422   8.309   2.082  1.00 20.00     0.123 C 
HETATM    4  N10 UNL     1     -32.489   9.506  -0.272  1.00 20.00    -0.197 NA
ENDROOT
BRANCH   3   5
HETATM    5  C9  UNL     1     -32.845   6.808   1.978  1.00 20.00     0.077 C 
BRANCH   5   6
HETATM    6  C4  UNL     1     -33.545   6.354   3.248  1.00 20.00     0.021 A 
HETATM    7  C2  UNL     1     -34.100   7.367   4.211  1.00 20.00     0.008 A 
HETATM    8  C3  UNL     1     -35.033   6.519   3.393  1.00 20.00     0.008 A 
ENDBRANCH   5   6
BRANCH   5   9
HETATM    9  C7  UNL     1     -33.739   6.499   0.746  1.00 20.00     0.035 C 
HETATM   10  C5  UNL     1     -33.634   5.082   0.199  1.00 20.00     0.008 C 
ENDBRANCH   5   9
BRANCH   5  11
HETATM   11  O11 UNL     1     -31.653   6.019   1.837  1.00 20.00    -0.388 OA
HETATM   12  H26 UNL     1     -31.265   5.966   2.721  1.00 20.00     0.210 HD
ENDBRANCH   5  11
ENDBRANCH   3   5
TORSDOF 4
ENDMDL
MODEL 9
REMARK VINA RESULT:       1.1      2.044      3.078
REMARK  4 active torsions:
REMARK  status: ('A' for Active; 'I' for Inactive)
REMARK    1  A    between atoms: C4_4  and  C9_9 
REMARK    2  A    between atoms: C7_7  and  C9_9 
REMARK    3  A    between atoms: C8_8  and  C9_9 
REMARK    4  A    between atoms: C9_9  and  O11_11 
ROOT
HETATM    1  C1  UNL     1     -31.898   5.278   1.346  1.00 20.00     0.066 C 
HETATM    2  C6  UNL     1     -33.898   6.192   0.283  1.00 20.00     0.028 C 
HETATM    3  C8  UNL     1     -33.006   6.243   1.533  1.00 20.00     0.123 C 
HETATM    4  N10 UNL     1     -31.034   4.518   1.200  1.00 20.00    -0.197 NA
ENDROOT
BRANCH   3   5
HETATM    5  C9  UNL     1     -32.471   7.675   1.855  1.00 20.00     0.077 C 
BRANCH   5   6
HETATM    6  C4  UNL     1     -32.925   8.672   0.802  1.00 20.00     0.021 A 
HETATM    7  C2  UNL     1     -32.647  10.140   0.979  1.00 20.00     0.008 A 
HETATM    8  C3  UNL     1     -31.915   9.358  -0.076  1.00 20.00     0.008 A 
ENDBRANCH   5   6
BRANCH   5   9
HETATM    9  C7  UNL     1     -32.871   8.184   3.267  1.00 20.00     0.035 C 
HETATM   10  C5  UNL     1     -34.052   7.472   3.911  1.00 20.00     0.008 C 
ENDBRANCH   5   9
BRANCH   5  11
HETATM   11  O11 UNL     1     -31.036   7.633   1.817  1.00 20.00    -0.388 OA
HETATM   12  H26 UNL     1     -30.747   8.549   1.709  1.00 20.00     0.210 HD
ENDBRANCH   5  11
ENDBRANCH   3   5
TORSDOF 4
ENDMDL
