MODEL 1
REMARK VINA RESULT:      -2.2      0.000      0.000
REMARK  4 active torsions:
REMARK  status: ('A' for Active; 'I' for Inactive)
REMARK    1  A    between atoms: C4_4  and  C5_5 
REMARK    2  A    between atoms: C5_5  and  C7_7 
REMARK    3  A    between atoms: C6_6  and  C7_7 
REMARK    4  A    between atoms: C7_7  and  O9_9 
ROOT
HETATM    1  C1  UNL     1     -33.309   6.224   2.360  1.00 20.00     0.066 C 
HETATM    2  C3  UNL     1     -34.110   7.577   4.248  1.00 20.00     0.028 C 
HETATM    3  C6  UNL     1     -34.339   6.311   3.417  1.00 20.00     0.117 C 
HETATM    4  N8  UNL     1     -32.502   6.157   1.530  1.00 20.00    -0.197 NA
ENDROOT
BRANCH   3   5
HETATM    5  C7  UNL     1     -34.359   5.053   4.313  1.00 20.00     0.135 C 
BRANCH   5   6
HETATM    6  C5  UNL     1     -33.754   3.820   3.621  1.00 20.00     0.033 C 
BRANCH   6   7
HETATM    7  C4  UNL     1     -33.361   2.722   4.615  1.00 20.00    -0.002 C 
HETATM    8  C2  UNL     1     -32.597   3.294   5.801  1.00 20.00     0.005 C 
ENDBRANCH   6   7
ENDBRANCH   5   6
BRANCH   5   9
HETATM    9  O9  UNL     1     -35.699   4.782   4.723  1.00 20.00    -0.394 OA
HETATM   10  H22 UNL     1     -35.965   5.515   5.297  1.00 20.00     0.210 HD
ENDBRANCH   5   9
ENDBRANCH   3   5
TORSDOF 4
ENDMDL
MODEL 2
REMARK VINA RESULT:      -2.1      1.806      2.534
REMARK  4 active torsions:
REMARK  status: ('A' for Active; 'I' for Inactive)
REMARK    1  A    between atoms: C4_4  and  C5_5 
REMARK    2  A    between atoms: C5_5  and  C7_7 
REMARK    3  A    between atoms: C6_6  and  C7_7 
REMARK    4  A    between atoms: C7_7  and  O9_9 
ROOT
HETATM    1  C1  UNL     1     -32.694   5.934   1.518  1.00 20.00     0.066 C 
HETATM    2  C3  UNL     1     -32.104   8.230   2.158  1.00 20.00     0.028 C 
HETATM    3  C6  UNL     1     -33.187   7.148   2.201  1.00 20.00     0.117 C 
HETATM    4  N8  UNL     1     -32.308   4.980   0.982  1.00 20.00    -0.197 NA
ENDROOT
BRANCH   3   5
HETATM    5  C7  UNL     1     -33.629   6.861   3.653  1.00 20.00     0.135 C 
BRANCH   5   6
HETATM    6  C5  UNL     1     -35.087   6.381   3.746  1.00 20.00     0.033 C 
BRANCH   6   7
HETATM    7  C4  UNL     1     -35.222   5.054   4.499  1.00 20.00    -0.002 C 
HETATM    8  C2  UNL     1     -34.047   4.130   4.212  1.00 20.00     0.005 C 
ENDBRANCH   6   7
ENDBRANCH   5   6
BRANCH   5   9
HETATM    9  O9  UNL     1     -33.442   8.031   4.447  1.00 20.00    -0.394 OA
HETATM   10  H22 UNL     1     -32.831   8.602   3.958  1.00 20.00     0.210 HD
ENDBRANCH   5   9
ENDBRANCH   3   5
TORSDOF 4
ENDMDL
MODEL 3
REMARK VINA RESULT:      -1.9      2.007      2.841
REMARK  4 active torsions:
REMARK  status: ('A' for Active; 'I' for Inactive)
REMARK    1  A    between atoms: C4_4  and  C5_5 
REMARK    2  A    between atoms: C5_5  and  C7_7 
REMARK    3  A    between atoms: C6_6  and  C7_7 
REMARK    4  A    between atoms: C7_7  and  O9_9 
ROOT
HETATM    1  C1  UNL     1     -32.359   8.162   1.584  1.00 20.00     0.066 C 
HETATM    2  C3  UNL     1     -32.826   5.766   1.313  1.00 20.00     0.028 C 
HETATM    3  C6  UNL     1     -32.435   6.871   2.299  1.00 20.00     0.117 C 
HETATM    4  N8  UNL     1     -32.297   9.175   1.023  1.00 20.00    -0.197 NA
ENDROOT
BRANCH   3   5
HETATM    5  C7  UNL     1     -33.415   6.924   3.492  1.00 20.00     0.135 C 
BRANCH   5   6
HETATM    6  C5  UNL     1     -34.648   6.027   3.288  1.00 20.00     0.033 C 
BRANCH   6   7
HETATM    7  C4  UNL     1     -34.831   5.014   4.423  1.00 20.00    -0.002 C 
HETATM    8  C2  UNL     1     -33.870   3.842   4.283  1.00 20.00     0.005 C 
ENDBRANCH   6   7
ENDBRANCH   5   6
BRANCH   5   9
HETATM    9  O9  UNL     1     -33.819   8.274   3.716  1.00 20.00    -0.394 OA
HETATM   10  H22 UNL     1     -34.243   8.574   2.898  1.00 20.00     0.210 HD
ENDBRANCH   5   9
ENDBRANCH   3   5
TORSDOF 4
ENDMDL
MODEL 4
REMARK VINA RESULT:      -1.8      2.801      4.906
REMARK  4 active torsions:
REMARK  status: ('A' for Active; 'I' for Inactive)
REMARK    1  A    between atoms: C4_4  and  C5_5 
REMARK    2  A    between atoms: C5_5  and  C7_7 
REMARK    3  A    between atoms: C6_6  and  C7_7 
REMARK    4  A    between atoms: C7_7  and  O9_9 
ROOT
HETATM    1  C1  UNL     1     -33.749   5.223   3.093  1.00 20.00     0.066 C 
HETATM    2  C3  UNL     1     -31.981   5.424   1.400  1.00 20.00     0.028 C 
HETATM    3  C6  UNL     1     -33.299   6.003   1.921  1.00 20.00     0.117 C 
HETATM    4  N8  UNL     1     -34.102   4.611   4.012  1.00 20.00    -0.197 NA
ENDROOT
BRANCH   3   5
HETATM    5  C7  UNL     1     -33.157   7.507   2.242  1.00 20.00     0.135 C 
BRANCH   5   6
HETATM    6  C5  UNL     1     -31.804   8.085   1.797  1.00 20.00     0.033 C 
BRANCH   6   7
HETATM    7  C4  UNL     1     -31.881   8.777   0.432  1.00 20.00    -0.002 C 
HETATM    8  C2  UNL     1     -32.599  10.115   0.527  1.00 20.00     0.005 C 
ENDBRANCH   6   7
ENDBRANCH   5   6
BRANCH   5   9
HETATM    9  O9  UNL     1     -33.346   7.714   3.641  1.00 20.00    -0.394 OA
HETATM   10  H22 UNL     1     -33.790   6.923   3.980  1.00 20.00     0.210 HD
ENDBRANCH   5   9
ENDBRANCH   3   5
TORSDOF 4
ENDMDL
MODEL 5
REMARK VINA RESULT:      -1.8      1.699      1.862
REMARK  4 active torsions:
REMARK  status: ('A' for Active; 'I' for Inactive)
REMARK    1  A    between atoms: C4_4  and  C5_5 
REMARK    2  A    between atoms: C5_5  and  C7_7 
REMARK    3  A    between atoms: C6_6  and  C7_7 
REMARK    4  A    between atoms: C7_7  and  O9_9 
ROOT
HETATM    1  C1  UNL     1     -32.619   7.828   2.392  1.00 20.00     0.066 C 
HETATM    2  C3  UNL     1     -33.795   7.690   4.543  1.00 20.00     0.028 C 
HETATM    3  C6  UNL     1     -33.847   7.338   3.054  1.00 20.00     0.117 C 
HETATM    4  N8  UNL     1     -31.657   8.213   1.871  1.00 20.00    -0.197 NA
ENDROOT
BRANCH   3   5
HETATM    5  C7  UNL     1     -34.053   5.822   2.847  1.00 20.00     0.135 C 
BRANCH   5   6
HETATM    6  C5  UNL     1     -34.172   5.052   4.173  1.00 20.00     0.033 C 
BRANCH   6   7
HETATM    7  C4  UNL     1     -33.849   3.562   4.019  1.00 20.00    -0.002 C 
HETATM    8  C2  UNL     1     -32.924   3.077   5.126  1.00 20.00     0.005 C 
ENDBRANCH   6   7
ENDBRANCH   5   6
BRANCH   5   9
HETATM    9  O9  UNL     1     -32.980   5.297   2.067  1.00 20.00    -0.394 OA
HETATM   10  H22 UNL     1     -33.376   4.685   1.429  1.00 20.00     0.210 HD
ENDBRANCH   5   9
ENDBRANCH   3   5
TORSDOF 4
ENDMDL
MODEL 6
REMARK VINA RESULT:      -1.8      2.672      3.757
REMARK  4 active torsions:
REMARK  status: ('A' for Active; 'I' for Inactive)
REMARK    1  A    between atoms: C4_4  and  C5_5 
REMARK    2  A    between atoms: C5_5  and  C7_7 
REMARK    3  A    between atoms: C6_6  and  C7_7 
REMARK    4  A    between atoms: C7_7  and  O9_9 
ROOT
HETATM    1  C1  UNL     1     -32.474   9.218   0.777  1.00 20.00     0.066 C 
HETATM    2  C3  UNL     1     -30.895   7.586   1.712  1.00 20.00     0.028 C 
HETATM    3  C6  UNL     1     -32.220   8.323   1.926  1.00 20.00     0.117 C 
HETATM    4  N8  UNL     1     -32.673   9.922  -0.123  1.00 20.00    -0.197 NA
ENDROOT
BRANCH   3   5
HETATM    5  C7  UNL     1     -33.380   7.329   2.155  1.00 20.00     0.135 C 
BRANCH   5   6
HETATM    6  C5  UNL     1     -33.808   7.245   3.630  1.00 20.00     0.033 C 
BRANCH   6   7
HETATM    7  C4  UNL     1     -35.160   6.547   3.810  1.00 20.00    -0.002 C 
HETATM    8  C2  UNL     1     -34.989   5.139   4.361  1.00 20.00     0.005 C 
ENDBRANCH   6   7
ENDBRANCH   5   6
BRANCH   5   9
HETATM    9  O9  UNL     1     -33.002   6.039   1.677  1.00 20.00    -0.394 OA
HETATM   10  H22 UNL     1     -33.631   5.409   2.058  1.00 20.00     0.210 HD
ENDBRANCH   5   9
ENDBRANCH   3   5
TORSDOF 4
ENDMDL
MODEL 7
REMARK VINA RESULT:      -1.7      2.643      4.508
REMARK  4 active torsions:
REMARK  status: ('A' for Active; 'I' for Inactive)
REMARK    1  A    between atoms: C4_4  and  C5_5 
REMARK    2  A    between atoms: C5_5  and  C7_7 
REMARK    3  A    between atoms: C6_6  and  C7_7 
REMARK    4  A    between atoms: C7_7  and  O9_9 
ROOT
HETATM    1  C1  UNL     1     -33.927   4.649   4.008  1.00 20.00     0.066 C 
HETATM    2  C3  UNL     1     -35.288   6.631   3.509  1.00 20.00     0.028 C 
HETATM    3  C6  UNL     1     -33.873   6.106   3.770  1.00 20.00     0.117 C 
HETATM    4  N8  UNL     1     -33.969   3.505   4.197  1.00 20.00    -0.197 NA
ENDROOT
BRANCH   3   5
HETATM    5  C7  UNL     1     -32.921   6.471   2.610  1.00 20.00     0.135 C 
BRANCH   5   6
HETATM    6  C5  UNL     1     -32.861   7.984   2.344  1.00 20.00     0.033 C 
BRANCH   6   7
HETATM    7  C4  UNL     1     -31.908   8.343   1.199  1.00 20.00    -0.002 C 
HETATM    8  C2  UNL     1     -32.362   9.600   0.471  1.00 20.00     0.005 C 
ENDBRANCH   6   7
ENDBRANCH   5   6
BRANCH   5   9
HETATM    9  O9  UNL     1     -33.323   5.778   1.429  1.00 20.00    -0.394 OA
HETATM   10  H22 UNL     1     -33.632   6.452   0.806  1.00 20.00     0.210 HD
ENDBRANCH   5   9
ENDBRANCH   3   5
TORSDOF 4
ENDMDL
MODEL 8
REMARK VINA RESULT:      -1.6      2.905      4.824
REMARK  4 active torsions:
REMARK  status: ('A' for Active; 'I' for Inactive)
REMARK    1  A    between atoms: C4_4  and  C5_5 
REMARK    2  A    between atoms: C5_5  and  C7_7 
REMARK    3  A    between atoms: C6_6  and  C7_7 
REMARK    4  A    between atoms: C7_7  and  O9_9 
ROOT
HETATM    1  C1  UNL     1     -33.916   7.598   4.269  1.00 20.00     0.066 C 
HETATM    2  C3  UNL     1     -34.353   5.263   3.647  1.00 20.00     0.028 C 
HETATM    3  C6  UNL     1     -34.002   6.661   3.130  1.00 20.00     0.117 C 
HETATM    4  N8  UNL     1     -33.850   8.334   5.164  1.00 20.00    -0.197 NA
ENDROOT
BRANCH   3   5
HETATM    5  C7  UNL     1     -32.700   6.636   2.299  1.00 20.00     0.135 C 
BRANCH   5   6
HETATM    6  C5  UNL     1     -32.110   8.039   2.075  1.00 20.00     0.033 C 
BRANCH   6   7
HETATM    7  C4  UNL     1     -31.981   8.392   0.591  1.00 20.00    -0.002 C 
HETATM    8  C2  UNL     1     -32.445   9.816   0.316  1.00 20.00     0.005 C 
ENDBRANCH   6   7
ENDBRANCH   5   6
BRANCH   5   9
HETATM    9  O9  UNL     1     -32.947   6.000   1.046  1.00 20.00    -0.394 OA
HETATM   10  H22 UNL     1     -33.898   6.082   0.878  1.00 20.00     0.210 HD
ENDBRANCH   5   9
ENDBRANCH   3   5
TORSDOF 4
ENDMDL
MODEL 9
REMARK VINA RESULT:      -1.5      2.384      4.067
REMARK  4 active torsions:
REMARK  status: ('A' for Active; 'I' for Inactive)
REMARK    1  A    between atoms: C4_4  and  C5_5 
REMARK    2  A    between atoms: C5_5  and  C7_7 
REMARK    3  A    between atoms: C6_6  and  C7_7 
REMARK    4  A    between atoms: C7_7  and  O9_9 
ROOT
HETATM    1  C1  UNL     1     -34.391   5.053   4.056  1.00 20.00     0.066 C 
HETATM    2  C3  UNL     1     -36.166   6.550   3.255  1.00 20.00     0.028 C 
HETATM    3  C6  UNL     1     -34.847   6.459   4.028  1.00 20.00     0.117 C 
HETATM    4  N8  UNL     1     -34.034   3.950   4.079  1.00 20.00    -0.197 NA
ENDROOT
BRANCH   3   5
HETATM    5  C7  UNL     1     -33.783   7.403   3.426  1.00 20.00     0.135 C 
BRANCH   5   6
HETATM    6  C5  UNL     1     -33.003   6.758   2.269  1.00 20.00     0.033 C 
BRANCH   6   7
HETATM    7  C4  UNL     1     -31.831   7.623   1.795  1.00 20.00    -0.002 C 
HETATM    8  C2  UNL     1     -32.318   8.858   1.050  1.00 20.00     0.005 C 
ENDBRANCH   6   7
ENDBRANCH   5   6
BRANCH   5   9
HETATM    9  O9  UNL     1     -32.885   7.824   4.452  1.00 20.00    -0.394 OA
HETATM   10  H22 UNL     1     -32.037   7.393   4.270  1.00 20.00     0.210 HD
ENDBRANCH   5   9
ENDBRANCH   3   5
TORSDOF 4
ENDMDL
