MODEL 1
REMARK VINA RESULT:      -2.0      0.000      0.000
REMARK  3 active torsions:
REMARK  status: ('A' for Active; 'I' for Inactive)
REMARK    1  A    between atoms: C5_5  and  C6_6 
REMARK    2  A    between atoms: C6_6  and  C7_7 
REMARK    3  A    between atoms: C6_6  and  O9_9 
ROOT
HETATM    1  C1  UNL     1     -33.458   6.231   2.458  1.00 20.00     0.071 C 
HETATM    2  C3  UNL     1     -35.760   6.756   3.112  1.00 20.00     0.033 C 
HETATM    3  C4  UNL     1     -33.842   7.593   4.468  1.00 20.00     0.033 C 
HETATM    4  C7  UNL     1     -34.349   6.405   3.631  1.00 20.00     0.067 C 
HETATM    5  N8  UNL     1     -32.761   6.095   1.540  1.00 20.00    -0.196 NA
ENDROOT
BRANCH   4   6
HETATM    6  C6  UNL     1     -34.396   5.102   4.487  1.00 20.00     0.139 C 
BRANCH   6   7
HETATM    7  C5  UNL     1     -33.760   3.867   3.823  1.00 20.00     0.029 C 
HETATM    8  C2  UNL     1     -33.130   2.924   4.844  1.00 20.00     0.007 C 
ENDBRANCH   6   7
BRANCH   6   9
HETATM    9  O9  UNL     1     -35.749   4.773   4.817  1.00 20.00    -0.394 OA
HETATM   10  H22 UNL     1     -36.256   4.854   3.996  1.00 20.00     0.210 HD
ENDBRANCH   6   9
ENDBRANCH   4   6
TORSDOF 3
ENDMDL
MODEL 2
REMARK VINA RESULT:      -1.4      1.366      1.940
REMARK  3 active torsions:
REMARK  status: ('A' for Active; 'I' for Inactive)
REMARK    1  A    between atoms: C5_5  and  C6_6 
REMARK    2  A    between atoms: C6_6  and  C7_7 
REMARK    3  A    between atoms: C6_6  and  O9_9 
ROOT
HETATM    1  C1  UNL     1     -33.686   7.470   4.339  1.00 20.00     0.071 C 
HETATM    2  C3  UNL     1     -33.506   6.119   2.302  1.00 20.00     0.033 C 
HETATM    3  C4  UNL     1     -35.743   6.799   3.171  1.00 20.00     0.033 C 
HETATM    4  C7  UNL     1     -34.326   6.363   3.587  1.00 20.00     0.067 C 
HETATM    5  N8  UNL     1     -33.186   8.336   4.926  1.00 20.00    -0.196 NA
ENDROOT
BRANCH   4   6
HETATM    6  C6  UNL     1     -34.376   5.065   4.451  1.00 20.00     0.139 C 
BRANCH   6   7
HETATM    7  C5  UNL     1     -33.730   3.828   3.801  1.00 20.00     0.029 C 
HETATM    8  C2  UNL     1     -33.106   2.893   4.833  1.00 20.00     0.007 C 
ENDBRANCH   6   7
BRANCH   6   9
HETATM    9  O9  UNL     1     -35.730   4.733   4.773  1.00 20.00    -0.394 OA
HETATM   10  H22 UNL     1     -35.686   4.057   5.465  1.00 20.00     0.210 HD
ENDBRANCH   6   9
ENDBRANCH   4   6
TORSDOF 3
ENDMDL
MODEL 3
REMARK VINA RESULT:      -1.2      2.699      3.800
REMARK  3 active torsions:
REMARK  status: ('A' for Active; 'I' for Inactive)
REMARK    1  A    between atoms: C5_5  and  C6_6 
REMARK    2  A    between atoms: C6_6  and  C7_7 
REMARK    3  A    between atoms: C6_6  and  O9_9 
ROOT
HETATM    1  C1  UNL     1     -32.437   9.114   1.006  1.00 20.00     0.071 C 
HETATM    2  C3  UNL     1     -31.656   8.669   3.286  1.00 20.00     0.033 C 
HETATM    3  C4  UNL     1     -31.082   7.106   1.429  1.00 20.00     0.033 C 
HETATM    4  C7  UNL     1     -32.183   8.028   1.985  1.00 20.00     0.067 C 
HETATM    5  N8  UNL     1     -32.633   9.963   0.241  1.00 20.00    -0.196 NA
ENDROOT
BRANCH   4   6
HETATM    6  C6  UNL     1     -33.490   7.225   2.269  1.00 20.00     0.139 C 
BRANCH   6   7
HETATM    7  C5  UNL     1     -34.037   7.362   3.701  1.00 20.00     0.029 C 
HETATM    8  C2  UNL     1     -35.146   6.356   3.993  1.00 20.00     0.007 C 
ENDBRANCH   6   7
BRANCH   6   9
HETATM    9  O9  UNL     1     -33.284   5.833   2.010  1.00 20.00    -0.394 OA
HETATM   10  H22 UNL     1     -32.800   5.782   1.173  1.00 20.00     0.210 HD
ENDBRANCH   6   9
ENDBRANCH   4   6
TORSDOF 3
ENDMDL
MODEL 4
REMARK VINA RESULT:      -0.8      2.295      3.233
REMARK  3 active torsions:
REMARK  status: ('A' for Active; 'I' for Inactive)
REMARK    1  A    between atoms: C5_5  and  C6_6 
REMARK    2  A    between atoms: C6_6  and  C7_7 
REMARK    3  A    between atoms: C6_6  and  O9_9 
ROOT
HETATM    1  C1  UNL     1     -34.203   5.113   3.963  1.00 20.00     0.071 C 
HETATM    2  C3  UNL     1     -33.885   7.447   4.642  1.00 20.00     0.033 C 
HETATM    3  C4  UNL     1     -35.894   6.779   3.322  1.00 20.00     0.033 C 
HETATM    4  C7  UNL     1     -34.389   6.516   3.518  1.00 20.00     0.067 C 
HETATM    5  N8  UNL     1     -34.058   4.016   4.312  1.00 20.00    -0.196 NA
ENDROOT
BRANCH   4   6
HETATM    6  C6  UNL     1     -33.602   6.785   2.199  1.00 20.00     0.139 C 
BRANCH   6   7
HETATM    7  C5  UNL     1     -33.122   5.522   1.461  1.00 20.00     0.029 C 
HETATM    8  C2  UNL     1     -31.611   5.518   1.249  1.00 20.00     0.007 C 
ENDBRANCH   6   7
BRANCH   6   9
HETATM    9  O9  UNL     1     -32.455   7.600   2.462  1.00 20.00    -0.394 OA
HETATM   10  H22 UNL     1     -31.746   6.994   2.720  1.00 20.00     0.210 HD
ENDBRANCH   6   9
ENDBRANCH   4   6
TORSDOF 3
ENDMDL
MODEL 5
REMARK VINA RESULT:      -0.7      2.380      3.784
REMARK  3 active torsions:
REMARK  status: ('A' for Active; 'I' for Inactive)
REMARK    1  A    between atoms: C5_5  and  C6_6 
REMARK    2  A    between atoms: C6_6  and  C7_7 
REMARK    3  A    between atoms: C6_6  and  O9_9 
ROOT
HETATM    1  C1  UNL     1     -34.198   5.116   4.038  1.00 20.00     0.071 C 
HETATM    2  C3  UNL     1     -33.956   7.462   4.706  1.00 20.00     0.033 C 
HETATM    3  C4  UNL     1     -35.418   6.842   2.782  1.00 20.00     0.033 C 
HETATM    4  C7  UNL     1     -34.104   6.499   3.508  1.00 20.00     0.067 C 
HETATM    5  N8  UNL     1     -34.272   4.035   4.452  1.00 20.00    -0.196 NA
ENDROOT
BRANCH   4   6
HETATM    6  C6  UNL     1     -32.884   6.641   2.547  1.00 20.00     0.139 C 
BRANCH   6   7
HETATM    7  C5  UNL     1     -32.369   8.079   2.360  1.00 20.00     0.029 C 
HETATM    8  C2  UNL     1     -31.883   8.337   0.936  1.00 20.00     0.007 C 
ENDBRANCH   6   7
BRANCH   6   9
HETATM    9  O9  UNL     1     -33.207   6.120   1.254  1.00 20.00    -0.394 OA
HETATM   10  H22 UNL     1     -34.163   6.230   1.149  1.00 20.00     0.210 HD
ENDBRANCH   6   9
ENDBRANCH   4   6
TORSDOF 3
ENDMDL
MODEL 6
REMARK VINA RESULT:      -0.6      1.461      2.045
REMARK  3 active torsions:
REMARK  status: ('A' for Active; 'I' for Inactive)
REMARK    1  A    between atoms: C5_5  and  C6_6 
REMARK    2  A    between atoms: C6_6  and  C7_7 
REMARK    3  A    between atoms: C6_6  and  O9_9 
ROOT
HETATM    1  C1  UNL     1     -35.781   6.684   3.170  1.00 20.00     0.071 C 
HETATM    2  C3  UNL     1     -33.880   7.585   4.427  1.00 20.00     0.033 C 
HETATM    3  C4  UNL     1     -33.502   6.235   2.364  1.00 20.00     0.033 C 
HETATM    4  C7  UNL     1     -34.396   6.382   3.609  1.00 20.00     0.067 C 
HETATM    5  N8  UNL     1     -36.863   6.921   2.827  1.00 20.00    -0.196 NA
ENDROOT
BRANCH   4   6
HETATM    6  C6  UNL     1     -34.362   5.085   4.475  1.00 20.00     0.139 C 
BRANCH   6   7
HETATM    7  C5  UNL     1     -33.671   3.880   3.811  1.00 20.00     0.029 C 
HETATM    8  C2  UNL     1     -33.128   2.889   4.836  1.00 20.00     0.007 C 
ENDBRANCH   6   7
BRANCH   6   9
HETATM    9  O9  UNL     1     -35.690   4.688   4.827  1.00 20.00    -0.394 OA
HETATM   10  H22 UNL     1     -35.698   4.592   5.791  1.00 20.00     0.210 HD
ENDBRANCH   6   9
ENDBRANCH   4   6
TORSDOF 3
ENDMDL
MODEL 7
REMARK VINA RESULT:      -0.6      2.542      4.190
REMARK  3 active torsions:
REMARK  status: ('A' for Active; 'I' for Inactive)
REMARK    1  A    between atoms: C5_5  and  C6_6 
REMARK    2  A    between atoms: C6_6  and  C7_7 
REMARK    3  A    between atoms: C6_6  and  O9_9 
ROOT
HETATM    1  C1  UNL     1     -33.544   4.979   2.956  1.00 20.00     0.071 C 
HETATM    2  C3  UNL     1     -33.764   5.395   0.551  1.00 20.00     0.033 C 
HETATM    3  C4  UNL     1     -31.515   5.383   1.628  1.00 20.00     0.033 C 
HETATM    4  C7  UNL     1     -32.990   5.773   1.832  1.00 20.00     0.067 C 
HETATM    5  N8  UNL     1     -33.976   4.356   3.834  1.00 20.00    -0.196 NA
ENDROOT
BRANCH   4   6
HETATM    6  C6  UNL     1     -33.128   7.301   2.116  1.00 20.00     0.139 C 
BRANCH   6   7
HETATM    7  C5  UNL     1     -31.886   8.140   1.763  1.00 20.00     0.029 C 
HETATM    8  C2  UNL     1     -32.185   9.193   0.700  1.00 20.00     0.007 C 
ENDBRANCH   6   7
BRANCH   6   9
HETATM    9  O9  UNL     1     -33.429   7.524   3.497  1.00 20.00    -0.394 OA
HETATM   10  H22 UNL     1     -33.980   6.780   3.778  1.00 20.00     0.210 HD
ENDBRANCH   6   9
ENDBRANCH   4   6
TORSDOF 3
ENDMDL
MODEL 8
REMARK VINA RESULT:      -0.6      1.931      2.853
REMARK  3 active torsions:
REMARK  status: ('A' for Active; 'I' for Inactive)
REMARK    1  A    between atoms: C5_5  and  C6_6 
REMARK    2  A    between atoms: C6_6  and  C7_7 
REMARK    3  A    between atoms: C6_6  and  O9_9 
ROOT
HETATM    1  C1  UNL     1     -32.376   7.661   1.544  1.00 20.00     0.071 C 
HETATM    2  C3  UNL     1     -31.667   5.318   1.662  1.00 20.00     0.033 C 
HETATM    3  C4  UNL     1     -33.959   5.904   0.872  1.00 20.00     0.033 C 
HETATM    4  C7  UNL     1     -32.848   6.291   1.865  1.00 20.00     0.067 C 
HETATM    5  N8  UNL     1     -32.007   8.731   1.292  1.00 20.00    -0.196 NA
ENDROOT
BRANCH   4   6
HETATM    6  C6  UNL     1     -33.364   6.216   3.335  1.00 20.00     0.139 C 
BRANCH   6   7
HETATM    7  C5  UNL     1     -34.440   5.145   3.590  1.00 20.00     0.029 C 
HETATM    8  C2  UNL     1     -33.861   3.885   4.228  1.00 20.00     0.007 C 
ENDBRANCH   6   7
BRANCH   6   9
HETATM    9  O9  UNL     1     -33.900   7.479   3.739  1.00 20.00    -0.394 OA
HETATM   10  H22 UNL     1     -33.956   7.454   4.705  1.00 20.00     0.210 HD
ENDBRANCH   6   9
ENDBRANCH   4   6
TORSDOF 3
ENDMDL
MODEL 9
REMARK VINA RESULT:      -0.5      3.140      4.763
REMARK  3 active torsions:
REMARK  status: ('A' for Active; 'I' for Inactive)
REMARK    1  A    between atoms: C5_5  and  C6_6 
REMARK    2  A    between atoms: C6_6  and  C7_7 
REMARK    3  A    between atoms: C6_6  and  O9_9 
ROOT
HETATM    1  C1  UNL     1     -33.812   6.298   2.936  1.00 20.00     0.071 C 
HETATM    2  C3  UNL     1     -33.785   6.362   0.486  1.00 20.00     0.033 C 
HETATM    3  C4  UNL     1     -31.765   5.626   1.751  1.00 20.00     0.033 C 
HETATM    4  C7  UNL     1     -32.955   6.604   1.765  1.00 20.00     0.067 C 
HETATM    5  N8  UNL     1     -34.483   6.058   3.852  1.00 20.00    -0.196 NA
ENDROOT
BRANCH   4   6
HETATM    6  C6  UNL     1     -32.459   8.082   1.815  1.00 20.00     0.139 C 
BRANCH   6   7
HETATM    7  C5  UNL     1     -31.863   8.612   0.498  1.00 20.00     0.029 C 
HETATM    8  C2  UNL     1     -32.494   9.933   0.070  1.00 20.00     0.007 C 
ENDBRANCH   6   7
BRANCH   6   9
HETATM    9  O9  UNL     1     -31.470   8.240   2.837  1.00 20.00    -0.394 OA
HETATM   10  H22 UNL     1     -31.832   7.822   3.632  1.00 20.00     0.210 HD
ENDBRANCH   6   9
ENDBRANCH   4   6
TORSDOF 3
ENDMDL
