MODEL 1
REMARK VINA RESULT:      -1.1      0.000      0.000
REMARK  3 active torsions:
REMARK  status: ('A' for Active; 'I' for Inactive)
REMARK    1  A    between atoms: C5_5  and  C7_7 
REMARK    2  A    between atoms: C6_6  and  C7_7 
REMARK    3  A    between atoms: C6_6  and  O9_9 
ROOT
HETATM    1  C1  UNL     1     -33.668   7.457   4.332  1.00 20.00     0.071 C 
HETATM    2  C4  UNL     1     -35.705   6.754   3.160  1.00 20.00     0.034 C 
HETATM    3  C7  UNL     1     -34.271   6.342   3.557  1.00 20.00     0.070 C 
HETATM    4  N8  UNL     1     -33.197   8.330   4.937  1.00 20.00    -0.196 NA
ENDROOT
BRANCH   3   5
HETATM    5  C5  UNL     1     -33.409   6.064   2.293  1.00 20.00     0.022 C 
HETATM    6  C2  UNL     1     -32.467   7.190   1.872  1.00 20.00     0.007 C 
ENDBRANCH   3   5
BRANCH   3   7
HETATM    7  C6  UNL     1     -34.340   5.056   4.444  1.00 20.00     0.136 C 
HETATM    8  C3  UNL     1     -33.690   3.808   3.845  1.00 20.00     0.041 C 
BRANCH   7   9
HETATM    9  O9  UNL     1     -35.705   4.745   4.742  1.00 20.00    -0.394 OA
HETATM   10  H22 UNL     1     -36.001   4.138   4.048  1.00 20.00     0.210 HD
ENDBRANCH   7   9
ENDBRANCH   3   7
TORSDOF 3
ENDMDL
MODEL 2
REMARK VINA RESULT:      -0.4      2.628      3.546
REMARK  3 active torsions:
REMARK  status: ('A' for Active; 'I' for Inactive)
REMARK    1  A    between atoms: C5_5  and  C7_7 
REMARK    2  A    between atoms: C6_6  and  C7_7 
REMARK    3  A    between atoms: C6_6  and  O9_9 
ROOT
HETATM    1  C1  UNL     1     -32.299   6.417   1.637  1.00 20.00     0.071 C 
HETATM    2  C4  UNL     1     -31.322   8.297   2.876  1.00 20.00     0.034 C 
HETATM    3  C7  UNL     1     -32.605   7.753   2.209  1.00 20.00     0.070 C 
HETATM    4  N8  UNL     1     -32.058   5.372   1.191  1.00 20.00    -0.196 NA
ENDROOT
BRANCH   3   5
HETATM    5  C5  UNL     1     -33.080   8.706   1.075  1.00 20.00     0.022 C 
HETATM    6  C2  UNL     1     -31.986   9.530   0.399  1.00 20.00     0.007 C 
ENDBRANCH   3   5
BRANCH   3   7
HETATM    7  C6  UNL     1     -33.724   7.624   3.294  1.00 20.00     0.136 C 
HETATM    8  C3  UNL     1     -33.346   8.113   4.692  1.00 20.00     0.041 C 
BRANCH   7   9
HETATM    9  O9  UNL     1     -34.141   6.259   3.399  1.00 20.00    -0.394 OA
HETATM   10  H22 UNL     1     -34.273   6.089   4.343  1.00 20.00     0.210 HD
ENDBRANCH   7   9
ENDBRANCH   3   7
TORSDOF 3
ENDMDL
MODEL 3
REMARK VINA RESULT:      -0.3      2.444      3.225
REMARK  3 active torsions:
REMARK  status: ('A' for Active; 'I' for Inactive)
REMARK    1  A    between atoms: C5_5  and  C7_7 
REMARK    2  A    between atoms: C6_6  and  C7_7 
REMARK    3  A    between atoms: C6_6  and  O9_9 
ROOT
HETATM    1  C1  UNL     1     -33.929   4.936   3.773  1.00 20.00     0.071 C 
HETATM    2  C4  UNL     1     -35.406   6.836   3.294  1.00 20.00     0.034 C 
HETATM    3  C7  UNL     1     -33.938   6.358   3.345  1.00 20.00     0.070 C 
HETATM    4  N8  UNL     1     -33.923   3.824   4.107  1.00 20.00    -0.196 NA
ENDROOT
BRANCH   3   5
HETATM    5  C5  UNL     1     -33.118   7.208   4.356  1.00 20.00     0.022 C 
HETATM    6  C2  UNL     1     -33.886   8.326   5.059  1.00 20.00     0.007 C 
ENDBRANCH   3   5
BRANCH   3   7
HETATM    7  C6  UNL     1     -33.313   6.487   1.917  1.00 20.00     0.136 C 
HETATM    8  C3  UNL     1     -32.532   5.268   1.427  1.00 20.00     0.041 C 
BRANCH   7   9
HETATM    9  O9  UNL     1     -32.441   7.621   1.870  1.00 20.00    -0.394 OA
HETATM   10  H22 UNL     1     -32.671   8.170   2.634  1.00 20.00     0.210 HD
ENDBRANCH   7   9
ENDBRANCH   3   7
TORSDOF 3
ENDMDL
MODEL 4
REMARK VINA RESULT:       0.2      3.091      4.382
REMARK  3 active torsions:
REMARK  status: ('A' for Active; 'I' for Inactive)
REMARK    1  A    between atoms: C5_5  and  C7_7 
REMARK    2  A    between atoms: C6_6  and  C7_7 
REMARK    3  A    between atoms: C6_6  and  O9_9 
ROOT
HETATM    1  C1  UNL     1     -33.305   7.715   3.050  1.00 20.00     0.071 C 
HETATM    2  C4  UNL     1     -31.030   8.598   2.797  1.00 20.00     0.034 C 
HETATM    3  C7  UNL     1     -32.227   7.961   2.058  1.00 20.00     0.070 C 
HETATM    4  N8  UNL     1     -34.147   7.524   3.827  1.00 20.00    -0.196 NA
ENDROOT
BRANCH   3   5
HETATM    5  C5  UNL     1     -31.813   6.614   1.400  1.00 20.00     0.022 C 
HETATM    6  C2  UNL     1     -32.906   5.550   1.320  1.00 20.00     0.007 C 
ENDBRANCH   3   5
BRANCH   3   7
HETATM    7  C6  UNL     1     -32.732   8.953   0.960  1.00 20.00     0.136 C 
HETATM    8  C3  UNL     1     -31.879   9.022  -0.307  1.00 20.00     0.041 C 
BRANCH   7   9
HETATM    9  O9  UNL     1     -32.824  10.274   1.505  1.00 20.00    -0.394 OA
HETATM   10  H22 UNL     1     -33.474  10.744   0.963  1.00 20.00     0.210 HD
ENDBRANCH   7   9
ENDBRANCH   3   7
TORSDOF 3
ENDMDL
MODEL 5
REMARK VINA RESULT:       0.3      2.009      2.838
REMARK  3 active torsions:
REMARK  status: ('A' for Active; 'I' for Inactive)
REMARK    1  A    between atoms: C5_5  and  C7_7 
REMARK    2  A    between atoms: C6_6  and  C7_7 
REMARK    3  A    between atoms: C6_6  and  O9_9 
ROOT
HETATM    1  C1  UNL     1     -32.361   7.486   1.704  1.00 20.00     0.071 C 
HETATM    2  C4  UNL     1     -33.814   6.026   0.372  1.00 20.00     0.034 C 
HETATM    3  C7  UNL     1     -33.013   6.152   1.686  1.00 20.00     0.070 C 
HETATM    4  N8  UNL     1     -31.852   8.530   1.717  1.00 20.00    -0.196 NA
ENDROOT
BRANCH   3   5
HETATM    5  C5  UNL     1     -31.926   5.043   1.775  1.00 20.00     0.022 C 
HETATM    6  C2  UNL     1     -31.498   4.425   0.445  1.00 20.00     0.007 C 
ENDBRANCH   3   5
BRANCH   3   7
HETATM    7  C6  UNL     1     -33.998   6.025   2.894  1.00 20.00     0.136 C 
HETATM    8  C3  UNL     1     -34.031   7.221   3.845  1.00 20.00     0.041 C 
BRANCH   7   9
HETATM    9  O9  UNL     1     -33.678   4.858   3.660  1.00 20.00    -0.394 OA
HETATM   10  H22 UNL     1     -34.057   5.001   4.539  1.00 20.00     0.210 HD
ENDBRANCH   7   9
ENDBRANCH   3   7
TORSDOF 3
ENDMDL
MODEL 6
REMARK VINA RESULT:       0.3      2.365      3.430
REMARK  3 active torsions:
REMARK  status: ('A' for Active; 'I' for Inactive)
REMARK    1  A    between atoms: C5_5  and  C7_7 
REMARK    2  A    between atoms: C6_6  and  C7_7 
REMARK    3  A    between atoms: C6_6  and  O9_9 
ROOT
HETATM    1  C1  UNL     1     -33.552   5.724   2.158  1.00 20.00     0.071 C 
HETATM    2  C4  UNL     1     -35.511   6.890   3.063  1.00 20.00     0.034 C 
HETATM    3  C7  UNL     1     -34.176   6.200   3.419  1.00 20.00     0.070 C 
HETATM    4  N8  UNL     1     -33.064   5.352   1.172  1.00 20.00    -0.196 NA
ENDROOT
BRANCH   3   5
HETATM    5  C5  UNL     1     -34.419   4.990   4.366  1.00 20.00     0.022 C 
HETATM    6  C2  UNL     1     -33.621   3.727   4.047  1.00 20.00     0.007 C 
ENDBRANCH   3   5
BRANCH   3   7
HETATM    7  C6  UNL     1     -33.238   7.238   4.118  1.00 20.00     0.136 C 
HETATM    8  C3  UNL     1     -33.936   8.242   5.036  1.00 20.00     0.041 C 
BRANCH   7   9
HETATM    9  O9  UNL     1     -32.508   7.973   3.130  1.00 20.00    -0.394 OA
HETATM   10  H22 UNL     1     -32.204   8.783   3.566  1.00 20.00     0.210 HD
ENDBRANCH   7   9
ENDBRANCH   3   7
TORSDOF 3
ENDMDL
MODEL 7
REMARK VINA RESULT:       0.4      2.286      2.915
REMARK  3 active torsions:
REMARK  status: ('A' for Active; 'I' for Inactive)
REMARK    1  A    between atoms: C5_5  and  C7_7 
REMARK    2  A    between atoms: C6_6  and  C7_7 
REMARK    3  A    between atoms: C6_6  and  O9_9 
ROOT
HETATM    1  C1  UNL     1     -32.379   7.840   1.559  1.00 20.00     0.071 C 
HETATM    2  C4  UNL     1     -34.119   6.204   0.997  1.00 20.00     0.034 C 
HETATM    3  C7  UNL     1     -32.949   6.526   1.954  1.00 20.00     0.070 C 
HETATM    4  N8  UNL     1     -31.934   8.867   1.250  1.00 20.00    -0.196 NA
ENDROOT
BRANCH   3   5
HETATM    5  C5  UNL     1     -31.846   5.434   1.861  1.00 20.00     0.022 C 
HETATM    6  C2  UNL     1     -31.798   4.649   0.552  1.00 20.00     0.007 C 
ENDBRANCH   3   5
BRANCH   3   7
HETATM    7  C6  UNL     1     -33.497   6.602   3.417  1.00 20.00     0.136 C 
HETATM    8  C3  UNL     1     -34.962   6.204   3.592  1.00 20.00     0.041 C 
BRANCH   7   9
HETATM    9  O9  UNL     1     -33.334   7.929   3.927  1.00 20.00    -0.394 OA
HETATM   10  H22 UNL     1     -32.544   8.288   3.497  1.00 20.00     0.210 HD
ENDBRANCH   7   9
ENDBRANCH   3   7
TORSDOF 3
ENDMDL
MODEL 8
REMARK VINA RESULT:       0.4      2.871      3.887
REMARK  3 active torsions:
REMARK  status: ('A' for Active; 'I' for Inactive)
REMARK    1  A    between atoms: C5_5  and  C7_7 
REMARK    2  A    between atoms: C6_6  and  C7_7 
REMARK    3  A    between atoms: C6_6  and  O9_9 
ROOT
HETATM    1  C1  UNL     1     -32.546   8.798   0.982  1.00 20.00     0.071 C 
HETATM    2  C4  UNL     1     -30.879   7.686   2.397  1.00 20.00     0.034 C 
HETATM    3  C7  UNL     1     -32.383   7.786   2.056  1.00 20.00     0.070 C 
HETATM    4  N8  UNL     1     -32.673   9.591   0.142  1.00 20.00    -0.196 NA
ENDROOT
BRANCH   3   5
HETATM    5  C5  UNL     1     -33.202   8.218   3.305  1.00 20.00     0.022 C 
HETATM    6  C2  UNL     1     -34.217   7.199   3.819  1.00 20.00     0.007 C 
ENDBRANCH   3   5
BRANCH   3   7
HETATM    7  C6  UNL     1     -32.882   6.391   1.553  1.00 20.00     0.136 C 
HETATM    8  C3  UNL     1     -31.789   5.353   1.300  1.00 20.00     0.041 C 
BRANCH   7   9
HETATM    9  O9  UNL     1     -33.630   6.552   0.343  1.00 20.00    -0.394 OA
HETATM   10  H22 UNL     1     -33.382   5.810  -0.228  1.00 20.00     0.210 HD
ENDBRANCH   7   9
ENDBRANCH   3   7
TORSDOF 3
ENDMDL
MODEL 9
REMARK VINA RESULT:       0.5      2.387      3.387
REMARK  3 active torsions:
REMARK  status: ('A' for Active; 'I' for Inactive)
REMARK    1  A    between atoms: C5_5  and  C7_7 
REMARK    2  A    between atoms: C6_6  and  C7_7 
REMARK    3  A    between atoms: C6_6  and  O9_9 
ROOT
HETATM    1  C1  UNL     1     -35.213   6.567   3.320  1.00 20.00     0.071 C 
HETATM    2  C4  UNL     1     -33.218   7.547   4.358  1.00 20.00     0.034 C 
HETATM    3  C7  UNL     1     -33.730   6.504   3.340  1.00 20.00     0.070 C 
HETATM    4  N8  UNL     1     -36.374   6.617   3.305  1.00 20.00    -0.196 NA
ENDROOT
BRANCH   3   5
HETATM    5  C5  UNL     1     -33.278   5.072   3.747  1.00 20.00     0.022 C 
HETATM    6  C2  UNL     1     -34.332   4.217   4.446  1.00 20.00     0.007 C 
ENDBRANCH   3   5
BRANCH   3   7
HETATM    7  C6  UNL     1     -33.163   6.856   1.926  1.00 20.00     0.136 C 
HETATM    8  C3  UNL     1     -32.493   5.703   1.179  1.00 20.00     0.041 C 
BRANCH   7   9
HETATM    9  O9  UNL     1     -32.216   7.924   2.035  1.00 20.00    -0.394 OA
HETATM   10  H22 UNL     1     -31.401   7.528   2.377  1.00 20.00     0.210 HD
ENDBRANCH   7   9
ENDBRANCH   3   7
TORSDOF 3
ENDMDL
