MODEL 1
REMARK VINA RESULT:       0.1      0.000      0.000
REMARK  4 active torsions:
REMARK  status: ('A' for Active; 'I' for Inactive)
REMARK    1  A    between atoms: C6_6  and  C9_9 
REMARK    2  A    between atoms: C7_7  and  C8_8 
REMARK    3  A    between atoms: C8_8  and  C9_9 
REMARK    4  A    between atoms: C8_8  and  O11_11 
ROOT
HETATM    1  C1  UNL     1     -32.290   7.743   1.462  1.00 20.00     0.071 C 
HETATM    2  C5  UNL     1     -33.856   6.009   0.785  1.00 20.00     0.034 C 
HETATM    3  C9  UNL     1     -32.721   6.355   1.782  1.00 20.00     0.071 C 
HETATM    4  N10 UNL     1     -31.968   8.827   1.203  1.00 20.00    -0.196 NA
ENDROOT
BRANCH   3   5
HETATM    5  C6  UNL     1     -31.511   5.410   1.543  1.00 20.00     0.022 C 
HETATM    6  C2  UNL     1     -31.667   4.416   0.398  1.00 20.00     0.007 C 
ENDBRANCH   3   5
BRANCH   3   7
HETATM    7  C8  UNL     1     -33.288   6.266   3.239  1.00 20.00     0.143 C 
BRANCH   7   8
HETATM    8  C7  UNL     1     -34.415   5.231   3.521  1.00 20.00     0.008 C 
HETATM    9  C3  UNL     1     -35.558   5.756   4.392  1.00 20.00     0.012 C 
HETATM   10  C4  UNL     1     -33.835   3.972   4.185  1.00 20.00     0.012 C 
ENDBRANCH   7   8
BRANCH   7  11
HETATM   11  O11 UNL     1     -33.702   7.574   3.655  1.00 20.00    -0.393 OA
HETATM   12  H28 UNL     1     -33.330   7.704   4.539  1.00 20.00     0.210 HD
ENDBRANCH   7  11
ENDBRANCH   3   7
TORSDOF 4
ENDMDL
MODEL 2
REMARK VINA RESULT:       0.8      1.550      2.584
REMARK  4 active torsions:
REMARK  status: ('A' for Active; 'I' for Inactive)
REMARK    1  A    between atoms: C6_6  and  C9_9 
REMARK    2  A    between atoms: C7_7  and  C8_8 
REMARK    3  A    between atoms: C8_8  and  C9_9 
REMARK    4  A    between atoms: C8_8  and  O11_11 
ROOT
HETATM    1  C1  UNL     1     -32.018   6.293   1.468  1.00 20.00     0.071 C 
HETATM    2  C5  UNL     1     -31.111   8.178   2.712  1.00 20.00     0.034 C 
HETATM    3  C9  UNL     1     -32.421   7.507   2.228  1.00 20.00     0.071 C 
HETATM    4  N10 UNL     1     -31.685   5.348   0.882  1.00 20.00    -0.196 NA
ENDROOT
BRANCH   3   5
HETATM    5  C6  UNL     1     -33.163   8.459   1.250  1.00 20.00     0.022 C 
HETATM    6  C2  UNL     1     -32.290   9.491   0.545  1.00 20.00     0.007 C 
ENDBRANCH   3   5
BRANCH   3   7
HETATM    7  C8  UNL     1     -33.282   7.124   3.480  1.00 20.00     0.143 C 
BRANCH   7   8
HETATM    8  C7  UNL     1     -34.330   5.986   3.324  1.00 20.00     0.008 C 
HETATM    9  C3  UNL     1     -35.680   6.268   3.987  1.00 20.00     0.012 C 
HETATM   10  C4  UNL     1     -33.778   4.666   3.887  1.00 20.00     0.012 C 
ENDBRANCH   7   8
BRANCH   7  11
HETATM   11  O11 UNL     1     -33.910   8.309   3.988  1.00 20.00    -0.393 OA
HETATM   12  H28 UNL     1     -33.192   8.918   4.209  1.00 20.00     0.210 HD
ENDBRANCH   7  11
ENDBRANCH   3   7
TORSDOF 4
ENDMDL
MODEL 3
REMARK VINA RESULT:       1.1      2.019      4.311
REMARK  4 active torsions:
REMARK  status: ('A' for Active; 'I' for Inactive)
REMARK    1  A    between atoms: C6_6  and  C9_9 
REMARK    2  A    between atoms: C7_7  and  C8_8 
REMARK    3  A    between atoms: C8_8  and  C9_9 
REMARK    4  A    between atoms: C8_8  and  O11_11 
ROOT
HETATM    1  C1  UNL     1     -31.962   5.609   1.578  1.00 20.00     0.071 C 
HETATM    2  C5  UNL     1     -33.979   6.507   0.557  1.00 20.00     0.034 C 
HETATM    3  C9  UNL     1     -33.032   6.623   1.778  1.00 20.00     0.071 C 
HETATM    4  N10 UNL     1     -31.133   4.815   1.405  1.00 20.00    -0.196 NA
ENDROOT
BRANCH   3   5
HETATM    5  C6  UNL     1     -33.805   6.255   3.075  1.00 20.00     0.022 C 
HETATM    6  C2  UNL     1     -34.190   7.428   3.969  1.00 20.00     0.007 C 
ENDBRANCH   3   5
BRANCH   3   7
HETATM    7  C8  UNL     1     -32.433   8.070   1.813  1.00 20.00     0.143 C 
BRANCH   7   8
HETATM    8  C7  UNL     1     -32.424   8.888   0.490  1.00 20.00     0.008 C 
HETATM    9  C3  UNL     1     -31.106   8.829  -0.286  1.00 20.00     0.012 C 
HETATM   10  C4  UNL     1     -32.761  10.362   0.767  1.00 20.00     0.012 C 
ENDBRANCH   7   8
BRANCH   7  11
HETATM   11  O11 UNL     1     -31.112   8.010   2.367  1.00 20.00    -0.393 OA
HETATM   12  H28 UNL     1     -31.167   8.431   3.236  1.00 20.00     0.210 HD
ENDBRANCH   7  11
ENDBRANCH   3   7
TORSDOF 4
ENDMDL
MODEL 4
REMARK VINA RESULT:       1.2      2.624      4.337
REMARK  4 active torsions:
REMARK  status: ('A' for Active; 'I' for Inactive)
REMARK    1  A    between atoms: C6_6  and  C9_9 
REMARK    2  A    between atoms: C7_7  and  C8_8 
REMARK    3  A    between atoms: C8_8  and  C9_9 
REMARK    4  A    between atoms: C8_8  and  O11_11 
ROOT
HETATM    1  C1  UNL     1     -35.207   5.518   4.448  1.00 20.00     0.071 C 
HETATM    2  C5  UNL     1     -35.451   7.047   2.571  1.00 20.00     0.034 C 
HETATM    3  C9  UNL     1     -34.501   6.600   3.711  1.00 20.00     0.071 C 
HETATM    4  N10 UNL     1     -35.771   4.673   5.010  1.00 20.00    -0.196 NA
ENDROOT
BRANCH   3   5
HETATM    5  C6  UNL     1     -34.275   7.781   4.695  1.00 20.00     0.022 C 
HETATM    6  C2  UNL     1     -32.829   8.234   4.861  1.00 20.00     0.007 C 
ENDBRANCH   3   5
BRANCH   3   7
HETATM    7  C8  UNL     1     -33.170   6.070   3.076  1.00 20.00     0.143 C 
BRANCH   7   8
HETATM    8  C7  UNL     1     -32.859   6.459   1.603  1.00 20.00     0.008 C 
HETATM    9  C3  UNL     1     -32.219   5.345   0.771  1.00 20.00     0.012 C 
HETATM   10  C4  UNL     1     -31.942   7.691   1.554  1.00 20.00     0.012 C 
ENDBRANCH   7   8
BRANCH   7  11
HETATM   11  O11 UNL     1     -33.119   4.646   3.233  1.00 20.00    -0.393 OA
HETATM   12  H28 UNL     1     -33.590   4.450   4.055  1.00 20.00     0.210 HD
ENDBRANCH   7  11
ENDBRANCH   3   7
TORSDOF 4
ENDMDL
MODEL 5
REMARK VINA RESULT:       1.3      1.276      2.169
REMARK  4 active torsions:
REMARK  status: ('A' for Active; 'I' for Inactive)
REMARK    1  A    between atoms: C6_6  and  C9_9 
REMARK    2  A    between atoms: C7_7  and  C8_8 
REMARK    3  A    between atoms: C8_8  and  C9_9 
REMARK    4  A    between atoms: C8_8  and  O11_11 
ROOT
HETATM    1  C1  UNL     1     -33.492   6.208   0.737  1.00 20.00     0.071 C 
HETATM    2  C5  UNL     1     -31.501   5.197   1.703  1.00 20.00     0.034 C 
HETATM    3  C9  UNL     1     -32.487   6.387   1.819  1.00 20.00     0.071 C 
HETATM    4  N10 UNL     1     -34.270   6.051  -0.110  1.00 20.00    -0.196 NA
ENDROOT
BRANCH   3   5
HETATM    5  C6  UNL     1     -31.729   7.718   1.553  1.00 20.00     0.022 C 
HETATM    6  C2  UNL     1     -32.519   8.789   0.809  1.00 20.00     0.007 C 
ENDBRANCH   3   5
BRANCH   3   7
HETATM    7  C8  UNL     1     -33.167   6.341   3.229  1.00 20.00     0.143 C 
BRANCH   7   8
HETATM    8  C7  UNL     1     -34.372   5.378   3.427  1.00 20.00     0.008 C 
HETATM    9  C3  UNL     1     -35.545   5.979   4.204  1.00 20.00     0.012 C 
HETATM   10  C4  UNL     1     -33.922   4.093   4.140  1.00 20.00     0.012 C 
ENDBRANCH   7   8
BRANCH   7  11
HETATM   11  O11 UNL     1     -33.531   7.674   3.610  1.00 20.00    -0.393 OA
HETATM   12  H28 UNL     1     -33.945   8.071   2.832  1.00 20.00     0.210 HD
ENDBRANCH   7  11
ENDBRANCH   3   7
TORSDOF 4
ENDMDL
MODEL 6
REMARK VINA RESULT:       1.3      2.352      4.135
REMARK  4 active torsions:
REMARK  status: ('A' for Active; 'I' for Inactive)
REMARK    1  A    between atoms: C6_6  and  C9_9 
REMARK    2  A    between atoms: C7_7  and  C8_8 
REMARK    3  A    between atoms: C8_8  and  C9_9 
REMARK    4  A    between atoms: C8_8  and  O11_11 
ROOT
HETATM    1  C1  UNL     1     -34.001   4.954   3.894  1.00 20.00     0.071 C 
HETATM    2  C5  UNL     1     -35.492   6.827   3.461  1.00 20.00     0.034 C 
HETATM    3  C9  UNL     1     -34.012   6.369   3.438  1.00 20.00     0.071 C 
HETATM    4  N10 UNL     1     -34.011   3.848   4.248  1.00 20.00    -0.196 NA
ENDROOT
BRANCH   3   5
HETATM    5  C6  UNL     1     -33.192   7.207   4.458  1.00 20.00     0.022 C 
HETATM    6  C2  UNL     1     -33.920   8.399   5.069  1.00 20.00     0.007 C 
ENDBRANCH   3   5
BRANCH   3   7
HETATM    7  C8  UNL     1     -33.472   6.490   1.972  1.00 20.00     0.143 C 
BRANCH   7   8
HETATM    8  C7  UNL     1     -33.004   5.190   1.257  1.00 20.00     0.008 C 
HETATM    9  C3  UNL     1     -31.507   5.139   0.945  1.00 20.00     0.012 C 
HETATM   10  C4  UNL     1     -33.783   4.987  -0.052  1.00 20.00     0.012 C 
ENDBRANCH   7   8
BRANCH   7  11
HETATM   11  O11 UNL     1     -32.428   7.473   1.944  1.00 20.00    -0.393 OA
HETATM   12  H28 UNL     1     -32.282   7.681   1.010  1.00 20.00     0.210 HD
ENDBRANCH   7  11
ENDBRANCH   3   7
TORSDOF 4
ENDMDL
MODEL 7
REMARK VINA RESULT:       1.5      2.085      2.973
REMARK  4 active torsions:
REMARK  status: ('A' for Active; 'I' for Inactive)
REMARK    1  A    between atoms: C6_6  and  C9_9 
REMARK    2  A    between atoms: C7_7  and  C8_8 
REMARK    3  A    between atoms: C8_8  and  C9_9 
REMARK    4  A    between atoms: C8_8  and  O11_11 
ROOT
HETATM    1  C1  UNL     1     -33.694   7.534   4.375  1.00 20.00     0.071 C 
HETATM    2  C5  UNL     1     -35.727   6.873   3.213  1.00 20.00     0.034 C 
HETATM    3  C9  UNL     1     -34.281   6.436   3.560  1.00 20.00     0.071 C 
HETATM    4  N10 UNL     1     -33.254   8.397   5.013  1.00 20.00    -0.196 NA
ENDROOT
BRANCH   3   5
HETATM    5  C6  UNL     1     -33.447   6.311   2.255  1.00 20.00     0.022 C 
HETATM    6  C2  UNL     1     -32.566   7.508   1.918  1.00 20.00     0.007 C 
ENDBRANCH   3   5
BRANCH   3   7
HETATM    7  C8  UNL     1     -34.342   5.101   4.378  1.00 20.00     0.143 C 
BRANCH   7   8
HETATM    8  C7  UNL     1     -33.676   3.838   3.762  1.00 20.00     0.008 C 
HETATM    9  C3  UNL     1     -33.280   2.767   4.780  1.00 20.00     0.012 C 
HETATM   10  C4  UNL     1     -32.427   4.227   2.954  1.00 20.00     0.012 C 
ENDBRANCH   7   8
BRANCH   7  11
HETATM   11  O11 UNL     1     -35.709   4.826   4.713  1.00 20.00    -0.393 OA
HETATM   12  H28 UNL     1     -36.148   4.600   3.881  1.00 20.00     0.210 HD
ENDBRANCH   7  11
ENDBRANCH   3   7
TORSDOF 4
ENDMDL
MODEL 8
REMARK VINA RESULT:       1.5      2.079      3.717
REMARK  4 active torsions:
REMARK  status: ('A' for Active; 'I' for Inactive)
REMARK    1  A    between atoms: C6_6  and  C9_9 
REMARK    2  A    between atoms: C7_7  and  C8_8 
REMARK    3  A    between atoms: C8_8  and  C9_9 
REMARK    4  A    between atoms: C8_8  and  O11_11 
ROOT
HETATM    1  C1  UNL     1     -33.581   4.925   2.883  1.00 20.00     0.071 C 
HETATM    2  C5  UNL     1     -31.615   5.331   1.509  1.00 20.00     0.034 C 
HETATM    3  C9  UNL     1     -33.097   5.728   1.728  1.00 20.00     0.071 C 
HETATM    4  N10 UNL     1     -33.941   4.294   3.788  1.00 20.00    -0.196 NA
ENDROOT
BRANCH   3   5
HETATM    5  C6  UNL     1     -33.933   5.326   0.481  1.00 20.00     0.022 C 
HETATM    6  C2  UNL     1     -33.435   4.103  -0.281  1.00 20.00     0.007 C 
ENDBRANCH   3   5
BRANCH   3   7
HETATM    7  C8  UNL     1     -33.165   7.261   2.042  1.00 20.00     0.143 C 
BRANCH   7   8
HETATM    8  C7  UNL     1     -31.907   8.124   1.742  1.00 20.00     0.008 C 
HETATM    9  C3  UNL     1     -31.266   8.765   2.975  1.00 20.00     0.012 C 
HETATM   10  C4  UNL     1     -32.244   9.235   0.735  1.00 20.00     0.012 C 
ENDBRANCH   7   8
BRANCH   7  11
HETATM   11  O11 UNL     1     -33.572   7.435   3.406  1.00 20.00    -0.393 OA
HETATM   12  H28 UNL     1     -32.925   6.955   3.941  1.00 20.00     0.210 HD
ENDBRANCH   7  11
ENDBRANCH   3   7
TORSDOF 4
ENDMDL
MODEL 9
REMARK VINA RESULT:       1.6      1.646      2.849
REMARK  4 active torsions:
REMARK  status: ('A' for Active; 'I' for Inactive)
REMARK    1  A    between atoms: C6_6  and  C9_9 
REMARK    2  A    between atoms: C7_7  and  C8_8 
REMARK    3  A    between atoms: C8_8  and  C9_9 
REMARK    4  A    between atoms: C8_8  and  O11_11 
ROOT
HETATM    1  C1  UNL     1     -32.529   8.897   1.229  1.00 20.00     0.071 C 
HETATM    2  C5  UNL     1     -31.065   6.990   1.606  1.00 20.00     0.034 C 
HETATM    3  C9  UNL     1     -32.300   7.751   2.150  1.00 20.00     0.071 C 
HETATM    4  N10 UNL     1     -32.695   9.783   0.498  1.00 20.00    -0.196 NA
ENDROOT
BRANCH   3   5
HETATM    5  C6  UNL     1     -31.980   8.326   3.558  1.00 20.00     0.022 C 
HETATM    6  C2  UNL     1     -33.163   8.430   4.513  1.00 20.00     0.007 C 
ENDBRANCH   3   5
BRANCH   3   7
HETATM    7  C8  UNL     1     -33.529   6.779   2.151  1.00 20.00     0.143 C 
BRANCH   7   8
HETATM    8  C7  UNL     1     -33.947   6.134   3.503  1.00 20.00     0.008 C 
HETATM    9  C3  UNL     1     -33.700   4.627   3.593  1.00 20.00     0.012 C 
HETATM   10  C4  UNL     1     -35.433   6.402   3.790  1.00 20.00     0.012 C 
ENDBRANCH   7   8
BRANCH   7  11
HETATM   11  O11 UNL     1     -33.314   5.762   1.164  1.00 20.00    -0.393 OA
HETATM   12  H28 UNL     1     -32.559   6.057   0.636  1.00 20.00     0.210 HD
ENDBRANCH   7  11
ENDBRANCH   3   7
TORSDOF 4
ENDMDL
