MODEL 1
REMARK VINA RESULT:      -2.1      0.000      0.000
REMARK  0 active torsions:
REMARK  status: ('A' for Active; 'I' for Inactive)
ROOT
HETATM    1  C1  UNL     1     -34.213   6.360   3.590  1.00 20.00    -0.058 C 
HETATM    2  C2  UNL     1     -33.489   7.624   3.725  1.00 20.00    -0.061 C 
HETATM    3  C3  UNL     1     -32.781   5.756   1.627  1.00 20.00    -0.085 C 
HETATM    4  C4  UNL     1     -35.471   6.191   4.027  1.00 20.00     0.020 C 
HETATM    5  C5  UNL     1     -33.408   8.301   4.882  1.00 20.00     0.019 C 
HETATM    6  C6  UNL     1     -32.919   5.154   0.437  1.00 20.00     0.014 C 
HETATM    7  C7  UNL     1     -33.463   5.255   2.877  1.00 20.00     0.071 C 
HETATM    8  C8  UNL     1     -32.797   8.103   2.468  1.00 20.00     0.042 C 
HETATM    9  C9  UNL     1     -31.954   7.002   1.816  1.00 20.00     0.038 C 
ENDROOT
TORSDOF 0
ENDMDL
MODEL 2
REMARK VINA RESULT:      -2.1      0.963      3.073
REMARK  0 active torsions:
REMARK  status: ('A' for Active; 'I' for Inactive)
ROOT
HETATM    1  C1  UNL     1     -32.721   6.236   1.813  1.00 20.00    -0.058 C 
HETATM    2  C2  UNL     1     -32.433   7.609   2.226  1.00 20.00    -0.061 C 
HETATM    3  C3  UNL     1     -34.483   6.077   3.584  1.00 20.00    -0.085 C 
HETATM    4  C4  UNL     1     -31.818   5.456   1.198  1.00 20.00     0.020 C 
HETATM    5  C5  UNL     1     -31.884   8.520   1.407  1.00 20.00     0.019 C 
HETATM    6  C6  UNL     1     -34.947   5.168   4.455  1.00 20.00     0.014 C 
HETATM    7  C7  UNL     1     -34.103   5.727   2.166  1.00 20.00     0.071 C 
HETATM    8  C8  UNL     1     -32.837   7.949   3.644  1.00 20.00     0.042 C 
HETATM    9  C9  UNL     1     -34.277   7.524   3.954  1.00 20.00     0.038 C 
ENDROOT
TORSDOF 0
ENDMDL
MODEL 3
REMARK VINA RESULT:      -1.8      0.585      2.501
REMARK  0 active torsions:
REMARK  status: ('A' for Active; 'I' for Inactive)
ROOT
HETATM    1  C1  UNL     1     -33.767   7.583   3.887  1.00 20.00    -0.058 C 
HETATM    2  C2  UNL     1     -34.291   6.233   3.677  1.00 20.00    -0.061 C 
HETATM    3  C3  UNL     1     -32.383   7.364   1.812  1.00 20.00    -0.085 C 
HETATM    4  C4  UNL     1     -33.709   8.162   5.097  1.00 20.00     0.020 C 
HETATM    5  C5  UNL     1     -35.469   5.821   4.171  1.00 20.00     0.019 C 
HETATM    6  C6  UNL     1     -31.161   7.713   1.384  1.00 20.00     0.014 C 
HETATM    7  C7  UNL     1     -33.247   8.278   2.646  1.00 20.00     0.071 C 
HETATM    8  C8  UNL     1     -33.422   5.335   2.824  1.00 20.00     0.042 C 
HETATM    9  C9  UNL     1     -32.992   6.015   1.520  1.00 20.00     0.038 C 
ENDROOT
TORSDOF 0
ENDMDL
MODEL 4
REMARK VINA RESULT:      -1.5      1.009      2.977
REMARK  0 active torsions:
REMARK  status: ('A' for Active; 'I' for Inactive)
ROOT
HETATM    1  C1  UNL     1     -32.961   5.698   1.644  1.00 20.00    -0.058 C 
HETATM    2  C2  UNL     1     -33.657   5.769   2.929  1.00 20.00    -0.061 C 
HETATM    3  C3  UNL     1     -32.238   8.081   1.910  1.00 20.00    -0.085 C 
HETATM    4  C4  UNL     1     -33.310   4.839   0.673  1.00 20.00     0.020 C 
HETATM    5  C5  UNL     1     -33.917   4.687   3.680  1.00 20.00     0.019 C 
HETATM    6  C6  UNL     1     -32.077   9.168   1.143  1.00 20.00     0.014 C 
HETATM    7  C7  UNL     1     -31.839   6.697   1.458  1.00 20.00     0.071 C 
HETATM    8  C8  UNL     1     -34.035   7.163   3.377  1.00 20.00     0.042 C 
HETATM    9  C9  UNL     1     -32.857   8.140   3.285  1.00 20.00     0.038 C 
ENDROOT
TORSDOF 0
ENDMDL
MODEL 5
REMARK VINA RESULT:      -1.4      0.515      3.224
REMARK  0 active torsions:
REMARK  status: ('A' for Active; 'I' for Inactive)
ROOT
HETATM    1  C1  UNL     1     -33.752   5.381   3.049  1.00 20.00    -0.058 C 
HETATM    2  C2  UNL     1     -32.989   5.728   1.850  1.00 20.00    -0.061 C 
HETATM    3  C3  UNL     1     -33.566   7.747   3.847  1.00 20.00    -0.085 C 
HETATM    4  C4  UNL     1     -33.798   4.136   3.548  1.00 20.00     0.020 C 
HETATM    5  C5  UNL     1     -33.077   5.038   0.702  1.00 20.00     0.019 C 
HETATM    6  C6  UNL     1     -33.385   8.401   5.003  1.00 20.00     0.014 C 
HETATM    7  C7  UNL     1     -34.459   6.536   3.726  1.00 20.00     0.071 C 
HETATM    8  C8  UNL     1     -32.112   6.954   1.982  1.00 20.00     0.042 C 
HETATM    9  C9  UNL     1     -32.872   8.149   2.569  1.00 20.00     0.038 C 
ENDROOT
TORSDOF 0
ENDMDL
MODEL 6
REMARK VINA RESULT:      -0.5      1.017      3.853
REMARK  0 active torsions:
REMARK  status: ('A' for Active; 'I' for Inactive)
ROOT
HETATM    1  C1  UNL     1     -32.179   7.461   1.746  1.00 20.00    -0.058 C 
HETATM    2  C2  UNL     1     -32.423   6.047   1.455  1.00 20.00    -0.061 C 
HETATM    3  C3  UNL     1     -33.690   7.307   3.736  1.00 20.00    -0.085 C 
HETATM    4  C4  UNL     1     -31.817   8.346   0.803  1.00 20.00     0.020 C 
HETATM    5  C5  UNL     1     -31.564   5.285   0.760  1.00 20.00     0.019 C 
HETATM    6  C6  UNL     1     -34.610   8.062   4.353  1.00 20.00     0.014 C 
HETATM    7  C7  UNL     1     -32.405   7.877   3.184  1.00 20.00     0.071 C 
HETATM    8  C8  UNL     1     -33.705   5.488   2.031  1.00 20.00     0.042 C 
HETATM    9  C9  UNL     1     -33.868   5.826   3.517  1.00 20.00     0.038 C 
ENDROOT
TORSDOF 0
ENDMDL
MODEL 7
REMARK VINA RESULT:      -0.1      0.634      3.369
REMARK  0 active torsions:
REMARK  status: ('A' for Active; 'I' for Inactive)
ROOT
HETATM    1  C1  UNL     1     -32.889   8.117   2.387  1.00 20.00    -0.058 C 
HETATM    2  C2  UNL     1     -32.208   7.032   1.680  1.00 20.00    -0.061 C 
HETATM    3  C3  UNL     1     -34.277   6.437   3.619  1.00 20.00    -0.085 C 
HETATM    4  C4  UNL     1     -32.994   9.359   1.887  1.00 20.00     0.020 C 
HETATM    5  C5  UNL     1     -30.978   7.159   1.157  1.00 20.00     0.019 C 
HETATM    6  C6  UNL     1     -35.541   6.306   4.048  1.00 20.00     0.014 C 
HETATM    7  C7  UNL     1     -33.516   7.737   3.711  1.00 20.00     0.071 C 
HETATM    8  C8  UNL     1     -32.976   5.731   1.611  1.00 20.00     0.042 C 
HETATM    9  C9  UNL     1     -33.513   5.303   2.981  1.00 20.00     0.038 C 
ENDROOT
TORSDOF 0
ENDMDL
MODEL 8
REMARK VINA RESULT:       0.2      0.987      2.417
REMARK  0 active torsions:
REMARK  status: ('A' for Active; 'I' for Inactive)
ROOT
HETATM    1  C1  UNL     1     -32.464   7.798   2.812  1.00 20.00    -0.058 C 
HETATM    2  C2  UNL     1     -33.606   7.261   3.553  1.00 20.00    -0.061 C 
HETATM    3  C3  UNL     1     -32.455   5.761   1.357  1.00 20.00    -0.085 C 
HETATM    4  C4  UNL     1     -31.601   8.678   3.345  1.00 20.00     0.020 C 
HETATM    5  C5  UNL     1     -34.472   8.035   4.225  1.00 20.00     0.019 C 
HETATM    6  C6  UNL     1     -31.557   4.954   0.774  1.00 20.00     0.014 C 
HETATM    7  C7  UNL     1     -32.290   7.261   1.408  1.00 20.00     0.071 C 
HETATM    8  C8  UNL     1     -33.768   5.759   3.477  1.00 20.00     0.042 C 
HETATM    9  C9  UNL     1     -33.696   5.241   2.037  1.00 20.00     0.038 C 
ENDROOT
TORSDOF 0
ENDMDL
