MODEL 1
REMARK VINA RESULT:      -1.0      0.000      0.000
REMARK  1 active torsions:
REMARK  status: ('A' for Active; 'I' for Inactive)
REMARK    1  A    between atoms: C6_6  and  C10_10 
ROOT
HETATM    1  C1  UNL     1     -35.108   5.232   4.257  1.00 20.00    -0.025 A 
HETATM    2  C2  UNL     1     -34.769   6.454   3.813  1.00 20.00    -0.020 A 
HETATM    3  C3  UNL     1     -33.560   5.733   1.659  1.00 20.00     0.020 A 
HETATM    4  C4  UNL     1     -34.121   4.206   3.741  1.00 20.00     0.009 A 
HETATM    5  C5  UNL     1     -33.127   5.009   2.907  1.00 20.00     0.006 A 
HETATM    6  C6  UNL     1     -33.546   6.470   2.978  1.00 20.00    -0.015 A 
HETATM    7  C7  UNL     1     -33.433   3.479   4.891  1.00 20.00     0.014 C 
ENDROOT
BRANCH   6   8
HETATM    8  C10 UNL     1     -32.515   7.522   3.233  1.00 20.00    -0.010 C 
HETATM    9  C8  UNL     1     -32.288   8.407   1.995  1.00 20.00     0.010 C 
HETATM   10  C9  UNL     1     -32.893   8.409   4.431  1.00 20.00     0.010 C 
ENDBRANCH   6   8
TORSDOF 1
ENDMDL
MODEL 2
REMARK VINA RESULT:      -0.9      1.449      4.085
REMARK  1 active torsions:
REMARK  status: ('A' for Active; 'I' for Inactive)
REMARK    1  A    between atoms: C6_6  and  C10_10 
ROOT
HETATM    1  C1  UNL     1     -31.200   8.658   2.057  1.00 20.00    -0.025 A 
HETATM    2  C2  UNL     1     -31.768   8.005   3.085  1.00 20.00    -0.020 A 
HETATM    3  C3  UNL     1     -32.837   6.084   1.747  1.00 20.00     0.020 A 
HETATM    4  C4  UNL     1     -31.979   8.392   0.786  1.00 20.00     0.009 A 
HETATM    5  C5  UNL     1     -33.115   7.467   1.213  1.00 20.00     0.006 A 
HETATM    6  C6  UNL     1     -32.978   7.239   2.712  1.00 20.00    -0.015 A 
HETATM    7  C7  UNL     1     -32.507   9.689   0.184  1.00 20.00     0.014 C 
ENDROOT
BRANCH   6   8
HETATM    8  C10 UNL     1     -34.187   7.335   3.586  1.00 20.00    -0.010 C 
HETATM    9  C8  UNL     1     -34.803   5.952   3.859  1.00 20.00     0.010 C 
HETATM   10  C9  UNL     1     -33.868   8.024   4.924  1.00 20.00     0.010 C 
ENDBRANCH   6   8
TORSDOF 1
ENDMDL
MODEL 3
REMARK VINA RESULT:      -0.2      1.651      3.360
REMARK  1 active torsions:
REMARK  status: ('A' for Active; 'I' for Inactive)
REMARK    1  A    between atoms: C6_6  and  C10_10 
ROOT
HETATM    1  C1  UNL     1     -33.010   5.883   2.239  1.00 20.00    -0.025 A 
HETATM    2  C2  UNL     1     -32.375   6.624   1.316  1.00 20.00    -0.020 A 
HETATM    3  C3  UNL     1     -31.501   8.474   2.878  1.00 20.00     0.020 A 
HETATM    4  C4  UNL     1     -33.448   6.762   3.393  1.00 20.00     0.009 A 
HETATM    5  C5  UNL     1     -32.969   8.161   3.017  1.00 20.00     0.006 A 
HETATM    6  C6  UNL     1     -32.292   8.062   1.657  1.00 20.00    -0.015 A 
HETATM    7  C7  UNL     1     -34.960   6.715   3.577  1.00 20.00     0.014 C 
ENDROOT
BRANCH   6   8
HETATM    8  C10 UNL     1     -32.608   9.071   0.600  1.00 20.00    -0.010 C 
HETATM    9  C8  UNL     1     -32.701  10.493   1.181  1.00 20.00     0.010 C 
HETATM   10  C9  UNL     1     -31.570   9.050  -0.534  1.00 20.00     0.010 C 
ENDBRANCH   6   8
TORSDOF 1
ENDMDL
MODEL 4
REMARK VINA RESULT:      -0.2      0.544      1.244
REMARK  1 active torsions:
REMARK  status: ('A' for Active; 'I' for Inactive)
REMARK    1  A    between atoms: C6_6  and  C10_10 
ROOT
HETATM    1  C1  UNL     1     -35.259   4.948   4.393  1.00 20.00    -0.025 A 
HETATM    2  C2  UNL     1     -35.243   6.224   3.972  1.00 20.00    -0.020 A 
HETATM    3  C3  UNL     1     -33.867   5.878   1.824  1.00 20.00     0.020 A 
HETATM    4  C4  UNL     1     -34.034   4.221   3.877  1.00 20.00     0.009 A 
HETATM    5  C5  UNL     1     -33.274   5.268   3.069  1.00 20.00     0.006 A 
HETATM    6  C6  UNL     1     -34.058   6.570   3.154  1.00 20.00    -0.015 A 
HETATM    7  C7  UNL     1     -33.194   3.677   5.026  1.00 20.00     0.014 C 
ENDROOT
BRANCH   6   8
HETATM    8  C10 UNL     1     -33.338   7.848   3.438  1.00 20.00    -0.010 C 
HETATM    9  C8  UNL     1     -32.963   7.972   4.925  1.00 20.00     0.010 C 
HETATM   10  C9  UNL     1     -32.069   7.989   2.579  1.00 20.00     0.010 C 
ENDBRANCH   6   8
TORSDOF 1
ENDMDL
MODEL 5
REMARK VINA RESULT:       0.0      0.998      3.858
REMARK  1 active torsions:
REMARK  status: ('A' for Active; 'I' for Inactive)
REMARK    1  A    between atoms: C6_6  and  C10_10 
ROOT
HETATM    1  C1  UNL     1     -32.446   6.641   1.528  1.00 20.00    -0.025 A 
HETATM    2  C2  UNL     1     -33.226   5.646   1.981  1.00 20.00    -0.020 A 
HETATM    3  C3  UNL     1     -35.065   7.088   3.058  1.00 20.00     0.020 A 
HETATM    4  C4  UNL     1     -32.630   7.872   2.392  1.00 20.00     0.009 A 
HETATM    5  C5  UNL     1     -33.655   7.457   3.444  1.00 20.00     0.006 A 
HETATM    6  C6  UNL     1     -34.019   6.004   3.179  1.00 20.00    -0.015 A 
HETATM    7  C7  UNL     1     -31.313   8.299   3.028  1.00 20.00     0.014 C 
ENDROOT
BRANCH   6   8
HETATM    8  C10 UNL     1     -34.077   5.038   4.318  1.00 20.00    -0.010 C 
HETATM    9  C8  UNL     1     -35.499   4.920   4.893  1.00 20.00     0.010 C 
HETATM   10  C9  UNL     1     -33.575   3.643   3.907  1.00 20.00     0.010 C 
ENDBRANCH   6   8
TORSDOF 1
ENDMDL
MODEL 6
REMARK VINA RESULT:       0.2      1.167      2.743
REMARK  1 active torsions:
REMARK  status: ('A' for Active; 'I' for Inactive)
REMARK    1  A    between atoms: C6_6  and  C10_10 
ROOT
HETATM    1  C1  UNL     1     -34.765   5.148   3.967  1.00 20.00    -0.025 A 
HETATM    2  C2  UNL     1     -33.546   5.243   3.410  1.00 20.00    -0.020 A 
HETATM    3  C3  UNL     1     -33.053   7.691   4.035  1.00 20.00     0.020 A 
HETATM    4  C4  UNL     1     -35.420   6.513   4.008  1.00 20.00     0.009 A 
HETATM    5  C5  UNL     1     -34.393   7.454   3.385  1.00 20.00     0.006 A 
HETATM    6  C6  UNL     1     -33.189   6.615   2.983  1.00 20.00    -0.015 A 
HETATM    7  C7  UNL     1     -36.731   6.517   3.230  1.00 20.00     0.014 C 
ENDROOT
BRANCH   6   8
HETATM    8  C10 UNL     1     -32.570   6.810   1.636  1.00 20.00    -0.010 C 
HETATM    9  C8  UNL     1     -31.531   7.943   1.646  1.00 20.00     0.010 C 
HETATM   10  C9  UNL     1     -31.912   5.518   1.121  1.00 20.00     0.010 C 
ENDBRANCH   6   8
TORSDOF 1
ENDMDL
MODEL 7
REMARK VINA RESULT:       1.0      1.621      3.040
REMARK  1 active torsions:
REMARK  status: ('A' for Active; 'I' for Inactive)
REMARK    1  A    between atoms: C6_6  and  C10_10 
ROOT
HETATM    1  C1  UNL     1     -33.296   5.412   0.483  1.00 20.00    -0.025 A 
HETATM    2  C2  UNL     1     -34.070   6.112   1.329  1.00 20.00    -0.020 A 
HETATM    3  C3  UNL     1     -32.389   7.979   1.892  1.00 20.00     0.020 A 
HETATM    4  C4  UNL     1     -31.836   5.626   0.823  1.00 20.00     0.009 A 
HETATM    5  C5  UNL     1     -31.852   6.576   2.017  1.00 20.00     0.006 A 
HETATM    6  C6  UNL     1     -33.308   6.869   2.349  1.00 20.00    -0.015 A 
HETATM    7  C7  UNL     1     -31.152   4.307   1.164  1.00 20.00     0.014 C 
ENDROOT
BRANCH   6   8
HETATM    8  C10 UNL     1     -33.765   6.819   3.771  1.00 20.00    -0.010 C 
HETATM    9  C8  UNL     1     -33.705   8.205   4.437  1.00 20.00     0.010 C 
HETATM   10  C9  UNL     1     -35.192   6.257   3.890  1.00 20.00     0.010 C 
ENDBRANCH   6   8
TORSDOF 1
ENDMDL
MODEL 8
REMARK VINA RESULT:       1.1      1.749      4.709
REMARK  1 active torsions:
REMARK  status: ('A' for Active; 'I' for Inactive)
REMARK    1  A    between atoms: C6_6  and  C10_10 
ROOT
HETATM    1  C1  UNL     1     -32.881  10.097   1.677  1.00 20.00    -0.025 A 
HETATM    2  C2  UNL     1     -33.053   9.002   2.436  1.00 20.00    -0.020 A 
HETATM    3  C3  UNL     1     -30.947   7.719   1.701  1.00 20.00     0.020 A 
HETATM    4  C4  UNL     1     -32.082   9.745   0.439  1.00 20.00     0.009 A 
HETATM    5  C5  UNL     1     -31.795   8.252   0.575  1.00 20.00     0.006 A 
HETATM    6  C6  UNL     1     -32.448   7.777   1.866  1.00 20.00    -0.015 A 
HETATM    7  C7  UNL     1     -32.869  10.053  -0.829  1.00 20.00     0.014 C 
ENDROOT
BRANCH   6   8
HETATM    8  C10 UNL     1     -33.246   6.513   1.867  1.00 20.00    -0.010 C 
HETATM    9  C8  UNL     1     -32.368   5.286   1.570  1.00 20.00     0.010 C 
HETATM   10  C9  UNL     1     -33.979   6.305   3.204  1.00 20.00     0.010 C 
ENDBRANCH   6   8
TORSDOF 1
ENDMDL
MODEL 9
REMARK VINA RESULT:       1.7      1.131      1.586
REMARK  1 active torsions:
REMARK  status: ('A' for Active; 'I' for Inactive)
REMARK    1  A    between atoms: C6_6  and  C10_10 
ROOT
HETATM    1  C1  UNL     1     -34.701   6.556   4.422  1.00 20.00    -0.025 A 
HETATM    2  C2  UNL     1     -34.047   7.473   3.689  1.00 20.00    -0.020 A 
HETATM    3  C3  UNL     1     -34.313   6.353   1.387  1.00 20.00     0.020 A 
HETATM    4  C4  UNL     1     -34.613   5.202   3.748  1.00 20.00     0.009 A 
HETATM    5  C5  UNL     1     -33.800   5.452   2.481  1.00 20.00     0.006 A 
HETATM    6  C6  UNL     1     -33.421   6.926   2.464  1.00 20.00    -0.015 A 
HETATM    7  C7  UNL     1     -33.941   4.179   4.655  1.00 20.00     0.014 C 
ENDROOT
BRANCH   6   8
HETATM    8  C10 UNL     1     -32.018   7.324   2.135  1.00 20.00    -0.010 C 
HETATM    9  C8  UNL     1     -31.330   6.287   1.231  1.00 20.00     0.010 C 
HETATM   10  C9  UNL     1     -31.962   8.705   1.461  1.00 20.00     0.010 C 
ENDBRANCH   6   8
TORSDOF 1
ENDMDL
