MODEL 1
REMARK VINA RESULT:      -1.2      0.000      0.000
REMARK  1 active torsions:
REMARK  status: ('A' for Active; 'I' for Inactive)
REMARK    1  A    between atoms: C6_6  and  C10_10 
ROOT
HETATM    1  C1  UNL     1     -32.284   6.260   1.257  1.00 20.00    -0.025 A 
HETATM    2  C2  UNL     1     -33.285   5.543   1.794  1.00 20.00    -0.020 A 
HETATM    3  C3  UNL     1     -34.542   7.452   2.974  1.00 20.00     0.020 A 
HETATM    4  C4  UNL     1     -32.021   7.485   2.109  1.00 20.00     0.009 A 
HETATM    5  C5  UNL     1     -33.054   7.414   3.228  1.00 20.00     0.006 A 
HETATM    6  C6  UNL     1     -33.835   6.121   3.041  1.00 20.00    -0.015 A 
HETATM    7  C7  UNL     1     -32.114   8.782   1.319  1.00 20.00     0.014 C 
ENDROOT
BRANCH   6   8
HETATM    8  C10 UNL     1     -34.062   5.218   4.212  1.00 20.00    -0.010 C 
HETATM    9  C8  UNL     1     -35.531   5.236   4.668  1.00 20.00     0.010 C 
HETATM   10  C9  UNL     1     -33.641   3.771   3.906  1.00 20.00     0.010 C 
ENDBRANCH   6   8
TORSDOF 1
ENDMDL
MODEL 2
REMARK VINA RESULT:      -0.3      1.042      2.164
REMARK  1 active torsions:
REMARK  status: ('A' for Active; 'I' for Inactive)
REMARK    1  A    between atoms: C6_6  and  C10_10 
ROOT
HETATM    1  C1  UNL     1     -32.472   8.549   2.847  1.00 20.00    -0.025 A 
HETATM    2  C2  UNL     1     -32.757   7.461   3.582  1.00 20.00    -0.020 A 
HETATM    3  C3  UNL     1     -32.182   5.656   1.841  1.00 20.00     0.020 A 
HETATM    4  C4  UNL     1     -32.664   8.236   1.377  1.00 20.00     0.009 A 
HETATM    5  C5  UNL     1     -33.072   6.768   1.339  1.00 20.00     0.006 A 
HETATM    6  C6  UNL     1     -33.179   6.290   2.780  1.00 20.00    -0.015 A 
HETATM    7  C7  UNL     1     -31.417   8.511   0.550  1.00 20.00     0.014 C 
ENDROOT
BRANCH   6   8
HETATM    8  C10 UNL     1     -34.383   5.518   3.215  1.00 20.00    -0.010 C 
HETATM    9  C8  UNL     1     -33.995   4.243   3.985  1.00 20.00     0.010 C 
HETATM   10  C9  UNL     1     -35.324   6.371   4.084  1.00 20.00     0.010 C 
ENDBRANCH   6   8
TORSDOF 1
ENDMDL
MODEL 3
REMARK VINA RESULT:       0.0      0.978      4.023
REMARK  1 active torsions:
REMARK  status: ('A' for Active; 'I' for Inactive)
REMARK    1  A    between atoms: C6_6  and  C10_10 
ROOT
HETATM    1  C1  UNL     1     -34.421   6.570   3.911  1.00 20.00    -0.025 A 
HETATM    2  C2  UNL     1     -34.122   7.418   2.914  1.00 20.00    -0.020 A 
HETATM    3  C3  UNL     1     -33.157   5.721   1.238  1.00 20.00     0.020 A 
HETATM    4  C4  UNL     1     -33.494   5.373   3.859  1.00 20.00     0.009 A 
HETATM    5  C5  UNL     1     -32.610   5.615   2.641  1.00 20.00     0.006 A 
HETATM    6  C6  UNL     1     -32.993   6.972   2.066  1.00 20.00    -0.015 A 
HETATM    7  C7  UNL     1     -34.244   4.052   3.775  1.00 20.00     0.014 C 
ENDROOT
BRANCH   6   8
HETATM    8  C10 UNL     1     -31.922   7.956   1.719  1.00 20.00    -0.010 C 
HETATM    9  C8  UNL     1     -32.414   8.996   0.697  1.00 20.00     0.010 C 
HETATM   10  C9  UNL     1     -31.388   8.681   2.967  1.00 20.00     0.010 C 
ENDBRANCH   6   8
TORSDOF 1
ENDMDL
MODEL 4
REMARK VINA RESULT:       0.4      1.179      4.255
REMARK  1 active torsions:
REMARK  status: ('A' for Active; 'I' for Inactive)
REMARK    1  A    between atoms: C6_6  and  C10_10 
ROOT
HETATM    1  C1  UNL     1     -32.790   5.865   1.602  1.00 20.00    -0.025 A 
HETATM    2  C2  UNL     1     -31.854   6.758   1.241  1.00 20.00    -0.020 A 
HETATM    3  C3  UNL     1     -32.115   8.406   3.199  1.00 20.00     0.020 A 
HETATM    4  C4  UNL     1     -33.864   6.553   2.418  1.00 20.00     0.009 A 
HETATM    5  C5  UNL     1     -33.405   8.003   2.528  1.00 20.00     0.006 A 
HETATM    6  C6  UNL     1     -32.124   8.135   1.715  1.00 20.00    -0.015 A 
HETATM    7  C7  UNL     1     -34.071   5.909   3.781  1.00 20.00     0.014 C 
ENDROOT
BRANCH   6   8
HETATM    8  C10 UNL     1     -31.973   9.270   0.753  1.00 20.00    -0.010 C 
HETATM    9  C8  UNL     1     -32.397   8.868  -0.671  1.00 20.00     0.010 C 
HETATM   10  C9  UNL     1     -32.779  10.503   1.196  1.00 20.00     0.010 C 
ENDBRANCH   6   8
TORSDOF 1
ENDMDL
MODEL 5
REMARK VINA RESULT:       0.4      0.927      3.844
REMARK  1 active torsions:
REMARK  status: ('A' for Active; 'I' for Inactive)
REMARK    1  A    between atoms: C6_6  and  C10_10 
ROOT
HETATM    1  C1  UNL     1     -35.151   4.986   4.549  1.00 20.00    -0.025 A 
HETATM    2  C2  UNL     1     -35.222   6.108   3.813  1.00 20.00    -0.020 A 
HETATM    3  C3  UNL     1     -33.421   5.541   2.067  1.00 20.00     0.020 A 
HETATM    4  C4  UNL     1     -33.758   4.400   4.452  1.00 20.00     0.009 A 
HETATM    5  C5  UNL     1     -33.007   5.327   3.503  1.00 20.00     0.006 A 
HETATM    6  C6  UNL     1     -33.954   6.462   3.136  1.00 20.00    -0.015 A 
HETATM    7  C7  UNL     1     -33.759   2.957   3.967  1.00 20.00     0.014 C 
ENDROOT
BRANCH   6   8
HETATM    8  C10 UNL     1     -33.473   7.877   3.204  1.00 20.00    -0.010 C 
HETATM    9  C8  UNL     1     -33.103   8.282   4.641  1.00 20.00     0.010 C 
HETATM   10  C9  UNL     1     -32.266   8.113   2.280  1.00 20.00     0.010 C 
ENDBRANCH   6   8
TORSDOF 1
ENDMDL
MODEL 6
REMARK VINA RESULT:       0.4      1.134      2.601
REMARK  1 active torsions:
REMARK  status: ('A' for Active; 'I' for Inactive)
REMARK    1  A    between atoms: C6_6  and  C10_10 
ROOT
HETATM    1  C1  UNL     1     -31.865   7.003   1.307  1.00 20.00    -0.025 A 
HETATM    2  C2  UNL     1     -32.287   7.343   2.536  1.00 20.00    -0.020 A 
HETATM    3  C3  UNL     1     -33.045   5.020   3.341  1.00 20.00     0.020 A 
HETATM    4  C4  UNL     1     -32.628   5.788   0.823  1.00 20.00     0.009 A 
HETATM    5  C5  UNL     1     -33.554   5.421   1.977  1.00 20.00     0.006 A 
HETATM    6  C6  UNL     1     -33.359   6.469   3.064  1.00 20.00    -0.015 A 
HETATM    7  C7  UNL     1     -31.714   4.638   0.429  1.00 20.00     0.014 C 
ENDROOT
BRANCH   6   8
HETATM    8  C10 UNL     1     -34.555   7.104   3.701  1.00 20.00    -0.010 C 
HETATM    9  C8  UNL     1     -35.514   6.052   4.285  1.00 20.00     0.010 C 
HETATM   10  C9  UNL     1     -34.152   8.097   4.805  1.00 20.00     0.010 C 
ENDBRANCH   6   8
TORSDOF 1
ENDMDL
MODEL 7
REMARK VINA RESULT:       0.5      1.077      4.149
REMARK  1 active torsions:
REMARK  status: ('A' for Active; 'I' for Inactive)
REMARK    1  A    between atoms: C6_6  and  C10_10 
ROOT
HETATM    1  C1  UNL     1     -32.805   5.618   1.781  1.00 20.00    -0.025 A 
HETATM    2  C2  UNL     1     -31.970   6.550   1.294  1.00 20.00    -0.020 A 
HETATM    3  C3  UNL     1     -32.330   8.364   3.082  1.00 20.00     0.020 A 
HETATM    4  C4  UNL     1     -33.916   6.286   2.565  1.00 20.00     0.009 A 
HETATM    5  C5  UNL     1     -33.595   7.775   2.508  1.00 20.00     0.006 A 
HETATM    6  C6  UNL     1     -32.358   7.938   1.636  1.00 20.00    -0.015 A 
HETATM    7  C7  UNL     1     -34.019   5.772   3.993  1.00 20.00     0.014 C 
ENDROOT
BRANCH   6   8
HETATM    8  C10 UNL     1     -32.346   8.974   0.557  1.00 20.00    -0.010 C 
HETATM    9  C8  UNL     1     -32.636  10.379   1.113  1.00 20.00     0.010 C 
HETATM   10  C9  UNL     1     -31.006   8.992  -0.200  1.00 20.00     0.010 C 
ENDBRANCH   6   8
TORSDOF 1
ENDMDL
MODEL 8
REMARK VINA RESULT:       0.6      0.894      3.751
REMARK  1 active torsions:
REMARK  status: ('A' for Active; 'I' for Inactive)
REMARK    1  A    between atoms: C6_6  and  C10_10 
ROOT
HETATM    1  C1  UNL     1     -34.097   4.279   4.074  1.00 20.00    -0.025 A 
HETATM    2  C2  UNL     1     -33.077   4.933   3.495  1.00 20.00    -0.020 A 
HETATM    3  C3  UNL     1     -33.740   7.334   4.139  1.00 20.00     0.020 A 
HETATM    4  C4  UNL     1     -35.312   5.181   4.137  1.00 20.00     0.009 A 
HETATM    5  C5  UNL     1     -34.849   6.504   3.538  1.00 20.00     0.006 A 
HETATM    6  C6  UNL     1     -33.410   6.314   3.077  1.00 20.00    -0.015 A 
HETATM    7  C7  UNL     1     -35.850   5.345   5.550  1.00 20.00     0.014 C 
ENDROOT
BRANCH   6   8
HETATM    8  C10 UNL     1     -33.006   6.770   1.711  1.00 20.00    -0.010 C 
HETATM    9  C8  UNL     1     -32.012   7.943   1.774  1.00 20.00     0.010 C 
HETATM   10  C9  UNL     1     -32.391   5.624   0.888  1.00 20.00     0.010 C 
ENDBRANCH   6   8
TORSDOF 1
ENDMDL
MODEL 9
REMARK VINA RESULT:       1.0      0.515      1.226
REMARK  1 active torsions:
REMARK  status: ('A' for Active; 'I' for Inactive)
REMARK    1  A    between atoms: C6_6  and  C10_10 
ROOT
HETATM    1  C1  UNL     1     -32.244   6.277   1.345  1.00 20.00    -0.025 A 
HETATM    2  C2  UNL     1     -33.301   5.478   1.563  1.00 20.00    -0.020 A 
HETATM    3  C3  UNL     1     -34.722   7.090   2.976  1.00 20.00     0.020 A 
HETATM    4  C4  UNL     1     -32.108   7.266   2.484  1.00 20.00     0.009 A 
HETATM    5  C5  UNL     1     -33.281   6.962   3.409  1.00 20.00     0.006 A 
HETATM    6  C6  UNL     1     -34.018   5.764   2.826  1.00 20.00    -0.015 A 
HETATM    7  C7  UNL     1     -32.107   8.712   2.010  1.00 20.00     0.014 C 
ENDROOT
BRANCH   6   8
HETATM    8  C10 UNL     1     -34.391   4.622   3.717  1.00 20.00    -0.010 C 
HETATM    9  C8  UNL     1     -33.149   3.927   4.300  1.00 20.00     0.010 C 
HETATM   10  C9  UNL     1     -35.311   5.071   4.865  1.00 20.00     0.010 C 
ENDBRANCH   6   8
TORSDOF 1
ENDMDL
