MODEL 1
REMARK VINA RESULT:      -0.8      0.000      0.000
REMARK  3 active torsions:
REMARK  status: ('A' for Active; 'I' for Inactive)
REMARK    1  A    between atoms: C2_2  and  C10_10 
REMARK    2  A    between atoms: C5_5  and  C10_10 
REMARK    3  A    between atoms: C7_7  and  O11_11 
ROOT
HETATM    1  C3  UNL     1     -32.995   8.095   3.884  1.00 20.00     0.008 C 
HETATM    2  C4  UNL     1     -34.255   7.267   4.133  1.00 20.00     0.032 C 
HETATM    3  C5  UNL     1     -32.495   7.671   2.501  1.00 20.00    -0.004 C 
HETATM    4  C6  UNL     1     -32.796   6.165   2.514  1.00 20.00     0.015 C 
HETATM    5  C7  UNL     1     -34.174   6.070   3.183  1.00 20.00     0.122 C 
HETATM    6  C9  UNL     1     -32.743   5.473   1.159  1.00 20.00     0.013 C 
ENDROOT
BRANCH   3   7
HETATM    7  C10 UNL     1     -33.187   8.459   1.389  1.00 20.00     0.038 C 
BRANCH   7   8
HETATM    8  C2  UNL     1     -32.223   9.275   0.561  1.00 20.00    -0.093 C 
HETATM    9  C1  UNL     1     -31.045   8.773   0.159  1.00 20.00     0.014 C 
HETATM   10  C8  UNL     1     -32.624  10.685   0.236  1.00 20.00     0.042 C 
ENDBRANCH   7   8
ENDBRANCH   3   7
BRANCH   5  11
HETATM   11  O11 UNL     1     -34.307   4.857   3.907  1.00 20.00    -0.395 OA
HETATM   12  H29 UNL     1     -34.141   4.141   3.276  1.00 20.00     0.210 HD
ENDBRANCH   5  11
TORSDOF 3
ENDMDL
MODEL 2
REMARK VINA RESULT:      -0.6      2.321      4.737
REMARK  3 active torsions:
REMARK  status: ('A' for Active; 'I' for Inactive)
REMARK    1  A    between atoms: C2_2  and  C10_10 
REMARK    2  A    between atoms: C5_5  and  C10_10 
REMARK    3  A    between atoms: C7_7  and  O11_11 
ROOT
HETATM    1  C3  UNL     1     -33.818   7.482   3.639  1.00 20.00     0.008 C 
HETATM    2  C4  UNL     1     -32.526   8.209   3.268  1.00 20.00     0.032 C 
HETATM    3  C5  UNL     1     -33.793   6.174   2.843  1.00 20.00    -0.004 C 
HETATM    4  C6  UNL     1     -33.172   6.634   1.515  1.00 20.00     0.015 C 
HETATM    5  C7  UNL     1     -32.058   7.598   1.944  1.00 20.00     0.122 C 
HETATM    6  C9  UNL     1     -32.678   5.522   0.602  1.00 20.00     0.013 C 
ENDROOT
BRANCH   3   7
HETATM    7  C10 UNL     1     -33.013   5.085   3.578  1.00 20.00     0.038 C 
BRANCH   7   8
HETATM    8  C2  UNL     1     -33.907   4.142   4.348  1.00 20.00    -0.093 C 
HETATM    9  C1  UNL     1     -35.143   4.500   4.727  1.00 20.00     0.014 C 
HETATM   10  C8  UNL     1     -33.339   2.797   4.699  1.00 20.00     0.042 C 
ENDBRANCH   7   8
ENDBRANCH   3   7
BRANCH   5  11
HETATM   11  O11 UNL     1     -31.863   8.616   0.975  1.00 20.00    -0.395 OA
HETATM   12  H29 UNL     1     -31.901   9.459   1.452  1.00 20.00     0.210 HD
ENDBRANCH   5  11
TORSDOF 3
ENDMDL
MODEL 3
REMARK VINA RESULT:      -0.2      0.843      2.153
REMARK  3 active torsions:
REMARK  status: ('A' for Active; 'I' for Inactive)
REMARK    1  A    between atoms: C2_2  and  C10_10 
REMARK    2  A    between atoms: C5_5  and  C10_10 
REMARK    3  A    between atoms: C7_7  and  O11_11 
ROOT
HETATM    1  C3  UNL     1     -32.970   5.777   0.965  1.00 20.00     0.008 C 
HETATM    2  C4  UNL     1     -32.508   4.799   2.044  1.00 20.00     0.032 C 
HETATM    3  C5  UNL     1     -33.393   7.043   1.715  1.00 20.00    -0.004 C 
HETATM    4  C6  UNL     1     -34.052   6.450   2.970  1.00 20.00     0.015 C 
HETATM    5  C7  UNL     1     -33.129   5.286   3.356  1.00 20.00     0.122 C 
HETATM    6  C9  UNL     1     -34.285   7.428   4.113  1.00 20.00     0.013 C 
ENDROOT
BRANCH   3   7
HETATM    7  C10 UNL     1     -32.200   7.960   1.984  1.00 20.00     0.038 C 
BRANCH   7   8
HETATM    8  C2  UNL     1     -31.982   8.974   0.886  1.00 20.00    -0.093 C 
HETATM    9  C1  UNL     1     -31.082   8.771  -0.088  1.00 20.00     0.014 C 
HETATM   10  C8  UNL     1     -32.794  10.236   0.950  1.00 20.00     0.042 C 
ENDBRANCH   7   8
ENDBRANCH   3   7
BRANCH   5  11
HETATM   11  O11 UNL     1     -33.861   4.238   3.972  1.00 20.00    -0.395 OA
HETATM   12  H29 UNL     1     -34.508   4.662   4.555  1.00 20.00     0.210 HD
ENDBRANCH   5  11
TORSDOF 3
ENDMDL
MODEL 4
REMARK VINA RESULT:       0.3      0.503      1.091
REMARK  3 active torsions:
REMARK  status: ('A' for Active; 'I' for Inactive)
REMARK    1  A    between atoms: C2_2  and  C10_10 
REMARK    2  A    between atoms: C5_5  and  C10_10 
REMARK    3  A    between atoms: C7_7  and  O11_11 
ROOT
HETATM    1  C3  UNL     1     -33.540   8.088   3.680  1.00 20.00     0.008 C 
HETATM    2  C4  UNL     1     -34.672   7.069   3.807  1.00 20.00     0.032 C 
HETATM    3  C5  UNL     1     -32.725   7.642   2.464  1.00 20.00    -0.004 C 
HETATM    4  C6  UNL     1     -32.772   6.113   2.606  1.00 20.00     0.015 C 
HETATM    5  C7  UNL     1     -34.217   5.827   3.036  1.00 20.00     0.122 C 
HETATM    6  C9  UNL     1     -32.351   5.326   1.373  1.00 20.00     0.013 C 
ENDROOT
BRANCH   3   7
HETATM    7  C10 UNL     1     -33.313   8.188   1.163  1.00 20.00     0.038 C 
BRANCH   7   8
HETATM    8  C2  UNL     1     -32.588   9.414   0.662  1.00 20.00    -0.093 C 
HETATM    9  C1  UNL     1     -32.930  10.647   1.069  1.00 20.00     0.014 C 
HETATM   10  C8  UNL     1     -31.488   9.198  -0.338  1.00 20.00     0.042 C 
ENDBRANCH   7   8
ENDBRANCH   3   7
BRANCH   5  11
HETATM   11  O11 UNL     1     -34.285   4.680   3.868  1.00 20.00    -0.395 OA
HETATM   12  H29 UNL     1     -33.380   4.506   4.169  1.00 20.00     0.210 HD
ENDBRANCH   5  11
TORSDOF 3
ENDMDL
MODEL 5
REMARK VINA RESULT:       0.4      1.864      2.792
REMARK  3 active torsions:
REMARK  status: ('A' for Active; 'I' for Inactive)
REMARK    1  A    between atoms: C2_2  and  C10_10 
REMARK    2  A    between atoms: C5_5  and  C10_10 
REMARK    3  A    between atoms: C7_7  and  O11_11 
ROOT
HETATM    1  C3  UNL     1     -34.222   7.151   3.790  1.00 20.00     0.008 C 
HETATM    2  C4  UNL     1     -35.616   6.569   4.021  1.00 20.00     0.032 C 
HETATM    3  C5  UNL     1     -33.338   5.956   3.419  1.00 20.00    -0.004 C 
HETATM    4  C6  UNL     1     -33.897   4.862   4.340  1.00 20.00     0.015 C 
HETATM    5  C7  UNL     1     -35.417   5.074   4.284  1.00 20.00     0.122 C 
HETATM    6  C9  UNL     1     -33.482   3.439   3.996  1.00 20.00     0.013 C 
ENDROOT
BRANCH   3   7
HETATM    7  C10 UNL     1     -33.415   5.645   1.924  1.00 20.00     0.038 C 
BRANCH   7   8
HETATM    8  C2  UNL     1     -32.119   5.920   1.201  1.00 20.00    -0.093 C 
HETATM    9  C1  UNL     1     -31.439   4.941   0.583  1.00 20.00     0.014 C 
HETATM   10  C8  UNL     1     -31.604   7.330   1.232  1.00 20.00     0.042 C 
ENDBRANCH   7   8
ENDBRANCH   3   7
BRANCH   5  11
HETATM   11  O11 UNL     1     -36.028   4.704   5.509  1.00 20.00    -0.395 OA
HETATM   12  H29 UNL     1     -35.362   4.841   6.200  1.00 20.00     0.210 HD
ENDBRANCH   5  11
TORSDOF 3
ENDMDL
MODEL 6
REMARK VINA RESULT:       1.2      2.187      4.887
REMARK  3 active torsions:
REMARK  status: ('A' for Active; 'I' for Inactive)
REMARK    1  A    between atoms: C2_2  and  C10_10 
REMARK    2  A    between atoms: C5_5  and  C10_10 
REMARK    3  A    between atoms: C7_7  and  O11_11 
ROOT
HETATM    1  C3  UNL     1     -31.874   5.805   1.495  1.00 20.00     0.008 C 
HETATM    2  C4  UNL     1     -32.293   6.960   0.586  1.00 20.00     0.032 C 
HETATM    3  C5  UNL     1     -32.651   6.008   2.798  1.00 20.00    -0.004 C 
HETATM    4  C6  UNL     1     -32.624   7.538   2.937  1.00 20.00     0.015 C 
HETATM    5  C7  UNL     1     -32.864   8.042   1.507  1.00 20.00     0.122 C 
HETATM    6  C9  UNL     1     -33.601   8.122   3.947  1.00 20.00     0.013 C 
ENDROOT
BRANCH   3   7
HETATM    7  C10 UNL     1     -34.048   5.391   2.720  1.00 20.00     0.038 C 
BRANCH   7   8
HETATM    8  C2  UNL     1     -34.433   4.653   3.979  1.00 20.00    -0.093 C 
HETATM    9  C1  UNL     1     -35.455   5.061   4.747  1.00 20.00     0.014 C 
HETATM   10  C8  UNL     1     -33.601   3.459   4.354  1.00 20.00     0.042 C 
ENDBRANCH   7   8
ENDBRANCH   3   7
BRANCH   5  11
HETATM   11  O11 UNL     1     -32.201   9.277   1.285  1.00 20.00    -0.395 OA
HETATM   12  H29 UNL     1     -31.319   9.057   0.949  1.00 20.00     0.210 HD
ENDBRANCH   5  11
TORSDOF 3
ENDMDL
MODEL 7
REMARK VINA RESULT:       1.3      2.190      4.775
REMARK  3 active torsions:
REMARK  status: ('A' for Active; 'I' for Inactive)
REMARK    1  A    between atoms: C2_2  and  C10_10 
REMARK    2  A    between atoms: C5_5  and  C10_10 
REMARK    3  A    between atoms: C7_7  and  O11_11 
ROOT
HETATM    1  C3  UNL     1     -31.837   5.827   1.459  1.00 20.00     0.008 C 
HETATM    2  C4  UNL     1     -32.299   6.978   0.566  1.00 20.00     0.032 C 
HETATM    3  C5  UNL     1     -32.604   5.997   2.773  1.00 20.00    -0.004 C 
HETATM    4  C6  UNL     1     -32.619   7.526   2.925  1.00 20.00     0.015 C 
HETATM    5  C7  UNL     1     -32.890   8.035   1.502  1.00 20.00     0.122 C 
HETATM    6  C9  UNL     1     -33.601   8.074   3.950  1.00 20.00     0.013 C 
ENDROOT
BRANCH   3   7
HETATM    7  C10 UNL     1     -33.983   5.341   2.705  1.00 20.00     0.038 C 
BRANCH   7   8
HETATM    8  C2  UNL     1     -34.329   4.574   3.959  1.00 20.00    -0.093 C 
HETATM    9  C1  UNL     1     -33.642   3.481   4.324  1.00 20.00     0.014 C 
HETATM   10  C8  UNL     1     -35.498   5.068   4.762  1.00 20.00     0.042 C 
ENDBRANCH   7   8
ENDBRANCH   3   7
BRANCH   5  11
HETATM   11  O11 UNL     1     -32.266   9.290   1.282  1.00 20.00    -0.395 OA
HETATM   12  H29 UNL     1     -32.658   9.653   0.474  1.00 20.00     0.210 HD
ENDBRANCH   5  11
TORSDOF 3
ENDMDL
MODEL 8
REMARK VINA RESULT:       1.5      2.582      4.946
REMARK  3 active torsions:
REMARK  status: ('A' for Active; 'I' for Inactive)
REMARK    1  A    between atoms: C2_2  and  C10_10 
REMARK    2  A    between atoms: C5_5  and  C10_10 
REMARK    3  A    between atoms: C7_7  and  O11_11 
ROOT
HETATM    1  C3  UNL     1     -34.486   6.296   3.832  1.00 20.00     0.008 C 
HETATM    2  C4  UNL     1     -33.679   7.583   3.660  1.00 20.00     0.032 C 
HETATM    3  C5  UNL     1     -33.671   5.208   3.128  1.00 20.00    -0.004 C 
HETATM    4  C6  UNL     1     -33.126   5.970   1.911  1.00 20.00     0.015 C 
HETATM    5  C7  UNL     1     -32.735   7.341   2.480  1.00 20.00     0.122 C 
HETATM    6  C9  UNL     1     -31.988   5.288   1.166  1.00 20.00     0.013 C 
ENDROOT
BRANCH   3   7
HETATM    7  C10 UNL     1     -32.606   4.619   4.053  1.00 20.00     0.038 C 
BRANCH   7   8
HETATM    8  C2  UNL     1     -33.045   3.332   4.708  1.00 20.00    -0.093 C 
HETATM    9  C1  UNL     1     -33.699   2.383   4.022  1.00 20.00     0.014 C 
HETATM   10  C8  UNL     1     -32.747   3.174   6.172  1.00 20.00     0.042 C 
ENDBRANCH   7   8
ENDBRANCH   3   7
BRANCH   5  11
HETATM   11  O11 UNL     1     -32.894   8.360   1.506  1.00 20.00    -0.395 OA
HETATM   12  H29 UNL     1     -32.387   8.079   0.729  1.00 20.00     0.210 HD
ENDBRANCH   5  11
TORSDOF 3
ENDMDL
MODEL 9
REMARK VINA RESULT:       2.1      2.207      4.427
REMARK  3 active torsions:
REMARK  status: ('A' for Active; 'I' for Inactive)
REMARK    1  A    between atoms: C2_2  and  C10_10 
REMARK    2  A    between atoms: C5_5  and  C10_10 
REMARK    3  A    between atoms: C7_7  and  O11_11 
ROOT
HETATM    1  C3  UNL     1     -33.139   6.039   2.014  1.00 20.00     0.008 C 
HETATM    2  C4  UNL     1     -33.166   7.090   0.904  1.00 20.00     0.032 C 
HETATM    3  C5  UNL     1     -32.857   6.815   3.303  1.00 20.00    -0.004 C 
HETATM    4  C6  UNL     1     -31.858   7.874   2.813  1.00 20.00     0.015 C 
HETATM    5  C7  UNL     1     -32.421   8.310   1.453  1.00 20.00     0.122 C 
HETATM    6  C9  UNL     1     -31.622   9.041   3.761  1.00 20.00     0.013 C 
ENDROOT
BRANCH   3   7
HETATM    7  C10 UNL     1     -34.142   7.372   3.915  1.00 20.00     0.038 C 
BRANCH   7   8
HETATM    8  C2  UNL     1     -35.288   6.389   3.867  1.00 20.00    -0.093 C 
HETATM    9  C1  UNL     1     -35.265   5.251   4.577  1.00 20.00     0.014 C 
HETATM   10  C8  UNL     1     -36.440   6.726   2.964  1.00 20.00     0.042 C 
ENDBRANCH   7   8
ENDBRANCH   3   7
BRANCH   5  11
HETATM   11  O11 UNL     1     -31.379   8.688   0.568  1.00 20.00    -0.395 OA
HETATM   12  H29 UNL     1     -30.948   7.868   0.285  1.00 20.00     0.210 HD
ENDBRANCH   5  11
TORSDOF 3
ENDMDL
