MODEL 1
REMARK VINA RESULT:      -0.8      0.000      0.000
REMARK  2 active torsions:
REMARK  status: ('A' for Active; 'I' for Inactive)
REMARK    1  A    between atoms: C3_3  and  C11_11 
REMARK    2  A    between atoms: C9_9  and  C11_11 
ROOT
HETATM    1  C1  UNL     1     -33.992   4.441   3.809  1.00 20.00     0.127 C 
HETATM    2  C4  UNL     1     -35.196   5.078   4.481  1.00 20.00     0.078 C 
HETATM    3  C5  UNL     1     -33.514   5.002   2.487  1.00 20.00     0.083 C 
HETATM    4  C6  UNL     1     -35.671   6.379   3.844  1.00 20.00     0.007 C 
HETATM    5  C7  UNL     1     -34.688   7.544   3.974  1.00 20.00     0.001 C 
HETATM    6  C8  UNL     1     -33.205   7.197   3.841  1.00 20.00     0.005 C 
HETATM    7  C9  UNL     1     -32.799   6.355   2.619  1.00 20.00    -0.004 C 
HETATM    8  O12 UNL     1     -33.430   3.472   4.324  1.00 20.00    -0.298 OA
ENDROOT
BRANCH   7   9
HETATM    9  C11 UNL     1     -32.941   7.153   1.321  1.00 20.00     0.037 C 
BRANCH   9  10
HETATM   10  C3  UNL     1     -32.086   8.390   1.314  1.00 20.00    -0.093 C 
HETATM   11  C2  UNL     1     -31.021   8.508   2.122  1.00 20.00     0.014 C 
HETATM   12  C10 UNL     1     -32.500   9.507   0.398  1.00 20.00     0.042 C 
ENDBRANCH   9  10
ENDBRANCH   7   9
TORSDOF 2
ENDMDL
MODEL 2
REMARK VINA RESULT:      -0.4      1.427      2.498
REMARK  2 active torsions:
REMARK  status: ('A' for Active; 'I' for Inactive)
REMARK    1  A    between atoms: C3_3  and  C11_11 
REMARK    2  A    between atoms: C9_9  and  C11_11 
ROOT
HETATM    1  C1  UNL     1     -34.548   6.060   3.778  1.00 20.00     0.127 C 
HETATM    2  C4  UNL     1     -33.953   4.671   3.610  1.00 20.00     0.078 C 
HETATM    3  C5  UNL     1     -33.658   7.264   3.556  1.00 20.00     0.083 C 
HETATM    4  C6  UNL     1     -32.550   4.643   3.013  1.00 20.00     0.007 C 
HETATM    5  C7  UNL     1     -32.472   5.107   1.558  1.00 20.00     0.001 C 
HETATM    6  C8  UNL     1     -33.377   6.277   1.169  1.00 20.00     0.005 C 
HETATM    7  C9  UNL     1     -33.329   7.518   2.078  1.00 20.00    -0.004 C 
HETATM    8  O12 UNL     1     -35.727   6.198   4.108  1.00 20.00    -0.298 OA
ENDROOT
BRANCH   7   9
HETATM    9  C11 UNL     1     -31.989   8.247   1.955  1.00 20.00     0.037 C 
BRANCH   9  10
HETATM   10  C3  UNL     1     -31.926   9.131   0.741  1.00 20.00    -0.093 C 
HETATM   11  C2  UNL     1     -31.141   8.828  -0.304  1.00 20.00     0.014 C 
HETATM   12  C10 UNL     1     -32.744  10.390   0.764  1.00 20.00     0.042 C 
ENDBRANCH   9  10
ENDBRANCH   7   9
TORSDOF 2
ENDMDL
MODEL 3
REMARK VINA RESULT:      -0.2      1.309      2.106
REMARK  2 active torsions:
REMARK  status: ('A' for Active; 'I' for Inactive)
REMARK    1  A    between atoms: C3_3  and  C11_11 
REMARK    2  A    between atoms: C9_9  and  C11_11 
ROOT
HETATM    1  C1  UNL     1     -33.081   5.617   2.200  1.00 20.00     0.127 C 
HETATM    2  C4  UNL     1     -34.096   5.538   3.329  1.00 20.00     0.078 C 
HETATM    3  C5  UNL     1     -32.978   6.899   1.402  1.00 20.00     0.083 C 
HETATM    4  C6  UNL     1     -34.764   6.862   3.682  1.00 20.00     0.007 C 
HETATM    5  C7  UNL     1     -33.823   7.905   4.287  1.00 20.00     0.001 C 
HETATM    6  C8  UNL     1     -32.411   7.966   3.702  1.00 20.00     0.005 C 
HETATM    7  C9  UNL     1     -32.302   8.045   2.169  1.00 20.00    -0.004 C 
HETATM    8  O12 UNL     1     -32.372   4.646   1.929  1.00 20.00    -0.298 OA
ENDROOT
BRANCH   7   9
HETATM    9  C11 UNL     1     -32.800   9.394   1.644  1.00 20.00     0.037 C 
BRANCH   9  10
HETATM   10  C3  UNL     1     -32.298   9.688   0.258  1.00 20.00    -0.093 C 
HETATM   11  C2  UNL     1     -32.987  10.477  -0.582  1.00 20.00     0.014 C 
HETATM   12  C10 UNL     1     -31.017   9.028  -0.165  1.00 20.00     0.042 C 
ENDBRANCH   9  10
ENDBRANCH   7   9
TORSDOF 2
ENDMDL
MODEL 4
REMARK VINA RESULT:       0.5      1.882      4.539
REMARK  2 active torsions:
REMARK  status: ('A' for Active; 'I' for Inactive)
REMARK    1  A    between atoms: C3_3  and  C11_11 
REMARK    2  A    between atoms: C9_9  and  C11_11 
ROOT
HETATM    1  C1  UNL     1     -32.875   6.122   1.889  1.00 20.00     0.127 C 
HETATM    2  C4  UNL     1     -32.725   7.554   2.376  1.00 20.00     0.078 C 
HETATM    3  C5  UNL     1     -33.050   5.021   2.913  1.00 20.00     0.083 C 
HETATM    4  C6  UNL     1     -32.989   7.757   3.864  1.00 20.00     0.007 C 
HETATM    5  C7  UNL     1     -34.438   7.517   4.288  1.00 20.00     0.001 C 
HETATM    6  C8  UNL     1     -35.166   6.363   3.597  1.00 20.00     0.005 C 
HETATM    7  C9  UNL     1     -34.439   5.007   3.567  1.00 20.00    -0.004 C 
HETATM    8  O12 UNL     1     -32.834   5.864   0.685  1.00 20.00    -0.298 OA
ENDROOT
BRANCH   7   9
HETATM    9  C11 UNL     1     -34.356   4.389   4.965  1.00 20.00     0.037 C 
BRANCH   9  10
HETATM   10  C3  UNL     1     -33.332   3.291   5.044  1.00 20.00    -0.093 C 
HETATM   11  C2  UNL     1     -33.357   2.249   4.198  1.00 20.00     0.014 C 
HETATM   12  C10 UNL     1     -32.307   3.384   6.138  1.00 20.00     0.042 C 
ENDBRANCH   9  10
ENDBRANCH   7   9
TORSDOF 2
ENDMDL
MODEL 5
REMARK VINA RESULT:       1.4      1.377      2.428
REMARK  2 active torsions:
REMARK  status: ('A' for Active; 'I' for Inactive)
REMARK    1  A    between atoms: C3_3  and  C11_11 
REMARK    2  A    between atoms: C9_9  and  C11_11 
ROOT
HETATM    1  C1  UNL     1     -34.803   5.507   4.174  1.00 20.00     0.127 C 
HETATM    2  C4  UNL     1     -34.014   4.219   3.999  1.00 20.00     0.078 C 
HETATM    3  C5  UNL     1     -34.069   6.827   4.081  1.00 20.00     0.083 C 
HETATM    4  C6  UNL     1     -32.578   4.407   3.524  1.00 20.00     0.007 C 
HETATM    5  C7  UNL     1     -32.448   4.955   2.102  1.00 20.00     0.001 C 
HETATM    6  C8  UNL     1     -33.469   6.015   1.687  1.00 20.00     0.005 C 
HETATM    7  C9  UNL     1     -33.662   7.201   2.648  1.00 20.00    -0.004 C 
HETATM    8  O12 UNL     1     -36.012   5.471   4.408  1.00 20.00    -0.298 OA
ENDROOT
BRANCH   7   9
HETATM    9  C11 UNL     1     -32.427   8.105   2.672  1.00 20.00     0.037 C 
BRANCH   9  10
HETATM   10  C3  UNL     1     -32.152   8.734   1.334  1.00 20.00    -0.093 C 
HETATM   11  C2  UNL     1     -32.750   9.877   0.964  1.00 20.00     0.014 C 
HETATM   12  C10 UNL     1     -31.217   8.007   0.411  1.00 20.00     0.042 C 
ENDBRANCH   9  10
ENDBRANCH   7   9
TORSDOF 2
ENDMDL
MODEL 6
REMARK VINA RESULT:       1.6      2.194      4.666
REMARK  2 active torsions:
REMARK  status: ('A' for Active; 'I' for Inactive)
REMARK    1  A    between atoms: C3_3  and  C11_11 
REMARK    2  A    between atoms: C9_9  and  C11_11 
ROOT
HETATM    1  C1  UNL     1     -32.353   8.404   1.229  1.00 20.00     0.127 C 
HETATM    2  C4  UNL     1     -31.963   9.333   2.366  1.00 20.00     0.078 C 
HETATM    3  C5  UNL     1     -32.260   6.909   1.446  1.00 20.00     0.083 C 
HETATM    4  C6  UNL     1     -31.720   8.641   3.703  1.00 20.00     0.007 C 
HETATM    5  C7  UNL     1     -32.969   8.018   4.329  1.00 20.00     0.001 C 
HETATM    6  C8  UNL     1     -33.953   7.356   3.364  1.00 20.00     0.005 C 
HETATM    7  C9  UNL     1     -33.364   6.353   2.357  1.00 20.00    -0.004 C 
HETATM    8  O12 UNL     1     -32.718   8.864   0.145  1.00 20.00    -0.298 OA
ENDROOT
BRANCH   7   9
HETATM    9  C11 UNL     1     -32.876   5.082   3.058  1.00 20.00     0.037 C 
BRANCH   9  10
HETATM   10  C3  UNL     1     -33.934   4.470   3.933  1.00 20.00    -0.093 C 
HETATM   11  C2  UNL     1     -35.106   5.087   4.149  1.00 20.00     0.014 C 
HETATM   12  C10 UNL     1     -33.608   3.161   4.593  1.00 20.00     0.042 C 
ENDBRANCH   9  10
ENDBRANCH   7   9
TORSDOF 2
ENDMDL
