MODEL 1
REMARK VINA RESULT:      -1.9      0.000      0.000
REMARK  3 active torsions:
REMARK  status: ('A' for Active; 'I' for Inactive)
REMARK    1  A    between atoms: C2_2  and  C9_9 
REMARK    2  A    between atoms: C3_3  and  C5_5 
REMARK    3  A    between atoms: C3_3  and  C9_9 
ROOT
HETATM    1  C3  UNL     1     -32.999   7.060   2.165  1.00 20.00     0.135 C 
HETATM    2  O10 UNL     1     -32.923   5.998   1.549  1.00 20.00    -0.297 OA
ENDROOT
BRANCH   1   3
HETATM    3  C5  UNL     1     -34.230   7.404   2.965  1.00 20.00     0.060 A 
HETATM    4  C4  UNL     1     -34.091   7.530   4.442  1.00 20.00     0.017 A 
HETATM    5  C6  UNL     1     -34.845   6.373   3.848  1.00 20.00    -0.007 A 
HETATM    6  C8  UNL     1     -34.315   4.987   3.990  1.00 20.00     0.011 C 
ENDBRANCH   1   3
BRANCH   1   7
HETATM    7  C9  UNL     1     -31.904   8.117   2.140  1.00 20.00     0.111 C 
BRANCH   7   8
HETATM    8  C2  UNL     1     -31.952   8.947   0.886  1.00 20.00    -0.086 C 
HETATM    9  C1  UNL     1     -31.276   8.592  -0.218  1.00 20.00     0.014 C 
HETATM   10  C7  UNL     1     -32.818  10.173   0.917  1.00 20.00     0.043 C 
ENDBRANCH   7   8
ENDBRANCH   1   7
TORSDOF 3
ENDMDL
MODEL 2
REMARK VINA RESULT:      -1.3      0.846      4.411
REMARK  3 active torsions:
REMARK  status: ('A' for Active; 'I' for Inactive)
REMARK    1  A    between atoms: C2_2  and  C9_9 
REMARK    2  A    between atoms: C3_3  and  C5_5 
REMARK    3  A    between atoms: C3_3  and  C9_9 
ROOT
HETATM    1  C3  UNL     1     -32.882   6.743   1.902  1.00 20.00     0.135 C 
HETATM    2  O10 UNL     1     -33.349   5.939   1.096  1.00 20.00    -0.297 OA
ENDROOT
BRANCH   1   3
HETATM    3  C5  UNL     1     -31.551   7.405   1.651  1.00 20.00     0.060 A 
HETATM    4  C4  UNL     1     -31.218   8.626   2.435  1.00 20.00     0.017 A 
HETATM    5  C6  UNL     1     -31.504   8.726   0.963  1.00 20.00    -0.007 A 
HETATM    6  C8  UNL     1     -32.718   9.450   0.487  1.00 20.00     0.011 C 
ENDBRANCH   1   3
BRANCH   1   7
HETATM    7  C9  UNL     1     -33.566   7.098   3.215  1.00 20.00     0.111 C 
BRANCH   7   8
HETATM    8  C2  UNL     1     -34.435   5.977   3.717  1.00 20.00    -0.086 C 
HETATM    9  C1  UNL     1     -35.726   6.174   4.028  1.00 20.00     0.014 C 
HETATM   10  C7  UNL     1     -33.799   4.622   3.823  1.00 20.00     0.043 C 
ENDBRANCH   7   8
ENDBRANCH   1   7
TORSDOF 3
ENDMDL
MODEL 3
REMARK VINA RESULT:      -1.3      0.830      4.149
REMARK  3 active torsions:
REMARK  status: ('A' for Active; 'I' for Inactive)
REMARK    1  A    between atoms: C2_2  and  C9_9 
REMARK    2  A    between atoms: C3_3  and  C5_5 
REMARK    3  A    between atoms: C3_3  and  C9_9 
ROOT
HETATM    1  C3  UNL     1     -32.922   6.787   1.850  1.00 20.00     0.135 C 
HETATM    2  O10 UNL     1     -33.086   5.628   1.469  1.00 20.00    -0.297 OA
ENDROOT
BRANCH   1   3
HETATM    3  C5  UNL     1     -31.577   7.457   1.732  1.00 20.00     0.060 A 
HETATM    4  C4  UNL     1     -31.367   8.737   2.463  1.00 20.00     0.017 A 
HETATM    5  C6  UNL     1     -31.452   8.727   0.963  1.00 20.00    -0.007 A 
HETATM    6  C8  UNL     1     -32.598   9.391   0.278  1.00 20.00     0.011 C 
ENDBRANCH   1   3
BRANCH   1   7
HETATM    7  C9  UNL     1     -34.023   7.612   2.501  1.00 20.00     0.111 C 
BRANCH   7   8
HETATM    8  C2  UNL     1     -34.273   7.192   3.924  1.00 20.00    -0.086 C 
HETATM    9  C1  UNL     1     -33.699   7.832   4.957  1.00 20.00     0.014 C 
HETATM   10  C7  UNL     1     -35.217   6.045   4.137  1.00 20.00     0.043 C 
ENDBRANCH   7   8
ENDBRANCH   1   7
TORSDOF 3
ENDMDL
MODEL 4
REMARK VINA RESULT:      -1.1      1.424      4.405
REMARK  3 active torsions:
REMARK  status: ('A' for Active; 'I' for Inactive)
REMARK    1  A    between atoms: C2_2  and  C9_9 
REMARK    2  A    between atoms: C3_3  and  C5_5 
REMARK    3  A    between atoms: C3_3  and  C9_9 
ROOT
HETATM    1  C3  UNL     1     -32.315   8.225   2.541  1.00 20.00     0.135 C 
HETATM    2  O10 UNL     1     -31.275   8.490   3.143  1.00 20.00    -0.297 OA
ENDROOT
BRANCH   1   3
HETATM    3  C5  UNL     1     -32.341   8.158   1.035  1.00 20.00     0.060 A 
HETATM    4  C4  UNL     1     -31.195   8.747   0.289  1.00 20.00     0.017 A 
HETATM    5  C6  UNL     1     -32.545   9.405   0.247  1.00 20.00    -0.007 A 
HETATM    6  C8  UNL     1     -32.739  10.749   0.865  1.00 20.00     0.011 C 
ENDBRANCH   1   3
BRANCH   1   7
HETATM    7  C9  UNL     1     -33.646   7.991   3.242  1.00 20.00     0.111 C 
BRANCH   7   8
HETATM    8  C2  UNL     1     -34.027   6.536   3.253  1.00 20.00    -0.086 C 
HETATM    9  C1  UNL     1     -33.303   5.615   2.597  1.00 20.00     0.014 C 
HETATM   10  C7  UNL     1     -35.237   6.158   4.056  1.00 20.00     0.043 C 
ENDBRANCH   7   8
ENDBRANCH   1   7
TORSDOF 3
ENDMDL
MODEL 5
REMARK VINA RESULT:      -1.0      1.392      4.515
REMARK  3 active torsions:
REMARK  status: ('A' for Active; 'I' for Inactive)
REMARK    1  A    between atoms: C2_2  and  C9_9 
REMARK    2  A    between atoms: C3_3  and  C5_5 
REMARK    3  A    between atoms: C3_3  and  C9_9 
ROOT
HETATM    1  C3  UNL     1     -32.228   8.236   2.359  1.00 20.00     0.135 C 
HETATM    2  O10 UNL     1     -31.133   8.361   2.908  1.00 20.00    -0.297 OA
ENDROOT
BRANCH   1   3
HETATM    3  C5  UNL     1     -32.347   8.264   0.857  1.00 20.00     0.060 A 
HETATM    4  C4  UNL     1     -31.240   8.884   0.079  1.00 20.00     0.017 A 
HETATM    5  C6  UNL     1     -32.578   9.561   0.161  1.00 20.00    -0.007 A 
HETATM    6  C8  UNL     1     -32.711  10.865   0.872  1.00 20.00     0.011 C 
ENDBRANCH   1   3
BRANCH   1   7
HETATM    7  C9  UNL     1     -33.533   8.091   3.129  1.00 20.00     0.111 C 
BRANCH   7   8
HETATM    8  C2  UNL     1     -33.989   6.658   3.196  1.00 20.00    -0.086 C 
HETATM    9  C1  UNL     1     -35.048   6.292   3.937  1.00 20.00     0.014 C 
HETATM   10  C7  UNL     1     -33.224   5.664   2.373  1.00 20.00     0.043 C 
ENDBRANCH   7   8
ENDBRANCH   1   7
TORSDOF 3
ENDMDL
MODEL 6
REMARK VINA RESULT:      -1.0      1.590      2.200
REMARK  3 active torsions:
REMARK  status: ('A' for Active; 'I' for Inactive)
REMARK    1  A    between atoms: C2_2  and  C9_9 
REMARK    2  A    between atoms: C3_3  and  C5_5 
REMARK    3  A    between atoms: C3_3  and  C9_9 
ROOT
HETATM    1  C3  UNL     1     -32.155   8.102   2.135  1.00 20.00     0.135 C 
HETATM    2  O10 UNL     1     -31.703   8.347   3.253  1.00 20.00    -0.297 OA
ENDROOT
BRANCH   1   3
HETATM    3  C5  UNL     1     -33.336   7.181   1.963  1.00 20.00     0.060 A 
HETATM    4  C4  UNL     1     -33.537   6.105   2.972  1.00 20.00     0.017 A 
HETATM    5  C6  UNL     1     -33.111   5.761   1.573  1.00 20.00    -0.007 A 
HETATM    6  C8  UNL     1     -31.760   5.178   1.327  1.00 20.00     0.011 C 
ENDBRANCH   1   3
BRANCH   1   7
HETATM    7  C9  UNL     1     -31.549   8.656   0.853  1.00 20.00     0.111 C 
BRANCH   7   8
HETATM    8  C2  UNL     1     -32.375   9.775   0.279  1.00 20.00    -0.086 C 
HETATM    9  C1  UNL     1     -32.772   9.769  -1.003  1.00 20.00     0.014 C 
HETATM   10  C7  UNL     1     -32.760  10.882   1.217  1.00 20.00     0.043 C 
ENDBRANCH   7   8
ENDBRANCH   1   7
TORSDOF 3
ENDMDL
MODEL 7
REMARK VINA RESULT:      -0.9      1.612      1.941
REMARK  3 active torsions:
REMARK  status: ('A' for Active; 'I' for Inactive)
REMARK    1  A    between atoms: C2_2  and  C9_9 
REMARK    2  A    between atoms: C3_3  and  C5_5 
REMARK    3  A    between atoms: C3_3  and  C9_9 
ROOT
HETATM    1  C3  UNL     1     -33.261   7.764   3.997  1.00 20.00     0.135 C 
HETATM    2  O10 UNL     1     -33.411   7.972   5.201  1.00 20.00    -0.297 OA
ENDROOT
BRANCH   1   3
HETATM    3  C5  UNL     1     -34.320   7.048   3.199  1.00 20.00     0.060 A 
HETATM    4  C4  UNL     1     -35.467   6.449   3.936  1.00 20.00     0.017 A 
HETATM    5  C6  UNL     1     -34.436   5.565   3.293  1.00 20.00    -0.007 A 
HETATM    6  C8  UNL     1     -33.545   4.721   4.140  1.00 20.00     0.011 C 
ENDBRANCH   1   3
BRANCH   1   7
HETATM    7  C9  UNL     1     -32.005   8.160   3.234  1.00 20.00     0.111 C 
BRANCH   7   8
HETATM    8  C2  UNL     1     -32.133   7.887   1.760  1.00 20.00    -0.086 C 
HETATM    9  C1  UNL     1     -31.992   6.649   1.260  1.00 20.00     0.014 C 
HETATM   10  C7  UNL     1     -32.458   9.059   0.880  1.00 20.00     0.043 C 
ENDBRANCH   7   8
ENDBRANCH   1   7
TORSDOF 3
ENDMDL
MODEL 8
REMARK VINA RESULT:      -0.9      1.665      4.486
REMARK  3 active torsions:
REMARK  status: ('A' for Active; 'I' for Inactive)
REMARK    1  A    between atoms: C2_2  and  C9_9 
REMARK    2  A    between atoms: C3_3  and  C5_5 
REMARK    3  A    between atoms: C3_3  and  C9_9 
ROOT
HETATM    1  C3  UNL     1     -33.336   7.470   3.518  1.00 20.00     0.135 C 
HETATM    2  O10 UNL     1     -33.649   7.925   4.618  1.00 20.00    -0.297 OA
ENDROOT
BRANCH   1   3
HETATM    3  C5  UNL     1     -32.219   8.086   2.715  1.00 20.00     0.060 A 
HETATM    4  C4  UNL     1     -32.496   8.456   1.300  1.00 20.00     0.017 A 
HETATM    5  C6  UNL     1     -31.584   7.305   1.617  1.00 20.00    -0.007 A 
HETATM    6  C8  UNL     1     -31.986   5.915   1.256  1.00 20.00     0.011 C 
ENDBRANCH   1   3
BRANCH   1   7
HETATM    7  C9  UNL     1     -34.060   6.301   2.865  1.00 20.00     0.111 C 
BRANCH   7   8
HETATM    8  C2  UNL     1     -34.536   5.297   3.880  1.00 20.00    -0.086 C 
HETATM    9  C1  UNL     1     -35.659   5.494   4.589  1.00 20.00     0.014 C 
HETATM   10  C7  UNL     1     -33.713   4.052   4.040  1.00 20.00     0.043 C 
ENDBRANCH   7   8
ENDBRANCH   1   7
TORSDOF 3
ENDMDL
MODEL 9
REMARK VINA RESULT:      -0.7      1.324      4.662
REMARK  3 active torsions:
REMARK  status: ('A' for Active; 'I' for Inactive)
REMARK    1  A    between atoms: C2_2  and  C9_9 
REMARK    2  A    between atoms: C3_3  and  C5_5 
REMARK    3  A    between atoms: C3_3  and  C9_9 
ROOT
HETATM    1  C3  UNL     1     -33.029   7.177   2.649  1.00 20.00     0.135 C 
HETATM    2  O10 UNL     1     -33.412   8.031   3.447  1.00 20.00    -0.297 OA
ENDROOT
BRANCH   1   3
HETATM    3  C5  UNL     1     -31.793   7.396   1.815  1.00 20.00     0.060 A 
HETATM    4  C4  UNL     1     -30.917   8.551   2.153  1.00 20.00     0.017 A 
HETATM    5  C6  UNL     1     -31.728   8.561   0.888  1.00 20.00    -0.007 A 
HETATM    6  C8  UNL     1     -32.836   9.544   0.722  1.00 20.00     0.011 C 
ENDBRANCH   1   3
BRANCH   1   7
HETATM    7  C9  UNL     1     -33.775   5.872   2.405  1.00 20.00     0.111 C 
BRANCH   7   8
HETATM    8  C2  UNL     1     -34.435   5.360   3.656  1.00 20.00    -0.086 C 
HETATM    9  C1  UNL     1     -35.439   6.029   4.246  1.00 20.00     0.014 C 
HETATM   10  C7  UNL     1     -33.939   4.050   4.196  1.00 20.00     0.043 C 
ENDBRANCH   7   8
ENDBRANCH   1   7
TORSDOF 3
ENDMDL
