MODEL 1
REMARK VINA RESULT:      -1.2      0.000      0.000
REMARK  4 active torsions:
REMARK  status: ('A' for Active; 'I' for Inactive)
REMARK    1  A    between atoms: C2_2  and  C7_7 
REMARK    2  A    between atoms: C6_6  and  C7_7 
REMARK    3  A    between atoms: C6_6  and  S9_9 
REMARK    4  A    between atoms: C7_7  and  N8_8 
ROOT
HETATM    1  C7  UNL     1     -33.248   7.165   2.304  1.00 20.00     0.257 C 
ENDROOT
BRANCH   1   2
HETATM    2  C2  UNL     1     -33.986   7.206   3.635  1.00 20.00    -0.060 C 
HETATM    3  C1  UNL     1     -33.613   8.058   4.604  1.00 20.00     0.016 C 
HETATM    4  C3  UNL     1     -35.146   6.270   3.845  1.00 20.00     0.044 C 
ENDBRANCH   1   2
BRANCH   1   5
HETATM    5  C6  UNL     1     -32.099   8.185   2.188  1.00 20.00     0.113 C 
BRANCH   5   6
HETATM    6  S9  UNL     1     -31.756   8.663   0.465  1.00 20.00    -0.171 SA
HETATM    7  C5  UNL     1     -32.626  10.247   0.460  1.00 20.00     0.089 C 
ENDBRANCH   5   6
ENDBRANCH   1   5
BRANCH   1   8
HETATM    8  N8  UNL     1     -32.719   5.817   2.044  1.00 20.00     0.088 N 
HETATM    9  C4  UNL     1     -33.167   5.337   0.750  1.00 20.00     0.307 C 
HETATM   10  H24 UNL     1     -31.706   5.861   2.065  1.00 20.00     0.316 HD
ENDBRANCH   1   8
TORSDOF 4
ENDMDL
MODEL 2
REMARK VINA RESULT:      -1.2      0.061      1.167
REMARK  4 active torsions:
REMARK  status: ('A' for Active; 'I' for Inactive)
REMARK    1  A    between atoms: C2_2  and  C7_7 
REMARK    2  A    between atoms: C6_6  and  C7_7 
REMARK    3  A    between atoms: C6_6  and  S9_9 
REMARK    4  A    between atoms: C7_7  and  N8_8 
ROOT
HETATM    1  C7  UNL     1     -33.270   7.147   2.293  1.00 20.00     0.257 C 
ENDROOT
BRANCH   1   2
HETATM    2  C2  UNL     1     -34.024   7.157   3.615  1.00 20.00    -0.060 C 
HETATM    3  C1  UNL     1     -35.078   6.348   3.814  1.00 20.00     0.016 C 
HETATM    4  C3  UNL     1     -33.567   8.096   4.699  1.00 20.00     0.044 C 
ENDBRANCH   1   2
BRANCH   1   5
HETATM    5  C6  UNL     1     -32.136   8.187   2.206  1.00 20.00     0.113 C 
BRANCH   5   6
HETATM    6  S9  UNL     1     -31.748   8.661   0.491  1.00 20.00    -0.171 SA
HETATM    7  C5  UNL     1     -32.618  10.245   0.460  1.00 20.00     0.089 C 
ENDBRANCH   5   6
ENDBRANCH   1   5
BRANCH   1   8
HETATM    8  N8  UNL     1     -32.715   5.812   2.021  1.00 20.00     0.088 N 
HETATM    9  C4  UNL     1     -33.192   5.316   0.743  1.00 20.00     0.307 C 
HETATM   10  H24 UNL     1     -31.703   5.882   2.008  1.00 20.00     0.316 HD
ENDBRANCH   1   8
TORSDOF 4
ENDMDL
MODEL 3
REMARK VINA RESULT:      -0.4      1.571      2.676
REMARK  4 active torsions:
REMARK  status: ('A' for Active; 'I' for Inactive)
REMARK    1  A    between atoms: C2_2  and  C7_7 
REMARK    2  A    between atoms: C6_6  and  C7_7 
REMARK    3  A    between atoms: C6_6  and  S9_9 
REMARK    4  A    between atoms: C7_7  and  N8_8 
ROOT
HETATM    1  C7  UNL     1     -33.414   6.630   3.447  1.00 20.00     0.257 C 
ENDROOT
BRANCH   1   2
HETATM    2  C2  UNL     1     -34.409   5.543   3.828  1.00 20.00    -0.060 C 
HETATM    3  C1  UNL     1     -35.697   5.840   4.070  1.00 20.00     0.016 C 
HETATM    4  C3  UNL     1     -33.921   4.122   3.931  1.00 20.00     0.044 C 
ENDBRANCH   1   2
BRANCH   1   5
HETATM    5  C6  UNL     1     -33.131   6.724   1.935  1.00 20.00     0.113 C 
BRANCH   5   6
HETATM    6  S9  UNL     1     -31.656   7.721   1.558  1.00 20.00    -0.171 SA
HETATM    7  C5  UNL     1     -32.487   9.123   0.777  1.00 20.00     0.089 C 
ENDBRANCH   5   6
ENDBRANCH   1   5
BRANCH   1   8
HETATM    8  N8  UNL     1     -33.868   7.943   3.930  1.00 20.00     0.088 N 
HETATM    9  C4  UNL     1     -33.135   8.325   5.123  1.00 20.00     0.307 C 
HETATM   10  H24 UNL     1     -33.714   8.626   3.196  1.00 20.00     0.316 HD
ENDBRANCH   1   8
TORSDOF 4
ENDMDL
MODEL 4
REMARK VINA RESULT:      -0.3      2.185      4.029
REMARK  4 active torsions:
REMARK  status: ('A' for Active; 'I' for Inactive)
REMARK    1  A    between atoms: C2_2  and  C7_7 
REMARK    2  A    between atoms: C6_6  and  C7_7 
REMARK    3  A    between atoms: C6_6  and  S9_9 
REMARK    4  A    between atoms: C7_7  and  N8_8 
ROOT
HETATM    1  C7  UNL     1     -33.051   7.212   2.013  1.00 20.00     0.257 C 
ENDROOT
BRANCH   1   2
HETATM    2  C2  UNL     1     -32.729   5.879   1.352  1.00 20.00    -0.060 C 
HETATM    3  C1  UNL     1     -31.589   5.226   1.635  1.00 20.00     0.016 C 
HETATM    4  C3  UNL     1     -33.715   5.304   0.371  1.00 20.00     0.044 C 
ENDBRANCH   1   2
BRANCH   1   5
HETATM    5  C6  UNL     1     -33.383   7.108   3.513  1.00 20.00     0.113 C 
BRANCH   5   6
HETATM    6  S9  UNL     1     -35.019   6.370   3.821  1.00 20.00    -0.171 SA
HETATM    7  C5  UNL     1     -34.474   4.693   4.214  1.00 20.00     0.089 C 
ENDBRANCH   5   6
ENDBRANCH   1   5
BRANCH   1   8
HETATM    8  N8  UNL     1     -31.942   8.162   1.833  1.00 20.00     0.088 N 
HETATM    9  C4  UNL     1     -32.265   9.129   0.800  1.00 20.00     0.307 C 
HETATM   10  H24 UNL     1     -31.783   8.639   2.714  1.00 20.00     0.316 HD
ENDBRANCH   1   8
TORSDOF 4
ENDMDL
MODEL 5
REMARK VINA RESULT:      -0.1      2.809      4.168
REMARK  4 active torsions:
REMARK  status: ('A' for Active; 'I' for Inactive)
REMARK    1  A    between atoms: C2_2  and  C7_7 
REMARK    2  A    between atoms: C6_6  and  C7_7 
REMARK    3  A    between atoms: C6_6  and  S9_9 
REMARK    4  A    between atoms: C7_7  and  N8_8 
ROOT
HETATM    1  C7  UNL     1     -33.177   6.204   3.032  1.00 20.00     0.257 C 
ENDROOT
BRANCH   1   2
HETATM    2  C2  UNL     1     -34.239   7.028   3.747  1.00 20.00    -0.060 C 
HETATM    3  C1  UNL     1     -35.545   6.834   3.500  1.00 20.00     0.016 C 
HETATM    4  C3  UNL     1     -33.795   8.071   4.737  1.00 20.00     0.044 C 
ENDBRANCH   1   2
BRANCH   1   5
HETATM    5  C6  UNL     1     -33.497   4.699   2.950  1.00 20.00     0.113 C 
BRANCH   5   6
HETATM    6  S9  UNL     1     -34.121   4.027   4.524  1.00 20.00    -0.171 SA
HETATM    7  C5  UNL     1     -32.874   2.742   4.766  1.00 20.00     0.089 C 
ENDBRANCH   5   6
ENDBRANCH   1   5
BRANCH   1   8
HETATM    8  N8  UNL     1     -32.946   6.718   1.673  1.00 20.00     0.088 N 
HETATM    9  C4  UNL     1     -31.959   7.781   1.694  1.00 20.00     0.307 C 
HETATM   10  H24 UNL     1     -32.619   5.954   1.093  1.00 20.00     0.316 HD
ENDBRANCH   1   8
TORSDOF 4
ENDMDL
MODEL 6
REMARK VINA RESULT:      -0.1      2.796      4.001
REMARK  4 active torsions:
REMARK  status: ('A' for Active; 'I' for Inactive)
REMARK    1  A    between atoms: C2_2  and  C7_7 
REMARK    2  A    between atoms: C6_6  and  C7_7 
REMARK    3  A    between atoms: C6_6  and  S9_9 
REMARK    4  A    between atoms: C7_7  and  N8_8 
ROOT
HETATM    1  C7  UNL     1     -33.155   6.238   3.035  1.00 20.00     0.257 C 
ENDROOT
BRANCH   1   2
HETATM    2  C2  UNL     1     -34.209   7.060   3.763  1.00 20.00    -0.060 C 
HETATM    3  C1  UNL     1     -33.855   7.994   4.662  1.00 20.00     0.016 C 
HETATM    4  C3  UNL     1     -35.660   6.805   3.457  1.00 20.00     0.044 C 
ENDBRANCH   1   2
BRANCH   1   5
HETATM    5  C6  UNL     1     -33.476   4.734   2.949  1.00 20.00     0.113 C 
BRANCH   5   6
HETATM    6  S9  UNL     1     -34.130   4.066   4.513  1.00 20.00    -0.171 SA
HETATM    7  C5  UNL     1     -32.910   2.758   4.763  1.00 20.00     0.089 C 
ENDBRANCH   5   6
ENDBRANCH   1   5
BRANCH   1   8
HETATM    8  N8  UNL     1     -32.937   6.758   1.675  1.00 20.00     0.088 N 
HETATM    9  C4  UNL     1     -31.932   7.805   1.688  1.00 20.00     0.307 C 
HETATM   10  H24 UNL     1     -32.632   5.992   1.085  1.00 20.00     0.316 HD
ENDBRANCH   1   8
TORSDOF 4
ENDMDL
MODEL 7
REMARK VINA RESULT:      -0.1      1.851      3.904
REMARK  4 active torsions:
REMARK  status: ('A' for Active; 'I' for Inactive)
REMARK    1  A    between atoms: C2_2  and  C7_7 
REMARK    2  A    between atoms: C6_6  and  C7_7 
REMARK    3  A    between atoms: C6_6  and  S9_9 
REMARK    4  A    between atoms: C7_7  and  N8_8 
ROOT
HETATM    1  C7  UNL     1     -32.226   8.013   1.957  1.00 20.00     0.257 C 
ENDROOT
BRANCH   1   2
HETATM    2  C2  UNL     1     -32.044   9.044   0.851  1.00 20.00    -0.060 C 
HETATM    3  C1  UNL     1     -31.181   8.831  -0.155  1.00 20.00     0.016 C 
HETATM    4  C3  UNL     1     -32.852  10.313   0.909  1.00 20.00     0.044 C 
ENDBRANCH   1   2
BRANCH   1   5
HETATM    5  C6  UNL     1     -33.695   7.754   2.342  1.00 20.00     0.113 C 
BRANCH   5   6
HETATM    6  S9  UNL     1     -33.927   7.566   4.138  1.00 20.00    -0.171 SA
HETATM    7  C5  UNL     1     -35.181   6.265   4.100  1.00 20.00     0.089 C 
ENDBRANCH   5   6
ENDBRANCH   1   5
BRANCH   1   8
HETATM    8  N8  UNL     1     -31.597   6.736   1.585  1.00 20.00     0.088 N 
HETATM    9  C4  UNL     1     -32.607   5.714   1.380  1.00 20.00     0.307 C 
HETATM   10  H24 UNL     1     -31.069   6.876   0.731  1.00 20.00     0.316 HD
ENDBRANCH   1   8
TORSDOF 4
ENDMDL
MODEL 8
REMARK VINA RESULT:       0.0      2.185      2.934
REMARK  4 active torsions:
REMARK  status: ('A' for Active; 'I' for Inactive)
REMARK    1  A    between atoms: C2_2  and  C7_7 
REMARK    2  A    between atoms: C6_6  and  C7_7 
REMARK    3  A    between atoms: C6_6  and  S9_9 
REMARK    4  A    between atoms: C7_7  and  N8_8 
ROOT
HETATM    1  C7  UNL     1     -34.196   5.133   3.414  1.00 20.00     0.257 C 
ENDROOT
BRANCH   1   2
HETATM    2  C2  UNL     1     -34.856   6.468   3.729  1.00 20.00    -0.060 C 
HETATM    3  C1  UNL     1     -36.123   6.717   3.356  1.00 20.00     0.016 C 
HETATM    4  C3  UNL     1     -34.058   7.510   4.467  1.00 20.00     0.044 C 
ENDBRANCH   1   2
BRANCH   1   5
HETATM    5  C6  UNL     1     -32.739   5.249   2.927  1.00 20.00     0.113 C 
BRANCH   5   6
HETATM    6  S9  UNL     1     -32.614   5.935   1.244  1.00 20.00    -0.171 SA
HETATM    7  C5  UNL     1     -31.923   7.548   1.676  1.00 20.00     0.089 C 
ENDBRANCH   5   6
ENDBRANCH   1   5
BRANCH   1   8
HETATM    8  N8  UNL     1     -34.239   4.243   4.584  1.00 20.00     0.088 N 
HETATM    9  C4  UNL     1     -33.321   3.132   4.411  1.00 20.00     0.307 C 
HETATM   10  H24 UNL     1     -33.981   4.780   5.405  1.00 20.00     0.316 HD
ENDBRANCH   1   8
TORSDOF 4
ENDMDL
MODEL 9
REMARK VINA RESULT:       0.2      1.025      2.833
REMARK  4 active torsions:
REMARK  status: ('A' for Active; 'I' for Inactive)
REMARK    1  A    between atoms: C2_2  and  C7_7 
REMARK    2  A    between atoms: C6_6  and  C7_7 
REMARK    3  A    between atoms: C6_6  and  S9_9 
REMARK    4  A    between atoms: C7_7  and  N8_8 
ROOT
HETATM    1  C7  UNL     1     -32.811   6.593   2.504  1.00 20.00     0.257 C 
ENDROOT
BRANCH   1   2
HETATM    2  C2  UNL     1     -32.709   5.699   1.276  1.00 20.00    -0.060 C 
HETATM    3  C1  UNL     1     -31.617   4.945   1.061  1.00 20.00     0.016 C 
HETATM    4  C3  UNL     1     -33.857   5.675   0.303  1.00 20.00     0.044 C 
ENDBRANCH   1   2
BRANCH   1   5
HETATM    5  C6  UNL     1     -32.855   8.100   2.184  1.00 20.00     0.113 C 
BRANCH   5   6
HETATM    6  S9  UNL     1     -31.620   8.589   0.938  1.00 20.00    -0.171 SA
HETATM    7  C5  UNL     1     -32.540   9.949   0.184  1.00 20.00     0.089 C 
ENDBRANCH   5   6
ENDBRANCH   1   5
BRANCH   1   8
HETATM    8  N8  UNL     1     -33.993   6.241   3.307  1.00 20.00     0.088 N 
HETATM    9  C4  UNL     1     -34.400   7.364   4.130  1.00 20.00     0.307 C 
HETATM   10  H24 UNL     1     -34.744   5.985   2.676  1.00 20.00     0.316 HD
ENDBRANCH   1   8
TORSDOF 4
ENDMDL
