MODEL 1
REMARK VINA RESULT:      -0.6      0.000      0.000
REMARK  3 active torsions:
REMARK  status: ('A' for Active; 'I' for Inactive)
REMARK    1  A    between atoms: C2_2  and  C3_3 
REMARK    2  A    between atoms: C3_3  and  C7_7 
REMARK    3  A    between atoms: C8_8  and  C11_11 
ROOT
HETATM    1  C4  UNL     1     -35.324   6.446   3.550  1.00 20.00     0.013 C 
HETATM    2  C5  UNL     1     -35.058   5.487   4.703  1.00 20.00     0.005 C 
HETATM    3  C6  UNL     1     -33.325   5.099   3.093  1.00 20.00     0.017 C 
HETATM    4  C7  UNL     1     -34.060   6.383   2.691  1.00 20.00     0.060 C 
HETATM    5  C8  UNL     1     -34.281   4.360   4.034  1.00 20.00    -0.014 C 
ENDROOT
BRANCH   4   6
HETATM    6  C3  UNL     1     -33.191   7.578   2.941  1.00 20.00     0.158 C 
HETATM    7  O12 UNL     1     -33.213   8.143   4.036  1.00 20.00    -0.292 OA
BRANCH   6   8
HETATM    8  C2  UNL     1     -32.291   8.085   1.854  1.00 20.00    -0.025 C 
HETATM    9  C1  UNL     1     -31.212   7.393   1.461  1.00 20.00     0.022 C 
HETATM   10  C9  UNL     1     -32.662   9.399   1.234  1.00 20.00     0.051 C 
ENDBRANCH   6   8
ENDBRANCH   4   6
BRANCH   5  11
HETATM   11  C11 UNL     1     -33.566   3.456   5.025  1.00 20.00     0.000 C 
HETATM   12  C10 UNL     1     -33.206   2.136   4.419  1.00 20.00     0.005 C 
ENDBRANCH   5  11
TORSDOF 3
ENDMDL
MODEL 2
REMARK VINA RESULT:      -0.5      1.946      4.938
REMARK  3 active torsions:
REMARK  status: ('A' for Active; 'I' for Inactive)
REMARK    1  A    between atoms: C2_2  and  C3_3 
REMARK    2  A    between atoms: C3_3  and  C7_7 
REMARK    3  A    between atoms: C8_8  and  C11_11 
ROOT
HETATM    1  C4  UNL     1     -31.557   5.815   1.738  1.00 20.00     0.013 C 
HETATM    2  C5  UNL     1     -31.177   7.290   1.746  1.00 20.00     0.005 C 
HETATM    3  C6  UNL     1     -33.521   7.202   1.249  1.00 20.00     0.017 C 
HETATM    4  C7  UNL     1     -33.087   5.805   1.711  1.00 20.00     0.060 C 
HETATM    5  C8  UNL     1     -32.230   7.915   0.839  1.00 20.00    -0.014 C 
ENDROOT
BRANCH   4   6
HETATM    6  C3  UNL     1     -33.638   5.516   3.074  1.00 20.00     0.158 C 
HETATM    7  O12 UNL     1     -33.398   4.440   3.625  1.00 20.00    -0.292 OA
BRANCH   6   8
HETATM    8  C2  UNL     1     -34.485   6.541   3.768  1.00 20.00    -0.025 C 
HETATM    9  C1  UNL     1     -35.812   6.389   3.882  1.00 20.00     0.022 C 
HETATM   10  C9  UNL     1     -33.770   7.736   4.325  1.00 20.00     0.051 C 
ENDBRANCH   6   8
ENDBRANCH   4   6
BRANCH   5  11
HETATM   11  C11 UNL     1     -32.312   9.427   0.972  1.00 20.00     0.000 C 
HETATM   12  C10 UNL     1     -32.667  10.084  -0.325  1.00 20.00     0.005 C 
ENDBRANCH   5  11
TORSDOF 3
ENDMDL
MODEL 3
REMARK VINA RESULT:      -0.2      1.548      5.300
REMARK  3 active torsions:
REMARK  status: ('A' for Active; 'I' for Inactive)
REMARK    1  A    between atoms: C2_2  and  C3_3 
REMARK    2  A    between atoms: C3_3  and  C7_7 
REMARK    3  A    between atoms: C8_8  and  C11_11 
ROOT
HETATM    1  C4  UNL     1     -32.918   8.152   3.193  1.00 20.00     0.013 C 
HETATM    2  C5  UNL     1     -33.119   9.139   2.050  1.00 20.00     0.005 C 
HETATM    3  C6  UNL     1     -31.754   7.371   1.180  1.00 20.00     0.017 C 
HETATM    4  C7  UNL     1     -32.304   6.914   2.536  1.00 20.00     0.060 C 
HETATM    5  C8  UNL     1     -31.896   8.895   1.174  1.00 20.00    -0.014 C 
ENDROOT
BRANCH   4   6
HETATM    6  C3  UNL     1     -33.340   5.848   2.344  1.00 20.00     0.158 C 
HETATM    7  O12 UNL     1     -33.476   5.306   1.246  1.00 20.00    -0.292 OA
BRANCH   6   8
HETATM    8  C2  UNL     1     -34.213   5.442   3.494  1.00 20.00    -0.025 C 
HETATM    9  C1  UNL     1     -35.201   6.233   3.934  1.00 20.00     0.022 C 
HETATM   10  C9  UNL     1     -33.921   4.111   4.120  1.00 20.00     0.051 C 
ENDBRANCH   6   8
ENDBRANCH   4   6
BRANCH   5  11
HETATM   11  C11 UNL     1     -32.034   9.479  -0.223  1.00 20.00     0.000 C 
HETATM   12  C10 UNL     1     -32.911  10.692  -0.238  1.00 20.00     0.005 C 
ENDBRANCH   5  11
TORSDOF 3
ENDMDL
MODEL 4
REMARK VINA RESULT:      -0.1      1.473      1.569
REMARK  3 active torsions:
REMARK  status: ('A' for Active; 'I' for Inactive)
REMARK    1  A    between atoms: C2_2  and  C3_3 
REMARK    2  A    between atoms: C3_3  and  C7_7 
REMARK    3  A    between atoms: C8_8  and  C11_11 
ROOT
HETATM    1  C4  UNL     1     -34.331   7.353   3.097  1.00 20.00     0.013 C 
HETATM    2  C5  UNL     1     -34.277   6.545   4.387  1.00 20.00     0.005 C 
HETATM    3  C6  UNL     1     -33.816   5.004   2.610  1.00 20.00     0.017 C 
HETATM    4  C7  UNL     1     -33.752   6.422   2.029  1.00 20.00     0.060 C 
HETATM    5  C8  UNL     1     -34.604   5.133   3.917  1.00 20.00    -0.014 C 
ENDROOT
BRANCH   4   6
HETATM    6  C3  UNL     1     -32.334   6.791   1.717  1.00 20.00     0.158 C 
HETATM    7  O12 UNL     1     -31.525   5.922   1.385  1.00 20.00    -0.292 OA
BRANCH   6   8
HETATM    8  C2  UNL     1     -31.900   8.223   1.810  1.00 20.00    -0.025 C 
HETATM    9  C1  UNL     1     -31.267   8.692   2.895  1.00 20.00     0.022 C 
HETATM   10  C9  UNL     1     -32.208   9.096   0.630  1.00 20.00     0.051 C 
ENDBRANCH   6   8
ENDBRANCH   4   6
BRANCH   5  11
HETATM   11  C11 UNL     1     -34.250   4.065   4.938  1.00 20.00     0.000 C 
HETATM   12  C10 UNL     1     -33.288   3.060   4.386  1.00 20.00     0.005 C 
ENDBRANCH   5  11
TORSDOF 3
ENDMDL
MODEL 5
REMARK VINA RESULT:       0.0      1.289      1.607
REMARK  3 active torsions:
REMARK  status: ('A' for Active; 'I' for Inactive)
REMARK    1  A    between atoms: C2_2  and  C3_3 
REMARK    2  A    between atoms: C3_3  and  C7_7 
REMARK    3  A    between atoms: C8_8  and  C11_11 
ROOT
HETATM    1  C4  UNL     1     -34.248   7.470   3.150  1.00 20.00     0.013 C 
HETATM    2  C5  UNL     1     -33.860   6.289   4.031  1.00 20.00     0.005 C 
HETATM    3  C6  UNL     1     -32.968   5.825   1.855  1.00 20.00     0.017 C 
HETATM    4  C7  UNL     1     -33.428   7.288   1.871  1.00 20.00     0.060 C 
HETATM    5  C8  UNL     1     -33.693   5.157   3.026  1.00 20.00    -0.014 C 
ENDROOT
BRANCH   4   6
HETATM    6  C3  UNL     1     -32.243   8.205   1.868  1.00 20.00     0.158 C 
HETATM    7  O12 UNL     1     -31.476   8.231   2.832  1.00 20.00    -0.292 OA
BRANCH   6   8
HETATM    8  C2  UNL     1     -31.991   9.092   0.685  1.00 20.00    -0.025 C 
HETATM    9  C1  UNL     1     -31.101   8.759  -0.261  1.00 20.00     0.022 C 
HETATM   10  C9  UNL     1     -32.784  10.363   0.618  1.00 20.00     0.051 C 
ENDBRANCH   6   8
ENDBRANCH   4   6
BRANCH   5  11
HETATM   11  C11 UNL     1     -32.945   3.960   3.591  1.00 20.00     0.000 C 
HETATM   12  C10 UNL     1     -33.670   3.340   4.743  1.00 20.00     0.005 C 
ENDBRANCH   5  11
TORSDOF 3
ENDMDL
MODEL 6
REMARK VINA RESULT:       0.1      1.285      1.864
REMARK  3 active torsions:
REMARK  status: ('A' for Active; 'I' for Inactive)
REMARK    1  A    between atoms: C2_2  and  C3_3 
REMARK    2  A    between atoms: C3_3  and  C7_7 
REMARK    3  A    between atoms: C8_8  and  C11_11 
ROOT
HETATM    1  C4  UNL     1     -34.292   7.467   3.146  1.00 20.00     0.013 C 
HETATM    2  C5  UNL     1     -33.895   6.283   4.017  1.00 20.00     0.005 C 
HETATM    3  C6  UNL     1     -33.010   5.839   1.834  1.00 20.00     0.017 C 
HETATM    4  C7  UNL     1     -33.477   7.299   1.862  1.00 20.00     0.060 C 
HETATM    5  C8  UNL     1     -33.727   5.158   3.003  1.00 20.00    -0.014 C 
ENDROOT
BRANCH   4   6
HETATM    6  C3  UNL     1     -32.296   8.221   1.861  1.00 20.00     0.158 C 
HETATM    7  O12 UNL     1     -31.502   8.215   2.803  1.00 20.00    -0.292 OA
BRANCH   6   8
HETATM    8  C2  UNL     1     -32.082   9.155   0.706  1.00 20.00    -0.025 C 
HETATM    9  C1  UNL     1     -32.760  10.306   0.605  1.00 20.00     0.022 C 
HETATM   10  C9  UNL     1     -31.073   8.733  -0.320  1.00 20.00     0.051 C 
ENDBRANCH   6   8
ENDBRANCH   4   6
BRANCH   5  11
HETATM   11  C11 UNL     1     -32.970   3.961   3.556  1.00 20.00     0.000 C 
HETATM   12  C10 UNL     1     -33.681   3.337   4.716  1.00 20.00     0.005 C 
ENDBRANCH   5  11
TORSDOF 3
ENDMDL
MODEL 7
REMARK VINA RESULT:       0.3      2.334      3.562
REMARK  3 active torsions:
REMARK  status: ('A' for Active; 'I' for Inactive)
REMARK    1  A    between atoms: C2_2  and  C3_3 
REMARK    2  A    between atoms: C3_3  and  C7_7 
REMARK    3  A    between atoms: C8_8  and  C11_11 
ROOT
HETATM    1  C4  UNL     1     -31.681   6.364   1.474  1.00 20.00     0.013 C 
HETATM    2  C5  UNL     1     -33.133   6.057   1.817  1.00 20.00     0.005 C 
HETATM    3  C6  UNL     1     -32.668   8.221   2.737  1.00 20.00     0.017 C 
HETATM    4  C7  UNL     1     -31.505   7.846   1.810  1.00 20.00     0.060 C 
HETATM    5  C8  UNL     1     -33.372   6.901   3.063  1.00 20.00    -0.014 C 
ENDROOT
BRANCH   4   6
HETATM    6  C3  UNL     1     -31.545   8.679   0.565  1.00 20.00     0.158 C 
HETATM    7  O12 UNL     1     -30.819   8.401  -0.391  1.00 20.00    -0.292 OA
BRANCH   6   8
HETATM    8  C2  UNL     1     -32.474   9.853   0.484  1.00 20.00    -0.025 C 
HETATM    9  C1  UNL     1     -32.683  10.652   1.540  1.00 20.00     0.022 C 
HETATM   10  C9  UNL     1     -33.151  10.084  -0.834  1.00 20.00     0.051 C 
ENDBRANCH   6   8
ENDBRANCH   4   6
BRANCH   5  11
HETATM   11  C11 UNL     1     -34.846   7.074   3.395  1.00 20.00     0.000 C 
HETATM   12  C10 UNL     1     -35.374   5.931   4.204  1.00 20.00     0.005 C 
ENDBRANCH   5  11
TORSDOF 3
ENDMDL
MODEL 8
REMARK VINA RESULT:       0.3      1.222      5.296
REMARK  3 active torsions:
REMARK  status: ('A' for Active; 'I' for Inactive)
REMARK    1  A    between atoms: C2_2  and  C3_3 
REMARK    2  A    between atoms: C3_3  and  C7_7 
REMARK    3  A    between atoms: C8_8  and  C11_11 
ROOT
HETATM    1  C4  UNL     1     -31.268   7.369   2.207  1.00 20.00     0.013 C 
HETATM    2  C5  UNL     1     -31.303   8.728   1.520  1.00 20.00     0.005 C 
HETATM    3  C6  UNL     1     -33.310   7.594   0.866  1.00 20.00     0.017 C 
HETATM    4  C7  UNL     1     -32.674   6.797   2.012  1.00 20.00     0.060 C 
HETATM    5  C8  UNL     1     -32.188   8.472   0.307  1.00 20.00    -0.014 C 
ENDROOT
BRANCH   4   6
HETATM    6  C3  UNL     1     -33.485   6.949   3.262  1.00 20.00     0.158 C 
HETATM    7  O12 UNL     1     -33.391   7.972   3.943  1.00 20.00    -0.292 OA
BRANCH   6   8
HETATM    8  C2  UNL     1     -34.415   5.850   3.684  1.00 20.00    -0.025 C 
HETATM    9  C1  UNL     1     -35.683   6.105   4.034  1.00 20.00     0.022 C 
HETATM   10  C9  UNL     1     -33.852   4.460   3.692  1.00 20.00     0.051 C 
ENDBRANCH   6   8
ENDBRANCH   4   6
BRANCH   5  11
HETATM   11  C11 UNL     1     -32.694   9.749  -0.345  1.00 20.00     0.000 C 
HETATM   12  C10 UNL     1     -32.777  10.880   0.631  1.00 20.00     0.005 C 
ENDBRANCH   5  11
TORSDOF 3
ENDMDL
MODEL 9
REMARK VINA RESULT:       0.5      1.223      5.218
REMARK  3 active torsions:
REMARK  status: ('A' for Active; 'I' for Inactive)
REMARK    1  A    between atoms: C2_2  and  C3_3 
REMARK    2  A    between atoms: C3_3  and  C7_7 
REMARK    3  A    between atoms: C8_8  and  C11_11 
ROOT
HETATM    1  C4  UNL     1     -31.246   7.382   2.226  1.00 20.00     0.013 C 
HETATM    2  C5  UNL     1     -31.307   8.758   1.574  1.00 20.00     0.005 C 
HETATM    3  C6  UNL     1     -33.260   7.579   0.839  1.00 20.00     0.017 C 
HETATM    4  C7  UNL     1     -32.627   6.772   1.980  1.00 20.00     0.060 C 
HETATM    5  C8  UNL     1     -32.153   8.506   0.332  1.00 20.00    -0.014 C 
ENDROOT
BRANCH   4   6
HETATM    6  C3  UNL     1     -33.474   6.864   3.212  1.00 20.00     0.158 C 
HETATM    7  O12 UNL     1     -33.527   7.917   3.851  1.00 20.00    -0.292 OA
BRANCH   6   8
HETATM    8  C2  UNL     1     -34.259   5.670   3.668  1.00 20.00    -0.025 C 
HETATM    9  C1  UNL     1     -33.763   4.429   3.568  1.00 20.00     0.022 C 
HETATM   10  C9  UNL     1     -35.619   5.940   4.239  1.00 20.00     0.051 C 
ENDBRANCH   6   8
ENDBRANCH   4   6
BRANCH   5  11
HETATM   11  C11 UNL     1     -32.683   9.784  -0.299  1.00 20.00     0.000 C 
HETATM   12  C10 UNL     1     -32.751  10.908   0.687  1.00 20.00     0.005 C 
ENDBRANCH   5  11
TORSDOF 3
ENDMDL
