MODEL 1
REMARK VINA RESULT:      -2.1      0.000      0.000
REMARK  3 active torsions:
REMARK  status: ('A' for Active; 'I' for Inactive)
REMARK    1  A    between atoms: C2_2  and  C9_9 
REMARK    2  A    between atoms: C3_3  and  C5_5 
REMARK    3  A    between atoms: C3_3  and  C9_9 
ROOT
HETATM    1  C3  UNL     1     -32.527   7.223   1.868  1.00 20.00     0.135 C 
HETATM    2  O10 UNL     1     -32.271   6.104   1.423  1.00 20.00    -0.297 OA
ENDROOT
BRANCH   1   3
HETATM    3  C5  UNL     1     -33.764   7.462   2.694  1.00 20.00     0.060 A 
HETATM    4  C4  UNL     1     -33.587   7.827   4.125  1.00 20.00     0.017 A 
HETATM    5  C6  UNL     1     -34.096   6.459   3.754  1.00 20.00    -0.007 A 
HETATM    6  C8  UNL     1     -35.523   6.100   3.990  1.00 20.00     0.011 C 
ENDBRANCH   1   3
BRANCH   1   7
HETATM    7  C9  UNL     1     -31.663   8.445   1.591  1.00 20.00     0.111 C 
BRANCH   7   8
HETATM    8  C2  UNL     1     -32.295   9.361   0.578  1.00 20.00    -0.086 C 
HETATM    9  C1  UNL     1     -32.441   8.997  -0.706  1.00 20.00     0.014 C 
HETATM   10  C7  UNL     1     -32.785  10.690   1.079  1.00 20.00     0.043 C 
ENDBRANCH   7   8
ENDBRANCH   1   7
TORSDOF 3
ENDMDL
MODEL 2
REMARK VINA RESULT:      -2.0      0.991      4.398
REMARK  3 active torsions:
REMARK  status: ('A' for Active; 'I' for Inactive)
REMARK    1  A    between atoms: C2_2  and  C9_9 
REMARK    2  A    between atoms: C3_3  and  C5_5 
REMARK    3  A    between atoms: C3_3  and  C9_9 
ROOT
HETATM    1  C3  UNL     1     -32.813   6.460   1.912  1.00 20.00     0.135 C 
HETATM    2  O10 UNL     1     -33.059   5.407   1.324  1.00 20.00    -0.297 OA
ENDROOT
BRANCH   1   3
HETATM    3  C5  UNL     1     -31.987   7.536   1.256  1.00 20.00     0.060 A 
HETATM    4  C4  UNL     1     -31.363   8.565   2.129  1.00 20.00     0.017 A 
HETATM    5  C6  UNL     1     -32.534   8.929   1.255  1.00 20.00    -0.007 A 
HETATM    6  C8  UNL     1     -32.335   9.784   0.051  1.00 20.00     0.011 C 
ENDBRANCH   1   3
BRANCH   1   7
HETATM    7  C9  UNL     1     -33.272   6.745   3.335  1.00 20.00     0.111 C 
BRANCH   7   8
HETATM    8  C2  UNL     1     -34.425   5.867   3.739  1.00 20.00    -0.086 C 
HETATM    9  C1  UNL     1     -35.680   6.339   3.802  1.00 20.00     0.014 C 
HETATM   10  C7  UNL     1     -34.111   4.428   4.036  1.00 20.00     0.043 C 
ENDBRANCH   7   8
ENDBRANCH   1   7
TORSDOF 3
ENDMDL
MODEL 3
REMARK VINA RESULT:      -1.5      1.535      4.777
REMARK  3 active torsions:
REMARK  status: ('A' for Active; 'I' for Inactive)
REMARK    1  A    between atoms: C2_2  and  C9_9 
REMARK    2  A    between atoms: C3_3  and  C5_5 
REMARK    3  A    between atoms: C3_3  and  C9_9 
ROOT
HETATM    1  C3  UNL     1     -33.175   6.995   2.650  1.00 20.00     0.135 C 
HETATM    2  O10 UNL     1     -33.424   7.686   3.638  1.00 20.00    -0.297 OA
ENDROOT
BRANCH   1   3
HETATM    3  C5  UNL     1     -32.443   7.574   1.467  1.00 20.00     0.060 A 
HETATM    4  C4  UNL     1     -31.130   8.227   1.711  1.00 20.00     0.017 A 
HETATM    5  C6  UNL     1     -32.336   9.064   1.377  1.00 20.00    -0.007 A 
HETATM    6  C8  UNL     1     -32.450   9.719   0.043  1.00 20.00     0.011 C 
ENDBRANCH   1   3
BRANCH   1   7
HETATM    7  C9  UNL     1     -33.613   5.543   2.519  1.00 20.00     0.111 C 
BRANCH   7   8
HETATM    8  C2  UNL     1     -34.321   5.057   3.756  1.00 20.00    -0.086 C 
HETATM    9  C1  UNL     1     -35.379   5.708   4.262  1.00 20.00     0.014 C 
HETATM   10  C7  UNL     1     -33.807   3.790   4.376  1.00 20.00     0.043 C 
ENDBRANCH   7   8
ENDBRANCH   1   7
TORSDOF 3
ENDMDL
MODEL 4
REMARK VINA RESULT:      -1.5      1.239      4.448
REMARK  3 active torsions:
REMARK  status: ('A' for Active; 'I' for Inactive)
REMARK    1  A    between atoms: C2_2  and  C9_9 
REMARK    2  A    between atoms: C3_3  and  C5_5 
REMARK    3  A    between atoms: C3_3  and  C9_9 
ROOT
HETATM    1  C3  UNL     1     -32.295   7.796   2.196  1.00 20.00     0.135 C 
HETATM    2  O10 UNL     1     -31.507   8.304   2.993  1.00 20.00    -0.297 OA
ENDROOT
BRANCH   1   3
HETATM    3  C5  UNL     1     -32.423   8.327   0.791  1.00 20.00     0.060 A 
HETATM    4  C4  UNL     1     -31.187   8.791   0.106  1.00 20.00     0.017 A 
HETATM    5  C6  UNL     1     -32.206   9.793   0.580  1.00 20.00    -0.007 A 
HETATM    6  C8  UNL     1     -33.061  10.517  -0.402  1.00 20.00     0.011 C 
ENDBRANCH   1   3
BRANCH   1   7
HETATM    7  C9  UNL     1     -33.221   6.644   2.561  1.00 20.00     0.111 C 
BRANCH   7   8
HETATM    8  C2  UNL     1     -34.121   6.993   3.716  1.00 20.00    -0.086 C 
HETATM    9  C1  UNL     1     -33.854   8.026   4.529  1.00 20.00     0.014 C 
HETATM   10  C7  UNL     1     -35.350   6.149   3.895  1.00 20.00     0.043 C 
ENDBRANCH   7   8
ENDBRANCH   1   7
TORSDOF 3
ENDMDL
MODEL 5
REMARK VINA RESULT:      -1.4      1.807      2.503
REMARK  3 active torsions:
REMARK  status: ('A' for Active; 'I' for Inactive)
REMARK    1  A    between atoms: C2_2  and  C9_9 
REMARK    2  A    between atoms: C3_3  and  C5_5 
REMARK    3  A    between atoms: C3_3  and  C9_9 
ROOT
HETATM    1  C3  UNL     1     -33.564   7.671   3.850  1.00 20.00     0.135 C 
HETATM    2  O10 UNL     1     -34.146   8.362   4.685  1.00 20.00    -0.297 OA
ENDROOT
BRANCH   1   3
HETATM    3  C5  UNL     1     -34.147   6.359   3.391  1.00 20.00     0.060 A 
HETATM    4  C4  UNL     1     -35.480   5.965   3.920  1.00 20.00     0.017 A 
HETATM    5  C6  UNL     1     -34.242   5.252   4.395  1.00 20.00    -0.007 A 
HETATM    6  C8  UNL     1     -33.966   3.854   3.959  1.00 20.00     0.011 C 
ENDBRANCH   1   3
BRANCH   1   7
HETATM    7  C9  UNL     1     -32.215   8.047   3.253  1.00 20.00     0.111 C 
BRANCH   7   8
HETATM    8  C2  UNL     1     -32.175   7.814   1.766  1.00 20.00    -0.086 C 
HETATM    9  C1  UNL     1     -32.073   6.580   1.250  1.00 20.00     0.014 C 
HETATM   10  C7  UNL     1     -32.287   9.027   0.888  1.00 20.00     0.043 C 
ENDBRANCH   7   8
ENDBRANCH   1   7
TORSDOF 3
ENDMDL
MODEL 6
REMARK VINA RESULT:      -1.3      1.820      2.672
REMARK  3 active torsions:
REMARK  status: ('A' for Active; 'I' for Inactive)
REMARK    1  A    between atoms: C2_2  and  C9_9 
REMARK    2  A    between atoms: C3_3  and  C5_5 
REMARK    3  A    between atoms: C3_3  and  C9_9 
ROOT
HETATM    1  C3  UNL     1     -33.569   7.643   3.850  1.00 20.00     0.135 C 
HETATM    2  O10 UNL     1     -34.152   8.342   4.679  1.00 20.00    -0.297 OA
ENDROOT
BRANCH   1   3
HETATM    3  C5  UNL     1     -34.154   6.331   3.397  1.00 20.00     0.060 A 
HETATM    4  C4  UNL     1     -35.480   5.933   3.941  1.00 20.00     0.017 A 
HETATM    5  C6  UNL     1     -34.234   5.222   4.400  1.00 20.00    -0.007 A 
HETATM    6  C8  UNL     1     -33.961   3.825   3.959  1.00 20.00     0.011 C 
ENDBRANCH   1   3
BRANCH   1   7
HETATM    7  C9  UNL     1     -32.216   8.011   3.258  1.00 20.00     0.111 C 
BRANCH   7   8
HETATM    8  C2  UNL     1     -32.193   7.840   1.763  1.00 20.00    -0.086 C 
HETATM    9  C1  UNL     1     -32.277   8.892   0.933  1.00 20.00     0.014 C 
HETATM   10  C7  UNL     1     -32.038   6.440   1.243  1.00 20.00     0.043 C 
ENDBRANCH   7   8
ENDBRANCH   1   7
TORSDOF 3
ENDMDL
MODEL 7
REMARK VINA RESULT:      -1.1      1.375      4.432
REMARK  3 active torsions:
REMARK  status: ('A' for Active; 'I' for Inactive)
REMARK    1  A    between atoms: C2_2  and  C9_9 
REMARK    2  A    between atoms: C3_3  and  C5_5 
REMARK    3  A    between atoms: C3_3  and  C9_9 
ROOT
HETATM    1  C3  UNL     1     -32.517   8.225   2.953  1.00 20.00     0.135 C 
HETATM    2  O10 UNL     1     -31.429   8.445   3.484  1.00 20.00    -0.297 OA
ENDROOT
BRANCH   1   3
HETATM    3  C5  UNL     1     -32.674   8.295   1.456  1.00 20.00     0.060 A 
HETATM    4  C4  UNL     1     -31.459   8.114   0.618  1.00 20.00     0.017 A 
HETATM    5  C6  UNL     1     -32.086   9.476   0.750  1.00 20.00    -0.007 A 
HETATM    6  C8  UNL     1     -32.825  10.076  -0.397  1.00 20.00     0.011 C 
ENDBRANCH   1   3
BRANCH   1   7
HETATM    7  C9  UNL     1     -33.781   7.916   3.743  1.00 20.00     0.111 C 
BRANCH   7   8
HETATM    8  C2  UNL     1     -34.237   6.496   3.540  1.00 20.00    -0.086 C 
HETATM    9  C1  UNL     1     -35.396   6.049   4.047  1.00 20.00     0.014 C 
HETATM   10  C7  UNL     1     -33.348   5.611   2.713  1.00 20.00     0.043 C 
ENDBRANCH   7   8
ENDBRANCH   1   7
TORSDOF 3
ENDMDL
MODEL 8
REMARK VINA RESULT:      -0.9      0.954      1.842
REMARK  3 active torsions:
REMARK  status: ('A' for Active; 'I' for Inactive)
REMARK    1  A    between atoms: C2_2  and  C9_9 
REMARK    2  A    between atoms: C3_3  and  C5_5 
REMARK    3  A    between atoms: C3_3  and  C9_9 
ROOT
HETATM    1  C3  UNL     1     -33.023   6.204   1.884  1.00 20.00     0.135 C 
HETATM    2  O10 UNL     1     -32.513   5.181   1.428  1.00 20.00    -0.297 OA
ENDROOT
BRANCH   1   3
HETATM    3  C5  UNL     1     -33.452   6.277   3.326  1.00 20.00     0.060 A 
HETATM    4  C4  UNL     1     -34.910   6.282   3.621  1.00 20.00     0.017 A 
HETATM    5  C6  UNL     1     -34.103   7.541   3.795  1.00 20.00    -0.007 A 
HETATM    6  C8  UNL     1     -33.794   8.052   5.160  1.00 20.00     0.011 C 
ENDBRANCH   1   3
BRANCH   1   7
HETATM    7  C9  UNL     1     -33.301   7.441   1.041  1.00 20.00     0.111 C 
BRANCH   7   8
HETATM    8  C2  UNL     1     -32.200   8.460   1.159  1.00 20.00    -0.086 C 
HETATM    9  C1  UNL     1     -31.123   8.246   1.932  1.00 20.00     0.014 C 
HETATM   10  C7  UNL     1     -32.346   9.713   0.344  1.00 20.00     0.043 C 
ENDBRANCH   7   8
ENDBRANCH   1   7
TORSDOF 3
ENDMDL
MODEL 9
REMARK VINA RESULT:      -0.5      1.806      2.783
REMARK  3 active torsions:
REMARK  status: ('A' for Active; 'I' for Inactive)
REMARK    1  A    between atoms: C2_2  and  C9_9 
REMARK    2  A    between atoms: C3_3  and  C5_5 
REMARK    3  A    between atoms: C3_3  and  C9_9 
ROOT
HETATM    1  C3  UNL     1     -32.377   7.931   2.547  1.00 20.00     0.135 C 
HETATM    2  O10 UNL     1     -31.425   8.400   3.170  1.00 20.00    -0.297 OA
ENDROOT
BRANCH   1   3
HETATM    3  C5  UNL     1     -33.747   7.859   3.169  1.00 20.00     0.060 A 
HETATM    4  C4  UNL     1     -33.848   7.970   4.649  1.00 20.00     0.017 A 
HETATM    5  C6  UNL     1     -34.081   6.643   3.976  1.00 20.00    -0.007 A 
HETATM    6  C8  UNL     1     -35.456   6.075   3.894  1.00 20.00     0.011 C 
ENDBRANCH   1   3
BRANCH   1   7
HETATM    7  C9  UNL     1     -32.250   7.355   1.144  1.00 20.00     0.111 C 
BRANCH   7   8
HETATM    8  C2  UNL     1     -32.412   5.858   1.136  1.00 20.00    -0.086 C 
HETATM    9  C1  UNL     1     -31.505   5.049   1.705  1.00 20.00     0.014 C 
HETATM   10  C7  UNL     1     -33.654   5.315   0.490  1.00 20.00     0.043 C 
ENDBRANCH   7   8
ENDBRANCH   1   7
TORSDOF 3
ENDMDL
