MODEL 1
REMARK VINA RESULT:      -2.0      0.000      0.000
REMARK  5 active torsions:
REMARK  status: ('A' for Active; 'I' for Inactive)
REMARK    1  A    between atoms: C2_2  and  C6_6 
REMARK    2  A    between atoms: C6_6  and  C8_8 
REMARK    3  A    between atoms: C7_7  and  C8_8 
REMARK    4  A    between atoms: C7_7  and  C9_9 
REMARK    5  A    between atoms: C9_9  and  O10_10 
ROOT
HETATM    1  C4  UNL     1     -32.376   5.755   1.398  1.00 20.00     0.010 C 
HETATM    2  C8  UNL     1     -32.966   7.057   1.955  1.00 20.00    -0.012 C 
ENDROOT
BRANCH   2   3
HETATM    3  C6  UNL     1     -33.276   6.862   3.459  1.00 20.00     0.037 C 
BRANCH   3   4
HETATM    4  C2  UNL     1     -34.465   5.977   3.758  1.00 20.00    -0.093 C 
HETATM    5  C1  UNL     1     -35.716   6.461   3.759  1.00 20.00     0.014 C 
HETATM    6  C3  UNL     1     -34.190   4.523   4.016  1.00 20.00     0.042 C 
ENDBRANCH   3   4
ENDBRANCH   2   3
BRANCH   2   7
HETATM    7  C7  UNL     1     -32.019   8.258   1.727  1.00 20.00     0.035 C 
BRANCH   7   8
HETATM    8  C9  UNL     1     -32.153   8.929   0.353  1.00 20.00     0.114 C 
HETATM    9  C5  UNL     1     -32.654  10.362   0.489  1.00 20.00     0.039 C 
BRANCH   8  10
HETATM   10  O10 UNL     1     -30.880   8.946  -0.286  1.00 20.00    -0.396 OA
HETATM   11  H28 UNL     1     -30.525   8.046  -0.220  1.00 20.00     0.210 HD
ENDBRANCH   8  10
ENDBRANCH   7   8
ENDBRANCH   2   7
TORSDOF 5
ENDMDL
MODEL 2
REMARK VINA RESULT:      -1.9      0.814      1.233
REMARK  5 active torsions:
REMARK  status: ('A' for Active; 'I' for Inactive)
REMARK    1  A    between atoms: C2_2  and  C6_6 
REMARK    2  A    between atoms: C6_6  and  C8_8 
REMARK    3  A    between atoms: C7_7  and  C8_8 
REMARK    4  A    between atoms: C7_7  and  C9_9 
REMARK    5  A    between atoms: C9_9  and  O10_10 
ROOT
HETATM    1  C4  UNL     1     -32.076   5.521   0.938  1.00 20.00     0.010 C 
HETATM    2  C8  UNL     1     -32.877   6.584   1.698  1.00 20.00    -0.012 C 
ENDROOT
BRANCH   2   3
HETATM    3  C6  UNL     1     -33.200   6.047   3.115  1.00 20.00     0.037 C 
BRANCH   3   4
HETATM    4  C2  UNL     1     -34.293   6.793   3.848  1.00 20.00    -0.093 C 
HETATM    5  C1  UNL     1     -35.561   6.356   3.847  1.00 20.00     0.014 C 
HETATM    6  C3  UNL     1     -33.890   8.023   4.610  1.00 20.00     0.042 C 
ENDBRANCH   3   4
ENDBRANCH   2   3
BRANCH   2   7
HETATM    7  C7  UNL     1     -32.122   7.932   1.767  1.00 20.00     0.035 C 
BRANCH   7   8
HETATM    8  C9  UNL     1     -32.201   8.777   0.488  1.00 20.00     0.114 C 
HETATM    9  C5  UNL     1     -32.684  10.190   0.796  1.00 20.00     0.039 C 
BRANCH   8  10
HETATM   10  O10 UNL     1     -30.908   8.852  -0.105  1.00 20.00    -0.396 OA
HETATM   11  H28 UNL     1     -30.947   9.562  -0.765  1.00 20.00     0.210 HD
ENDBRANCH   8  10
ENDBRANCH   7   8
ENDBRANCH   2   7
TORSDOF 5
ENDMDL
MODEL 3
REMARK VINA RESULT:      -1.5      2.698      5.293
REMARK  5 active torsions:
REMARK  status: ('A' for Active; 'I' for Inactive)
REMARK    1  A    between atoms: C2_2  and  C6_6 
REMARK    2  A    between atoms: C6_6  and  C8_8 
REMARK    3  A    between atoms: C7_7  and  C8_8 
REMARK    4  A    between atoms: C7_7  and  C9_9 
REMARK    5  A    between atoms: C9_9  and  O10_10 
ROOT
HETATM    1  C4  UNL     1     -34.007   7.571   3.651  1.00 20.00     0.010 C 
HETATM    2  C8  UNL     1     -33.763   6.337   2.774  1.00 20.00    -0.012 C 
ENDROOT
BRANCH   2   3
HETATM    3  C6  UNL     1     -32.874   6.745   1.574  1.00 20.00     0.037 C 
BRANCH   3   4
HETATM    4  C2  UNL     1     -32.160   8.069   1.728  1.00 20.00    -0.093 C 
HETATM    5  C1  UNL     1     -31.237   8.261   2.683  1.00 20.00     0.014 C 
HETATM    6  C3  UNL     1     -32.499   9.149   0.741  1.00 20.00     0.042 C 
ENDBRANCH   3   4
ENDBRANCH   2   3
BRANCH   2   7
HETATM    7  C7  UNL     1     -33.125   5.179   3.578  1.00 20.00     0.035 C 
BRANCH   7   8
HETATM    8  C9  UNL     1     -34.078   4.021   3.903  1.00 20.00     0.114 C 
HETATM    9  C5  UNL     1     -33.380   2.956   4.741  1.00 20.00     0.039 C 
BRANCH   8  10
HETATM   10  O10 UNL     1     -35.194   4.523   4.632  1.00 20.00    -0.396 OA
HETATM   11  H28 UNL     1     -35.372   3.884   5.340  1.00 20.00     0.210 HD
ENDBRANCH   8  10
ENDBRANCH   7   8
ENDBRANCH   2   7
TORSDOF 5
ENDMDL
MODEL 4
REMARK VINA RESULT:      -1.4      1.119      1.184
REMARK  5 active torsions:
REMARK  status: ('A' for Active; 'I' for Inactive)
REMARK    1  A    between atoms: C2_2  and  C6_6 
REMARK    2  A    between atoms: C6_6  and  C8_8 
REMARK    3  A    between atoms: C7_7  and  C8_8 
REMARK    4  A    between atoms: C7_7  and  C9_9 
REMARK    5  A    between atoms: C9_9  and  O10_10 
ROOT
HETATM    1  C4  UNL     1     -32.568   5.981   1.260  1.00 20.00     0.010 C 
HETATM    2  C8  UNL     1     -32.902   7.368   1.821  1.00 20.00    -0.012 C 
ENDROOT
BRANCH   2   3
HETATM    3  C6  UNL     1     -33.234   7.231   3.328  1.00 20.00     0.037 C 
BRANCH   3   4
HETATM    4  C2  UNL     1     -34.315   6.225   3.656  1.00 20.00    -0.093 C 
HETATM    5  C1  UNL     1     -35.606   6.581   3.724  1.00 20.00     0.014 C 
HETATM    6  C3  UNL     1     -33.884   4.801   3.864  1.00 20.00     0.042 C 
ENDBRANCH   3   4
ENDBRANCH   2   3
BRANCH   2   7
HETATM    7  C7  UNL     1     -31.750   8.373   1.589  1.00 20.00     0.035 C 
BRANCH   7   8
HETATM    8  C9  UNL     1     -32.123   9.591   0.734  1.00 20.00     0.114 C 
HETATM    9  C5  UNL     1     -32.566   9.165  -0.662  1.00 20.00     0.039 C 
BRANCH   8  10
HETATM   10  O10 UNL     1     -33.192  10.294   1.360  1.00 20.00    -0.396 OA
HETATM   11  H28 UNL     1     -33.729   9.630   1.820  1.00 20.00     0.210 HD
ENDBRANCH   8  10
ENDBRANCH   7   8
ENDBRANCH   2   7
TORSDOF 5
ENDMDL
MODEL 5
REMARK VINA RESULT:      -1.4      2.859      5.131
REMARK  5 active torsions:
REMARK  status: ('A' for Active; 'I' for Inactive)
REMARK    1  A    between atoms: C2_2  and  C6_6 
REMARK    2  A    between atoms: C6_6  and  C8_8 
REMARK    3  A    between atoms: C7_7  and  C8_8 
REMARK    4  A    between atoms: C7_7  and  C9_9 
REMARK    5  A    between atoms: C9_9  and  O10_10 
ROOT
HETATM    1  C4  UNL     1     -33.880   7.842   4.507  1.00 20.00     0.010 C 
HETATM    2  C8  UNL     1     -34.193   6.710   3.521  1.00 20.00    -0.012 C 
ENDROOT
BRANCH   2   3
HETATM    3  C6  UNL     1     -33.901   7.206   2.083  1.00 20.00     0.037 C 
BRANCH   3   4
HETATM    4  C2  UNL     1     -32.469   7.039   1.627  1.00 20.00    -0.093 C 
HETATM    5  C1  UNL     1     -31.594   8.054   1.683  1.00 20.00     0.014 C 
HETATM    6  C3  UNL     1     -32.058   5.678   1.145  1.00 20.00     0.042 C 
ENDBRANCH   3   4
ENDBRANCH   2   3
BRANCH   2   7
HETATM    7  C7  UNL     1     -33.392   5.428   3.847  1.00 20.00     0.035 C 
BRANCH   7   8
HETATM    8  C9  UNL     1     -34.245   4.163   4.013  1.00 20.00     0.114 C 
HETATM    9  C5  UNL     1     -33.460   3.061   4.716  1.00 20.00     0.039 C 
BRANCH   8  10
HETATM   10  O10 UNL     1     -35.398   4.474   4.790  1.00 20.00    -0.396 OA
HETATM   11  H28 UNL     1     -35.834   5.221   4.352  1.00 20.00     0.210 HD
ENDBRANCH   8  10
ENDBRANCH   7   8
ENDBRANCH   2   7
TORSDOF 5
ENDMDL
MODEL 6
REMARK VINA RESULT:      -1.3      2.574      4.646
REMARK  5 active torsions:
REMARK  status: ('A' for Active; 'I' for Inactive)
REMARK    1  A    between atoms: C2_2  and  C6_6 
REMARK    2  A    between atoms: C6_6  and  C8_8 
REMARK    3  A    between atoms: C7_7  and  C8_8 
REMARK    4  A    between atoms: C7_7  and  C9_9 
REMARK    5  A    between atoms: C9_9  and  O10_10 
ROOT
HETATM    1  C4  UNL     1     -31.929   4.929   1.146  1.00 20.00     0.010 C 
HETATM    2  C8  UNL     1     -32.692   6.031   1.891  1.00 20.00    -0.012 C 
ENDROOT
BRANCH   2   3
HETATM    3  C6  UNL     1     -32.911   7.225   0.930  1.00 20.00     0.037 C 
BRANCH   3   4
HETATM    4  C2  UNL     1     -32.165   8.488   1.297  1.00 20.00    -0.093 C 
HETATM    5  C1  UNL     1     -31.377   8.546   2.382  1.00 20.00     0.014 C 
HETATM    6  C3  UNL     1     -32.313   9.664   0.375  1.00 20.00     0.042 C 
ENDBRANCH   3   4
ENDBRANCH   2   3
BRANCH   2   7
HETATM    7  C7  UNL     1     -34.034   5.515   2.461  1.00 20.00     0.035 C 
BRANCH   7   8
HETATM    8  C9  UNL     1     -34.283   5.865   3.934  1.00 20.00     0.114 C 
HETATM    9  C5  UNL     1     -34.482   7.366   4.114  1.00 20.00     0.039 C 
BRANCH   8  10
HETATM   10  O10 UNL     1     -35.453   5.189   4.386  1.00 20.00    -0.396 OA
HETATM   11  H28 UNL     1     -35.292   4.241   4.255  1.00 20.00     0.210 HD
ENDBRANCH   8  10
ENDBRANCH   7   8
ENDBRANCH   2   7
TORSDOF 5
ENDMDL
MODEL 7
REMARK VINA RESULT:      -1.2      2.328      4.986
REMARK  5 active torsions:
REMARK  status: ('A' for Active; 'I' for Inactive)
REMARK    1  A    between atoms: C2_2  and  C6_6 
REMARK    2  A    between atoms: C6_6  and  C8_8 
REMARK    3  A    between atoms: C7_7  and  C8_8 
REMARK    4  A    between atoms: C7_7  and  C9_9 
REMARK    5  A    between atoms: C9_9  and  O10_10 
ROOT
HETATM    1  C4  UNL     1     -32.582   8.278   3.988  1.00 20.00     0.010 C 
HETATM    2  C8  UNL     1     -33.048   7.870   2.585  1.00 20.00    -0.012 C 
ENDROOT
BRANCH   2   3
HETATM    3  C6  UNL     1     -31.950   8.254   1.562  1.00 20.00     0.037 C 
BRANCH   3   4
HETATM    4  C2  UNL     1     -32.343   9.333   0.578  1.00 20.00    -0.093 C 
HETATM    5  C1  UNL     1     -32.345   9.108  -0.745  1.00 20.00     0.014 C 
HETATM    6  C3  UNL     1     -32.769  10.656   1.146  1.00 20.00     0.042 C 
ENDBRANCH   3   4
ENDBRANCH   2   3
BRANCH   2   7
HETATM    7  C7  UNL     1     -33.384   6.362   2.509  1.00 20.00     0.035 C 
BRANCH   7   8
HETATM    8  C9  UNL     1     -34.011   5.779   3.783  1.00 20.00     0.114 C 
HETATM    9  C5  UNL     1     -35.468   6.206   3.920  1.00 20.00     0.039 C 
BRANCH   8  10
HETATM   10  O10 UNL     1     -33.951   4.357   3.726  1.00 20.00    -0.396 OA
HETATM   11  H28 UNL     1     -34.236   4.104   2.835  1.00 20.00     0.210 HD
ENDBRANCH   8  10
ENDBRANCH   7   8
ENDBRANCH   2   7
TORSDOF 5
ENDMDL
MODEL 8
REMARK VINA RESULT:      -1.1      3.051      5.521
REMARK  5 active torsions:
REMARK  status: ('A' for Active; 'I' for Inactive)
REMARK    1  A    between atoms: C2_2  and  C6_6 
REMARK    2  A    between atoms: C6_6  and  C8_8 
REMARK    3  A    between atoms: C7_7  and  C8_8 
REMARK    4  A    between atoms: C7_7  and  C9_9 
REMARK    5  A    between atoms: C9_9  and  O10_10 
ROOT
HETATM    1  C4  UNL     1     -35.034   6.699   4.070  1.00 20.00     0.010 C 
HETATM    2  C8  UNL     1     -34.374   5.428   3.522  1.00 20.00    -0.012 C 
ENDROOT
BRANCH   2   3
HETATM    3  C6  UNL     1     -32.897   5.742   3.178  1.00 20.00     0.037 C 
BRANCH   3   4
HETATM    4  C2  UNL     1     -32.666   6.290   1.788  1.00 20.00    -0.093 C 
HETATM    5  C1  UNL     1     -32.979   5.580   0.693  1.00 20.00     0.014 C 
HETATM    6  C3  UNL     1     -32.106   7.680   1.684  1.00 20.00     0.042 C 
ENDBRANCH   3   4
ENDBRANCH   2   3
BRANCH   2   7
HETATM    7  C7  UNL     1     -34.481   4.250   4.518  1.00 20.00     0.035 C 
BRANCH   7   8
HETATM    8  C9  UNL     1     -33.283   3.292   4.510  1.00 20.00     0.114 C 
HETATM    9  C5  UNL     1     -32.618   3.236   5.881  1.00 20.00     0.039 C 
BRANCH   8  10
HETATM   10  O10 UNL     1     -33.730   1.985   4.162  1.00 20.00    -0.396 OA
HETATM   11  H28 UNL     1     -32.935   1.442   4.044  1.00 20.00     0.210 HD
ENDBRANCH   8  10
ENDBRANCH   7   8
ENDBRANCH   2   7
TORSDOF 5
ENDMDL
MODEL 9
REMARK VINA RESULT:      -1.0      1.401      2.067
REMARK  5 active torsions:
REMARK  status: ('A' for Active; 'I' for Inactive)
REMARK    1  A    between atoms: C2_2  and  C6_6 
REMARK    2  A    between atoms: C6_6  and  C8_8 
REMARK    3  A    between atoms: C7_7  and  C8_8 
REMARK    4  A    between atoms: C7_7  and  C9_9 
REMARK    5  A    between atoms: C9_9  and  O10_10 
ROOT
HETATM    1  C4  UNL     1     -34.237   7.296   3.617  1.00 20.00     0.010 C 
HETATM    2  C8  UNL     1     -33.204   6.403   2.918  1.00 20.00    -0.012 C 
ENDROOT
BRANCH   2   3
HETATM    3  C6  UNL     1     -33.770   4.965   2.824  1.00 20.00     0.037 C 
BRANCH   3   4
HETATM    4  C2  UNL     1     -34.204   4.361   4.141  1.00 20.00    -0.093 C 
HETATM    5  C1  UNL     1     -35.290   4.804   4.792  1.00 20.00     0.014 C 
HETATM    6  C3  UNL     1     -33.389   3.215   4.670  1.00 20.00     0.042 C 
ENDBRANCH   3   4
ENDBRANCH   2   3
BRANCH   2   7
HETATM    7  C7  UNL     1     -32.825   6.950   1.522  1.00 20.00     0.035 C 
BRANCH   7   8
HETATM    8  C9  UNL     1     -31.787   8.082   1.537  1.00 20.00     0.114 C 
HETATM    9  C5  UNL     1     -32.288   9.293   0.759  1.00 20.00     0.039 C 
BRANCH   8  10
HETATM   10  O10 UNL     1     -31.538   8.471   2.884  1.00 20.00    -0.396 OA
HETATM   11  H28 UNL     1     -30.855   7.872   3.224  1.00 20.00     0.210 HD
ENDBRANCH   8  10
ENDBRANCH   7   8
ENDBRANCH   2   7
TORSDOF 5
ENDMDL
