MODEL 1
REMARK VINA RESULT:      -2.1      0.000      0.000
REMARK  5 active torsions:
REMARK  status: ('A' for Active; 'I' for Inactive)
REMARK    1  A    between atoms: C2_2  and  C5_5 
REMARK    2  A    between atoms: C5_5  and  C7_7 
REMARK    3  A    between atoms: C6_6  and  C9_9 
REMARK    4  A    between atoms: C7_7  and  C8_8 
REMARK    5  A    between atoms: C8_8  and  C9_9 
ROOT
HETATM    1  C7  UNL     1     -32.736   7.018   1.445  1.00 20.00     0.006 C 
ENDROOT
BRANCH   1   2
HETATM    2  C5  UNL     1     -31.997   8.354   1.602  1.00 20.00     0.033 C 
BRANCH   2   3
HETATM    3  C2  UNL     1     -32.375   9.405   0.585  1.00 20.00    -0.093 C 
HETATM    4  C1  UNL     1     -32.326   9.155  -0.734  1.00 20.00     0.014 C 
HETATM    5  C3  UNL     1     -32.774  10.755   1.109  1.00 20.00     0.042 C 
ENDBRANCH   2   3
ENDBRANCH   1   2
BRANCH   1   6
HETATM    6  C8  UNL     1     -33.124   6.387   2.789  1.00 20.00     0.020 C 
BRANCH   6   7
HETATM    7  C9  UNL     1     -34.206   7.178   3.545  1.00 20.00     0.082 C 
HETATM    8 CL10 UNL     1     -33.468   8.103   4.891  1.00 20.00    -0.125 Cl
BRANCH   7   9
HETATM    9  C6  UNL     1     -35.294   6.233   4.077  1.00 20.00     0.016 C 
HETATM   10  C4  UNL     1     -34.803   4.811   4.318  1.00 20.00     0.006 C 
ENDBRANCH   7   9
ENDBRANCH   6   7
ENDBRANCH   1   6
TORSDOF 5
ENDMDL
MODEL 2
REMARK VINA RESULT:      -2.1      0.058      1.111
REMARK  5 active torsions:
REMARK  status: ('A' for Active; 'I' for Inactive)
REMARK    1  A    between atoms: C2_2  and  C5_5 
REMARK    2  A    between atoms: C5_5  and  C7_7 
REMARK    3  A    between atoms: C6_6  and  C9_9 
REMARK    4  A    between atoms: C7_7  and  C8_8 
REMARK    5  A    between atoms: C8_8  and  C9_9 
ROOT
HETATM    1  C7  UNL     1     -32.721   7.035   1.441  1.00 20.00     0.006 C 
ENDROOT
BRANCH   1   2
HETATM    2  C5  UNL     1     -31.967   8.359   1.622  1.00 20.00     0.033 C 
BRANCH   2   3
HETATM    3  C2  UNL     1     -32.357   9.444   0.647  1.00 20.00    -0.093 C 
HETATM    4  C1  UNL     1     -32.751  10.657   1.067  1.00 20.00     0.014 C 
HETATM    5  C3  UNL     1     -32.322   9.098  -0.814  1.00 20.00     0.042 C 
ENDBRANCH   2   3
ENDBRANCH   1   2
BRANCH   1   6
HETATM    6  C8  UNL     1     -33.126   6.389   2.773  1.00 20.00     0.020 C 
BRANCH   6   7
HETATM    7  C9  UNL     1     -34.194   7.190   3.538  1.00 20.00     0.082 C 
HETATM    8 CL10 UNL     1     -33.441   8.080   4.900  1.00 20.00    -0.125 Cl
BRANCH   7   9
HETATM    9  C6  UNL     1     -35.303   6.259   4.054  1.00 20.00     0.016 C 
HETATM   10  C4  UNL     1     -34.827   4.837   4.326  1.00 20.00     0.006 C 
ENDBRANCH   7   9
ENDBRANCH   6   7
ENDBRANCH   1   6
TORSDOF 5
ENDMDL
MODEL 3
REMARK VINA RESULT:      -2.0      1.638      1.889
REMARK  5 active torsions:
REMARK  status: ('A' for Active; 'I' for Inactive)
REMARK    1  A    between atoms: C2_2  and  C5_5 
REMARK    2  A    between atoms: C5_5  and  C7_7 
REMARK    3  A    between atoms: C6_6  and  C9_9 
REMARK    4  A    between atoms: C7_7  and  C8_8 
REMARK    5  A    between atoms: C8_8  and  C9_9 
ROOT
HETATM    1  C7  UNL     1     -32.009   6.605   1.478  1.00 20.00     0.006 C 
ENDROOT
BRANCH   1   2
HETATM    2  C5  UNL     1     -32.139   8.096   1.816  1.00 20.00     0.033 C 
BRANCH   2   3
HETATM    3  C2  UNL     1     -31.979   9.025   0.636  1.00 20.00    -0.093 C 
HETATM    4  C1  UNL     1     -31.143   8.739  -0.374  1.00 20.00     0.014 C 
HETATM    5  C3  UNL     1     -32.769  10.303   0.657  1.00 20.00     0.042 C 
ENDBRANCH   2   3
ENDBRANCH   1   2
BRANCH   1   6
HETATM    6  C8  UNL     1     -33.266   5.798   1.833  1.00 20.00     0.020 C 
BRANCH   6   7
HETATM    7  C9  UNL     1     -33.523   5.706   3.347  1.00 20.00     0.082 C 
HETATM    8 CL10 UNL     1     -33.897   4.015   3.809  1.00 20.00    -0.125 Cl
BRANCH   7   9
HETATM    9  C6  UNL     1     -34.672   6.640   3.758  1.00 20.00     0.016 C 
HETATM   10  C4  UNL     1     -34.211   7.874   4.524  1.00 20.00     0.006 C 
ENDBRANCH   7   9
ENDBRANCH   6   7
ENDBRANCH   1   6
TORSDOF 5
ENDMDL
MODEL 4
REMARK VINA RESULT:      -1.8      1.225      4.639
REMARK  5 active torsions:
REMARK  status: ('A' for Active; 'I' for Inactive)
REMARK    1  A    between atoms: C2_2  and  C5_5 
REMARK    2  A    between atoms: C5_5  and  C7_7 
REMARK    3  A    between atoms: C6_6  and  C9_9 
REMARK    4  A    between atoms: C7_7  and  C8_8 
REMARK    5  A    between atoms: C8_8  and  C9_9 
ROOT
HETATM    1  C7  UNL     1     -33.180   6.262   1.569  1.00 20.00     0.006 C 
ENDROOT
BRANCH   1   2
HETATM    2  C5  UNL     1     -33.476   5.486   2.859  1.00 20.00     0.033 C 
BRANCH   2   3
HETATM    3  C2  UNL     1     -34.441   6.171   3.798  1.00 20.00    -0.093 C 
HETATM    4  C1  UNL     1     -34.361   7.488   4.047  1.00 20.00     0.014 C 
HETATM    5  C3  UNL     1     -35.473   5.311   4.470  1.00 20.00     0.042 C 
ENDBRANCH   2   3
ENDBRANCH   1   2
BRANCH   1   6
HETATM    6  C8  UNL     1     -31.719   6.723   1.469  1.00 20.00     0.020 C 
BRANCH   6   7
HETATM    7  C9  UNL     1     -31.554   8.249   1.576  1.00 20.00     0.082 C 
HETATM    8 CL10 UNL     1     -31.363   8.732   3.291  1.00 20.00    -0.125 Cl
BRANCH   7   9
HETATM    9  C6  UNL     1     -32.758   8.969   0.948  1.00 20.00     0.016 C 
HETATM   10  C4  UNL     1     -32.370  10.015  -0.090  1.00 20.00     0.006 C 
ENDBRANCH   7   9
ENDBRANCH   6   7
ENDBRANCH   1   6
TORSDOF 5
ENDMDL
MODEL 5
REMARK VINA RESULT:      -1.8      1.238      4.567
REMARK  5 active torsions:
REMARK  status: ('A' for Active; 'I' for Inactive)
REMARK    1  A    between atoms: C2_2  and  C5_5 
REMARK    2  A    between atoms: C5_5  and  C7_7 
REMARK    3  A    between atoms: C6_6  and  C9_9 
REMARK    4  A    between atoms: C7_7  and  C8_8 
REMARK    5  A    between atoms: C8_8  and  C9_9 
ROOT
HETATM    1  C7  UNL     1     -33.241   6.349   1.572  1.00 20.00     0.006 C 
ENDROOT
BRANCH   1   2
HETATM    2  C5  UNL     1     -33.511   5.529   2.841  1.00 20.00     0.033 C 
BRANCH   2   3
HETATM    3  C2  UNL     1     -34.477   6.170   3.810  1.00 20.00    -0.093 C 
HETATM    4  C1  UNL     1     -35.463   5.465   4.388  1.00 20.00     0.014 C 
HETATM    5  C3  UNL     1     -34.311   7.640   4.072  1.00 20.00     0.042 C 
ENDBRANCH   2   3
ENDBRANCH   1   2
BRANCH   1   6
HETATM    6  C8  UNL     1     -31.770   6.766   1.430  1.00 20.00     0.020 C 
BRANCH   6   7
HETATM    7  C9  UNL     1     -31.551   8.282   1.572  1.00 20.00     0.082 C 
HETATM    8 CL10 UNL     1     -31.295   8.710   3.294  1.00 20.00    -0.125 Cl
BRANCH   7   9
HETATM    9  C6  UNL     1     -32.747   9.058   0.999  1.00 20.00     0.016 C 
HETATM   10  C4  UNL     1     -32.376   9.991  -0.147  1.00 20.00     0.006 C 
ENDBRANCH   7   9
ENDBRANCH   6   7
ENDBRANCH   1   6
TORSDOF 5
ENDMDL
MODEL 6
REMARK VINA RESULT:      -1.7      1.048      1.770
REMARK  5 active torsions:
REMARK  status: ('A' for Active; 'I' for Inactive)
REMARK    1  A    between atoms: C2_2  and  C5_5 
REMARK    2  A    between atoms: C5_5  and  C7_7 
REMARK    3  A    between atoms: C6_6  and  C9_9 
REMARK    4  A    between atoms: C7_7  and  C8_8 
REMARK    5  A    between atoms: C8_8  and  C9_9 
ROOT
HETATM    1  C7  UNL     1     -33.115   6.151   1.306  1.00 20.00     0.006 C 
ENDROOT
BRANCH   1   2
HETATM    2  C5  UNL     1     -31.814   6.941   1.107  1.00 20.00     0.033 C 
BRANCH   2   3
HETATM    3  C2  UNL     1     -31.878   8.382   1.557  1.00 20.00    -0.093 C 
HETATM    4  C1  UNL     1     -31.586   8.737   2.818  1.00 20.00     0.014 C 
HETATM    5  C3  UNL     1     -32.317   9.398   0.541  1.00 20.00     0.042 C 
ENDBRANCH   2   3
ENDBRANCH   1   2
BRANCH   1   6
HETATM    6  C8  UNL     1     -33.194   5.461   2.675  1.00 20.00     0.020 C 
BRANCH   6   7
HETATM    7  C9  UNL     1     -34.489   5.778   3.443  1.00 20.00     0.082 C 
HETATM    8 CL10 UNL     1     -34.364   7.385   4.227  1.00 20.00    -0.125 Cl
BRANCH   7   9
HETATM    9  C6  UNL     1     -34.776   4.692   4.492  1.00 20.00     0.016 C 
HETATM   10  C4  UNL     1     -33.755   3.560   4.492  1.00 20.00     0.006 C 
ENDBRANCH   7   9
ENDBRANCH   6   7
ENDBRANCH   1   6
TORSDOF 5
ENDMDL
MODEL 7
REMARK VINA RESULT:      -1.6      1.684      5.196
REMARK  5 active torsions:
REMARK  status: ('A' for Active; 'I' for Inactive)
REMARK    1  A    between atoms: C2_2  and  C5_5 
REMARK    2  A    between atoms: C5_5  and  C7_7 
REMARK    3  A    between atoms: C6_6  and  C9_9 
REMARK    4  A    between atoms: C7_7  and  C8_8 
REMARK    5  A    between atoms: C8_8  and  C9_9 
ROOT
HETATM    1  C7  UNL     1     -33.776   7.673   3.960  1.00 20.00     0.006 C 
ENDROOT
BRANCH   1   2
HETATM    2  C5  UNL     1     -34.574   6.566   3.258  1.00 20.00     0.033 C 
BRANCH   2   3
HETATM    3  C2  UNL     1     -34.675   5.274   4.033  1.00 20.00    -0.093 C 
HETATM    4  C1  UNL     1     -35.641   5.077   4.945  1.00 20.00     0.014 C 
HETATM    5  C3  UNL     1     -33.627   4.231   3.768  1.00 20.00     0.042 C 
ENDBRANCH   2   3
ENDBRANCH   1   2
BRANCH   1   6
HETATM    6  C8  UNL     1     -32.462   8.012   3.242  1.00 20.00     0.020 C 
BRANCH   6   7
HETATM    7  C9  UNL     1     -32.516   7.764   1.724  1.00 20.00     0.082 C 
HETATM    8 CL10 UNL     1     -31.906   6.122   1.345  1.00 20.00    -0.125 Cl
BRANCH   7   9
HETATM    9  C6  UNL     1     -31.698   8.826   0.973  1.00 20.00     0.016 C 
HETATM   10  C4  UNL     1     -32.556   9.842   0.229  1.00 20.00     0.006 C 
ENDBRANCH   7   9
ENDBRANCH   6   7
ENDBRANCH   1   6
TORSDOF 5
ENDMDL
MODEL 8
REMARK VINA RESULT:      -1.6      0.961      1.121
REMARK  5 active torsions:
REMARK  status: ('A' for Active; 'I' for Inactive)
REMARK    1  A    between atoms: C2_2  and  C5_5 
REMARK    2  A    between atoms: C5_5  and  C7_7 
REMARK    3  A    between atoms: C6_6  and  C9_9 
REMARK    4  A    between atoms: C7_7  and  C8_8 
REMARK    5  A    between atoms: C8_8  and  C9_9 
ROOT
HETATM    1  C7  UNL     1     -32.187   7.977   2.119  1.00 20.00     0.006 C 
ENDROOT
BRANCH   1   2
HETATM    2  C5  UNL     1     -31.601   8.621   0.856  1.00 20.00     0.033 C 
BRANCH   2   3
HETATM    3  C2  UNL     1     -32.395   9.788   0.318  1.00 20.00    -0.093 C 
HETATM    4  C1  UNL     1     -32.864   9.797  -0.940  1.00 20.00     0.014 C 
HETATM    5  C3  UNL     1     -32.607  10.955   1.239  1.00 20.00     0.042 C 
ENDBRANCH   2   3
ENDBRANCH   1   2
BRANCH   1   6
HETATM    6  C8  UNL     1     -32.751   6.571   1.869  1.00 20.00     0.020 C 
BRANCH   6   7
HETATM    7  C9  UNL     1     -33.944   6.223   2.776  1.00 20.00     0.082 C 
HETATM    8 CL10 UNL     1     -34.169   7.496   4.017  1.00 20.00    -0.125 Cl
BRANCH   7   9
HETATM    9  C6  UNL     1     -33.734   4.855   3.444  1.00 20.00     0.016 C 
HETATM   10  C4  UNL     1     -34.746   4.551   4.542  1.00 20.00     0.006 C 
ENDBRANCH   7   9
ENDBRANCH   6   7
ENDBRANCH   1   6
TORSDOF 5
ENDMDL
MODEL 9
REMARK VINA RESULT:      -1.4      1.698      1.904
REMARK  5 active torsions:
REMARK  status: ('A' for Active; 'I' for Inactive)
REMARK    1  A    between atoms: C2_2  and  C5_5 
REMARK    2  A    between atoms: C5_5  and  C7_7 
REMARK    3  A    between atoms: C6_6  and  C9_9 
REMARK    4  A    between atoms: C7_7  and  C8_8 
REMARK    5  A    between atoms: C8_8  and  C9_9 
ROOT
HETATM    1  C7  UNL     1     -32.012   8.313   2.436  1.00 20.00     0.006 C 
ENDROOT
BRANCH   1   2
HETATM    2  C5  UNL     1     -31.719   8.535   0.947  1.00 20.00     0.033 C 
BRANCH   2   3
HETATM    3  C2  UNL     1     -32.402   9.740   0.344  1.00 20.00    -0.093 C 
HETATM    4  C1  UNL     1     -32.733   9.782  -0.957  1.00 20.00     0.014 C 
HETATM    5  C3  UNL     1     -32.664  10.907   1.254  1.00 20.00     0.042 C 
ENDBRANCH   2   3
ENDBRANCH   1   2
BRANCH   1   6
HETATM    6  C8  UNL     1     -33.312   7.534   2.682  1.00 20.00     0.020 C 
BRANCH   6   7
HETATM    7  C9  UNL     1     -33.104   6.011   2.755  1.00 20.00     0.082 C 
HETATM    8 CL10 UNL     1     -32.983   5.324   1.104  1.00 20.00    -0.125 Cl
BRANCH   7   9
HETATM    9  C6  UNL     1     -34.251   5.344   3.530  1.00 20.00     0.016 C 
HETATM   10  C4  UNL     1     -35.319   6.324   4.001  1.00 20.00     0.006 C 
ENDBRANCH   7   9
ENDBRANCH   6   7
ENDBRANCH   1   6
TORSDOF 5
ENDMDL
