MODEL 1
REMARK VINA RESULT:       0.4      0.000      0.000
REMARK  2 active torsions:
REMARK  status: ('A' for Active; 'I' for Inactive)
REMARK    1  A    between atoms: C2_2  and  C10_10 
REMARK    2  A    between atoms: C7_7  and  C10_10 
ROOT
HETATM    1  C3  UNL     1     -32.348   5.595   1.307  1.00 20.00     0.002 C 
HETATM    2  C4  UNL     1     -31.497   6.820   1.641  1.00 20.00     0.005 C 
HETATM    3  C5  UNL     1     -33.287   5.231   2.454  1.00 20.00     0.016 C 
HETATM    4  C6  UNL     1     -33.293   7.643   3.220  1.00 20.00     0.020 C 
HETATM    5  C7  UNL     1     -32.328   8.032   2.089  1.00 20.00    -0.010 C 
HETATM    6  C8  UNL     1     -34.142   6.423   2.871  1.00 20.00     0.058 C 
HETATM    7 BR11 UNL     1     -35.222   5.926   4.425  1.00 20.00    -0.091 Br
ENDROOT
BRANCH   5   8
HETATM    8  C10 UNL     1     -33.067   8.674   0.912  1.00 20.00     0.037 C 
BRANCH   8   9
HETATM    9  C2  UNL     1     -32.304   9.825   0.309  1.00 20.00    -0.093 C 
HETATM   10  C1  UNL     1     -32.557  11.095   0.664  1.00 20.00     0.014 C 
HETATM   11  C9  UNL     1     -31.277   9.495  -0.734  1.00 20.00     0.042 C 
ENDBRANCH   8   9
ENDBRANCH   5   8
TORSDOF 2
ENDMDL
MODEL 2
REMARK VINA RESULT:       1.1      1.006      1.244
REMARK  2 active torsions:
REMARK  status: ('A' for Active; 'I' for Inactive)
REMARK    1  A    between atoms: C2_2  and  C10_10 
REMARK    2  A    between atoms: C7_7  and  C10_10 
ROOT
HETATM    1  C3  UNL     1     -33.480   5.483   1.926  1.00 20.00     0.002 C 
HETATM    2  C4  UNL     1     -32.117   5.946   1.412  1.00 20.00     0.005 C 
HETATM    3  C5  UNL     1     -33.761   6.009   3.332  1.00 20.00     0.016 C 
HETATM    4  C6  UNL     1     -32.246   7.989   2.896  1.00 20.00     0.020 C 
HETATM    5  C7  UNL     1     -31.927   7.469   1.486  1.00 20.00    -0.010 C 
HETATM    6  C8  UNL     1     -33.613   7.526   3.395  1.00 20.00     0.058 C 
HETATM    7 BR11 UNL     1     -33.855   8.117   5.245  1.00 20.00    -0.091 Br
ENDROOT
BRANCH   5   8
HETATM    8  C10 UNL     1     -32.750   8.193   0.417  1.00 20.00     0.037 C 
BRANCH   8   9
HETATM    9  C2  UNL     1     -32.142   9.512   0.016  1.00 20.00    -0.093 C 
HETATM   10  C1  UNL     1     -32.730  10.677   0.332  1.00 20.00     0.014 C 
HETATM   11  C9  UNL     1     -30.876   9.468  -0.787  1.00 20.00     0.042 C 
ENDBRANCH   8   9
ENDBRANCH   5   8
TORSDOF 2
ENDMDL
MODEL 3
REMARK VINA RESULT:       1.1      1.696      3.102
REMARK  2 active torsions:
REMARK  status: ('A' for Active; 'I' for Inactive)
REMARK    1  A    between atoms: C2_2  and  C10_10 
REMARK    2  A    between atoms: C7_7  and  C10_10 
ROOT
HETATM    1  C3  UNL     1     -35.442   6.382   4.386  1.00 20.00     0.002 C 
HETATM    2  C4  UNL     1     -35.289   6.756   2.912  1.00 20.00     0.005 C 
HETATM    3  C5  UNL     1     -35.023   4.938   4.649  1.00 20.00     0.016 C 
HETATM    4  C6  UNL     1     -33.460   5.028   2.660  1.00 20.00     0.020 C 
HETATM    5  C7  UNL     1     -33.884   6.474   2.359  1.00 20.00    -0.010 C 
HETATM    6  C8  UNL     1     -33.612   4.669   4.136  1.00 20.00     0.058 C 
HETATM    7 BR11 UNL     1     -33.189   2.774   4.383  1.00 20.00    -0.091 Br
ENDROOT
BRANCH   5   8
HETATM    8  C10 UNL     1     -32.858   7.483   2.882  1.00 20.00     0.037 C 
BRANCH   8   9
HETATM    9  C2  UNL     1     -32.057   8.119   1.776  1.00 20.00    -0.093 C 
HETATM   10  C1  UNL     1     -30.848   7.648   1.429  1.00 20.00     0.014 C 
HETATM   11  C9  UNL     1     -32.648   9.325   1.107  1.00 20.00     0.042 C 
ENDBRANCH   8   9
ENDBRANCH   5   8
TORSDOF 2
ENDMDL
MODEL 4
REMARK VINA RESULT:       2.1      2.165      4.949
REMARK  2 active torsions:
REMARK  status: ('A' for Active; 'I' for Inactive)
REMARK    1  A    between atoms: C2_2  and  C10_10 
REMARK    2  A    between atoms: C7_7  and  C10_10 
ROOT
HETATM    1  C3  UNL     1     -31.860   7.019   1.562  1.00 20.00     0.002 C 
HETATM    2  C4  UNL     1     -33.070   6.187   1.138  1.00 20.00     0.005 C 
HETATM    3  C5  UNL     1     -32.233   8.063   2.611  1.00 20.00     0.016 C 
HETATM    4  C6  UNL     1     -34.149   6.603   3.386  1.00 20.00     0.020 C 
HETATM    5  C7  UNL     1     -33.810   5.547   2.322  1.00 20.00    -0.010 C 
HETATM    6  C8  UNL     1     -32.931   7.423   3.806  1.00 20.00     0.058 C 
HETATM    7 BR11 UNL     1     -33.498   8.827   5.046  1.00 20.00    -0.091 Br
ENDROOT
BRANCH   5   8
HETATM    8  C10 UNL     1     -33.020   4.379   2.918  1.00 20.00     0.037 C 
BRANCH   8   9
HETATM    9  C2  UNL     1     -33.664   3.820   4.160  1.00 20.00    -0.093 C 
HETATM   10  C1  UNL     1     -33.125   2.782   4.820  1.00 20.00     0.014 C 
HETATM   11  C9  UNL     1     -34.955   4.444   4.603  1.00 20.00     0.042 C 
ENDBRANCH   8   9
ENDBRANCH   5   8
TORSDOF 2
ENDMDL
MODEL 5
REMARK VINA RESULT:       2.2      2.404      4.763
REMARK  2 active torsions:
REMARK  status: ('A' for Active; 'I' for Inactive)
REMARK    1  A    between atoms: C2_2  and  C10_10 
REMARK    2  A    between atoms: C7_7  and  C10_10 
ROOT
HETATM    1  C3  UNL     1     -31.113   6.173   1.457  1.00 20.00     0.002 C 
HETATM    2  C4  UNL     1     -32.443   5.427   1.357  1.00 20.00     0.005 C 
HETATM    3  C5  UNL     1     -31.214   7.585   0.885  1.00 20.00     0.016 C 
HETATM    4  C6  UNL     1     -33.687   7.628   1.420  1.00 20.00     0.020 C 
HETATM    5  C7  UNL     1     -33.618   6.198   1.978  1.00 20.00    -0.010 C 
HETATM    6  C8  UNL     1     -32.355   8.364   1.531  1.00 20.00     0.058 C 
HETATM    7 BR11 UNL     1     -32.512  10.111   0.662  1.00 20.00    -0.091 Br
ENDROOT
BRANCH   5   8
HETATM    8  C10 UNL     1     -33.551   6.192   3.508  1.00 20.00     0.037 C 
BRANCH   8   9
HETATM    9  C2  UNL     1     -34.397   5.105   4.119  1.00 20.00    -0.093 C 
HETATM   10  C1  UNL     1     -35.646   5.347   4.546  1.00 20.00     0.014 C 
HETATM   11  C9  UNL     1     -33.769   3.750   4.268  1.00 20.00     0.042 C 
ENDBRANCH   8   9
ENDBRANCH   5   8
TORSDOF 2
ENDMDL
MODEL 6
REMARK VINA RESULT:       2.3      2.462      4.252
REMARK  2 active torsions:
REMARK  status: ('A' for Active; 'I' for Inactive)
REMARK    1  A    between atoms: C2_2  and  C10_10 
REMARK    2  A    between atoms: C7_7  and  C10_10 
ROOT
HETATM    1  C3  UNL     1     -30.994   5.835   1.335  1.00 20.00     0.002 C 
HETATM    2  C4  UNL     1     -32.313   5.082   1.166  1.00 20.00     0.005 C 
HETATM    3  C5  UNL     1     -31.099   7.277   0.847  1.00 20.00     0.016 C 
HETATM    4  C6  UNL     1     -33.582   7.263   1.335  1.00 20.00     0.020 C 
HETATM    5  C7  UNL     1     -33.508   5.803   1.808  1.00 20.00    -0.010 C 
HETATM    6  C8  UNL     1     -32.260   8.005   1.516  1.00 20.00     0.058 C 
HETATM    7 BR11 UNL     1     -32.420   9.799   0.750  1.00 20.00    -0.091 Br
ENDROOT
BRANCH   5   8
HETATM    8  C10 UNL     1     -33.470   5.707   3.336  1.00 20.00     0.037 C 
BRANCH   8   9
HETATM    9  C2  UNL     1     -34.488   6.600   3.997  1.00 20.00    -0.093 C 
HETATM   10  C1  UNL     1     -35.801   6.330   3.933  1.00 20.00     0.014 C 
HETATM   11  C9  UNL     1     -33.974   7.826   4.693  1.00 20.00     0.042 C 
ENDBRANCH   8   9
ENDBRANCH   5   8
TORSDOF 2
ENDMDL
MODEL 7
REMARK VINA RESULT:       2.6      2.185      4.361
REMARK  2 active torsions:
REMARK  status: ('A' for Active; 'I' for Inactive)
REMARK    1  A    between atoms: C2_2  and  C10_10 
REMARK    2  A    between atoms: C7_7  and  C10_10 
ROOT
HETATM    1  C3  UNL     1     -32.129   8.635   1.935  1.00 20.00     0.002 C 
HETATM    2  C4  UNL     1     -32.097   8.336   3.434  1.00 20.00     0.005 C 
HETATM    3  C5  UNL     1     -31.901   7.376   1.103  1.00 20.00     0.016 C 
HETATM    4  C6  UNL     1     -32.843   5.963   2.980  1.00 20.00     0.020 C 
HETATM    5  C7  UNL     1     -33.059   7.213   3.848  1.00 20.00    -0.010 C 
HETATM    6  C8  UNL     1     -32.884   6.274   1.486  1.00 20.00     0.058 C 
HETATM    7 BR11 UNL     1     -32.453   4.652   0.480  1.00 20.00    -0.091 Br
ENDROOT
BRANCH   5   8
HETATM    8  C10 UNL     1     -34.518   7.678   3.814  1.00 20.00     0.037 C 
BRANCH   8   9
HETATM    9  C2  UNL     1     -35.490   6.527   3.788  1.00 20.00    -0.093 C 
HETATM   10  C1  UNL     1     -35.278   5.416   4.510  1.00 20.00     0.014 C 
HETATM   11  C9  UNL     1     -36.685   6.660   2.889  1.00 20.00     0.042 C 
ENDBRANCH   8   9
ENDBRANCH   5   8
TORSDOF 2
ENDMDL
MODEL 8
REMARK VINA RESULT:       2.9      1.452      2.363
REMARK  2 active torsions:
REMARK  status: ('A' for Active; 'I' for Inactive)
REMARK    1  A    between atoms: C2_2  and  C10_10 
REMARK    2  A    between atoms: C7_7  and  C10_10 
ROOT
HETATM    1  C3  UNL     1     -34.317   7.785   4.395  1.00 20.00     0.002 C 
HETATM    2  C4  UNL     1     -34.571   8.066   2.914  1.00 20.00     0.005 C 
HETATM    3  C5  UNL     1     -34.355   6.289   4.699  1.00 20.00     0.016 C 
HETATM    4  C6  UNL     1     -33.659   5.784   2.319  1.00 20.00     0.020 C 
HETATM    5  C7  UNL     1     -33.638   7.283   1.979  1.00 20.00    -0.010 C 
HETATM    6  C8  UNL     1     -33.397   5.516   3.799  1.00 20.00     0.058 C 
HETATM    7 BR11 UNL     1     -33.592   3.601   4.149  1.00 20.00    -0.091 Br
ENDROOT
BRANCH   5   8
HETATM    8  C10 UNL     1     -32.214   7.847   2.002  1.00 20.00     0.037 C 
BRANCH   8   9
HETATM    9  C2  UNL     1     -32.000   8.915   0.961  1.00 20.00    -0.093 C 
HETATM   10  C1  UNL     1     -32.587  10.118   1.062  1.00 20.00     0.014 C 
HETATM   11  C9  UNL     1     -31.136   8.563  -0.215  1.00 20.00     0.042 C 
ENDBRANCH   8   9
ENDBRANCH   5   8
TORSDOF 2
ENDMDL
MODEL 9
REMARK VINA RESULT:       3.0      2.473      4.992
REMARK  2 active torsions:
REMARK  status: ('A' for Active; 'I' for Inactive)
REMARK    1  A    between atoms: C2_2  and  C10_10 
REMARK    2  A    between atoms: C7_7  and  C10_10 
ROOT
HETATM    1  C3  UNL     1     -33.830   8.722   3.445  1.00 20.00     0.002 C 
HETATM    2  C4  UNL     1     -32.879   7.619   3.909  1.00 20.00     0.005 C 
HETATM    3  C5  UNL     1     -33.272   9.480   2.243  1.00 20.00     0.016 C 
HETATM    4  C6  UNL     1     -31.945   7.435   1.566  1.00 20.00     0.020 C 
HETATM    5  C7  UNL     1     -32.472   6.657   2.782  1.00 20.00    -0.010 C 
HETATM    6  C8  UNL     1     -32.907   8.529   1.109  1.00 20.00     0.058 C 
HETATM    7 BR11 UNL     1     -32.078   9.548  -0.341  1.00 20.00    -0.091 Br
ENDROOT
BRANCH   5   8
HETATM    8  C10 UNL     1     -33.621   5.720   2.398  1.00 20.00     0.037 C 
BRANCH   8   9
HETATM    9  C2  UNL     1     -34.231   5.035   3.593  1.00 20.00    -0.093 C 
HETATM   10  C1  UNL     1     -33.742   3.876   4.060  1.00 20.00     0.014 C 
HETATM   11  C9  UNL     1     -35.435   5.683   4.213  1.00 20.00     0.042 C 
ENDBRANCH   8   9
ENDBRANCH   5   8
TORSDOF 2
ENDMDL
