MODEL 1
REMARK VINA RESULT:       0.2      0.000      0.000
REMARK  2 active torsions:
REMARK  status: ('A' for Active; 'I' for Inactive)
REMARK    1  A    between atoms: C2_2  and  C9_9 
REMARK    2  A    between atoms: C6_6  and  C9_9 
ROOT
HETATM    1  C3  UNL     1     -31.944   6.413   1.291  1.00 20.00     0.006 C 
HETATM    2  C4  UNL     1     -31.948   7.469   0.193  1.00 20.00     0.016 C 
HETATM    3  C5  UNL     1     -31.715   8.524   2.399  1.00 20.00     0.020 C 
HETATM    4  C6  UNL     1     -32.406   7.163   2.538  1.00 20.00    -0.010 C 
HETATM    5  C7  UNL     1     -31.551   8.763   0.898  1.00 20.00     0.058 C 
HETATM    6 BR10 UNL     1     -32.670  10.239   0.300  1.00 20.00    -0.091 Br
ENDROOT
BRANCH   4   7
HETATM    7  C9  UNL     1     -33.926   7.290   2.613  1.00 20.00     0.037 C 
BRANCH   7   8
HETATM    8  C2  UNL     1     -34.469   7.028   3.998  1.00 20.00    -0.093 C 
HETATM    9  C1  UNL     1     -35.372   6.062   4.227  1.00 20.00     0.014 C 
HETATM   10  C8  UNL     1     -33.979   7.919   5.103  1.00 20.00     0.042 C 
ENDBRANCH   7   8
ENDBRANCH   4   7
TORSDOF 2
ENDMDL
MODEL 2
REMARK VINA RESULT:       0.4      0.957      1.363
REMARK  2 active torsions:
REMARK  status: ('A' for Active; 'I' for Inactive)
REMARK    1  A    between atoms: C2_2  and  C9_9 
REMARK    2  A    between atoms: C6_6  and  C9_9 
ROOT
HETATM    1  C3  UNL     1     -32.868   6.082   1.881  1.00 20.00     0.006 C 
HETATM    2  C4  UNL     1     -32.843   7.053   0.706  1.00 20.00     0.016 C 
HETATM    3  C5  UNL     1     -31.761   8.054   2.672  1.00 20.00     0.020 C 
HETATM    4  C6  UNL     1     -32.760   6.979   3.113  1.00 20.00    -0.010 C 
HETATM    5  C7  UNL     1     -31.921   8.183   1.156  1.00 20.00     0.058 C 
HETATM    6 BR10 UNL     1     -32.676   9.912   0.679  1.00 20.00    -0.091 Br
ENDROOT
BRANCH   4   7
HETATM    7  C9  UNL     1     -34.106   7.570   3.524  1.00 20.00     0.037 C 
BRANCH   7   8
HETATM    8  C2  UNL     1     -35.178   6.522   3.702  1.00 20.00    -0.093 C 
HETATM    9  C1  UNL     1     -34.960   5.411   4.424  1.00 20.00     0.014 C 
HETATM   10  C8  UNL     1     -36.488   6.760   3.008  1.00 20.00     0.042 C 
ENDBRANCH   7   8
ENDBRANCH   4   7
TORSDOF 2
ENDMDL
MODEL 3
REMARK VINA RESULT:       0.6      2.210      4.419
REMARK  2 active torsions:
REMARK  status: ('A' for Active; 'I' for Inactive)
REMARK    1  A    between atoms: C2_2  and  C9_9 
REMARK    2  A    between atoms: C6_6  and  C9_9 
ROOT
HETATM    1  C3  UNL     1     -31.923   8.228   3.271  1.00 20.00     0.006 C 
HETATM    2  C4  UNL     1     -33.162   7.937   4.111  1.00 20.00     0.016 C 
HETATM    3  C5  UNL     1     -32.955   6.301   2.290  1.00 20.00     0.020 C 
HETATM    4  C6  UNL     1     -32.233   7.599   1.914  1.00 20.00    -0.010 C 
HETATM    5  C7  UNL     1     -33.650   6.576   3.625  1.00 20.00     0.058 C 
HETATM    6 BR10 UNL     1     -35.585   6.578   3.416  1.00 20.00    -0.091 Br
ENDROOT
BRANCH   4   7
HETATM    7  C9  UNL     1     -33.089   8.506   1.033  1.00 20.00     0.037 C 
BRANCH   7   8
HETATM    8  C2  UNL     1     -32.278   9.543   0.295  1.00 20.00    -0.093 C 
HETATM    9  C1  UNL     1     -32.670  10.825   0.230  1.00 20.00     0.014 C 
HETATM   10  C8  UNL     1     -31.028   9.072  -0.392  1.00 20.00     0.042 C 
ENDBRANCH   7   8
ENDBRANCH   4   7
TORSDOF 2
ENDMDL
MODEL 4
REMARK VINA RESULT:       1.1      2.903      3.908
REMARK  2 active torsions:
REMARK  status: ('A' for Active; 'I' for Inactive)
REMARK    1  A    between atoms: C2_2  and  C9_9 
REMARK    2  A    between atoms: C6_6  and  C9_9 
ROOT
HETATM    1  C3  UNL     1     -34.870   5.815   4.088  1.00 20.00     0.006 C 
HETATM    2  C4  UNL     1     -34.229   7.157   3.756  1.00 20.00     0.016 C 
HETATM    3  C5  UNL     1     -33.678   5.493   2.035  1.00 20.00     0.020 C 
HETATM    4  C6  UNL     1     -34.001   4.792   3.359  1.00 20.00    -0.010 C 
HETATM    5  C7  UNL     1     -33.696   6.992   2.335  1.00 20.00     0.058 C 
HETATM    6 BR10 UNL     1     -31.913   7.757   2.181  1.00 20.00    -0.091 Br
ENDROOT
BRANCH   4   7
HETATM    7  C9  UNL     1     -32.744   4.428   4.146  1.00 20.00     0.037 C 
BRANCH   7   8
HETATM    8  C2  UNL     1     -32.908   3.173   4.967  1.00 20.00    -0.093 C 
HETATM    9  C1  UNL     1     -33.413   2.048   4.437  1.00 20.00     0.014 C 
HETATM   10  C8  UNL     1     -32.514   3.247   6.415  1.00 20.00     0.042 C 
ENDBRANCH   7   8
ENDBRANCH   4   7
TORSDOF 2
ENDMDL
MODEL 5
REMARK VINA RESULT:       1.1      2.197      4.309
REMARK  2 active torsions:
REMARK  status: ('A' for Active; 'I' for Inactive)
REMARK    1  A    between atoms: C2_2  and  C9_9 
REMARK    2  A    between atoms: C6_6  and  C9_9 
ROOT
HETATM    1  C3  UNL     1     -33.109   7.615   3.334  1.00 20.00     0.006 C 
HETATM    2  C4  UNL     1     -33.755   6.312   2.879  1.00 20.00     0.016 C 
HETATM    3  C5  UNL     1     -31.711   6.754   1.590  1.00 20.00     0.020 C 
HETATM    4  C6  UNL     1     -32.286   8.068   2.130  1.00 20.00    -0.010 C 
HETATM    5  C7  UNL     1     -32.722   5.667   1.959  1.00 20.00     0.058 C 
HETATM    6 BR10 UNL     1     -33.579   4.944   0.369  1.00 20.00    -0.091 Br
ENDROOT
BRANCH   4   7
HETATM    7  C9  UNL     1     -33.127   8.804   1.091  1.00 20.00     0.037 C 
BRANCH   7   8
HETATM    8  C2  UNL     1     -32.352   9.871   0.356  1.00 20.00    -0.093 C 
HETATM    9  C1  UNL     1     -32.491  11.172   0.655  1.00 20.00     0.014 C 
HETATM   10  C8  UNL     1     -31.441   9.415  -0.748  1.00 20.00     0.042 C 
ENDBRANCH   7   8
ENDBRANCH   4   7
TORSDOF 2
ENDMDL
MODEL 6
REMARK VINA RESULT:       1.2      2.210      4.209
REMARK  2 active torsions:
REMARK  status: ('A' for Active; 'I' for Inactive)
REMARK    1  A    between atoms: C2_2  and  C9_9 
REMARK    2  A    between atoms: C6_6  and  C9_9 
ROOT
HETATM    1  C3  UNL     1     -33.074   7.621   3.339  1.00 20.00     0.006 C 
HETATM    2  C4  UNL     1     -33.709   6.313   2.883  1.00 20.00     0.016 C 
HETATM    3  C5  UNL     1     -31.702   6.804   1.554  1.00 20.00     0.020 C 
HETATM    4  C6  UNL     1     -32.285   8.102   2.123  1.00 20.00    -0.010 C 
HETATM    5  C7  UNL     1     -32.686   5.697   1.932  1.00 20.00     0.058 C 
HETATM    6 BR10 UNL     1     -33.568   4.978   0.352  1.00 20.00    -0.091 Br
ENDROOT
BRANCH   4   7
HETATM    7  C9  UNL     1     -33.162   8.837   1.112  1.00 20.00     0.037 C 
BRANCH   7   8
HETATM    8  C2  UNL     1     -32.407   9.887   0.334  1.00 20.00    -0.093 C 
HETATM    9  C1  UNL     1     -31.690   9.574  -0.756  1.00 20.00     0.014 C 
HETATM   10  C8  UNL     1     -32.466  11.296   0.854  1.00 20.00     0.042 C 
ENDBRANCH   7   8
ENDBRANCH   4   7
TORSDOF 2
ENDMDL
MODEL 7
REMARK VINA RESULT:       1.2      0.912      1.305
REMARK  2 active torsions:
REMARK  status: ('A' for Active; 'I' for Inactive)
REMARK    1  A    between atoms: C2_2  and  C9_9 
REMARK    2  A    between atoms: C6_6  and  C9_9 
ROOT
HETATM    1  C3  UNL     1     -31.346   6.685   1.615  1.00 20.00     0.006 C 
HETATM    2  C4  UNL     1     -31.413   7.639   0.428  1.00 20.00     0.016 C 
HETATM    3  C5  UNL     1     -32.181   8.759   2.476  1.00 20.00     0.020 C 
HETATM    4  C6  UNL     1     -32.366   7.244   2.605  1.00 20.00    -0.010 C 
HETATM    5  C7  UNL     1     -31.701   9.005   1.045  1.00 20.00     0.058 C 
HETATM    6 BR10 UNL     1     -33.052   9.951   0.009  1.00 20.00    -0.091 Br
ENDROOT
BRANCH   4   7
HETATM    7  C9  UNL     1     -33.792   6.804   2.284  1.00 20.00     0.037 C 
BRANCH   7   8
HETATM    8  C2  UNL     1     -34.420   5.992   3.392  1.00 20.00    -0.093 C 
HETATM    9  C1  UNL     1     -35.364   6.510   4.193  1.00 20.00     0.014 C 
HETATM   10  C8  UNL     1     -33.916   4.590   3.581  1.00 20.00     0.042 C 
ENDBRANCH   7   8
ENDBRANCH   4   7
TORSDOF 2
ENDMDL
MODEL 8
REMARK VINA RESULT:       1.3      2.106      2.740
REMARK  2 active torsions:
REMARK  status: ('A' for Active; 'I' for Inactive)
REMARK    1  A    between atoms: C2_2  and  C9_9 
REMARK    2  A    between atoms: C6_6  and  C9_9 
ROOT
HETATM    1  C3  UNL     1     -32.313   8.429   2.479  1.00 20.00     0.006 C 
HETATM    2  C4  UNL     1     -31.304   7.492   1.826  1.00 20.00     0.016 C 
HETATM    3  C5  UNL     1     -33.594   6.687   1.448  1.00 20.00     0.020 C 
HETATM    4  C6  UNL     1     -33.545   7.555   2.710  1.00 20.00    -0.010 C 
HETATM    5  C7  UNL     1     -32.147   6.547   0.974  1.00 20.00     0.058 C 
HETATM    6 BR10 UNL     1     -31.524   4.713   1.168  1.00 20.00    -0.091 Br
ENDROOT
BRANCH   4   7
HETATM    7  C9  UNL     1     -33.438   6.721   3.984  1.00 20.00     0.037 C 
BRANCH   7   8
HETATM    8  C2  UNL     1     -34.489   5.641   4.068  1.00 20.00    -0.093 C 
HETATM    9  C1  UNL     1     -35.797   5.937   4.123  1.00 20.00     0.014 C 
HETATM   10  C8  UNL     1     -34.006   4.220   4.123  1.00 20.00     0.042 C 
ENDBRANCH   7   8
ENDBRANCH   4   7
TORSDOF 2
ENDMDL
MODEL 9
REMARK VINA RESULT:       1.3      2.202      3.138
REMARK  2 active torsions:
REMARK  status: ('A' for Active; 'I' for Inactive)
REMARK    1  A    between atoms: C2_2  and  C9_9 
REMARK    2  A    between atoms: C6_6  and  C9_9 
ROOT
HETATM    1  C3  UNL     1     -34.271   7.268   3.935  1.00 20.00     0.006 C 
HETATM    2  C4  UNL     1     -33.043   8.127   3.653  1.00 20.00     0.016 C 
HETATM    3  C5  UNL     1     -33.687   6.863   1.647  1.00 20.00     0.020 C 
HETATM    4  C6  UNL     1     -34.189   6.144   2.904  1.00 20.00    -0.010 C 
HETATM    5  C7  UNL     1     -32.850   8.044   2.141  1.00 20.00     0.058 C 
HETATM    6 BR10 UNL     1     -30.969   7.797   1.705  1.00 20.00    -0.091 Br
ENDROOT
BRANCH   4   7
HETATM    7  C9  UNL     1     -33.255   5.018   3.341  1.00 20.00     0.037 C 
BRANCH   7   8
HETATM    8  C2  UNL     1     -33.900   4.069   4.322  1.00 20.00    -0.093 C 
HETATM    9  C1  UNL     1     -35.095   4.333   4.873  1.00 20.00     0.014 C 
HETATM   10  C8  UNL     1     -33.130   2.830   4.680  1.00 20.00     0.042 C 
ENDBRANCH   7   8
ENDBRANCH   4   7
TORSDOF 2
ENDMDL
