MODEL 1
REMARK VINA RESULT:      -2.1      0.000      0.000
REMARK  4 active torsions:
REMARK  status: ('A' for Active; 'I' for Inactive)
REMARK    1  A    between atoms: C2_2  and  C5_5 
REMARK    2  A    between atoms: C5_5  and  C6_6 
REMARK    3  A    between atoms: C6_6  and  C7_7 
REMARK    4  A    between atoms: C7_7  and  C8_8 
ROOT
HETATM    1  C6  UNL     1     -32.708   6.962   1.437  1.00 20.00     0.006 C 
ENDROOT
BRANCH   1   2
HETATM    2  C5  UNL     1     -32.013   8.317   1.626  1.00 20.00     0.033 C 
BRANCH   2   3
HETATM    3  C2  UNL     1     -32.381   9.366   0.602  1.00 20.00    -0.093 C 
HETATM    4  C1  UNL     1     -32.326   9.111  -0.713  1.00 20.00     0.014 C 
HETATM    5  C3  UNL     1     -32.774  10.720   1.120  1.00 20.00     0.042 C 
ENDBRANCH   2   3
ENDBRANCH   1   2
BRANCH   1   6
HETATM    6  C7  UNL     1     -33.146   6.321   2.761  1.00 20.00     0.020 C 
BRANCH   6   7
HETATM    7  C8  UNL     1     -34.225   7.128   3.498  1.00 20.00     0.078 C 
HETATM    8  C4  UNL     1     -35.321   6.215   4.036  1.00 20.00     0.026 C 
HETATM    9 CL9  UNL     1     -33.523   8.051   4.861  1.00 20.00    -0.125 Cl
ENDBRANCH   6   7
ENDBRANCH   1   6
TORSDOF 4
ENDMDL
MODEL 2
REMARK VINA RESULT:      -2.0      1.552      1.582
REMARK  4 active torsions:
REMARK  status: ('A' for Active; 'I' for Inactive)
REMARK    1  A    between atoms: C2_2  and  C5_5 
REMARK    2  A    between atoms: C5_5  and  C6_6 
REMARK    3  A    between atoms: C6_6  and  C7_7 
REMARK    4  A    between atoms: C7_7  and  C8_8 
ROOT
HETATM    1  C6  UNL     1     -32.110   6.754   1.731  1.00 20.00     0.006 C 
ENDROOT
BRANCH   1   2
HETATM    2  C5  UNL     1     -32.321   8.260   1.935  1.00 20.00     0.033 C 
BRANCH   2   3
HETATM    3  C2  UNL     1     -32.044   9.110   0.717  1.00 20.00    -0.093 C 
HETATM    4  C1  UNL     1     -31.155   8.731  -0.213  1.00 20.00     0.014 C 
HETATM    5  C3  UNL     1     -32.779  10.415   0.610  1.00 20.00     0.042 C 
ENDBRANCH   2   3
ENDBRANCH   1   2
BRANCH   1   6
HETATM    6  C7  UNL     1     -33.377   5.928   1.997  1.00 20.00     0.020 C 
BRANCH   6   7
HETATM    7  C8  UNL     1     -33.728   5.820   3.487  1.00 20.00     0.078 C 
HETATM    8  C4  UNL     1     -35.004   6.592   3.807  1.00 20.00     0.026 C 
HETATM    9 CL9  UNL     1     -33.951   4.113   3.975  1.00 20.00    -0.125 Cl
ENDBRANCH   6   7
ENDBRANCH   1   6
TORSDOF 4
ENDMDL
MODEL 3
REMARK VINA RESULT:      -2.0      1.550      1.902
REMARK  4 active torsions:
REMARK  status: ('A' for Active; 'I' for Inactive)
REMARK    1  A    between atoms: C2_2  and  C5_5 
REMARK    2  A    between atoms: C5_5  and  C6_6 
REMARK    3  A    between atoms: C6_6  and  C7_7 
REMARK    4  A    between atoms: C7_7  and  C8_8 
ROOT
HETATM    1  C6  UNL     1     -32.123   6.678   1.615  1.00 20.00     0.006 C 
ENDROOT
BRANCH   1   2
HETATM    2  C5  UNL     1     -32.190   8.171   1.965  1.00 20.00     0.033 C 
BRANCH   2   3
HETATM    3  C2  UNL     1     -32.059   9.105   0.784  1.00 20.00    -0.093 C 
HETATM    4  C1  UNL     1     -32.791  10.225   0.693  1.00 20.00     0.014 C 
HETATM    5  C3  UNL     1     -31.104   8.705  -0.303  1.00 20.00     0.042 C 
ENDBRANCH   2   3
ENDBRANCH   1   2
BRANCH   1   6
HETATM    6  C7  UNL     1     -33.423   5.927   1.936  1.00 20.00     0.020 C 
BRANCH   6   7
HETATM    7  C8  UNL     1     -33.719   5.842   3.440  1.00 20.00     0.078 C 
HETATM    8  C4  UNL     1     -34.973   6.631   3.797  1.00 20.00     0.026 C 
HETATM    9 CL9  UNL     1     -33.939   4.143   3.959  1.00 20.00    -0.125 Cl
ENDBRANCH   6   7
ENDBRANCH   1   6
TORSDOF 4
ENDMDL
MODEL 4
REMARK VINA RESULT:      -2.0      0.060      1.170
REMARK  4 active torsions:
REMARK  status: ('A' for Active; 'I' for Inactive)
REMARK    1  A    between atoms: C2_2  and  C5_5 
REMARK    2  A    between atoms: C5_5  and  C6_6 
REMARK    3  A    between atoms: C6_6  and  C7_7 
REMARK    4  A    between atoms: C7_7  and  C8_8 
ROOT
HETATM    1  C6  UNL     1     -32.720   6.984   1.430  1.00 20.00     0.006 C 
ENDROOT
BRANCH   1   2
HETATM    2  C5  UNL     1     -31.989   8.318   1.637  1.00 20.00     0.033 C 
BRANCH   2   3
HETATM    3  C2  UNL     1     -32.367   9.405   0.658  1.00 20.00    -0.093 C 
HETATM    4  C1  UNL     1     -32.769  10.615   1.076  1.00 20.00     0.014 C 
HETATM    5  C3  UNL     1     -32.310   9.062  -0.803  1.00 20.00     0.042 C 
ENDBRANCH   2   3
ENDBRANCH   1   2
BRANCH   1   6
HETATM    6  C7  UNL     1     -33.153   6.325   2.748  1.00 20.00     0.020 C 
BRANCH   6   7
HETATM    7  C8  UNL     1     -34.241   7.113   3.491  1.00 20.00     0.078 C 
HETATM    8  C4  UNL     1     -35.313   6.179   4.042  1.00 20.00     0.026 C 
HETATM    9 CL9  UNL     1     -33.547   8.054   4.845  1.00 20.00    -0.125 Cl
ENDBRANCH   6   7
ENDBRANCH   1   6
TORSDOF 4
ENDMDL
MODEL 5
REMARK VINA RESULT:      -1.8      1.626      4.425
REMARK  4 active torsions:
REMARK  status: ('A' for Active; 'I' for Inactive)
REMARK    1  A    between atoms: C2_2  and  C5_5 
REMARK    2  A    between atoms: C5_5  and  C6_6 
REMARK    3  A    between atoms: C6_6  and  C7_7 
REMARK    4  A    between atoms: C7_7  and  C8_8 
ROOT
HETATM    1  C6  UNL     1     -32.250   8.003   2.322  1.00 20.00     0.006 C 
ENDROOT
BRANCH   1   2
HETATM    2  C5  UNL     1     -33.284   6.884   2.510  1.00 20.00     0.033 C 
BRANCH   2   3
HETATM    3  C2  UNL     1     -34.145   7.018   3.744  1.00 20.00    -0.093 C 
HETATM    4  C1  UNL     1     -35.247   6.272   3.913  1.00 20.00     0.014 C 
HETATM    5  C3  UNL     1     -33.735   8.048   4.757  1.00 20.00     0.042 C 
ENDBRANCH   2   3
ENDBRANCH   1   2
BRANCH   1   6
HETATM    6  C7  UNL     1     -31.834   8.197   0.857  1.00 20.00     0.020 C 
BRANCH   6   7
HETATM    7  C8  UNL     1     -31.992   9.644   0.368  1.00 20.00     0.078 C 
HETATM    8  C4  UNL     1     -32.719   9.694  -0.971  1.00 20.00     0.026 C 
HETATM    9 CL9  UNL     1     -32.900  10.630   1.554  1.00 20.00    -0.125 Cl
ENDBRANCH   6   7
ENDBRANCH   1   6
TORSDOF 4
ENDMDL
MODEL 6
REMARK VINA RESULT:      -1.8      1.656      4.541
REMARK  4 active torsions:
REMARK  status: ('A' for Active; 'I' for Inactive)
REMARK    1  A    between atoms: C2_2  and  C5_5 
REMARK    2  A    between atoms: C5_5  and  C6_6 
REMARK    3  A    between atoms: C6_6  and  C7_7 
REMARK    4  A    between atoms: C7_7  and  C8_8 
ROOT
HETATM    1  C6  UNL     1     -32.211   8.095   2.316  1.00 20.00     0.006 C 
ENDROOT
BRANCH   1   2
HETATM    2  C5  UNL     1     -33.250   6.988   2.539  1.00 20.00     0.033 C 
BRANCH   2   3
HETATM    3  C2  UNL     1     -34.085   7.144   3.788  1.00 20.00    -0.093 C 
HETATM    4  C1  UNL     1     -33.761   8.032   4.740  1.00 20.00     0.014 C 
HETATM    5  C3  UNL     1     -35.272   6.236   3.937  1.00 20.00     0.042 C 
ENDBRANCH   2   3
ENDBRANCH   1   2
BRANCH   1   6
HETATM    6  C7  UNL     1     -31.814   8.260   0.843  1.00 20.00     0.020 C 
BRANCH   6   7
HETATM    7  C8  UNL     1     -31.986   9.695   0.325  1.00 20.00     0.078 C 
HETATM    8  C4  UNL     1     -32.736   9.712  -1.003  1.00 20.00     0.026 C 
HETATM    9 CL9  UNL     1     -32.879  10.703   1.504  1.00 20.00    -0.125 Cl
ENDBRANCH   6   7
ENDBRANCH   1   6
TORSDOF 4
ENDMDL
MODEL 7
REMARK VINA RESULT:      -1.7      2.231      4.715
REMARK  4 active torsions:
REMARK  status: ('A' for Active; 'I' for Inactive)
REMARK    1  A    between atoms: C2_2  and  C5_5 
REMARK    2  A    between atoms: C5_5  and  C6_6 
REMARK    3  A    between atoms: C6_6  and  C7_7 
REMARK    4  A    between atoms: C7_7  and  C8_8 
ROOT
HETATM    1  C6  UNL     1     -32.020   6.850   1.861  1.00 20.00     0.006 C 
ENDROOT
BRANCH   1   2
HETATM    2  C5  UNL     1     -33.449   6.294   1.929  1.00 20.00     0.033 C 
BRANCH   2   3
HETATM    3  C2  UNL     1     -34.024   6.194   3.323  1.00 20.00    -0.093 C 
HETATM    4  C1  UNL     1     -34.328   7.289   4.035  1.00 20.00     0.014 C 
HETATM    5  C3  UNL     1     -34.204   4.816   3.892  1.00 20.00     0.042 C 
ENDBRANCH   2   3
ENDBRANCH   1   2
BRANCH   1   6
HETATM    6  C7  UNL     1     -31.972   8.383   1.818  1.00 20.00     0.020 C 
BRANCH   6   7
HETATM    7  C8  UNL     1     -32.241   8.959   0.420  1.00 20.00     0.078 C 
HETATM    8  C4  UNL     1     -32.675  10.419   0.503  1.00 20.00     0.026 C 
HETATM    9 CL9  UNL     1     -30.784   8.851  -0.613  1.00 20.00    -0.125 Cl
ENDBRANCH   6   7
ENDBRANCH   1   6
TORSDOF 4
ENDMDL
MODEL 8
REMARK VINA RESULT:      -1.5      2.195      4.457
REMARK  4 active torsions:
REMARK  status: ('A' for Active; 'I' for Inactive)
REMARK    1  A    between atoms: C2_2  and  C5_5 
REMARK    2  A    between atoms: C5_5  and  C6_6 
REMARK    3  A    between atoms: C6_6  and  C7_7 
REMARK    4  A    between atoms: C7_7  and  C8_8 
ROOT
HETATM    1  C6  UNL     1     -32.304   5.605   1.704  1.00 20.00     0.006 C 
ENDROOT
BRANCH   1   2
HETATM    2  C5  UNL     1     -33.811   5.770   1.943  1.00 20.00     0.033 C 
BRANCH   2   3
HETATM    3  C2  UNL     1     -34.246   5.609   3.381  1.00 20.00    -0.093 C 
HETATM    4  C1  UNL     1     -34.802   6.622   4.061  1.00 20.00     0.014 C 
HETATM    5  C3  UNL     1     -33.993   4.278   4.028  1.00 20.00     0.042 C 
ENDBRANCH   2   3
ENDBRANCH   1   2
BRANCH   1   6
HETATM    6  C7  UNL     1     -31.622   6.902   1.247  1.00 20.00     0.020 C 
BRANCH   6   7
HETATM    7  C8  UNL     1     -32.341   8.168   1.731  1.00 20.00     0.078 C 
HETATM    8  C4  UNL     1     -31.748   8.667   3.045  1.00 20.00     0.026 C 
HETATM    9 CL9  UNL     1     -32.232   9.478   0.516  1.00 20.00    -0.125 Cl
ENDBRANCH   6   7
ENDBRANCH   1   6
TORSDOF 4
ENDMDL
MODEL 9
REMARK VINA RESULT:      -1.4      1.759      4.900
REMARK  4 active torsions:
REMARK  status: ('A' for Active; 'I' for Inactive)
REMARK    1  A    between atoms: C2_2  and  C5_5 
REMARK    2  A    between atoms: C5_5  and  C6_6 
REMARK    3  A    between atoms: C6_6  and  C7_7 
REMARK    4  A    between atoms: C7_7  and  C8_8 
ROOT
HETATM    1  C6  UNL     1     -33.414   6.131   2.300  1.00 20.00     0.006 C 
ENDROOT
BRANCH   1   2
HETATM    2  C5  UNL     1     -33.191   4.668   2.708  1.00 20.00     0.033 C 
BRANCH   2   3
HETATM    3  C2  UNL     1     -33.889   4.253   3.983  1.00 20.00    -0.093 C 
HETATM    4  C1  UNL     1     -33.494   3.176   4.678  1.00 20.00     0.014 C 
HETATM    5  C3  UNL     1     -35.067   5.075   4.418  1.00 20.00     0.042 C 
ENDBRANCH   2   3
ENDBRANCH   1   2
BRANCH   1   6
HETATM    6  C7  UNL     1     -32.341   6.655   1.335  1.00 20.00     0.020 C 
BRANCH   6   7
HETATM    7  C8  UNL     1     -31.767   8.018   1.750  1.00 20.00     0.078 C 
HETATM    8  C4  UNL     1     -32.249   9.123   0.816  1.00 20.00     0.026 C 
HETATM    9 CL9  UNL     1     -32.239   8.434   3.425  1.00 20.00    -0.125 Cl
ENDBRANCH   6   7
ENDBRANCH   1   6
TORSDOF 4
ENDMDL
