MODEL 1
REMARK VINA RESULT:       0.1      0.000      0.000
REMARK  2 active torsions:
REMARK  status: ('A' for Active; 'I' for Inactive)
REMARK    1  A    between atoms: C1_1  and  C7_7 
REMARK    2  A    between atoms: C7_7  and  O11_11 
ROOT
HETATM    1  C3  UNL     1     -34.288   7.111   3.626  1.00 20.00     0.029 C 
HETATM    2  C4  UNL     1     -32.984   7.873   3.844  1.00 20.00     0.046 C 
HETATM    3  C5  UNL     1     -34.021   5.795   2.907  1.00 20.00     0.167 C 
HETATM    4  C6  UNL     1     -32.052   6.620   1.875  1.00 20.00     0.209 C 
HETATM    5  C7  UNL     1     -32.170   7.994   2.547  1.00 20.00     0.097 C 
HETATM    6  O10 UNL     1     -33.332   6.018   1.677  1.00 20.00    -0.388 OA
ENDROOT
BRANCH   5   7
HETATM    7  C1  UNL     1     -32.778   8.997   1.609  1.00 20.00     0.015 C 
HETATM    8  C2  UNL     1     -32.306   9.399   0.414  1.00 20.00    -0.088 C 
HETATM    9  C8  UNL     1     -33.042  10.421  -0.409  1.00 20.00     0.042 C 
HETATM   10  C9  UNL     1     -31.035   8.884  -0.199  1.00 20.00     0.042 C 
ENDBRANCH   5   7
BRANCH   5  11
HETATM   11  O11 UNL     1     -30.862   8.472   2.861  1.00 20.00    -0.384 OA
HETATM   12  H27 UNL     1     -30.929   8.902   3.726  1.00 20.00     0.211 HD
ENDBRANCH   5  11
TORSDOF 2
ENDMDL
MODEL 2
REMARK VINA RESULT:       1.4      1.875      4.840
REMARK  2 active torsions:
REMARK  status: ('A' for Active; 'I' for Inactive)
REMARK    1  A    between atoms: C1_1  and  C7_7 
REMARK    2  A    between atoms: C7_7  and  O11_11 
ROOT
HETATM    1  C3  UNL     1     -32.103   8.088   3.668  1.00 20.00     0.029 C 
HETATM    2  C4  UNL     1     -33.573   7.738   3.888  1.00 20.00     0.046 C 
HETATM    3  C5  UNL     1     -31.821   8.285   2.184  1.00 20.00     0.167 C 
HETATM    4  C6  UNL     1     -33.602   6.862   1.533  1.00 20.00     0.209 C 
HETATM    5  C7  UNL     1     -34.026   6.584   2.981  1.00 20.00     0.097 C 
HETATM    6  O10 UNL     1     -32.202   7.133   1.436  1.00 20.00    -0.388 OA
ENDROOT
BRANCH   5   7
HETATM    7  C1  UNL     1     -33.481   5.267   3.453  1.00 20.00     0.015 C 
HETATM    8  C2  UNL     1     -34.052   4.398   4.309  1.00 20.00    -0.088 C 
HETATM    9  C8  UNL     1     -33.368   3.111   4.682  1.00 20.00     0.042 C 
HETATM   10  C9  UNL     1     -35.388   4.621   4.958  1.00 20.00     0.042 C 
ENDBRANCH   5   7
BRANCH   5  11
HETATM   11  O11 UNL     1     -35.448   6.480   3.036  1.00 20.00    -0.384 OA
HETATM   12  H27 UNL     1     -35.656   6.011   3.858  1.00 20.00     0.211 HD
ENDBRANCH   5  11
TORSDOF 2
ENDMDL
MODEL 3
REMARK VINA RESULT:       1.8      1.405      4.074
REMARK  2 active torsions:
REMARK  status: ('A' for Active; 'I' for Inactive)
REMARK    1  A    between atoms: C1_1  and  C7_7 
REMARK    2  A    between atoms: C7_7  and  O11_11 
ROOT
HETATM    1  C3  UNL     1     -32.421   8.693  -0.551  1.00 20.00     0.029 C 
HETATM    2  C4  UNL     1     -31.498   8.148   0.536  1.00 20.00     0.046 C 
HETATM    3  C5  UNL     1     -32.739  10.160  -0.291  1.00 20.00     0.167 C 
HETATM    4  C6  UNL     1     -32.398   9.944   2.046  1.00 20.00     0.209 C 
HETATM    5  C7  UNL     1     -32.029   8.458   1.943  1.00 20.00     0.097 C 
HETATM    6  O10 UNL     1     -33.300  10.336   1.009  1.00 20.00    -0.388 OA
ENDROOT
BRANCH   5   7
HETATM    7  C1  UNL     1     -33.205   7.591   2.291  1.00 20.00     0.015 C 
HETATM    8  C2  UNL     1     -33.789   7.437   3.494  1.00 20.00    -0.088 C 
HETATM    9  C8  UNL     1     -34.968   6.521   3.675  1.00 20.00     0.042 C 
HETATM   10  C9  UNL     1     -33.333   8.141   4.740  1.00 20.00     0.042 C 
ENDBRANCH   5   7
BRANCH   5  11
HETATM   11  O11 UNL     1     -31.011   8.166   2.900  1.00 20.00    -0.384 OA
HETATM   12  H27 UNL     1     -30.218   8.639   2.608  1.00 20.00     0.211 HD
ENDBRANCH   5  11
TORSDOF 2
ENDMDL
MODEL 4
REMARK VINA RESULT:       2.0      1.964      4.678
REMARK  2 active torsions:
REMARK  status: ('A' for Active; 'I' for Inactive)
REMARK    1  A    between atoms: C1_1  and  C7_7 
REMARK    2  A    between atoms: C7_7  and  O11_11 
ROOT
HETATM    1  C3  UNL     1     -33.463   7.879   3.901  1.00 20.00     0.029 C 
HETATM    2  C4  UNL     1     -34.261   7.059   2.889  1.00 20.00     0.046 C 
HETATM    3  C5  UNL     1     -32.255   8.519   3.231  1.00 20.00     0.167 C 
HETATM    4  C6  UNL     1     -32.139   6.838   1.562  1.00 20.00     0.209 C 
HETATM    5  C7  UNL     1     -33.363   6.090   2.106  1.00 20.00     0.097 C 
HETATM    6  O10 UNL     1     -31.441   7.532   2.597  1.00 20.00    -0.388 OA
ENDROOT
BRANCH   5   7
HETATM    7  C1  UNL     1     -32.943   4.923   2.952  1.00 20.00     0.015 C 
HETATM    8  C2  UNL     1     -33.643   4.320   3.931  1.00 20.00    -0.088 C 
HETATM    9  C8  UNL     1     -33.074   3.153   4.690  1.00 20.00     0.042 C 
HETATM   10  C9  UNL     1     -35.023   4.741   4.351  1.00 20.00     0.042 C 
ENDBRANCH   5   7
BRANCH   5  11
HETATM   11  O11 UNL     1     -34.103   5.552   1.010  1.00 20.00    -0.384 OA
HETATM   12  H27 UNL     1     -33.464   5.081   0.454  1.00 20.00     0.211 HD
ENDBRANCH   5  11
TORSDOF 2
ENDMDL
MODEL 5
REMARK VINA RESULT:       2.2      2.038      4.832
REMARK  2 active torsions:
REMARK  status: ('A' for Active; 'I' for Inactive)
REMARK    1  A    between atoms: C1_1  and  C7_7 
REMARK    2  A    between atoms: C7_7  and  O11_11 
ROOT
HETATM    1  C3  UNL     1     -32.705   8.105   3.929  1.00 20.00     0.029 C 
HETATM    2  C4  UNL     1     -34.170   7.751   4.167  1.00 20.00     0.046 C 
HETATM    3  C5  UNL     1     -32.334   7.882   2.469  1.00 20.00     0.167 C 
HETATM    4  C6  UNL     1     -34.013   6.234   2.170  1.00 20.00     0.209 C 
HETATM    5  C7  UNL     1     -34.519   6.362   3.613  1.00 20.00     0.097 C 
HETATM    6  O10 UNL     1     -32.622   6.543   2.070  1.00 20.00    -0.388 OA
ENDROOT
BRANCH   5   7
HETATM    7  C1  UNL     1     -33.955   5.269   4.475  1.00 20.00     0.015 C 
HETATM    8  C2  UNL     1     -33.641   4.011   4.112  1.00 20.00    -0.088 C 
HETATM    9  C8  UNL     1     -33.081   3.032   5.107  1.00 20.00     0.042 C 
HETATM   10  C9  UNL     1     -33.814   3.476   2.719  1.00 20.00     0.042 C 
ENDBRANCH   5   7
BRANCH   5  11
HETATM   11  O11 UNL     1     -35.936   6.198   3.624  1.00 20.00    -0.384 OA
HETATM   12  H27 UNL     1     -36.314   7.088   3.692  1.00 20.00     0.211 HD
ENDBRANCH   5  11
TORSDOF 2
ENDMDL
MODEL 6
REMARK VINA RESULT:       2.6      2.075      3.296
REMARK  2 active torsions:
REMARK  status: ('A' for Active; 'I' for Inactive)
REMARK    1  A    between atoms: C1_1  and  C7_7 
REMARK    2  A    between atoms: C7_7  and  O11_11 
ROOT
HETATM    1  C3  UNL     1     -34.375   7.005   3.749  1.00 20.00     0.029 C 
HETATM    2  C4  UNL     1     -34.099   7.607   2.374  1.00 20.00     0.046 C 
HETATM    3  C5  UNL     1     -33.747   7.862   4.840  1.00 20.00     0.167 C 
HETATM    4  C6  UNL     1     -32.077   8.706   3.383  1.00 20.00     0.209 C 
HETATM    5  C7  UNL     1     -32.608   7.920   2.178  1.00 20.00     0.097 C 
HETATM    6  O10 UNL     1     -32.349   8.031   4.613  1.00 20.00    -0.388 OA
ENDROOT
BRANCH   5   7
HETATM    7  C1  UNL     1     -31.807   6.668   1.961  1.00 20.00     0.015 C 
HETATM    8  C2  UNL     1     -32.143   5.592   1.224  1.00 20.00    -0.088 C 
HETATM    9  C8  UNL     1     -31.220   4.410   1.110  1.00 20.00     0.042 C 
HETATM   10  C9  UNL     1     -33.434   5.468   0.467  1.00 20.00     0.042 C 
ENDBRANCH   5   7
BRANCH   5  11
HETATM   11  O11 UNL     1     -32.449   8.713   1.001  1.00 20.00    -0.384 OA
HETATM   12  H27 UNL     1     -32.009   8.148   0.348  1.00 20.00     0.211 HD
ENDBRANCH   5  11
TORSDOF 2
ENDMDL
MODEL 7
REMARK VINA RESULT:       2.8      1.476      3.882
REMARK  2 active torsions:
REMARK  status: ('A' for Active; 'I' for Inactive)
REMARK    1  A    between atoms: C1_1  and  C7_7 
REMARK    2  A    between atoms: C7_7  and  O11_11 
ROOT
HETATM    1  C3  UNL     1     -32.757   8.360  -0.273  1.00 20.00     0.029 C 
HETATM    2  C4  UNL     1     -31.804   7.864   0.811  1.00 20.00     0.046 C 
HETATM    3  C5  UNL     1     -32.743   9.881  -0.339  1.00 20.00     0.167 C 
HETATM    4  C6  UNL     1     -32.100  10.093   1.934  1.00 20.00     0.209 C 
HETATM    5  C7  UNL     1     -32.045   8.575   2.151  1.00 20.00     0.097 C 
HETATM    6  O10 UNL     1     -33.055  10.449   0.933  1.00 20.00    -0.388 OA
ENDROOT
BRANCH   5   7
HETATM    7  C1  UNL     1     -33.300   8.085   2.814  1.00 20.00     0.015 C 
HETATM    8  C2  UNL     1     -33.732   6.815   2.926  1.00 20.00    -0.088 C 
HETATM    9  C8  UNL     1     -35.023   6.491   3.627  1.00 20.00     0.042 C 
HETATM   10  C9  UNL     1     -32.991   5.630   2.376  1.00 20.00     0.042 C 
ENDBRANCH   5   7
BRANCH   5  11
HETATM   11  O11 UNL     1     -30.970   8.272   3.039  1.00 20.00    -0.384 OA
HETATM   12  H27 UNL     1     -31.321   7.644   3.689  1.00 20.00     0.211 HD
ENDBRANCH   5  11
TORSDOF 2
ENDMDL
MODEL 8
REMARK VINA RESULT:       2.9      1.213      4.253
REMARK  2 active torsions:
REMARK  status: ('A' for Active; 'I' for Inactive)
REMARK    1  A    between atoms: C1_1  and  C7_7 
REMARK    2  A    between atoms: C7_7  and  O11_11 
ROOT
HETATM    1  C3  UNL     1     -32.809   8.969   0.513  1.00 20.00     0.029 C 
HETATM    2  C4  UNL     1     -32.996   7.472   0.277  1.00 20.00     0.046 C 
HETATM    3  C5  UNL     1     -31.472   9.236   1.193  1.00 20.00     0.167 C 
HETATM    4  C6  UNL     1     -31.411   7.084   2.188  1.00 20.00     0.209 C 
HETATM    5  C7  UNL     1     -32.741   6.657   1.553  1.00 20.00     0.097 C 
HETATM    6  O10 UNL     1     -31.361   8.495   2.407  1.00 20.00    -0.388 OA
ENDROOT
BRANCH   5   7
HETATM    7  C1  UNL     1     -33.870   6.800   2.532  1.00 20.00     0.015 C 
HETATM    8  C2  UNL     1     -34.288   5.904   3.446  1.00 20.00    -0.088 C 
HETATM    9  C8  UNL     1     -35.445   6.205   4.359  1.00 20.00     0.042 C 
HETATM   10  C9  UNL     1     -33.659   4.554   3.640  1.00 20.00     0.042 C 
ENDBRANCH   5   7
BRANCH   5  11
HETATM   11  O11 UNL     1     -32.669   5.272   1.214  1.00 20.00    -0.384 OA
HETATM   12  H27 UNL     1     -32.101   5.211   0.432  1.00 20.00     0.211 HD
ENDBRANCH   5  11
TORSDOF 2
ENDMDL
MODEL 9
REMARK VINA RESULT:       3.0      2.641      3.960
REMARK  2 active torsions:
REMARK  status: ('A' for Active; 'I' for Inactive)
REMARK    1  A    between atoms: C1_1  and  C7_7 
REMARK    2  A    between atoms: C7_7  and  O11_11 
ROOT
HETATM    1  C3  UNL     1     -32.993   4.513   3.062  1.00 20.00     0.029 C 
HETATM    2  C4  UNL     1     -33.988   5.539   2.525  1.00 20.00     0.046 C 
HETATM    3  C5  UNL     1     -33.702   3.504   3.956  1.00 20.00     0.167 C 
HETATM    4  C6  UNL     1     -35.420   5.036   4.527  1.00 20.00     0.209 C 
HETATM    5  C7  UNL     1     -34.839   6.150   3.647  1.00 20.00     0.097 C 
HETATM    6  O10 UNL     1     -34.399   4.162   5.013  1.00 20.00    -0.388 OA
ENDROOT
BRANCH   5   7
HETATM    7  C1  UNL     1     -34.046   7.123   4.472  1.00 20.00     0.015 C 
HETATM    8  C2  UNL     1     -33.068   7.950   4.056  1.00 20.00    -0.088 C 
HETATM    9  C8  UNL     1     -32.366   8.870   5.018  1.00 20.00     0.042 C 
HETATM   10  C9  UNL     1     -32.593   8.033   2.634  1.00 20.00     0.042 C 
ENDBRANCH   5   7
BRANCH   5  11
HETATM   11  O11 UNL     1     -35.913   6.890   3.067  1.00 20.00    -0.384 OA
HETATM   12  H27 UNL     1     -36.611   6.930   3.738  1.00 20.00     0.211 HD
ENDBRANCH   5  11
TORSDOF 2
ENDMDL
