MODEL 1
REMARK VINA RESULT:       0.5      0.000      0.000
REMARK  2 active torsions:
REMARK  status: ('A' for Active; 'I' for Inactive)
REMARK    1  A    between atoms: C2_2  and  C7_7 
REMARK    2  A    between atoms: C7_7  and  O11_11 
ROOT
HETATM    1  C3  UNL     1     -32.613   6.688   1.295  1.00 20.00     0.073 C 
HETATM    2  C4  UNL     1     -33.550   8.475   2.792  1.00 20.00     0.073 C 
HETATM    3  C5  UNL     1     -32.988   5.657   2.365  1.00 20.00     0.275 C 
HETATM    4  C6  UNL     1     -33.893   7.381   3.809  1.00 20.00     0.275 C 
HETATM    5  C7  UNL     1     -32.372   8.069   1.905  1.00 20.00     0.083 C 
HETATM    6  C9  UNL     1     -34.536   5.080   4.118  1.00 20.00     0.309 C 
HETATM    7  N10 UNL     1     -34.155   6.099   3.140  1.00 20.00     0.084 N 
ENDROOT
BRANCH   5   8
HETATM    8  C2  UNL     1     -32.164   9.092   0.827  1.00 20.00    -0.059 C 
HETATM    9  C1  UNL     1     -32.833  10.254   0.812  1.00 20.00     0.017 C 
HETATM   10  C8  UNL     1     -31.164   8.740  -0.235  1.00 20.00     0.046 C 
ENDBRANCH   5   8
BRANCH   5  11
HETATM   11  O11 UNL     1     -31.168   8.036   2.661  1.00 20.00    -0.385 OA
HETATM   12  H28 UNL     1     -30.583   7.410   2.211  1.00 20.00     0.211 HD
ENDBRANCH   5  11
TORSDOF 2
ENDMDL
MODEL 2
REMARK VINA RESULT:       1.1      1.850      4.434
REMARK  2 active torsions:
REMARK  status: ('A' for Active; 'I' for Inactive)
REMARK    1  A    between atoms: C2_2  and  C7_7 
REMARK    2  A    between atoms: C7_7  and  O11_11 
ROOT
HETATM    1  C3  UNL     1     -33.341   5.555   2.112  1.00 20.00     0.073 C 
HETATM    2  C4  UNL     1     -33.448   7.181   4.025  1.00 20.00     0.073 C 
HETATM    3  C5  UNL     1     -32.839   6.699   1.225  1.00 20.00     0.275 C 
HETATM    4  C6  UNL     1     -32.942   8.268   3.071  1.00 20.00     0.275 C 
HETATM    5  C7  UNL     1     -34.190   6.074   3.274  1.00 20.00     0.083 C 
HETATM    6  C9  UNL     1     -31.577   8.749   1.145  1.00 20.00     0.309 C 
HETATM    7  N10 UNL     1     -32.098   7.694   2.013  1.00 20.00     0.084 N 
ENDROOT
BRANCH   5   8
HETATM    8  C2  UNL     1     -34.535   4.956   4.214  1.00 20.00    -0.059 C 
HETATM    9  C1  UNL     1     -35.597   5.018   5.031  1.00 20.00     0.017 C 
HETATM   10  C8  UNL     1     -33.622   3.765   4.190  1.00 20.00     0.046 C 
ENDBRANCH   5   8
BRANCH   5  11
HETATM   11  O11 UNL     1     -35.423   6.560   2.763  1.00 20.00    -0.385 OA
HETATM   12  H28 UNL     1     -35.748   5.884   2.151  1.00 20.00     0.211 HD
ENDBRANCH   5  11
TORSDOF 2
ENDMDL
MODEL 3
REMARK VINA RESULT:       2.5      1.485      2.305
REMARK  2 active torsions:
REMARK  status: ('A' for Active; 'I' for Inactive)
REMARK    1  A    between atoms: C2_2  and  C7_7 
REMARK    2  A    between atoms: C7_7  and  O11_11 
ROOT
HETATM    1  C3  UNL     1     -33.647   7.248   3.179  1.00 20.00     0.073 C 
HETATM    2  C4  UNL     1     -31.972   5.858   1.926  1.00 20.00     0.073 C 
HETATM    3  C5  UNL     1     -34.329   5.949   3.622  1.00 20.00     0.275 C 
HETATM    4  C6  UNL     1     -32.712   4.608   2.411  1.00 20.00     0.275 C 
HETATM    5  C7  UNL     1     -32.901   7.071   1.856  1.00 20.00     0.083 C 
HETATM    6  C9  UNL     1     -34.015   3.628   4.185  1.00 20.00     0.309 C 
HETATM    7  N10 UNL     1     -33.361   4.847   3.708  1.00 20.00     0.084 N 
ENDROOT
BRANCH   5   8
HETATM    8  C2  UNL     1     -32.113   8.305   1.527  1.00 20.00    -0.059 C 
HETATM    9  C1  UNL     1     -32.310   8.991   0.392  1.00 20.00     0.017 C 
HETATM   10  C8  UNL     1     -31.089   8.726   2.540  1.00 20.00     0.046 C 
ENDBRANCH   5   8
BRANCH   5  11
HETATM   11  O11 UNL     1     -33.850   6.912   0.810  1.00 20.00    -0.385 OA
HETATM   12  H28 UNL     1     -33.824   7.731   0.294  1.00 20.00     0.211 HD
ENDBRANCH   5  11
TORSDOF 2
ENDMDL
MODEL 4
REMARK VINA RESULT:       2.5      1.622      4.275
REMARK  2 active torsions:
REMARK  status: ('A' for Active; 'I' for Inactive)
REMARK    1  A    between atoms: C2_2  and  C7_7 
REMARK    2  A    between atoms: C7_7  and  O11_11 
ROOT
HETATM    1  C3  UNL     1     -34.292   8.301   2.728  1.00 20.00     0.073 C 
HETATM    2  C4  UNL     1     -32.564   6.603   2.064  1.00 20.00     0.073 C 
HETATM    3  C5  UNL     1     -33.436   9.374   2.047  1.00 20.00     0.275 C 
HETATM    4  C6  UNL     1     -31.768   7.735   1.407  1.00 20.00     0.275 C 
HETATM    5  C7  UNL     1     -33.443   7.121   3.203  1.00 20.00     0.083 C 
HETATM    6  C9  UNL     1     -31.890   9.851   0.262  1.00 20.00     0.309 C 
HETATM    7  N10 UNL     1     -32.659   8.805   0.937  1.00 20.00     0.084 N 
ENDROOT
BRANCH   5   8
HETATM    8  C2  UNL     1     -34.319   6.017   3.720  1.00 20.00    -0.059 C 
HETATM    9  C1  UNL     1     -35.561   6.248   4.170  1.00 20.00     0.017 C 
HETATM   10  C8  UNL     1     -33.724   4.639   3.705  1.00 20.00     0.046 C 
ENDBRANCH   5   8
BRANCH   5  11
HETATM   11  O11 UNL     1     -32.642   7.541   4.299  1.00 20.00    -0.385 OA
HETATM   12  H28 UNL     1     -33.232   7.584   5.065  1.00 20.00     0.211 HD
ENDBRANCH   5  11
TORSDOF 2
ENDMDL
MODEL 5
REMARK VINA RESULT:       2.7      1.684      4.304
REMARK  2 active torsions:
REMARK  status: ('A' for Active; 'I' for Inactive)
REMARK    1  A    between atoms: C2_2  and  C7_7 
REMARK    2  A    between atoms: C7_7  and  O11_11 
ROOT
HETATM    1  C3  UNL     1     -32.808   7.548   3.320  1.00 20.00     0.073 C 
HETATM    2  C4  UNL     1     -33.943   6.534   1.321  1.00 20.00     0.073 C 
HETATM    3  C5  UNL     1     -31.923   8.348   2.357  1.00 20.00     0.275 C 
HETATM    4  C6  UNL     1     -33.019   7.369   0.428  1.00 20.00     0.275 C 
HETATM    5  C7  UNL     1     -33.305   6.250   2.681  1.00 20.00     0.083 C 
HETATM    6  C9  UNL     1     -31.790   9.430   0.209  1.00 20.00     0.309 C 
HETATM    7  N10 UNL     1     -32.625   8.618   1.095  1.00 20.00     0.084 N 
ENDROOT
BRANCH   5   8
HETATM    8  C2  UNL     1     -34.293   5.566   3.580  1.00 20.00    -0.059 C 
HETATM    9  C1  UNL     1     -35.402   6.181   4.014  1.00 20.00     0.017 C 
HETATM   10  C8  UNL     1     -33.968   4.152   3.966  1.00 20.00     0.046 C 
ENDBRANCH   5   8
BRANCH   5  11
HETATM   11  O11 UNL     1     -32.209   5.356   2.540  1.00 20.00    -0.385 OA
HETATM   12  H28 UNL     1     -32.591   4.478   2.402  1.00 20.00     0.211 HD
ENDBRANCH   5  11
TORSDOF 2
ENDMDL
MODEL 6
REMARK VINA RESULT:       2.7      1.622      4.397
REMARK  2 active torsions:
REMARK  status: ('A' for Active; 'I' for Inactive)
REMARK    1  A    between atoms: C2_2  and  C7_7 
REMARK    2  A    between atoms: C7_7  and  O11_11 
ROOT
HETATM    1  C3  UNL     1     -34.308   8.225   2.748  1.00 20.00     0.073 C 
HETATM    2  C4  UNL     1     -32.496   6.641   2.027  1.00 20.00     0.073 C 
HETATM    3  C5  UNL     1     -33.519   9.360   2.087  1.00 20.00     0.275 C 
HETATM    4  C6  UNL     1     -31.770   7.831   1.392  1.00 20.00     0.275 C 
HETATM    5  C7  UNL     1     -33.391   7.082   3.186  1.00 20.00     0.083 C 
HETATM    6  C9  UNL     1     -32.020   9.965   0.302  1.00 20.00     0.309 C 
HETATM    7  N10 UNL     1     -32.723   8.862   0.957  1.00 20.00     0.084 N 
ENDROOT
BRANCH   5   8
HETATM    8  C2  UNL     1     -34.200   5.919   3.682  1.00 20.00    -0.059 C 
HETATM    9  C1  UNL     1     -33.715   4.669   3.688  1.00 20.00     0.017 C 
HETATM   10  C8  UNL     1     -35.583   6.235   4.170  1.00 20.00     0.046 C 
ENDBRANCH   5   8
BRANCH   5  11
HETATM   11  O11 UNL     1     -32.604   7.518   4.285  1.00 20.00    -0.385 OA
HETATM   12  H28 UNL     1     -32.839   6.947   5.031  1.00 20.00     0.211 HD
ENDBRANCH   5  11
TORSDOF 2
ENDMDL
MODEL 7
REMARK VINA RESULT:       3.0      1.769      4.297
REMARK  2 active torsions:
REMARK  status: ('A' for Active; 'I' for Inactive)
REMARK    1  A    between atoms: C2_2  and  C7_7 
REMARK    2  A    between atoms: C7_7  and  O11_11 
ROOT
HETATM    1  C3  UNL     1     -33.647   9.237   2.170  1.00 20.00     0.073 C 
HETATM    2  C4  UNL     1     -32.114   7.471   1.253  1.00 20.00     0.073 C 
HETATM    3  C5  UNL     1     -32.916  10.263   1.297  1.00 20.00     0.275 C 
HETATM    4  C6  UNL     1     -31.436   8.558   0.413  1.00 20.00     0.275 C 
HETATM    5  C7  UNL     1     -32.747   8.051   2.518  1.00 20.00     0.083 C 
HETATM    6  C9  UNL     1     -31.733  10.638  -0.767  1.00 20.00     0.309 C 
HETATM    7  N10 UNL     1     -32.379   9.637   0.082  1.00 20.00     0.084 N 
ENDROOT
BRANCH   5   8
HETATM    8  C2  UNL     1     -33.530   6.989   3.235  1.00 20.00    -0.059 C 
HETATM    9  C1  UNL     1     -34.326   7.275   4.275  1.00 20.00     0.017 C 
HETATM   10  C8  UNL     1     -33.369   5.589   2.720  1.00 20.00     0.046 C 
ENDBRANCH   5   8
BRANCH   5  11
HETATM   11  O11 UNL     1     -31.742   8.486   3.424  1.00 20.00    -0.385 OA
HETATM   12  H28 UNL     1     -32.050   9.329   3.786  1.00 20.00     0.211 HD
ENDBRANCH   5  11
TORSDOF 2
ENDMDL
MODEL 8
REMARK VINA RESULT:       3.4      2.053      3.508
REMARK  2 active torsions:
REMARK  status: ('A' for Active; 'I' for Inactive)
REMARK    1  A    between atoms: C2_2  and  C7_7 
REMARK    2  A    between atoms: C7_7  and  O11_11 
ROOT
HETATM    1  C3  UNL     1     -32.026   6.966   1.789  1.00 20.00     0.073 C 
HETATM    2  C4  UNL     1     -33.714   5.342   2.696  1.00 20.00     0.073 C 
HETATM    3  C5  UNL     1     -32.614   8.030   2.721  1.00 20.00     0.275 C 
HETATM    4  C6  UNL     1     -34.244   6.463   3.596  1.00 20.00     0.275 C 
HETATM    5  C7  UNL     1     -33.060   5.897   1.430  1.00 20.00     0.083 C 
HETATM    6  C9  UNL     1     -33.686   8.451   4.836  1.00 20.00     0.309 C 
HETATM    7  N10 UNL     1     -33.179   7.419   3.931  1.00 20.00     0.084 N 
ENDROOT
BRANCH   5   8
HETATM    8  C2  UNL     1     -32.420   4.786   0.651  1.00 20.00    -0.059 C 
HETATM    9  C1  UNL     1     -31.139   4.436   0.835  1.00 20.00     0.017 C 
HETATM   10  C8  UNL     1     -33.298   4.088  -0.347  1.00 20.00     0.046 C 
ENDBRANCH   5   8
BRANCH   5  11
HETATM   11  O11 UNL     1     -34.039   6.472   0.575  1.00 20.00    -0.385 OA
HETATM   12  H28 UNL     1     -33.577   6.715  -0.241  1.00 20.00     0.211 HD
ENDBRANCH   5  11
TORSDOF 2
ENDMDL
