MODEL 1
REMARK VINA RESULT:      -2.2      0.000      0.000
REMARK  3 active torsions:
REMARK  status: ('A' for Active; 'I' for Inactive)
REMARK    1  A    between atoms: C2_2  and  C7_7 
REMARK    2  A    between atoms: C5_5  and  C7_7 
REMARK    3  A    between atoms: C7_7  and  O8_8 
ROOT
HETATM    1  C7  UNL     1     -33.426   6.906   2.305  1.00 20.00     0.150 C 
ENDROOT
BRANCH   1   2
HETATM    2  C2  UNL     1     -34.116   7.063   3.643  1.00 20.00    -0.064 C 
HETATM    3  C1  UNL     1     -33.699   7.976   4.535  1.00 20.00     0.016 C 
HETATM    4  C6  UNL     1     -35.289   6.171   3.942  1.00 20.00     0.045 C 
ENDBRANCH   1   2
BRANCH   1   5
HETATM    5  C5  UNL     1     -32.256   7.868   2.129  1.00 20.00     0.019 A 
HETATM    6  C3  UNL     1     -31.464   7.871   0.850  1.00 20.00     0.008 A 
HETATM    7  C4  UNL     1     -32.367   9.028   1.179  1.00 20.00     0.008 A 
ENDBRANCH   1   5
BRANCH   1   8
HETATM    8  O8  UNL     1     -32.959   5.565   2.178  1.00 20.00    -0.391 OA
HETATM    9  H20 UNL     1     -32.664   5.292   3.060  1.00 20.00     0.210 HD
ENDBRANCH   1   8
TORSDOF 3
ENDMDL
MODEL 2
REMARK VINA RESULT:      -2.0      1.632      2.187
REMARK  3 active torsions:
REMARK  status: ('A' for Active; 'I' for Inactive)
REMARK    1  A    between atoms: C2_2  and  C7_7 
REMARK    2  A    between atoms: C5_5  and  C7_7 
REMARK    3  A    between atoms: C7_7  and  O8_8 
ROOT
HETATM    1  C7  UNL     1     -33.416   6.808   3.592  1.00 20.00     0.150 C 
ENDROOT
BRANCH   1   2
HETATM    2  C2  UNL     1     -34.451   5.736   3.850  1.00 20.00    -0.064 C 
HETATM    3  C1  UNL     1     -35.751   6.046   3.980  1.00 20.00     0.016 C 
HETATM    4  C6  UNL     1     -33.984   4.310   3.949  1.00 20.00     0.045 C 
ENDBRANCH   1   2
BRANCH   1   5
HETATM    5  C5  UNL     1     -33.165   7.040   2.107  1.00 20.00     0.019 A 
HETATM    6  C3  UNL     1     -31.879   7.670   1.645  1.00 20.00     0.008 A 
HETATM    7  C4  UNL     1     -32.143   6.214   1.375  1.00 20.00     0.008 A 
ENDBRANCH   1   5
BRANCH   1   8
HETATM    8  O8  UNL     1     -33.848   8.027   4.195  1.00 20.00    -0.391 OA
HETATM    9  H20 UNL     1     -33.184   8.253   4.863  1.00 20.00     0.210 HD
ENDBRANCH   1   8
TORSDOF 3
ENDMDL
MODEL 3
REMARK VINA RESULT:      -1.9      1.655      2.598
REMARK  3 active torsions:
REMARK  status: ('A' for Active; 'I' for Inactive)
REMARK    1  A    between atoms: C2_2  and  C7_7 
REMARK    2  A    between atoms: C5_5  and  C7_7 
REMARK    3  A    between atoms: C7_7  and  O8_8 
ROOT
HETATM    1  C7  UNL     1     -32.001   7.999   1.680  1.00 20.00     0.150 C 
ENDROOT
BRANCH   1   2
HETATM    2  C2  UNL     1     -32.763   6.721   1.958  1.00 20.00    -0.064 C 
HETATM    3  C1  UNL     1     -32.538   5.610   1.239  1.00 20.00     0.016 C 
HETATM    4  C6  UNL     1     -33.774   6.729   3.071  1.00 20.00     0.045 C 
ENDBRANCH   1   2
BRANCH   1   5
HETATM    5  C5  UNL     1     -32.839   9.034   0.938  1.00 20.00     0.019 A 
HETATM    6  C3  UNL     1     -32.241  10.362   0.561  1.00 20.00     0.008 A 
HETATM    7  C4  UNL     1     -32.550   9.347  -0.504  1.00 20.00     0.008 A 
ENDBRANCH   1   5
BRANCH   1   8
HETATM    8  O8  UNL     1     -31.553   8.551   2.916  1.00 20.00    -0.391 OA
HETATM    9  H20 UNL     1     -31.591   9.515   2.816  1.00 20.00     0.210 HD
ENDBRANCH   1   8
TORSDOF 3
ENDMDL
MODEL 4
REMARK VINA RESULT:      -1.6      2.778      4.254
REMARK  3 active torsions:
REMARK  status: ('A' for Active; 'I' for Inactive)
REMARK    1  A    between atoms: C2_2  and  C7_7 
REMARK    2  A    between atoms: C5_5  and  C7_7 
REMARK    3  A    between atoms: C7_7  and  O8_8 
ROOT
HETATM    1  C7  UNL     1     -34.538   4.725   3.882  1.00 20.00     0.150 C 
ENDROOT
BRANCH   1   2
HETATM    2  C2  UNL     1     -33.971   6.032   3.373  1.00 20.00    -0.064 C 
HETATM    3  C1  UNL     1     -34.215   7.188   4.009  1.00 20.00     0.016 C 
HETATM    4  C6  UNL     1     -33.116   5.998   2.136  1.00 20.00     0.045 C 
ENDBRANCH   1   2
BRANCH   1   5
HETATM    5  C5  UNL     1     -33.567   3.973   4.785  1.00 20.00     0.019 A 
HETATM    6  C3  UNL     1     -33.405   2.484   4.649  1.00 20.00     0.008 A 
HETATM    7  C4  UNL     1     -32.295   3.404   4.220  1.00 20.00     0.008 A 
ENDBRANCH   1   5
BRANCH   1   8
HETATM    8  O8  UNL     1     -35.743   4.989   4.598  1.00 20.00    -0.391 OA
HETATM    9  H20 UNL     1     -36.349   4.262   4.393  1.00 20.00     0.210 HD
ENDBRANCH   1   8
TORSDOF 3
ENDMDL
MODEL 5
REMARK VINA RESULT:      -1.6      0.853      3.340
REMARK  3 active torsions:
REMARK  status: ('A' for Active; 'I' for Inactive)
REMARK    1  A    between atoms: C2_2  and  C7_7 
REMARK    2  A    between atoms: C5_5  and  C7_7 
REMARK    3  A    between atoms: C7_7  and  O8_8 
ROOT
HETATM    1  C7  UNL     1     -32.784   6.706   2.320  1.00 20.00     0.150 C 
ENDROOT
BRANCH   1   2
HETATM    2  C2  UNL     1     -32.049   7.986   1.988  1.00 20.00    -0.064 C 
HETATM    3  C1  UNL     1     -31.147   8.506   2.836  1.00 20.00     0.016 C 
HETATM    4  C6  UNL     1     -32.350   8.654   0.675  1.00 20.00     0.045 C 
ENDBRANCH   1   2
BRANCH   1   5
HETATM    5  C5  UNL     1     -34.178   6.957   2.885  1.00 20.00     0.019 A 
HETATM    6  C3  UNL     1     -34.725   6.073   3.972  1.00 20.00     0.008 A 
HETATM    7  C4  UNL     1     -34.343   7.494   4.279  1.00 20.00     0.008 A 
ENDBRANCH   1   5
BRANCH   1   8
HETATM    8  O8  UNL     1     -32.889   5.911   1.140  1.00 20.00    -0.391 OA
HETATM    9  H20 UNL     1     -31.989   5.817   0.792  1.00 20.00     0.210 HD
ENDBRANCH   1   8
TORSDOF 3
ENDMDL
MODEL 6
REMARK VINA RESULT:      -1.6      0.868      3.432
REMARK  3 active torsions:
REMARK  status: ('A' for Active; 'I' for Inactive)
REMARK    1  A    between atoms: C2_2  and  C7_7 
REMARK    2  A    between atoms: C5_5  and  C7_7 
REMARK    3  A    between atoms: C7_7  and  O8_8 
ROOT
HETATM    1  C7  UNL     1     -32.805   6.664   2.376  1.00 20.00     0.150 C 
ENDROOT
BRANCH   1   2
HETATM    2  C2  UNL     1     -32.094   7.953   2.028  1.00 20.00    -0.064 C 
HETATM    3  C1  UNL     1     -32.141   8.456   0.784  1.00 20.00     0.016 C 
HETATM    4  C6  UNL     1     -31.339   8.661   3.119  1.00 20.00     0.045 C 
ENDBRANCH   1   2
BRANCH   1   5
HETATM    5  C5  UNL     1     -34.214   6.893   2.910  1.00 20.00     0.019 A 
HETATM    6  C3  UNL     1     -34.766   6.011   3.996  1.00 20.00     0.008 A 
HETATM    7  C4  UNL     1     -34.418   7.443   4.295  1.00 20.00     0.008 A 
ENDBRANCH   1   5
BRANCH   1   8
HETATM    8  O8  UNL     1     -32.868   5.840   1.214  1.00 20.00    -0.391 OA
HETATM    9  H20 UNL     1     -32.394   5.023   1.431  1.00 20.00     0.210 HD
ENDBRANCH   1   8
TORSDOF 3
ENDMDL
MODEL 7
REMARK VINA RESULT:      -1.5      1.782      3.528
REMARK  3 active torsions:
REMARK  status: ('A' for Active; 'I' for Inactive)
REMARK    1  A    between atoms: C2_2  and  C7_7 
REMARK    2  A    between atoms: C5_5  and  C7_7 
REMARK    3  A    between atoms: C7_7  and  O8_8 
ROOT
HETATM    1  C7  UNL     1     -33.099   7.000   2.006  1.00 20.00     0.150 C 
ENDROOT
BRANCH   1   2
HETATM    2  C2  UNL     1     -32.742   5.747   1.237  1.00 20.00    -0.064 C 
HETATM    3  C1  UNL     1     -31.561   5.134   1.421  1.00 20.00     0.016 C 
HETATM    4  C6  UNL     1     -33.751   5.202   0.265  1.00 20.00     0.045 C 
ENDBRANCH   1   2
BRANCH   1   5
HETATM    5  C5  UNL     1     -33.506   6.712   3.446  1.00 20.00     0.019 A 
HETATM    6  C3  UNL     1     -34.325   7.712   4.217  1.00 20.00     0.008 A 
HETATM    7  C4  UNL     1     -34.941   6.412   3.780  1.00 20.00     0.008 A 
ENDBRANCH   1   5
BRANCH   1   8
HETATM    8  O8  UNL     1     -31.980   7.885   1.999  1.00 20.00    -0.391 OA
HETATM    9  H20 UNL     1     -32.139   8.533   2.702  1.00 20.00     0.210 HD
ENDBRANCH   1   8
TORSDOF 3
ENDMDL
MODEL 8
REMARK VINA RESULT:      -1.5      1.473      3.661
REMARK  3 active torsions:
REMARK  status: ('A' for Active; 'I' for Inactive)
REMARK    1  A    between atoms: C2_2  and  C7_7 
REMARK    2  A    between atoms: C5_5  and  C7_7 
REMARK    3  A    between atoms: C7_7  and  O8_8 
ROOT
HETATM    1  C7  UNL     1     -33.700   7.327   3.016  1.00 20.00     0.150 C 
ENDROOT
BRANCH   1   2
HETATM    2  C2  UNL     1     -32.593   7.126   2.005  1.00 20.00    -0.064 C 
HETATM    3  C1  UNL     1     -31.738   8.118   1.707  1.00 20.00     0.016 C 
HETATM    4  C6  UNL     1     -32.470   5.779   1.348  1.00 20.00     0.045 C 
ENDBRANCH   1   2
BRANCH   1   5
HETATM    5  C5  UNL     1     -34.598   6.103   3.156  1.00 20.00     0.019 A 
HETATM    6  C3  UNL     1     -34.291   5.052   4.187  1.00 20.00     0.008 A 
HETATM    7  C4  UNL     1     -35.483   5.950   4.362  1.00 20.00     0.008 A 
ENDBRANCH   1   5
BRANCH   1   8
HETATM    8  O8  UNL     1     -33.122   7.637   4.282  1.00 20.00    -0.391 OA
HETATM    9  H20 UNL     1     -33.685   8.318   4.681  1.00 20.00     0.210 HD
ENDBRANCH   1   8
TORSDOF 3
ENDMDL
MODEL 9
REMARK VINA RESULT:      -1.4      2.172      3.894
REMARK  3 active torsions:
REMARK  status: ('A' for Active; 'I' for Inactive)
REMARK    1  A    between atoms: C2_2  and  C7_7 
REMARK    2  A    between atoms: C5_5  and  C7_7 
REMARK    3  A    between atoms: C7_7  and  O8_8 
ROOT
HETATM    1  C7  UNL     1     -33.368   5.397   3.344  1.00 20.00     0.150 C 
ENDROOT
BRANCH   1   2
HETATM    2  C2  UNL     1     -34.306   6.513   3.747  1.00 20.00    -0.064 C 
HETATM    3  C1  UNL     1     -35.625   6.297   3.877  1.00 20.00     0.016 C 
HETATM    4  C6  UNL     1     -33.717   7.872   4.007  1.00 20.00     0.045 C 
ENDBRANCH   1   2
BRANCH   1   5
HETATM    5  C5  UNL     1     -33.879   4.020   3.754  1.00 20.00     0.019 A 
HETATM    6  C3  UNL     1     -32.909   2.933   4.129  1.00 20.00     0.008 A 
HETATM    7  C4  UNL     1     -33.770   3.569   5.185  1.00 20.00     0.008 A 
ENDBRANCH   1   5
BRANCH   1   8
HETATM    8  O8  UNL     1     -33.186   5.431   1.930  1.00 20.00    -0.391 OA
HETATM    9  H20 UNL     1     -32.963   4.527   1.660  1.00 20.00     0.210 HD
ENDBRANCH   1   8
TORSDOF 3
ENDMDL
