MODEL 1
REMARK VINA RESULT:      -1.1      0.000      0.000
REMARK  2 active torsions:
REMARK  status: ('A' for Active; 'I' for Inactive)
REMARK    1  A    between atoms: C7_7  and  C8_8 
REMARK    2  A    between atoms: C7_7  and  N9_9 
ROOT
HETATM    1  C1  UNL     1     -33.725   5.612   2.163  1.00 20.00     0.277 C 
HETATM    2  C2  UNL     1     -33.301   7.781   2.928  1.00 20.00     0.277 C 
HETATM    3  C3  UNL     1     -32.650   6.207   1.240  1.00 20.00     0.015 C 
HETATM    4  C4  UNL     1     -32.150   7.456   1.983  1.00 20.00     0.015 C 
HETATM    5  C5  UNL     1     -31.524   5.227   0.937  1.00 20.00     0.012 C 
HETATM    6  C6  UNL     1     -31.799   8.612   1.059  1.00 20.00     0.012 C 
HETATM    7  N9  UNL     1     -33.686   6.441   3.372  1.00 20.00     0.090 N 
ENDROOT
BRANCH   7   8
HETATM    8  C7  UNL     1     -34.945   6.433   4.099  1.00 20.00     0.287 C 
BRANCH   8   9
HETATM    9  C8  UNL     1     -35.363   5.037   4.529  1.00 20.00     0.144 C 
HETATM   10 CL10 UNL     1     -33.986   3.907   4.488  1.00 20.00    -0.129 Cl
ENDBRANCH   8   9
ENDBRANCH   7   8
TORSDOF 2
ENDMDL
MODEL 2
REMARK VINA RESULT:      -1.1      0.365      2.000
REMARK  2 active torsions:
REMARK  status: ('A' for Active; 'I' for Inactive)
REMARK    1  A    between atoms: C7_7  and  C8_8 
REMARK    2  A    between atoms: C7_7  and  N9_9 
ROOT
HETATM    1  C1  UNL     1     -32.902   7.875   3.066  1.00 20.00     0.277 C 
HETATM    2  C2  UNL     1     -33.445   5.691   2.430  1.00 20.00     0.277 C 
HETATM    3  C3  UNL     1     -31.984   7.514   1.887  1.00 20.00     0.015 C 
HETATM    4  C4  UNL     1     -32.613   6.249   1.282  1.00 20.00     0.015 C 
HETATM    5  C5  UNL     1     -31.862   8.640   0.868  1.00 20.00     0.012 C 
HETATM    6  C6  UNL     1     -31.589   5.255   0.756  1.00 20.00     0.012 C 
HETATM    7  N9  UNL     1     -34.012   6.919   2.988  1.00 20.00     0.090 N 
ENDROOT
BRANCH   7   8
HETATM    8  C7  UNL     1     -34.657   6.704   4.273  1.00 20.00     0.287 C 
BRANCH   8   9
HETATM    9  C8  UNL     1     -35.358   5.358   4.357  1.00 20.00     0.144 C 
HETATM   10 CL10 UNL     1     -34.190   4.032   4.585  1.00 20.00    -0.129 Cl
ENDBRANCH   8   9
ENDBRANCH   7   8
TORSDOF 2
ENDMDL
MODEL 3
REMARK VINA RESULT:      -1.0      2.795      4.718
REMARK  2 active torsions:
REMARK  status: ('A' for Active; 'I' for Inactive)
REMARK    1  A    between atoms: C7_7  and  C8_8 
REMARK    2  A    between atoms: C7_7  and  N9_9 
ROOT
HETATM    1  C1  UNL     1     -32.736   8.500   2.974  1.00 20.00     0.277 C 
HETATM    2  C2  UNL     1     -33.524   6.448   2.177  1.00 20.00     0.277 C 
HETATM    3  C3  UNL     1     -33.753   7.984   4.003  1.00 20.00     0.015 C 
HETATM    4  C4  UNL     1     -33.959   6.506   3.636  1.00 20.00     0.015 C 
HETATM    5  C5  UNL     1     -33.278   8.159   5.440  1.00 20.00     0.012 C 
HETATM    6  C6  UNL     1     -35.385   6.022   3.847  1.00 20.00     0.012 C 
HETATM    7  N9  UNL     1     -32.347   7.316   2.200  1.00 20.00     0.090 N 
ENDROOT
BRANCH   7   8
HETATM    8  C7  UNL     1     -31.870   7.649   0.867  1.00 20.00     0.287 C 
BRANCH   8   9
HETATM    9  C8  UNL     1     -31.639   9.140   0.684  1.00 20.00     0.144 C 
HETATM   10 CL10 UNL     1     -32.796   9.838  -0.476  1.00 20.00    -0.129 Cl
ENDBRANCH   8   9
ENDBRANCH   7   8
TORSDOF 2
ENDMDL
MODEL 4
REMARK VINA RESULT:      -0.8      2.775      4.425
REMARK  2 active torsions:
REMARK  status: ('A' for Active; 'I' for Inactive)
REMARK    1  A    between atoms: C7_7  and  C8_8 
REMARK    2  A    between atoms: C7_7  and  N9_9 
ROOT
HETATM    1  C1  UNL     1     -33.342   6.301   2.321  1.00 20.00     0.277 C 
HETATM    2  C2  UNL     1     -32.489   8.321   3.133  1.00 20.00     0.277 C 
HETATM    3  C3  UNL     1     -33.944   6.508   3.720  1.00 20.00     0.015 C 
HETATM    4  C4  UNL     1     -33.659   7.981   4.049  1.00 20.00     0.015 C 
HETATM    5  C5  UNL     1     -35.432   6.183   3.775  1.00 20.00     0.012 C 
HETATM    6  C6  UNL     1     -33.349   8.225   5.518  1.00 20.00     0.012 C 
HETATM    7  N9  UNL     1     -32.885   7.631   1.905  1.00 20.00     0.090 N 
ENDROOT
BRANCH   7   8
HETATM    8  C7  UNL     1     -31.813   7.575   0.925  1.00 20.00     0.287 C 
BRANCH   8   9
HETATM    9  C8  UNL     1     -31.359   8.954   0.475  1.00 20.00     0.144 C 
HETATM   10 CL10 UNL     1     -32.711   9.888  -0.213  1.00 20.00    -0.129 Cl
ENDBRANCH   8   9
ENDBRANCH   7   8
TORSDOF 2
ENDMDL
MODEL 5
REMARK VINA RESULT:       0.0      2.856      4.228
REMARK  2 active torsions:
REMARK  status: ('A' for Active; 'I' for Inactive)
REMARK    1  A    between atoms: C7_7  and  C8_8 
REMARK    2  A    between atoms: C7_7  and  N9_9 
ROOT
HETATM    1  C1  UNL     1     -31.769   6.941   1.287  1.00 20.00     0.277 C 
HETATM    2  C2  UNL     1     -33.359   7.597   2.871  1.00 20.00     0.277 C 
HETATM    3  C3  UNL     1     -32.463   5.660   1.778  1.00 20.00     0.015 C 
HETATM    4  C4  UNL     1     -33.715   6.158   2.517  1.00 20.00     0.015 C 
HETATM    5  C5  UNL     1     -32.806   4.704   0.642  1.00 20.00     0.012 C 
HETATM    6  C6  UNL     1     -34.073   5.320   3.735  1.00 20.00     0.012 C 
HETATM    7  N9  UNL     1     -32.685   8.029   1.647  1.00 20.00     0.090 N 
ENDROOT
BRANCH   7   8
HETATM    8  C7  UNL     1     -32.006   9.305   1.802  1.00 20.00     0.287 C 
BRANCH   8   9
HETATM    9  C8  UNL     1     -32.594  10.392   0.918  1.00 20.00     0.144 C 
HETATM   10 CL10 UNL     1     -32.784   9.829  -0.762  1.00 20.00    -0.129 Cl
ENDBRANCH   8   9
ENDBRANCH   7   8
TORSDOF 2
ENDMDL
MODEL 6
REMARK VINA RESULT:       0.1      2.853      4.284
REMARK  2 active torsions:
REMARK  status: ('A' for Active; 'I' for Inactive)
REMARK    1  A    between atoms: C7_7  and  C8_8 
REMARK    2  A    between atoms: C7_7  and  N9_9 
ROOT
HETATM    1  C1  UNL     1     -33.576   7.297   2.961  1.00 20.00     0.277 C 
HETATM    2  C2  UNL     1     -32.140   6.819   1.178  1.00 20.00     0.277 C 
HETATM    3  C3  UNL     1     -33.823   5.831   2.571  1.00 20.00     0.015 C 
HETATM    4  C4  UNL     1     -32.632   5.464   1.671  1.00 20.00     0.015 C 
HETATM    5  C5  UNL     1     -33.938   4.911   3.779  1.00 20.00     0.012 C 
HETATM    6  C6  UNL     1     -32.997   4.519   0.538  1.00 20.00     0.012 C 
HETATM    7  N9  UNL     1     -32.262   7.622   2.395  1.00 20.00     0.090 N 
ENDROOT
BRANCH   7   8
HETATM    8  C7  UNL     1     -32.096   9.045   2.145  1.00 20.00     0.287 C 
BRANCH   8   9
HETATM    9  C8  UNL     1     -31.956   9.366   0.666  1.00 20.00     0.144 C 
HETATM   10 CL10 UNL     1     -32.980  10.749   0.203  1.00 20.00    -0.129 Cl
ENDBRANCH   8   9
ENDBRANCH   7   8
TORSDOF 2
ENDMDL
MODEL 7
REMARK VINA RESULT:       0.3      1.589      2.379
REMARK  2 active torsions:
REMARK  status: ('A' for Active; 'I' for Inactive)
REMARK    1  A    between atoms: C7_7  and  C8_8 
REMARK    2  A    between atoms: C7_7  and  N9_9 
ROOT
HETATM    1  C1  UNL     1     -33.212   5.466   2.315  1.00 20.00     0.277 C 
HETATM    2  C2  UNL     1     -34.467   6.260   4.121  1.00 20.00     0.277 C 
HETATM    3  C3  UNL     1     -33.244   6.997   2.195  1.00 20.00     0.015 C 
HETATM    4  C4  UNL     1     -33.747   7.482   3.564  1.00 20.00     0.015 C 
HETATM    5  C5  UNL     1     -31.886   7.589   1.838  1.00 20.00     0.012 C 
HETATM    6  C6  UNL     1     -34.641   8.709   3.482  1.00 20.00     0.012 C 
HETATM    7  N9  UNL     1     -33.559   5.188   3.713  1.00 20.00     0.090 N 
ENDROOT
BRANCH   7   8
HETATM    8  C7  UNL     1     -34.135   3.866   3.896  1.00 20.00     0.287 C 
BRANCH   8   9
HETATM    9  C8  UNL     1     -33.115   2.844   4.369  1.00 20.00     0.144 C 
HETATM   10 CL10 UNL     1     -32.593   3.174   6.040  1.00 20.00    -0.129 Cl
ENDBRANCH   8   9
ENDBRANCH   7   8
TORSDOF 2
ENDMDL
MODEL 8
REMARK VINA RESULT:       0.3      2.120      3.762
REMARK  2 active torsions:
REMARK  status: ('A' for Active; 'I' for Inactive)
REMARK    1  A    between atoms: C7_7  and  C8_8 
REMARK    2  A    between atoms: C7_7  and  N9_9 
ROOT
HETATM    1  C1  UNL     1     -33.606   5.392   2.706  1.00 20.00     0.277 C 
HETATM    2  C2  UNL     1     -32.537   7.472   2.707  1.00 20.00     0.277 C 
HETATM    3  C3  UNL     1     -34.167   6.180   3.900  1.00 20.00     0.015 C 
HETATM    4  C4  UNL     1     -33.725   7.630   3.649  1.00 20.00     0.015 C 
HETATM    5  C5  UNL     1     -35.680   6.054   4.031  1.00 20.00     0.012 C 
HETATM    6  C6  UNL     1     -33.375   8.386   4.921  1.00 20.00     0.012 C 
HETATM    7  N9  UNL     1     -33.017   6.407   1.826  1.00 20.00     0.090 N 
ENDROOT
BRANCH   7   8
HETATM    8  C7  UNL     1     -31.968   5.871   0.974  1.00 20.00     0.287 C 
BRANCH   8   9
HETATM    9  C8  UNL     1     -32.320   4.508   0.400  1.00 20.00     0.144 C 
HETATM   10 CL10 UNL     1     -30.888   3.704  -0.288  1.00 20.00    -0.129 Cl
ENDBRANCH   8   9
ENDBRANCH   7   8
TORSDOF 2
ENDMDL
MODEL 9
REMARK VINA RESULT:       0.5      1.326      2.594
REMARK  2 active torsions:
REMARK  status: ('A' for Active; 'I' for Inactive)
REMARK    1  A    between atoms: C7_7  and  C8_8 
REMARK    2  A    between atoms: C7_7  and  N9_9 
ROOT
HETATM    1  C1  UNL     1     -34.422   6.910   4.364  1.00 20.00     0.277 C 
HETATM    2  C2  UNL     1     -33.263   5.695   2.737  1.00 20.00     0.277 C 
HETATM    3  C3  UNL     1     -33.654   7.931   3.510  1.00 20.00     0.015 C 
HETATM    4  C4  UNL     1     -33.219   7.143   2.264  1.00 20.00     0.015 C 
HETATM    5  C5  UNL     1     -34.492   9.153   3.156  1.00 20.00     0.012 C 
HETATM    6  C6  UNL     1     -31.853   7.551   1.734  1.00 20.00     0.012 C 
HETATM    7  N9  UNL     1     -34.486   5.699   3.539  1.00 20.00     0.090 N 
ENDROOT
BRANCH   7   8
HETATM    8  C7  UNL     1     -34.639   4.489   4.331  1.00 20.00     0.287 C 
BRANCH   8   9
HETATM    9  C8  UNL     1     -33.574   3.449   4.022  1.00 20.00     0.144 C 
HETATM   10 CL10 UNL     1     -32.737   2.919   5.502  1.00 20.00    -0.129 Cl
ENDBRANCH   8   9
ENDBRANCH   7   8
TORSDOF 2
ENDMDL
