MODEL 1
REMARK VINA RESULT:      -0.5      0.000      0.000
REMARK  4 active torsions:
REMARK  status: ('A' for Active; 'I' for Inactive)
REMARK    1  A    between atoms: C2_2  and  C9_9 
REMARK    2  A    between atoms: C5_5  and  C9_9 
REMARK    3  A    between atoms: C8_8  and  C9_9 
REMARK    4  A    between atoms: C9_9  and  O10_10 
ROOT
HETATM    1  C9  UNL     1     -33.127   6.383   2.143  1.00 20.00     0.083 C 
ENDROOT
BRANCH   1   2
HETATM    2  C2  UNL     1     -34.034   5.914   3.290  1.00 20.00    -0.059 C 
HETATM    3  C1  UNL     1     -34.926   6.705   3.911  1.00 20.00     0.017 C 
HETATM    4  C6  UNL     1     -33.905   4.474   3.723  1.00 20.00     0.046 C 
ENDBRANCH   1   2
BRANCH   1   5
HETATM    5  C5  UNL     1     -32.552   7.786   2.271  1.00 20.00     0.024 A 
HETATM    6  C3  UNL     1     -31.185   8.098   1.728  1.00 20.00     0.008 A 
HETATM    7  C4  UNL     1     -32.407   8.659   1.056  1.00 20.00     0.008 A 
ENDBRANCH   1   5
BRANCH   1   8
HETATM    8  C8  UNL     1     -31.979   5.375   1.867  1.00 20.00     0.038 C 
HETATM    9  C7  UNL     1     -32.031   4.683   0.510  1.00 20.00     0.008 C 
ENDBRANCH   1   8
BRANCH   1  10
HETATM   10  O10 UNL     1     -33.923   6.391   0.941  1.00 20.00    -0.385 OA
HETATM   11  H26 UNL     1     -34.285   7.284   0.875  1.00 20.00     0.211 HD
ENDBRANCH   1  10
TORSDOF 4
ENDMDL
MODEL 2
REMARK VINA RESULT:      -0.4      1.661      3.620
REMARK  4 active torsions:
REMARK  status: ('A' for Active; 'I' for Inactive)
REMARK    1  A    between atoms: C2_2  and  C9_9 
REMARK    2  A    between atoms: C5_5  and  C9_9 
REMARK    3  A    between atoms: C8_8  and  C9_9 
REMARK    4  A    between atoms: C9_9  and  O10_10 
ROOT
HETATM    1  C9  UNL     1     -32.351   7.925   2.110  1.00 20.00     0.083 C 
ENDROOT
BRANCH   1   2
HETATM    2  C2  UNL     1     -32.218   8.965   0.987  1.00 20.00    -0.059 C 
HETATM    3  C1  UNL     1     -32.910  10.116   0.946  1.00 20.00     0.017 C 
HETATM    4  C6  UNL     1     -31.240   8.658  -0.122  1.00 20.00     0.046 C 
ENDBRANCH   1   2
BRANCH   1   5
HETATM    5  C5  UNL     1     -33.739   7.757   2.710  1.00 20.00     0.024 A 
HETATM    6  C3  UNL     1     -34.066   6.545   3.536  1.00 20.00     0.008 A 
HETATM    7  C4  UNL     1     -33.944   7.892   4.192  1.00 20.00     0.008 A 
ENDBRANCH   1   5
BRANCH   1   8
HETATM    8  C8  UNL     1     -31.800   6.539   1.680  1.00 20.00     0.038 C 
HETATM    9  C7  UNL     1     -32.803   5.626   0.985  1.00 20.00     0.008 C 
ENDBRANCH   1   8
BRANCH   1  10
HETATM   10  O10 UNL     1     -31.502   8.352   3.193  1.00 20.00    -0.385 OA
HETATM   11  H26 UNL     1     -30.678   8.640   2.780  1.00 20.00     0.211 HD
ENDBRANCH   1  10
TORSDOF 4
ENDMDL
MODEL 3
REMARK VINA RESULT:      -0.2      1.005      1.394
REMARK  4 active torsions:
REMARK  status: ('A' for Active; 'I' for Inactive)
REMARK    1  A    between atoms: C2_2  and  C9_9 
REMARK    2  A    between atoms: C5_5  and  C9_9 
REMARK    3  A    between atoms: C8_8  and  C9_9 
REMARK    4  A    between atoms: C9_9  and  O10_10 
ROOT
HETATM    1  C9  UNL     1     -32.914   7.036   2.101  1.00 20.00     0.083 C 
ENDROOT
BRANCH   1   2
HETATM    2  C2  UNL     1     -33.747   7.082   3.391  1.00 20.00    -0.059 C 
HETATM    3  C1  UNL     1     -34.836   6.325   3.607  1.00 20.00     0.017 C 
HETATM    4  C6  UNL     1     -33.290   8.034   4.470  1.00 20.00     0.046 C 
ENDBRANCH   1   2
BRANCH   1   5
HETATM    5  C5  UNL     1     -32.081   8.271   1.795  1.00 20.00     0.024 A 
HETATM    6  C3  UNL     1     -31.443   8.440   0.443  1.00 20.00     0.008 A 
HETATM    7  C4  UNL     1     -32.597   9.317   0.846  1.00 20.00     0.008 A 
ENDBRANCH   1   5
BRANCH   1   8
HETATM    8  C8  UNL     1     -32.012   5.774   2.042  1.00 20.00     0.038 C 
HETATM    9  C7  UNL     1     -32.202   4.893   0.813  1.00 20.00     0.008 C 
ENDBRANCH   1   8
BRANCH   1  10
HETATM   10  O10 UNL     1     -33.834   6.897   1.000  1.00 20.00    -0.385 OA
HETATM   11  H26 UNL     1     -34.003   5.950   0.919  1.00 20.00     0.211 HD
ENDBRANCH   1  10
TORSDOF 4
ENDMDL
MODEL 4
REMARK VINA RESULT:      -0.2      0.500      1.233
REMARK  4 active torsions:
REMARK  status: ('A' for Active; 'I' for Inactive)
REMARK    1  A    between atoms: C2_2  and  C9_9 
REMARK    2  A    between atoms: C5_5  and  C9_9 
REMARK    3  A    between atoms: C8_8  and  C9_9 
REMARK    4  A    between atoms: C9_9  and  O10_10 
ROOT
HETATM    1  C9  UNL     1     -33.117   6.197   1.967  1.00 20.00     0.083 C 
ENDROOT
BRANCH   1   2
HETATM    2  C2  UNL     1     -33.888   5.694   3.197  1.00 20.00    -0.059 C 
HETATM    3  C1  UNL     1     -33.781   4.448   3.690  1.00 20.00     0.017 C 
HETATM    4  C6  UNL     1     -34.807   6.677   3.881  1.00 20.00     0.046 C 
ENDBRANCH   1   2
BRANCH   1   5
HETATM    5  C5  UNL     1     -32.876   7.698   1.893  1.00 20.00     0.024 A 
HETATM    6  C3  UNL     1     -31.784   8.332   2.709  1.00 20.00     0.008 A 
HETATM    7  C4  UNL     1     -31.647   8.235   1.215  1.00 20.00     0.008 A 
ENDBRANCH   1   5
BRANCH   1   8
HETATM    8  C8  UNL     1     -31.770   5.446   1.785  1.00 20.00     0.038 C 
HETATM    9  C7  UNL     1     -31.670   4.582   0.533  1.00 20.00     0.008 C 
ENDBRANCH   1   8
BRANCH   1  10
HETATM   10  O10 UNL     1     -33.898   5.865   0.803  1.00 20.00    -0.385 OA
HETATM   11  H26 UNL     1     -34.132   6.709   0.397  1.00 20.00     0.211 HD
ENDBRANCH   1  10
TORSDOF 4
ENDMDL
MODEL 5
REMARK VINA RESULT:      -0.1      1.656      3.080
REMARK  4 active torsions:
REMARK  status: ('A' for Active; 'I' for Inactive)
REMARK    1  A    between atoms: C2_2  and  C9_9 
REMARK    2  A    between atoms: C5_5  and  C9_9 
REMARK    3  A    between atoms: C8_8  and  C9_9 
REMARK    4  A    between atoms: C9_9  and  O10_10 
ROOT
HETATM    1  C9  UNL     1     -32.623   7.868   2.266  1.00 20.00     0.083 C 
ENDROOT
BRANCH   1   2
HETATM    2  C2  UNL     1     -33.449   7.657   3.544  1.00 20.00    -0.059 C 
HETATM    3  C1  UNL     1     -34.589   6.947   3.591  1.00 20.00     0.017 C 
HETATM    4  C6  UNL     1     -32.923   8.285   4.813  1.00 20.00     0.046 C 
ENDBRANCH   1   2
BRANCH   1   5
HETATM    5  C5  UNL     1     -32.664   6.739   1.246  1.00 20.00     0.024 A 
HETATM    6  C3  UNL     1     -31.654   5.627   1.304  1.00 20.00     0.008 A 
HETATM    7  C4  UNL     1     -33.090   5.359   1.661  1.00 20.00     0.008 A 
ENDBRANCH   1   5
BRANCH   1   8
HETATM    8  C8  UNL     1     -32.973   9.210   1.569  1.00 20.00     0.038 C 
HETATM    9  C7  UNL     1     -32.227   9.484   0.269  1.00 20.00     0.008 C 
ENDBRANCH   1   8
BRANCH   1  10
HETATM   10  O10 UNL     1     -31.243   7.993   2.661  1.00 20.00    -0.385 OA
HETATM   11  H26 UNL     1     -31.071   7.244   3.245  1.00 20.00     0.211 HD
ENDBRANCH   1  10
TORSDOF 4
ENDMDL
MODEL 6
REMARK VINA RESULT:       0.0      1.676      3.051
REMARK  4 active torsions:
REMARK  status: ('A' for Active; 'I' for Inactive)
REMARK    1  A    between atoms: C2_2  and  C9_9 
REMARK    2  A    between atoms: C5_5  and  C9_9 
REMARK    3  A    between atoms: C8_8  and  C9_9 
REMARK    4  A    between atoms: C9_9  and  O10_10 
ROOT
HETATM    1  C9  UNL     1     -32.358   7.721   1.807  1.00 20.00     0.083 C 
ENDROOT
BRANCH   1   2
HETATM    2  C2  UNL     1     -32.529   6.262   1.357  1.00 20.00    -0.059 C 
HETATM    3  C1  UNL     1     -31.705   5.265   1.721  1.00 20.00     0.017 C 
HETATM    4  C6  UNL     1     -33.703   5.954   0.460  1.00 20.00     0.046 C 
ENDBRANCH   1   2
BRANCH   1   5
HETATM    5  C5  UNL     1     -32.981   8.779   0.909  1.00 20.00     0.024 A 
HETATM    6  C3  UNL     1     -32.555  10.217   1.022  1.00 20.00     0.008 A 
HETATM    7  C4  UNL     1     -32.173   9.412  -0.189  1.00 20.00     0.008 A 
ENDBRANCH   1   5
BRANCH   1   8
HETATM    8  C8  UNL     1     -32.838   7.933   3.268  1.00 20.00     0.038 C 
HETATM    9  C7  UNL     1     -34.152   7.250   3.629  1.00 20.00     0.008 C 
ENDBRANCH   1   8
BRANCH   1  10
HETATM   10  O10 UNL     1     -30.945   8.003   1.827  1.00 20.00    -0.385 OA
HETATM   11  H26 UNL     1     -30.738   8.233   2.742  1.00 20.00     0.211 HD
ENDBRANCH   1  10
TORSDOF 4
ENDMDL
MODEL 7
REMARK VINA RESULT:       0.0      1.401      4.094
REMARK  4 active torsions:
REMARK  status: ('A' for Active; 'I' for Inactive)
REMARK    1  A    between atoms: C2_2  and  C9_9 
REMARK    2  A    between atoms: C5_5  and  C9_9 
REMARK    3  A    between atoms: C8_8  and  C9_9 
REMARK    4  A    between atoms: C9_9  and  O10_10 
ROOT
HETATM    1  C9  UNL     1     -33.942   6.673   3.191  1.00 20.00     0.083 C 
ENDROOT
BRANCH   1   2
HETATM    2  C2  UNL     1     -32.916   6.611   2.049  1.00 20.00    -0.059 C 
HETATM    3  C1  UNL     1     -32.751   5.545   1.248  1.00 20.00     0.017 C 
HETATM    4  C6  UNL     1     -32.061   7.835   1.827  1.00 20.00     0.046 C 
ENDBRANCH   1   2
BRANCH   1   5
HETATM    5  C5  UNL     1     -33.860   5.564   4.229  1.00 20.00     0.024 A 
HETATM    6  C3  UNL     1     -35.096   4.810   4.633  1.00 20.00     0.008 A 
HETATM    7  C4  UNL     1     -34.033   4.128   3.819  1.00 20.00     0.008 A 
ENDBRANCH   1   5
BRANCH   1   8
HETATM    8  C8  UNL     1     -33.929   8.052   3.903  1.00 20.00     0.038 C 
HETATM    9  C7  UNL     1     -33.226   8.081   5.256  1.00 20.00     0.008 C 
ENDBRANCH   1   8
BRANCH   1  10
HETATM   10  O10 UNL     1     -35.252   6.563   2.599  1.00 20.00    -0.385 OA
HETATM   11  H26 UNL     1     -35.831   7.106   3.150  1.00 20.00     0.211 HD
ENDBRANCH   1  10
TORSDOF 4
ENDMDL
MODEL 8
REMARK VINA RESULT:       0.3      0.922      3.210
REMARK  4 active torsions:
REMARK  status: ('A' for Active; 'I' for Inactive)
REMARK    1  A    between atoms: C2_2  and  C9_9 
REMARK    2  A    between atoms: C5_5  and  C9_9 
REMARK    3  A    between atoms: C8_8  and  C9_9 
REMARK    4  A    between atoms: C9_9  and  O10_10 
ROOT
HETATM    1  C9  UNL     1     -32.921   6.592   1.928  1.00 20.00     0.083 C 
ENDROOT
BRANCH   1   2
HETATM    2  C2  UNL     1     -32.391   5.325   1.240  1.00 20.00    -0.059 C 
HETATM    3  C1  UNL     1     -31.183   4.789   1.485  1.00 20.00     0.017 C 
HETATM    4  C6  UNL     1     -33.302   4.654   0.241  1.00 20.00     0.046 C 
ENDBRANCH   1   2
BRANCH   1   5
HETATM    5  C5  UNL     1     -33.451   6.416   3.344  1.00 20.00     0.024 A 
HETATM    6  C3  UNL     1     -34.052   7.582   4.079  1.00 20.00     0.008 A 
HETATM    7  C4  UNL     1     -34.930   6.455   3.610  1.00 20.00     0.008 A 
ENDBRANCH   1   5
BRANCH   1   8
HETATM    8  C8  UNL     1     -31.877   7.741   1.903  1.00 20.00     0.038 C 
HETATM    9  C7  UNL     1     -32.190   8.886   0.948  1.00 20.00     0.008 C 
ENDBRANCH   1   8
BRANCH   1  10
HETATM   10  O10 UNL     1     -34.034   7.072   1.148  1.00 20.00    -0.385 OA
HETATM   11  H26 UNL     1     -34.762   7.180   1.773  1.00 20.00     0.211 HD
ENDBRANCH   1  10
TORSDOF 4
ENDMDL
MODEL 9
REMARK VINA RESULT:       0.4      1.338      3.313
REMARK  4 active torsions:
REMARK  status: ('A' for Active; 'I' for Inactive)
REMARK    1  A    between atoms: C2_2  and  C9_9 
REMARK    2  A    between atoms: C5_5  and  C9_9 
REMARK    3  A    between atoms: C8_8  and  C9_9 
REMARK    4  A    between atoms: C9_9  and  O10_10 
ROOT
HETATM    1  C9  UNL     1     -32.776   6.642   1.935  1.00 20.00     0.083 C 
ENDROOT
BRANCH   1   2
HETATM    2  C2  UNL     1     -32.085   8.006   1.792  1.00 20.00    -0.059 C 
HETATM    3  C1  UNL     1     -31.171   8.477   2.657  1.00 20.00     0.017 C 
HETATM    4  C6  UNL     1     -32.465   8.846   0.597  1.00 20.00     0.046 C 
ENDBRANCH   1   2
BRANCH   1   5
HETATM    5  C5  UNL     1     -33.444   6.364   3.274  1.00 20.00     0.024 A 
HETATM    6  C3  UNL     1     -34.087   7.481   4.047  1.00 20.00     0.008 A 
HETATM    7  C4  UNL     1     -34.940   6.426   3.401  1.00 20.00     0.008 A 
ENDBRANCH   1   5
BRANCH   1   8
HETATM    8  C8  UNL     1     -33.789   6.386   0.787  1.00 20.00     0.038 C 
HETATM    9  C7  UNL     1     -33.694   5.015   0.127  1.00 20.00     0.008 C 
ENDBRANCH   1   8
BRANCH   1  10
HETATM   10  O10 UNL     1     -31.763   5.628   1.782  1.00 20.00    -0.385 OA
HETATM   11  H26 UNL     1     -31.520   5.366   2.679  1.00 20.00     0.211 HD
ENDBRANCH   1  10
TORSDOF 4
ENDMDL
