MODEL 1
REMARK VINA RESULT:      -1.5      0.000      0.000
REMARK  2 active torsions:
REMARK  status: ('A' for Active; 'I' for Inactive)
REMARK    1  A    between atoms: C2_2  and  C3_3 
REMARK    2  A    between atoms: C3_3  and  C5_5 
ROOT
HETATM    1  C3  UNL     1     -33.409   5.734   2.737  1.00 20.00     0.159 C 
HETATM    2  O9  UNL     1     -33.231   4.704   3.389  1.00 20.00    -0.292 OA
ENDROOT
BRANCH   1   3
HETATM    3  C2  UNL     1     -32.427   6.125   1.672  1.00 20.00    -0.025 C 
HETATM    4  C1  UNL     1     -31.950   5.229   0.797  1.00 20.00     0.022 C 
HETATM    5  C7  UNL     1     -32.009   7.566   1.640  1.00 20.00     0.051 C 
ENDBRANCH   1   3
BRANCH   1   6
HETATM    6  C5  UNL     1     -34.610   6.607   3.002  1.00 20.00     0.064 A 
HETATM    7  C4  UNL     1     -35.381   6.372   4.253  1.00 20.00     0.018 A 
HETATM    8  C6  UNL     1     -34.557   7.618   4.092  1.00 20.00    -0.006 A 
HETATM    9  C8  UNL     1     -33.361   7.838   4.955  1.00 20.00     0.011 C 
ENDBRANCH   1   6
TORSDOF 2
ENDMDL
MODEL 2
REMARK VINA RESULT:      -1.3      1.445      3.886
REMARK  2 active torsions:
REMARK  status: ('A' for Active; 'I' for Inactive)
REMARK    1  A    between atoms: C2_2  and  C3_3 
REMARK    2  A    between atoms: C3_3  and  C5_5 
ROOT
HETATM    1  C3  UNL     1     -33.118   7.024   2.483  1.00 20.00     0.159 C 
HETATM    2  O9  UNL     1     -33.425   6.176   1.643  1.00 20.00    -0.292 OA
ENDROOT
BRANCH   1   3
HETATM    3  C2  UNL     1     -33.986   7.233   3.689  1.00 20.00    -0.025 C 
HETATM    4  C1  UNL     1     -33.688   8.157   4.613  1.00 20.00     0.022 C 
HETATM    5  C7  UNL     1     -35.199   6.357   3.803  1.00 20.00     0.051 C 
ENDBRANCH   1   3
BRANCH   1   6
HETATM    6  C5  UNL     1     -31.871   7.855   2.306  1.00 20.00     0.064 A 
HETATM    7  C4  UNL     1     -31.122   7.728   1.028  1.00 20.00     0.018 A 
HETATM    8  C6  UNL     1     -31.875   8.989   1.343  1.00 20.00    -0.006 A 
HETATM    9  C8  UNL     1     -33.062   9.373   0.527  1.00 20.00     0.011 C 
ENDBRANCH   1   6
TORSDOF 2
ENDMDL
MODEL 3
REMARK VINA RESULT:      -1.2      1.490      3.694
REMARK  2 active torsions:
REMARK  status: ('A' for Active; 'I' for Inactive)
REMARK    1  A    between atoms: C2_2  and  C3_3 
REMARK    2  A    between atoms: C3_3  and  C5_5 
ROOT
HETATM    1  C3  UNL     1     -33.503   7.250   3.571  1.00 20.00     0.159 C 
HETATM    2  O9  UNL     1     -32.918   7.695   4.560  1.00 20.00    -0.292 OA
ENDROOT
BRANCH   1   3
HETATM    3  C2  UNL     1     -34.574   6.213   3.738  1.00 20.00    -0.025 C 
HETATM    4  C1  UNL     1     -35.872   6.521   3.607  1.00 20.00     0.022 C 
HETATM    5  C7  UNL     1     -34.116   4.820   4.058  1.00 20.00     0.051 C 
ENDBRANCH   1   3
BRANCH   1   6
HETATM    6  C5  UNL     1     -33.149   7.743   2.190  1.00 20.00     0.064 A 
HETATM    7  C4  UNL     1     -31.722   8.052   1.903  1.00 20.00     0.018 A 
HETATM    8  C6  UNL     1     -32.383   6.861   1.269  1.00 20.00    -0.006 A 
HETATM    9  C8  UNL     1     -31.939   5.483   1.627  1.00 20.00     0.011 C 
ENDBRANCH   1   6
TORSDOF 2
ENDMDL
MODEL 4
REMARK VINA RESULT:      -1.1      1.498      2.192
REMARK  2 active torsions:
REMARK  status: ('A' for Active; 'I' for Inactive)
REMARK    1  A    between atoms: C2_2  and  C3_3 
REMARK    2  A    between atoms: C3_3  and  C5_5 
ROOT
HETATM    1  C3  UNL     1     -33.191   6.852   2.511  1.00 20.00     0.159 C 
HETATM    2  O9  UNL     1     -33.180   5.868   1.770  1.00 20.00    -0.292 OA
ENDROOT
BRANCH   1   3
HETATM    3  C2  UNL     1     -32.253   7.994   2.253  1.00 20.00    -0.025 C 
HETATM    4  C1  UNL     1     -31.950   8.383   1.006  1.00 20.00     0.022 C 
HETATM    5  C7  UNL     1     -31.674   8.674   3.460  1.00 20.00     0.051 C 
ENDBRANCH   1   3
BRANCH   1   6
HETATM    6  C5  UNL     1     -34.145   6.917   3.678  1.00 20.00     0.064 A 
HETATM    7  C4  UNL     1     -35.534   6.426   3.474  1.00 20.00     0.018 A 
HETATM    8  C6  UNL     1     -34.578   5.659   4.344  1.00 20.00    -0.006 A 
HETATM    9  C8  UNL     1     -34.113   4.305   3.928  1.00 20.00     0.011 C 
ENDBRANCH   1   6
TORSDOF 2
ENDMDL
MODEL 5
REMARK VINA RESULT:      -1.1      1.566      3.662
REMARK  2 active torsions:
REMARK  status: ('A' for Active; 'I' for Inactive)
REMARK    1  A    between atoms: C2_2  and  C3_3 
REMARK    2  A    between atoms: C3_3  and  C5_5 
ROOT
HETATM    1  C3  UNL     1     -33.619   6.193   3.260  1.00 20.00     0.159 C 
HETATM    2  O9  UNL     1     -33.747   7.390   3.519  1.00 20.00    -0.292 OA
ENDROOT
BRANCH   1   3
HETATM    3  C2  UNL     1     -34.426   5.174   4.008  1.00 20.00    -0.025 C 
HETATM    4  C1  UNL     1     -35.643   5.464   4.493  1.00 20.00     0.022 C 
HETATM    5  C7  UNL     1     -33.804   3.820   4.184  1.00 20.00     0.051 C 
ENDBRANCH   1   3
BRANCH   1   6
HETATM    6  C5  UNL     1     -32.652   5.743   2.193  1.00 20.00     0.064 A 
HETATM    7  C4  UNL     1     -33.031   5.962   0.771  1.00 20.00     0.018 A 
HETATM    8  C6  UNL     1     -31.918   6.759   1.391  1.00 20.00    -0.006 A 
HETATM    9  C8  UNL     1     -32.072   8.230   1.585  1.00 20.00     0.011 C 
ENDBRANCH   1   6
TORSDOF 2
ENDMDL
MODEL 6
REMARK VINA RESULT:      -1.1      1.269      1.800
REMARK  2 active torsions:
REMARK  status: ('A' for Active; 'I' for Inactive)
REMARK    1  A    between atoms: C2_2  and  C3_3 
REMARK    2  A    between atoms: C3_3  and  C5_5 
ROOT
HETATM    1  C3  UNL     1     -32.910   6.884   2.031  1.00 20.00     0.159 C 
HETATM    2  O9  UNL     1     -32.476   5.780   1.701  1.00 20.00    -0.292 OA
ENDROOT
BRANCH   1   3
HETATM    3  C2  UNL     1     -32.090   8.116   1.783  1.00 20.00    -0.025 C 
HETATM    4  C1  UNL     1     -30.973   8.365   2.482  1.00 20.00     0.022 C 
HETATM    5  C7  UNL     1     -32.583   9.048   0.716  1.00 20.00     0.051 C 
ENDBRANCH   1   3
BRANCH   1   6
HETATM    6  C5  UNL     1     -34.264   7.007   2.684  1.00 20.00     0.064 A 
HETATM    7  C4  UNL     1     -34.596   6.066   3.787  1.00 20.00     0.018 A 
HETATM    8  C6  UNL     1     -34.364   7.522   4.077  1.00 20.00    -0.006 A 
HETATM    9  C8  UNL     1     -33.185   7.943   4.886  1.00 20.00     0.011 C 
ENDBRANCH   1   6
TORSDOF 2
ENDMDL
MODEL 7
REMARK VINA RESULT:      -1.0      1.456      3.205
REMARK  2 active torsions:
REMARK  status: ('A' for Active; 'I' for Inactive)
REMARK    1  A    between atoms: C2_2  and  C3_3 
REMARK    2  A    between atoms: C3_3  and  C5_5 
ROOT
HETATM    1  C3  UNL     1     -33.756   5.798   3.035  1.00 20.00     0.159 C 
HETATM    2  O9  UNL     1     -33.144   5.394   2.045  1.00 20.00    -0.292 OA
ENDROOT
BRANCH   1   3
HETATM    3  C2  UNL     1     -34.338   4.816   4.008  1.00 20.00    -0.025 C 
HETATM    4  C1  UNL     1     -35.473   5.078   4.673  1.00 20.00     0.022 C 
HETATM    5  C7  UNL     1     -33.585   3.532   4.197  1.00 20.00     0.051 C 
ENDBRANCH   1   3
BRANCH   1   6
HETATM    6  C5  UNL     1     -33.925   7.278   3.275  1.00 20.00     0.064 A 
HETATM    7  C4  UNL     1     -32.953   7.955   4.174  1.00 20.00     0.018 A 
HETATM    8  C6  UNL     1     -32.941   8.233   2.698  1.00 20.00    -0.006 A 
HETATM    9  C8  UNL     1     -31.775   7.814   1.869  1.00 20.00     0.011 C 
ENDBRANCH   1   6
TORSDOF 2
ENDMDL
MODEL 8
REMARK VINA RESULT:      -1.0      2.222      3.177
REMARK  2 active torsions:
REMARK  status: ('A' for Active; 'I' for Inactive)
REMARK    1  A    between atoms: C2_2  and  C3_3 
REMARK    2  A    between atoms: C3_3  and  C5_5 
ROOT
HETATM    1  C3  UNL     1     -32.182   8.220   1.532  1.00 20.00     0.159 C 
HETATM    2  O9  UNL     1     -31.313   8.321   2.399  1.00 20.00    -0.292 OA
ENDROOT
BRANCH   1   3
HETATM    3  C2  UNL     1     -32.439   9.361   0.593  1.00 20.00    -0.025 C 
HETATM    4  C1  UNL     1     -32.391   9.197  -0.737  1.00 20.00     0.022 C 
HETATM    5  C7  UNL     1     -32.751  10.689   1.218  1.00 20.00     0.051 C 
ENDBRANCH   1   3
BRANCH   1   6
HETATM    6  C5  UNL     1     -32.992   6.953   1.408  1.00 20.00     0.064 A 
HETATM    7  C4  UNL     1     -32.596   5.786   2.242  1.00 20.00     0.018 A 
HETATM    8  C6  UNL     1     -33.869   6.529   2.533  1.00 20.00    -0.006 A 
HETATM    9  C8  UNL     1     -34.010   7.298   3.803  1.00 20.00     0.011 C 
ENDBRANCH   1   6
TORSDOF 2
ENDMDL
MODEL 9
REMARK VINA RESULT:      -0.9      2.283      3.894
REMARK  2 active torsions:
REMARK  status: ('A' for Active; 'I' for Inactive)
REMARK    1  A    between atoms: C2_2  and  C3_3 
REMARK    2  A    between atoms: C3_3  and  C5_5 
ROOT
HETATM    1  C3  UNL     1     -32.034   8.017   1.980  1.00 20.00     0.159 C 
HETATM    2  O9  UNL     1     -31.635   8.591   2.994  1.00 20.00    -0.292 OA
ENDROOT
BRANCH   1   3
HETATM    3  C2  UNL     1     -32.894   6.794   2.102  1.00 20.00    -0.025 C 
HETATM    4  C1  UNL     1     -32.695   5.718   1.327  1.00 20.00     0.022 C 
HETATM    5  C7  UNL     1     -33.984   6.839   3.132  1.00 20.00     0.051 C 
ENDBRANCH   1   3
BRANCH   1   6
HETATM    6  C5  UNL     1     -31.663   8.537   0.613  1.00 20.00     0.064 A 
HETATM    7  C4  UNL     1     -32.741   8.659  -0.404  1.00 20.00     0.018 A 
HETATM    8  C6  UNL     1     -32.118   9.889   0.193  1.00 20.00    -0.006 A 
HETATM    9  C8  UNL     1     -32.930  10.791   1.059  1.00 20.00     0.011 C 
ENDBRANCH   1   6
TORSDOF 2
ENDMDL
