MODEL 1
REMARK VINA RESULT:      -1.1      0.000      0.000
REMARK  4 active torsions:
REMARK  status: ('A' for Active; 'I' for Inactive)
REMARK    1  A    between atoms: C2_2  and  C7_7 
REMARK    2  A    between atoms: C6_6  and  C7_7 
REMARK    3  A    between atoms: C6_6  and  S9_9 
REMARK    4  A    between atoms: C7_7  and  N8_8 
ROOT
HETATM    1  C7  UNL     1     -32.733   7.112   2.771  1.00 20.00     0.257 C 
ENDROOT
BRANCH   1   2
HETATM    2  C2  UNL     1     -33.838   7.253   3.809  1.00 20.00    -0.060 C 
HETATM    3  C1  UNL     1     -33.742   8.152   4.802  1.00 20.00     0.016 C 
HETATM    4  C3  UNL     1     -35.044   6.359   3.702  1.00 20.00     0.044 C 
ENDBRANCH   1   2
BRANCH   1   5
HETATM    5  C6  UNL     1     -32.097   8.447   2.338  1.00 20.00     0.113 C 
BRANCH   5   6
HETATM    6  S9  UNL     1     -31.915   8.583   0.530  1.00 20.00    -0.171 SA
HETATM    7  C5  UNL     1     -32.576  10.253   0.331  1.00 20.00     0.089 C 
ENDBRANCH   5   6
ENDBRANCH   1   5
BRANCH   1   8
HETATM    8  N8  UNL     1     -33.229   6.422   1.571  1.00 20.00     0.088 N 
HETATM    9  C4  UNL     1     -32.450   5.224   1.318  1.00 20.00     0.307 C 
HETATM   10  H24 UNL     1     -33.153   7.055   0.781  1.00 20.00     0.316 HD
ENDBRANCH   1   8
TORSDOF 4
ENDMDL
MODEL 2
REMARK VINA RESULT:      -1.0      0.072      1.167
REMARK  4 active torsions:
REMARK  status: ('A' for Active; 'I' for Inactive)
REMARK    1  A    between atoms: C2_2  and  C7_7 
REMARK    2  A    between atoms: C6_6  and  C7_7 
REMARK    3  A    between atoms: C6_6  and  S9_9 
REMARK    4  A    between atoms: C7_7  and  N8_8 
ROOT
HETATM    1  C7  UNL     1     -32.752   7.097   2.752  1.00 20.00     0.257 C 
ENDROOT
BRANCH   1   2
HETATM    2  C2  UNL     1     -33.879   7.187   3.772  1.00 20.00    -0.060 C 
HETATM    3  C1  UNL     1     -34.972   6.414   3.664  1.00 20.00     0.016 C 
HETATM    4  C3  UNL     1     -33.744   8.165   4.908  1.00 20.00     0.044 C 
ENDBRANCH   1   2
BRANCH   1   5
HETATM    5  C6  UNL     1     -32.172   8.459   2.327  1.00 20.00     0.113 C 
BRANCH   5   6
HETATM    6  S9  UNL     1     -31.915   8.581   0.527  1.00 20.00    -0.171 SA
HETATM    7  C5  UNL     1     -32.578  10.244   0.286  1.00 20.00     0.089 C 
ENDBRANCH   5   6
ENDBRANCH   1   5
BRANCH   1   8
HETATM    8  N8  UNL     1     -33.197   6.383   1.545  1.00 20.00     0.088 N 
HETATM    9  C4  UNL     1     -32.373   5.210   1.319  1.00 20.00     0.307 C 
HETATM   10  H24 UNL     1     -33.123   7.013   0.753  1.00 20.00     0.316 HD
ENDBRANCH   1   8
TORSDOF 4
ENDMDL
MODEL 3
REMARK VINA RESULT:      -0.9      1.212      1.458
REMARK  4 active torsions:
REMARK  status: ('A' for Active; 'I' for Inactive)
REMARK    1  A    between atoms: C2_2  and  C7_7 
REMARK    2  A    between atoms: C6_6  and  C7_7 
REMARK    3  A    between atoms: C6_6  and  S9_9 
REMARK    4  A    between atoms: C7_7  and  N8_8 
ROOT
HETATM    1  C7  UNL     1     -33.094   6.230   2.675  1.00 20.00     0.257 C 
ENDROOT
BRANCH   1   2
HETATM    2  C2  UNL     1     -34.197   5.690   3.575  1.00 20.00    -0.060 C 
HETATM    3  C1  UNL     1     -35.235   6.462   3.936  1.00 20.00     0.016 C 
HETATM    4  C3  UNL     1     -34.101   4.267   4.056  1.00 20.00     0.044 C 
ENDBRANCH   1   2
BRANCH   1   5
HETATM    5  C6  UNL     1     -33.084   7.764   2.536  1.00 20.00     0.113 C 
BRANCH   5   6
HETATM    6  S9  UNL     1     -31.645   8.375   1.601  1.00 20.00    -0.171 SA
HETATM    7  C5  UNL     1     -32.508   9.564   0.549  1.00 20.00     0.089 C 
ENDBRANCH   5   6
ENDBRANCH   1   5
BRANCH   1   8
HETATM    8  N8  UNL     1     -33.183   5.642   1.330  1.00 20.00     0.088 N 
HETATM    9  C4  UNL     1     -31.976   4.896   1.023  1.00 20.00     0.307 C 
HETATM   10  H24 UNL     1     -33.304   6.393   0.658  1.00 20.00     0.316 HD
ENDBRANCH   1   8
TORSDOF 4
ENDMDL
MODEL 4
REMARK VINA RESULT:      -0.7      1.722      2.281
REMARK  4 active torsions:
REMARK  status: ('A' for Active; 'I' for Inactive)
REMARK    1  A    between atoms: C2_2  and  C7_7 
REMARK    2  A    between atoms: C6_6  and  C7_7 
REMARK    3  A    between atoms: C6_6  and  S9_9 
REMARK    4  A    between atoms: C7_7  and  N8_8 
ROOT
HETATM    1  C7  UNL     1     -33.381   5.772   3.177  1.00 20.00     0.257 C 
ENDROOT
BRANCH   1   2
HETATM    2  C2  UNL     1     -34.380   6.706   3.845  1.00 20.00    -0.060 C 
HETATM    3  C1  UNL     1     -35.696   6.435   3.831  1.00 20.00     0.016 C 
HETATM    4  C3  UNL     1     -33.863   7.946   4.524  1.00 20.00     0.044 C 
ENDBRANCH   1   2
BRANCH   1   5
HETATM    5  C6  UNL     1     -32.980   6.190   1.749  1.00 20.00     0.113 C 
BRANCH   5   6
HETATM    6  S9  UNL     1     -31.605   7.386   1.729  1.00 20.00    -0.171 SA
HETATM    7  C5  UNL     1     -32.502   8.797   1.044  1.00 20.00     0.089 C 
ENDBRANCH   5   6
ENDBRANCH   1   5
BRANCH   1   8
HETATM    8  N8  UNL     1     -33.902   4.397   3.130  1.00 20.00     0.088 N 
HETATM    9  C4  UNL     1     -33.548   3.681   4.342  1.00 20.00     0.307 C 
HETATM   10  H24 UNL     1     -33.501   3.929   2.324  1.00 20.00     0.316 HD
ENDBRANCH   1   8
TORSDOF 4
ENDMDL
MODEL 5
REMARK VINA RESULT:      -0.3      1.161      2.658
REMARK  4 active torsions:
REMARK  status: ('A' for Active; 'I' for Inactive)
REMARK    1  A    between atoms: C2_2  and  C7_7 
REMARK    2  A    between atoms: C6_6  and  C7_7 
REMARK    3  A    between atoms: C6_6  and  S9_9 
REMARK    4  A    between atoms: C7_7  and  N8_8 
ROOT
HETATM    1  C7  UNL     1     -33.144   7.151   2.110  1.00 20.00     0.257 C 
ENDROOT
BRANCH   1   2
HETATM    2  C2  UNL     1     -32.773   5.851   1.412  1.00 20.00    -0.060 C 
HETATM    3  C1  UNL     1     -31.620   5.220   1.692  1.00 20.00     0.016 C 
HETATM    4  C3  UNL     1     -33.726   5.282   0.395  1.00 20.00     0.044 C 
ENDBRANCH   1   2
BRANCH   1   5
HETATM    5  C6  UNL     1     -32.070   8.251   2.013  1.00 20.00     0.113 C 
BRANCH   5   6
HETATM    6  S9  UNL     1     -31.792   8.811   0.301  1.00 20.00    -0.171 SA
HETATM    7  C5  UNL     1     -32.652  10.396   0.406  1.00 20.00     0.089 C 
ENDBRANCH   5   6
ENDBRANCH   1   5
BRANCH   1   8
HETATM    8  N8  UNL     1     -33.441   6.915   3.531  1.00 20.00     0.088 N 
HETATM    9  C4  UNL     1     -34.832   6.540   3.702  1.00 20.00     0.307 C 
HETATM   10  H24 UNL     1     -33.248   7.768   4.046  1.00 20.00     0.316 HD
ENDBRANCH   1   8
TORSDOF 4
ENDMDL
MODEL 6
REMARK VINA RESULT:      -0.2      1.271      2.565
REMARK  4 active torsions:
REMARK  status: ('A' for Active; 'I' for Inactive)
REMARK    1  A    between atoms: C2_2  and  C7_7 
REMARK    2  A    between atoms: C6_6  and  C7_7 
REMARK    3  A    between atoms: C6_6  and  S9_9 
REMARK    4  A    between atoms: C7_7  and  N8_8 
ROOT
HETATM    1  C7  UNL     1     -33.454   7.291   2.557  1.00 20.00     0.257 C 
ENDROOT
BRANCH   1   2
HETATM    2  C2  UNL     1     -33.198   5.801   2.378  1.00 20.00    -0.060 C 
HETATM    3  C1  UNL     1     -32.480   5.343   1.339  1.00 20.00     0.016 C 
HETATM    4  C3  UNL     1     -33.769   4.846   3.392  1.00 20.00     0.044 C 
ENDBRANCH   1   2
BRANCH   1   5
HETATM    5  C6  UNL     1     -32.198   8.171   2.413  1.00 20.00     0.113 C 
BRANCH   5   6
HETATM    6  S9  UNL     1     -31.828   8.588   0.678  1.00 20.00    -0.171 SA
HETATM    7  C5  UNL     1     -32.610  10.217   0.633  1.00 20.00     0.089 C 
ENDBRANCH   5   6
ENDBRANCH   1   5
BRANCH   1   8
HETATM    8  N8  UNL     1     -34.065   7.563   3.866  1.00 20.00     0.088 N 
HETATM    9  C4  UNL     1     -33.107   8.202   4.749  1.00 20.00     0.307 C 
HETATM   10  H24 UNL     1     -34.370   6.682   4.268  1.00 20.00     0.316 HD
ENDBRANCH   1   8
TORSDOF 4
ENDMDL
MODEL 7
REMARK VINA RESULT:      -0.2      2.597      4.580
REMARK  4 active torsions:
REMARK  status: ('A' for Active; 'I' for Inactive)
REMARK    1  A    between atoms: C2_2  and  C7_7 
REMARK    2  A    between atoms: C6_6  and  C7_7 
REMARK    3  A    between atoms: C6_6  and  S9_9 
REMARK    4  A    between atoms: C7_7  and  N8_8 
ROOT
HETATM    1  C7  UNL     1     -33.450   6.776   3.367  1.00 20.00     0.257 C 
ENDROOT
BRANCH   1   2
HETATM    2  C2  UNL     1     -32.693   6.772   2.045  1.00 20.00    -0.060 C 
HETATM    3  C1  UNL     1     -32.676   5.681   1.262  1.00 20.00     0.016 C 
HETATM    4  C3  UNL     1     -31.961   8.021   1.632  1.00 20.00     0.044 C 
ENDBRANCH   1   2
BRANCH   1   5
HETATM    5  C6  UNL     1     -34.834   6.104   3.306  1.00 20.00     0.113 C 
BRANCH   5   6
HETATM    6  S9  UNL     1     -35.091   4.905   4.653  1.00 20.00    -0.171 SA
HETATM    7  C5  UNL     1     -33.764   3.754   4.230  1.00 20.00     0.089 C 
ENDBRANCH   5   6
ENDBRANCH   1   5
BRANCH   1   8
HETATM    8  N8  UNL     1     -33.620   8.148   3.867  1.00 20.00     0.088 N 
HETATM    9  C4  UNL     1     -33.155   8.249   5.238  1.00 20.00     0.307 C 
HETATM   10  H24 UNL     1     -34.605   8.388   3.819  1.00 20.00     0.316 HD
ENDBRANCH   1   8
TORSDOF 4
ENDMDL
MODEL 8
REMARK VINA RESULT:      -0.2      2.013      3.806
REMARK  4 active torsions:
REMARK  status: ('A' for Active; 'I' for Inactive)
REMARK    1  A    between atoms: C2_2  and  C7_7 
REMARK    2  A    between atoms: C6_6  and  C7_7 
REMARK    3  A    between atoms: C6_6  and  S9_9 
REMARK    4  A    between atoms: C7_7  and  N8_8 
ROOT
HETATM    1  C7  UNL     1     -33.152   7.162   2.128  1.00 20.00     0.257 C 
ENDROOT
BRANCH   1   2
HETATM    2  C2  UNL     1     -32.159   8.264   1.783  1.00 20.00    -0.060 C 
HETATM    3  C1  UNL     1     -31.063   8.466   2.533  1.00 20.00     0.016 C 
HETATM    4  C3  UNL     1     -32.432   9.129   0.582  1.00 20.00     0.044 C 
ENDBRANCH   1   2
BRANCH   1   5
HETATM    5  C6  UNL     1     -33.601   7.153   3.601  1.00 20.00     0.113 C 
BRANCH   5   6
HETATM    6  S9  UNL     1     -35.176   6.272   3.849  1.00 20.00    -0.171 SA
HETATM    7  C5  UNL     1     -34.501   4.657   4.297  1.00 20.00     0.089 C 
ENDBRANCH   5   6
ENDBRANCH   1   5
BRANCH   1   8
HETATM    8  N8  UNL     1     -32.598   5.840   1.802  1.00 20.00     0.088 N 
HETATM    9  C4  UNL     1     -33.191   5.330   0.580  1.00 20.00     0.307 C 
HETATM   10  H24 UNL     1     -32.797   5.209   2.571  1.00 20.00     0.316 HD
ENDBRANCH   1   8
TORSDOF 4
ENDMDL
MODEL 9
REMARK VINA RESULT:       0.1      1.470      2.485
REMARK  4 active torsions:
REMARK  status: ('A' for Active; 'I' for Inactive)
REMARK    1  A    between atoms: C2_2  and  C7_7 
REMARK    2  A    between atoms: C6_6  and  C7_7 
REMARK    3  A    between atoms: C6_6  and  S9_9 
REMARK    4  A    between atoms: C7_7  and  N8_8 
ROOT
HETATM    1  C7  UNL     1     -33.688   7.211   3.069  1.00 20.00     0.257 C 
ENDROOT
BRANCH   1   2
HETATM    2  C2  UNL     1     -34.398   5.981   3.618  1.00 20.00    -0.060 C 
HETATM    3  C1  UNL     1     -35.650   6.062   4.098  1.00 20.00     0.016 C 
HETATM    4  C3  UNL     1     -33.665   4.666   3.616  1.00 20.00     0.044 C 
ENDBRANCH   1   2
BRANCH   1   5
HETATM    5  C6  UNL     1     -32.910   6.963   1.763  1.00 20.00     0.113 C 
BRANCH   5   6
HETATM    6  S9  UNL     1     -31.539   8.139   1.529  1.00 20.00    -0.171 SA
HETATM    7  C5  UNL     1     -32.430   9.384   0.569  1.00 20.00     0.089 C 
ENDBRANCH   5   6
ENDBRANCH   1   5
BRANCH   1   8
HETATM    8  N8  UNL     1     -32.761   7.767   4.066  1.00 20.00     0.088 N 
HETATM    9  C4  UNL     1     -33.496   8.326   5.185  1.00 20.00     0.307 C 
HETATM   10  H24 UNL     1     -32.207   8.492   3.621  1.00 20.00     0.316 HD
ENDBRANCH   1   8
TORSDOF 4
ENDMDL
