MODEL 1
REMARK VINA RESULT:      -0.4      0.000      0.000
REMARK  2 active torsions:
REMARK  status: ('A' for Active; 'I' for Inactive)
REMARK    1  A    between atoms: C7_7  and  C8_8 
REMARK    2  A    between atoms: C7_7  and  N9_9 
ROOT
HETATM    1  C1  UNL     1     -32.561   5.778   2.320  1.00 20.00     0.277 C 
HETATM    2  C2  UNL     1     -33.793   7.561   3.132  1.00 20.00     0.277 C 
HETATM    3  C3  UNL     1     -33.880   5.154   2.787  1.00 20.00     0.015 C 
HETATM    4  C4  UNL     1     -34.704   6.346   3.326  1.00 20.00     0.015 C 
HETATM    5  C5  UNL     1     -33.652   3.982   3.731  1.00 20.00     0.012 C 
HETATM    6  C6  UNL     1     -35.223   6.245   4.753  1.00 20.00     0.012 C 
HETATM    7  N9  UNL     1     -32.947   7.156   2.009  1.00 20.00     0.090 N 
ENDROOT
BRANCH   7   8
HETATM    8  C7  UNL     1     -31.793   8.028   1.841  1.00 20.00     0.287 C 
BRANCH   8   9
HETATM    9  C8  UNL     1     -31.760   8.696   0.476  1.00 20.00     0.144 C 
HETATM   10 CL10 UNL     1     -32.647  10.240   0.490  1.00 20.00    -0.129 Cl
ENDBRANCH   8   9
ENDBRANCH   7   8
TORSDOF 2
ENDMDL
MODEL 2
REMARK VINA RESULT:      -0.2      1.286      2.118
REMARK  2 active torsions:
REMARK  status: ('A' for Active; 'I' for Inactive)
REMARK    1  A    between atoms: C7_7  and  C8_8 
REMARK    2  A    between atoms: C7_7  and  N9_9 
ROOT
HETATM    1  C1  UNL     1     -32.389   8.307   3.093  1.00 20.00     0.277 C 
HETATM    2  C2  UNL     1     -33.515   6.612   1.993  1.00 20.00     0.277 C 
HETATM    3  C3  UNL     1     -33.069   7.509   4.210  1.00 20.00     0.015 C 
HETATM    4  C4  UNL     1     -33.818   6.375   3.475  1.00 20.00     0.015 C 
HETATM    5  C5  UNL     1     -33.888   8.403   5.130  1.00 20.00     0.012 C 
HETATM    6  C6  UNL     1     -35.312   6.243   3.737  1.00 20.00     0.012 C 
HETATM    7  N9  UNL     1     -32.231   7.310   2.033  1.00 20.00     0.090 N 
ENDROOT
BRANCH   7   8
HETATM    8  C7  UNL     1     -31.888   7.915   0.753  1.00 20.00     0.287 C 
BRANCH   8   9
HETATM    9  C8  UNL     1     -32.027   9.428   0.767  1.00 20.00     0.144 C 
HETATM   10 CL10 UNL     1     -32.883  10.012  -0.681  1.00 20.00    -0.129 Cl
ENDBRANCH   8   9
ENDBRANCH   7   8
TORSDOF 2
ENDMDL
MODEL 3
REMARK VINA RESULT:       0.1      0.842      1.996
REMARK  2 active torsions:
REMARK  status: ('A' for Active; 'I' for Inactive)
REMARK    1  A    between atoms: C7_7  and  C8_8 
REMARK    2  A    between atoms: C7_7  and  N9_9 
ROOT
HETATM    1  C1  UNL     1     -33.614   7.750   2.694  1.00 20.00     0.277 C 
HETATM    2  C2  UNL     1     -32.447   5.867   2.024  1.00 20.00     0.277 C 
HETATM    3  C3  UNL     1     -33.926   6.702   3.767  1.00 20.00     0.015 C 
HETATM    4  C4  UNL     1     -33.144   5.446   3.322  1.00 20.00     0.015 C 
HETATM    5  C5  UNL     1     -35.424   6.547   3.992  1.00 20.00     0.012 C 
HETATM    6  C6  UNL     1     -33.936   4.157   3.150  1.00 20.00     0.012 C 
HETATM    7  N9  UNL     1     -32.312   7.315   2.185  1.00 20.00     0.090 N 
ENDROOT
BRANCH   7   8
HETATM    8  C7  UNL     1     -31.955   7.980   0.940  1.00 20.00     0.287 C 
BRANCH   8   9
HETATM    9  C8  UNL     1     -32.298   9.461   0.950  1.00 20.00     0.144 C 
HETATM   10 CL10 UNL     1     -32.827  10.013  -0.658  1.00 20.00    -0.129 Cl
ENDBRANCH   8   9
ENDBRANCH   7   8
TORSDOF 2
ENDMDL
MODEL 4
REMARK VINA RESULT:       0.1      3.066      4.725
REMARK  2 active torsions:
REMARK  status: ('A' for Active; 'I' for Inactive)
REMARK    1  A    between atoms: C7_7  and  C8_8 
REMARK    2  A    between atoms: C7_7  and  N9_9 
ROOT
HETATM    1  C1  UNL     1     -33.768   7.117   4.387  1.00 20.00     0.277 C 
HETATM    2  C2  UNL     1     -33.432   5.885   2.458  1.00 20.00     0.277 C 
HETATM    3  C3  UNL     1     -33.224   8.129   3.375  1.00 20.00     0.015 C 
HETATM    4  C4  UNL     1     -33.003   7.307   2.085  1.00 20.00     0.015 C 
HETATM    5  C5  UNL     1     -32.030   8.898   3.924  1.00 20.00     0.012 C 
HETATM    6  C6  UNL     1     -31.611   7.338   1.469  1.00 20.00     0.012 C 
HETATM    7  N9  UNL     1     -34.399   6.111   3.532  1.00 20.00     0.090 N 
ENDROOT
BRANCH   7   8
HETATM    8  C7  UNL     1     -34.716   4.889   4.258  1.00 20.00     0.287 C 
BRANCH   8   9
HETATM    9  C8  UNL     1     -33.842   3.718   3.840  1.00 20.00     0.144 C 
HETATM   10 CL10 UNL     1     -33.020   2.991   5.243  1.00 20.00    -0.129 Cl
ENDBRANCH   8   9
ENDBRANCH   7   8
TORSDOF 2
ENDMDL
MODEL 5
REMARK VINA RESULT:       0.1      2.596      4.157
REMARK  2 active torsions:
REMARK  status: ('A' for Active; 'I' for Inactive)
REMARK    1  A    between atoms: C7_7  and  C8_8 
REMARK    2  A    between atoms: C7_7  and  N9_9 
ROOT
HETATM    1  C1  UNL     1     -33.242   6.021   2.696  1.00 20.00     0.277 C 
HETATM    2  C2  UNL     1     -32.936   8.314   2.642  1.00 20.00     0.277 C 
HETATM    3  C3  UNL     1     -32.006   6.223   1.814  1.00 20.00     0.015 C 
HETATM    4  C4  UNL     1     -31.800   7.754   1.780  1.00 20.00     0.015 C 
HETATM    5  C5  UNL     1     -32.140   5.509   0.476  1.00 20.00     0.012 C 
HETATM    6  C6  UNL     1     -31.742   8.420   0.412  1.00 20.00     0.012 C 
HETATM    7  N9  UNL     1     -33.225   7.207   3.554  1.00 20.00     0.090 N 
ENDROOT
BRANCH   7   8
HETATM    8  C7  UNL     1     -34.481   7.391   4.267  1.00 20.00     0.287 C 
BRANCH   8   9
HETATM    9  C8  UNL     1     -35.532   6.367   3.871  1.00 20.00     0.144 C 
HETATM   10 CL10 UNL     1     -35.278   4.819   4.713  1.00 20.00    -0.129 Cl
ENDBRANCH   8   9
ENDBRANCH   7   8
TORSDOF 2
ENDMDL
MODEL 6
REMARK VINA RESULT:       0.2      2.717      4.544
REMARK  2 active torsions:
REMARK  status: ('A' for Active; 'I' for Inactive)
REMARK    1  A    between atoms: C7_7  and  C8_8 
REMARK    2  A    between atoms: C7_7  and  N9_9 
ROOT
HETATM    1  C1  UNL     1     -33.233   7.672   3.150  1.00 20.00     0.277 C 
HETATM    2  C2  UNL     1     -33.605   5.489   2.479  1.00 20.00     0.277 C 
HETATM    3  C3  UNL     1     -32.575   7.577   1.770  1.00 20.00     0.015 C 
HETATM    4  C4  UNL     1     -32.826   6.120   1.320  1.00 20.00     0.015 C 
HETATM    5  C5  UNL     1     -31.131   8.059   1.794  1.00 20.00     0.012 C 
HETATM    6  C6  UNL     1     -31.610   5.290   0.934  1.00 20.00     0.012 C 
HETATM    7  N9  UNL     1     -34.271   6.642   3.086  1.00 20.00     0.090 N 
ENDROOT
BRANCH   7   8
HETATM    8  C7  UNL     1     -34.826   6.335   4.397  1.00 20.00     0.287 C 
BRANCH   8   9
HETATM    9  C8  UNL     1     -35.285   4.890   4.512  1.00 20.00     0.144 C 
HETATM   10 CL10 UNL     1     -33.900   3.780   4.647  1.00 20.00    -0.129 Cl
ENDBRANCH   8   9
ENDBRANCH   7   8
TORSDOF 2
ENDMDL
MODEL 7
REMARK VINA RESULT:       0.9      2.405      2.852
REMARK  2 active torsions:
REMARK  status: ('A' for Active; 'I' for Inactive)
REMARK    1  A    between atoms: C7_7  and  C8_8 
REMARK    2  A    between atoms: C7_7  and  N9_9 
ROOT
HETATM    1  C1  UNL     1     -33.809   5.767   2.434  1.00 20.00     0.277 C 
HETATM    2  C2  UNL     1     -32.628   7.679   2.982  1.00 20.00     0.277 C 
HETATM    3  C3  UNL     1     -34.728   6.523   3.398  1.00 20.00     0.015 C 
HETATM    4  C4  UNL     1     -33.941   7.803   3.761  1.00 20.00     0.015 C 
HETATM    5  C5  UNL     1     -35.195   5.642   4.548  1.00 20.00     0.012 C 
HETATM    6  C6  UNL     1     -33.702   8.078   5.239  1.00 20.00     0.012 C 
HETATM    7  N9  UNL     1     -33.004   6.838   1.845  1.00 20.00     0.090 N 
ENDROOT
BRANCH   7   8
HETATM    8  C7  UNL     1     -31.845   6.328   1.127  1.00 20.00     0.287 C 
BRANCH   8   9
HETATM    9  C8  UNL     1     -31.593   4.853   1.398  1.00 20.00     0.144 C 
HETATM   10 CL10 UNL     1     -31.205   3.977  -0.103  1.00 20.00    -0.129 Cl
ENDBRANCH   8   9
ENDBRANCH   7   8
TORSDOF 2
ENDMDL
MODEL 8
REMARK VINA RESULT:       1.5      2.455      4.704
REMARK  2 active torsions:
REMARK  status: ('A' for Active; 'I' for Inactive)
REMARK    1  A    between atoms: C7_7  and  C8_8 
REMARK    2  A    between atoms: C7_7  and  N9_9 
ROOT
HETATM    1  C1  UNL     1     -31.542   7.516   1.269  1.00 20.00     0.277 C 
HETATM    2  C2  UNL     1     -33.273   8.964   1.778  1.00 20.00     0.277 C 
HETATM    3  C3  UNL     1     -31.142   8.840   0.610  1.00 20.00     0.015 C 
HETATM    4  C4  UNL     1     -32.297   9.808   0.953  1.00 20.00     0.015 C 
HETATM    5  C5  UNL     1     -30.797   8.661  -0.862  1.00 20.00     0.012 C 
HETATM    6  C6  UNL     1     -32.989  10.506  -0.209  1.00 20.00     0.012 C 
HETATM    7  N9  UNL     1     -32.402   7.950   2.371  1.00 20.00     0.090 N 
ENDROOT
BRANCH   7   8
HETATM    8  C7  UNL     1     -33.153   6.846   2.953  1.00 20.00     0.287 C 
BRANCH   8   9
HETATM    9  C8  UNL     1     -34.196   7.314   3.954  1.00 20.00     0.144 C 
HETATM   10 CL10 UNL     1     -35.502   6.117   4.134  1.00 20.00    -0.129 Cl
ENDBRANCH   8   9
ENDBRANCH   7   8
TORSDOF 2
ENDMDL
MODEL 9
REMARK VINA RESULT:       1.7      3.045      4.504
REMARK  2 active torsions:
REMARK  status: ('A' for Active; 'I' for Inactive)
REMARK    1  A    between atoms: C7_7  and  C8_8 
REMARK    2  A    between atoms: C7_7  and  N9_9 
ROOT
HETATM    1  C1  UNL     1     -32.956   5.735   2.610  1.00 20.00     0.277 C 
HETATM    2  C2  UNL     1     -34.616   6.413   4.072  1.00 20.00     0.277 C 
HETATM    3  C3  UNL     1     -32.700   7.231   2.816  1.00 20.00     0.015 C 
HETATM    4  C4  UNL     1     -33.806   7.683   3.795  1.00 20.00     0.015 C 
HETATM    5  C5  UNL     1     -32.592   7.977   1.493  1.00 20.00     0.012 C 
HETATM    6  C6  UNL     1     -34.694   8.840   3.357  1.00 20.00     0.012 C 
HETATM    7  N9  UNL     1     -33.637   5.350   3.847  1.00 20.00     0.090 N 
ENDROOT
BRANCH   7   8
HETATM    8  C7  UNL     1     -34.258   4.037   3.750  1.00 20.00     0.287 C 
BRANCH   8   9
HETATM    9  C8  UNL     1     -33.322   2.916   4.174  1.00 20.00     0.144 C 
HETATM   10 CL10 UNL     1     -32.671   3.198   5.807  1.00 20.00    -0.129 Cl
ENDBRANCH   8   9
ENDBRANCH   7   8
TORSDOF 2
ENDMDL
