MODEL 1
REMARK VINA RESULT:      -0.8      0.000      0.000
REMARK  2 active torsions:
REMARK  status: ('A' for Active; 'I' for Inactive)
REMARK    1  A    between atoms: C2_2  and  C9_9 
REMARK    2  A    between atoms: C6_6  and  C9_9 
ROOT
HETATM    1  C3  UNL     1     -32.640   5.846   1.829  1.00 20.00     0.006 C 
HETATM    2  C4  UNL     1     -33.481   5.000   2.790  1.00 20.00     0.020 C 
HETATM    3  C5  UNL     1     -33.947   7.286   3.284  1.00 20.00     0.025 C 
HETATM    4  C6  UNL     1     -33.128   7.294   1.994  1.00 20.00    -0.009 C 
HETATM    5  C7  UNL     1     -34.611   5.918   3.235  1.00 20.00     0.082 C 
HETATM    6 CL10 UNL     1     -35.293   5.444   4.796  1.00 20.00    -0.125 Cl
ENDROOT
BRANCH   4   7
HETATM    7  C9  UNL     1     -31.996   8.309   2.014  1.00 20.00     0.037 C 
BRANCH   7   8
HETATM    8  C2  UNL     1     -31.954   9.160   0.768  1.00 20.00    -0.093 C 
HETATM    9  C1  UNL     1     -31.206   8.817  -0.291  1.00 20.00     0.014 C 
HETATM   10  C8  UNL     1     -32.759  10.429   0.779  1.00 20.00     0.042 C 
ENDBRANCH   7   8
ENDBRANCH   4   7
TORSDOF 2
ENDMDL
MODEL 2
REMARK VINA RESULT:      -0.8      2.678      4.602
REMARK  2 active torsions:
REMARK  status: ('A' for Active; 'I' for Inactive)
REMARK    1  A    between atoms: C2_2  and  C9_9 
REMARK    2  A    between atoms: C6_6  and  C9_9 
ROOT
HETATM    1  C3  UNL     1     -31.351   7.320   1.309  1.00 20.00     0.006 C 
HETATM    2  C4  UNL     1     -31.279   8.426   0.252  1.00 20.00     0.020 C 
HETATM    3  C5  UNL     1     -33.273   8.791   1.509  1.00 20.00     0.025 C 
HETATM    4  C6  UNL     1     -32.499   7.704   2.255  1.00 20.00    -0.009 C 
HETATM    5  C7  UNL     1     -32.161   9.543   0.793  1.00 20.00     0.082 C 
HETATM    6 CL10 UNL     1     -32.777  10.598  -0.486  1.00 20.00    -0.125 Cl
ENDROOT
BRANCH   4   7
HETATM    7  C9  UNL     1     -33.368   6.523   2.654  1.00 20.00     0.037 C 
BRANCH   7   8
HETATM    8  C2  UNL     1     -34.263   6.828   3.830  1.00 20.00    -0.093 C 
HETATM    9  C1  UNL     1     -35.423   6.180   4.017  1.00 20.00     0.014 C 
HETATM   10  C8  UNL     1     -33.817   7.917   4.764  1.00 20.00     0.042 C 
ENDBRANCH   7   8
ENDBRANCH   4   7
TORSDOF 2
ENDMDL
MODEL 3
REMARK VINA RESULT:      -0.7      2.681      4.644
REMARK  2 active torsions:
REMARK  status: ('A' for Active; 'I' for Inactive)
REMARK    1  A    between atoms: C2_2  and  C9_9 
REMARK    2  A    between atoms: C6_6  and  C9_9 
ROOT
HETATM    1  C3  UNL     1     -31.346   7.349   1.249  1.00 20.00     0.006 C 
HETATM    2  C4  UNL     1     -31.302   8.448   0.183  1.00 20.00     0.020 C 
HETATM    3  C5  UNL     1     -33.232   8.854   1.524  1.00 20.00     0.025 C 
HETATM    4  C6  UNL     1     -32.446   7.758   2.242  1.00 20.00    -0.009 C 
HETATM    5  C7  UNL     1     -32.140   9.582   0.756  1.00 20.00     0.082 C 
HETATM    6 CL10 UNL     1     -32.794  10.641  -0.502  1.00 20.00    -0.125 Cl
ENDROOT
BRANCH   4   7
HETATM    7  C9  UNL     1     -33.316   6.594   2.685  1.00 20.00     0.037 C 
BRANCH   7   8
HETATM    8  C2  UNL     1     -34.195   6.938   3.863  1.00 20.00    -0.093 C 
HETATM    9  C1  UNL     1     -33.859   7.905   4.730  1.00 20.00     0.014 C 
HETATM   10  C8  UNL     1     -35.446   6.125   4.044  1.00 20.00     0.042 C 
ENDBRANCH   7   8
ENDBRANCH   4   7
TORSDOF 2
ENDMDL
MODEL 4
REMARK VINA RESULT:      -0.5      2.592      4.561
REMARK  2 active torsions:
REMARK  status: ('A' for Active; 'I' for Inactive)
REMARK    1  A    between atoms: C2_2  and  C9_9 
REMARK    2  A    between atoms: C6_6  and  C9_9 
ROOT
HETATM    1  C3  UNL     1     -33.008   6.141   2.413  1.00 20.00     0.006 C 
HETATM    2  C4  UNL     1     -32.456   6.712   1.104  1.00 20.00     0.020 C 
HETATM    3  C5  UNL     1     -32.753   8.549   2.595  1.00 20.00     0.025 C 
HETATM    4  C6  UNL     1     -32.965   7.289   3.434  1.00 20.00    -0.009 C 
HETATM    5  C7  UNL     1     -31.837   8.048   1.489  1.00 20.00     0.082 C 
HETATM    6 CL10 UNL     1     -31.751   9.172   0.125  1.00 20.00    -0.125 Cl
ENDROOT
BRANCH   4   7
HETATM    7  C9  UNL     1     -34.206   7.359   4.310  1.00 20.00     0.037 C 
BRANCH   7   8
HETATM    8  C2  UNL     1     -35.244   6.331   3.933  1.00 20.00    -0.093 C 
HETATM    9  C1  UNL     1     -36.277   6.637   3.133  1.00 20.00     0.014 C 
HETATM   10  C8  UNL     1     -35.091   4.957   4.522  1.00 20.00     0.042 C 
ENDBRANCH   7   8
ENDBRANCH   4   7
TORSDOF 2
ENDMDL
MODEL 5
REMARK VINA RESULT:      -0.5      1.370      2.251
REMARK  2 active torsions:
REMARK  status: ('A' for Active; 'I' for Inactive)
REMARK    1  A    between atoms: C2_2  and  C9_9 
REMARK    2  A    between atoms: C6_6  and  C9_9 
ROOT
HETATM    1  C3  UNL     1     -34.913   6.492   3.667  1.00 20.00     0.006 C 
HETATM    2  C4  UNL     1     -35.077   5.110   4.308  1.00 20.00     0.020 C 
HETATM    3  C5  UNL     1     -33.037   5.068   3.073  1.00 20.00     0.025 C 
HETATM    4  C6  UNL     1     -33.492   6.527   3.081  1.00 20.00    -0.009 C 
HETATM    5  C7  UNL     1     -33.672   4.526   4.344  1.00 20.00     0.082 C 
HETATM    6 CL10 UNL     1     -33.675   2.758   4.394  1.00 20.00    -0.125 Cl
ENDROOT
BRANCH   4   7
HETATM    7  C9  UNL     1     -33.425   7.180   1.710  1.00 20.00     0.037 C 
BRANCH   7   8
HETATM    8  C2  UNL     1     -32.356   8.241   1.621  1.00 20.00    -0.093 C 
HETATM    9  C1  UNL     1     -31.383   8.335   2.540  1.00 20.00     0.014 C 
HETATM   10  C8  UNL     1     -32.450   9.212   0.479  1.00 20.00     0.042 C 
ENDBRANCH   7   8
ENDBRANCH   4   7
TORSDOF 2
ENDMDL
MODEL 6
REMARK VINA RESULT:      -0.5      2.595      4.478
REMARK  2 active torsions:
REMARK  status: ('A' for Active; 'I' for Inactive)
REMARK    1  A    between atoms: C2_2  and  C9_9 
REMARK    2  A    between atoms: C6_6  and  C9_9 
ROOT
HETATM    1  C3  UNL     1     -33.025   6.126   2.433  1.00 20.00     0.006 C 
HETATM    2  C4  UNL     1     -32.457   6.675   1.121  1.00 20.00     0.020 C 
HETATM    3  C5  UNL     1     -32.743   8.533   2.589  1.00 20.00     0.025 C 
HETATM    4  C6  UNL     1     -32.977   7.285   3.440  1.00 20.00    -0.009 C 
HETATM    5  C7  UNL     1     -31.824   8.008   1.495  1.00 20.00     0.082 C 
HETATM    6 CL10 UNL     1     -31.714   9.114   0.120  1.00 20.00    -0.125 Cl
ENDROOT
BRANCH   4   7
HETATM    7  C9  UNL     1     -34.223   7.381   4.305  1.00 20.00     0.037 C 
BRANCH   7   8
HETATM    8  C2  UNL     1     -35.243   6.317   3.977  1.00 20.00    -0.093 C 
HETATM    9  C1  UNL     1     -35.147   5.076   4.476  1.00 20.00     0.014 C 
HETATM   10  C8  UNL     1     -36.351   6.699   3.037  1.00 20.00     0.042 C 
ENDBRANCH   7   8
ENDBRANCH   4   7
TORSDOF 2
ENDMDL
MODEL 7
REMARK VINA RESULT:      -0.4      1.335      2.219
REMARK  2 active torsions:
REMARK  status: ('A' for Active; 'I' for Inactive)
REMARK    1  A    between atoms: C2_2  and  C9_9 
REMARK    2  A    between atoms: C6_6  and  C9_9 
ROOT
HETATM    1  C3  UNL     1     -34.823   6.621   3.545  1.00 20.00     0.006 C 
HETATM    2  C4  UNL     1     -35.030   5.266   4.230  1.00 20.00     0.020 C 
HETATM    3  C5  UNL     1     -32.991   5.122   3.001  1.00 20.00     0.025 C 
HETATM    4  C6  UNL     1     -33.402   6.594   2.962  1.00 20.00    -0.009 C 
HETATM    5  C7  UNL     1     -33.644   4.640   4.288  1.00 20.00     0.082 C 
HETATM    6 CL10 UNL     1     -33.702   2.876   4.394  1.00 20.00    -0.125 Cl
ENDROOT
BRANCH   4   7
HETATM    7  C9  UNL     1     -33.313   7.199   1.571  1.00 20.00     0.037 C 
BRANCH   7   8
HETATM    8  C2  UNL     1     -32.332   8.344   1.495  1.00 20.00    -0.093 C 
HETATM    9  C1  UNL     1     -32.391   9.254   0.511  1.00 20.00     0.014 C 
HETATM   10  C8  UNL     1     -31.261   8.397   2.548  1.00 20.00     0.042 C 
ENDBRANCH   7   8
ENDBRANCH   4   7
TORSDOF 2
ENDMDL
MODEL 8
REMARK VINA RESULT:      -0.3      2.568      5.085
REMARK  2 active torsions:
REMARK  status: ('A' for Active; 'I' for Inactive)
REMARK    1  A    between atoms: C2_2  and  C9_9 
REMARK    2  A    between atoms: C6_6  and  C9_9 
ROOT
HETATM    1  C3  UNL     1     -33.066   7.260   3.560  1.00 20.00     0.006 C 
HETATM    2  C4  UNL     1     -32.371   8.445   2.883  1.00 20.00     0.020 C 
HETATM    3  C5  UNL     1     -32.542   6.713   1.252  1.00 20.00     0.025 C 
HETATM    4  C6  UNL     1     -33.384   6.253   2.443  1.00 20.00    -0.009 C 
HETATM    5  C7  UNL     1     -32.588   8.227   1.392  1.00 20.00     0.082 C 
HETATM    6 CL10 UNL     1     -31.360   9.031   0.405  1.00 20.00    -0.125 Cl
ENDROOT
BRANCH   4   7
HETATM    7  C9  UNL     1     -33.114   4.811   2.841  1.00 20.00     0.037 C 
BRANCH   7   8
HETATM    8  C2  UNL     1     -33.968   4.357   4.000  1.00 20.00    -0.093 C 
HETATM    9  C1  UNL     1     -35.081   5.017   4.352  1.00 20.00     0.014 C 
HETATM   10  C8  UNL     1     -33.496   3.154   4.766  1.00 20.00     0.042 C 
ENDBRANCH   7   8
ENDBRANCH   4   7
TORSDOF 2
ENDMDL
MODEL 9
REMARK VINA RESULT:      -0.2      2.446      4.670
REMARK  2 active torsions:
REMARK  status: ('A' for Active; 'I' for Inactive)
REMARK    1  A    between atoms: C2_2  and  C9_9 
REMARK    2  A    between atoms: C6_6  and  C9_9 
ROOT
HETATM    1  C3  UNL     1     -31.589   6.384   1.427  1.00 20.00     0.006 C 
HETATM    2  C4  UNL     1     -31.338   7.739   0.759  1.00 20.00     0.020 C 
HETATM    3  C5  UNL     1     -33.407   7.914   1.931  1.00 20.00     0.025 C 
HETATM    4  C6  UNL     1     -32.789   6.585   2.366  1.00 20.00    -0.009 C 
HETATM    5  C7  UNL     1     -32.181   8.729   1.550  1.00 20.00     0.082 C 
HETATM    6 CL10 UNL     1     -32.595  10.168   0.609  1.00 20.00    -0.125 Cl
ENDROOT
BRANCH   4   7
HETATM    7  C9  UNL     1     -33.777   5.431   2.333  1.00 20.00     0.037 C 
BRANCH   7   8
HETATM    8  C2  UNL     1     -34.303   5.074   3.702  1.00 20.00    -0.093 C 
HETATM    9  C1  UNL     1     -33.915   3.956   4.333  1.00 20.00     0.014 C 
HETATM   10  C8  UNL     1     -35.311   6.007   4.311  1.00 20.00     0.042 C 
ENDBRANCH   7   8
ENDBRANCH   4   7
TORSDOF 2
ENDMDL
