MODEL 1
REMARK VINA RESULT:       1.0      0.000      0.000
REMARK  2 active torsions:
REMARK  status: ('A' for Active; 'I' for Inactive)
REMARK    1  A    between atoms: C9_9  and  C10_10 
REMARK    2  A    between atoms: C9_9  and  N12_12 
ROOT
HETATM    1  C1  UNL     1     -32.297   9.220   0.733  1.00 20.00     0.065 C 
HETATM    2  C8  UNL     1     -31.215   8.765   2.904  1.00 20.00     0.027 C 
HETATM    3  C10 UNL     1     -32.222   8.275   1.864  1.00 20.00     0.114 C 
HETATM    4  N11 UNL     1     -32.358   9.963  -0.156  1.00 20.00    -0.197 NA
ENDROOT
BRANCH   3   5
HETATM    5  C9  UNL     1     -31.934   6.848   1.387  1.00 20.00     0.253 C 
BRANCH   5   6
HETATM    6  N12 UNL     1     -33.034   5.904   1.755  1.00 20.00    -0.069 N 
HETATM    7  C2  UNL     1     -32.564   4.639   2.453  1.00 20.00     0.239 C 
HETATM    8  C4  UNL     1     -33.316   4.625   3.782  1.00 20.00     0.012 C 
HETATM    9  C5  UNL     1     -34.615   5.364   3.455  1.00 20.00     0.012 C 
HETATM   10  C6  UNL     1     -33.520   3.214   4.312  1.00 20.00     0.012 C 
HETATM   11  C3  UNL     1     -34.111   6.529   2.617  1.00 20.00     0.239 C 
HETATM   12  C7  UNL     1     -35.389   5.825   4.679  1.00 20.00     0.012 C 
HETATM   13  H31 UNL     1     -33.484   5.610   0.877  1.00 20.00     0.280 HD
ENDBRANCH   5   6
ENDBRANCH   3   5
TORSDOF 2
ENDMDL
MODEL 2
REMARK VINA RESULT:       1.8      1.511      2.431
REMARK  2 active torsions:
REMARK  status: ('A' for Active; 'I' for Inactive)
REMARK    1  A    between atoms: C9_9  and  C10_10 
REMARK    2  A    between atoms: C9_9  and  N12_12 
ROOT
HETATM    1  C1  UNL     1     -32.492   9.939   0.382  1.00 20.00     0.065 C 
HETATM    2  C8  UNL     1     -30.547   8.775  -0.592  1.00 20.00     0.027 C 
HETATM    3  C10 UNL     1     -31.596   8.775   0.519  1.00 20.00     0.114 C 
HETATM    4  N11 UNL     1     -33.197  10.854   0.275  1.00 20.00    -0.197 NA
ENDROOT
BRANCH   3   5
HETATM    5  C9  UNL     1     -32.383   7.463   0.593  1.00 20.00     0.253 C 
BRANCH   5   6
HETATM    6  N12 UNL     1     -32.471   6.942   1.991  1.00 20.00    -0.069 N 
HETATM    7  C2  UNL     1     -32.473   8.020   3.061  1.00 20.00     0.239 C 
HETATM    8  C4  UNL     1     -33.764   7.790   3.844  1.00 20.00     0.012 C 
HETATM    9  C5  UNL     1     -33.992   6.283   3.703  1.00 20.00     0.012 C 
HETATM   10  C6  UNL     1     -33.659   8.270   5.283  1.00 20.00     0.012 C 
HETATM   11  C3  UNL     1     -33.673   6.052   2.235  1.00 20.00     0.239 C 
HETATM   12  C7  UNL     1     -35.399   5.834   4.066  1.00 20.00     0.012 C 
HETATM   13  H31 UNL     1     -31.633   6.365   2.150  1.00 20.00     0.280 HD
ENDBRANCH   5   6
ENDBRANCH   3   5
TORSDOF 2
ENDMDL
MODEL 3
REMARK VINA RESULT:       2.0      1.567      5.217
REMARK  2 active torsions:
REMARK  status: ('A' for Active; 'I' for Inactive)
REMARK    1  A    between atoms: C9_9  and  C10_10 
REMARK    2  A    between atoms: C9_9  and  N12_12 
ROOT
HETATM    1  C1  UNL     1     -33.906   4.414   4.091  1.00 20.00     0.065 C 
HETATM    2  C8  UNL     1     -35.420   6.359   3.969  1.00 20.00     0.027 C 
HETATM    3  C10 UNL     1     -34.003   5.841   3.727  1.00 20.00     0.114 C 
HETATM    4  N11 UNL     1     -33.828   3.293   4.379  1.00 20.00    -0.197 NA
ENDROOT
BRANCH   3   5
HETATM    5  C9  UNL     1     -33.517   6.090   2.295  1.00 20.00     0.253 C 
BRANCH   5   6
HETATM    6  N12 UNL     1     -32.569   7.244   2.220  1.00 20.00    -0.069 N 
HETATM    7  C2  UNL     1     -31.559   7.149   1.089  1.00 20.00     0.239 C 
HETATM    8  C4  UNL     1     -31.769   8.420   0.270  1.00 20.00     0.012 C 
HETATM    9  C5  UNL     1     -32.266   9.426   1.311  1.00 20.00     0.012 C 
HETATM   10  C6  UNL     1     -30.506   8.852  -0.457  1.00 20.00     0.012 C 
HETATM   11  C3  UNL     1     -33.254   8.590   2.109  1.00 20.00     0.239 C 
HETATM   12  C7  UNL     1     -32.910  10.667   0.714  1.00 20.00     0.012 C 
HETATM   13  H31 UNL     1     -32.033   7.250   3.099  1.00 20.00     0.280 HD
ENDBRANCH   5   6
ENDBRANCH   3   5
TORSDOF 2
ENDMDL
MODEL 4
REMARK VINA RESULT:       2.5      0.943      1.966
REMARK  2 active torsions:
REMARK  status: ('A' for Active; 'I' for Inactive)
REMARK    1  A    between atoms: C9_9  and  C10_10 
REMARK    2  A    between atoms: C9_9  and  N12_12 
ROOT
HETATM    1  C1  UNL     1     -32.579   9.333   0.307  1.00 20.00     0.065 C 
HETATM    2  C8  UNL     1     -30.857   8.141   1.612  1.00 20.00     0.027 C 
HETATM    3  C10 UNL     1     -32.333   8.528   1.518  1.00 20.00     0.114 C 
HETATM    4  N11 UNL     1     -32.774   9.968  -0.645  1.00 20.00    -0.197 NA
ENDROOT
BRANCH   3   5
HETATM    5  C9  UNL     1     -33.268   7.317   1.590  1.00 20.00     0.253 C 
BRANCH   5   6
HETATM    6  N12 UNL     1     -33.244   6.670   2.937  1.00 20.00    -0.069 N 
HETATM    7  C2  UNL     1     -34.573   6.704   3.671  1.00 20.00     0.239 C 
HETATM    8  C4  UNL     1     -34.897   5.240   3.960  1.00 20.00     0.012 C 
HETATM    9  C5  UNL     1     -33.514   4.595   4.077  1.00 20.00     0.012 C 
HETATM   10  C6  UNL     1     -35.766   5.075   5.196  1.00 20.00     0.012 C 
HETATM   11  C3  UNL     1     -32.771   5.231   2.914  1.00 20.00     0.239 C 
HETATM   12  C7  UNL     1     -33.530   3.077   3.991  1.00 20.00     0.012 C 
HETATM   13  H31 UNL     1     -32.573   7.198   3.512  1.00 20.00     0.280 HD
ENDBRANCH   5   6
ENDBRANCH   3   5
TORSDOF 2
ENDMDL
MODEL 5
REMARK VINA RESULT:       2.6      1.916      4.950
REMARK  2 active torsions:
REMARK  status: ('A' for Active; 'I' for Inactive)
REMARK    1  A    between atoms: C9_9  and  C10_10 
REMARK    2  A    between atoms: C9_9  and  N12_12 
ROOT
HETATM    1  C1  UNL     1     -33.840   7.740   4.720  1.00 20.00     0.065 C 
HETATM    2  C8  UNL     1     -35.226   5.756   4.241  1.00 20.00     0.027 C 
HETATM    3  C10 UNL     1     -34.473   6.947   3.650  1.00 20.00     0.114 C 
HETATM    4  N11 UNL     1     -33.343   8.366   5.562  1.00 20.00    -0.197 NA
ENDROOT
BRANCH   3   5
HETATM    5  C9  UNL     1     -33.458   6.535   2.579  1.00 20.00     0.253 C 
BRANCH   5   6
HETATM    6  N12 UNL     1     -32.498   7.638   2.265  1.00 20.00    -0.069 N 
HETATM    7  C2  UNL     1     -31.530   7.321   1.138  1.00 20.00     0.239 C 
HETATM    8  C4  UNL     1     -31.754   8.427   0.109  1.00 20.00     0.012 C 
HETATM    9  C5  UNL     1     -32.201   9.614   0.966  1.00 20.00     0.012 C 
HETATM   10  C6  UNL     1     -30.512   8.697  -0.725  1.00 20.00     0.012 C 
HETATM   11  C3  UNL     1     -33.171   8.954   1.934  1.00 20.00     0.239 C 
HETATM   12  C7  UNL     1     -32.850  10.739   0.175  1.00 20.00     0.012 C 
HETATM   13  H31 UNL     1     -31.932   7.793   3.110  1.00 20.00     0.280 HD
ENDBRANCH   5   6
ENDBRANCH   3   5
TORSDOF 2
ENDMDL
MODEL 6
REMARK VINA RESULT:       2.7      1.935      4.647
REMARK  2 active torsions:
REMARK  status: ('A' for Active; 'I' for Inactive)
REMARK    1  A    between atoms: C9_9  and  C10_10 
REMARK    2  A    between atoms: C9_9  and  N12_12 
ROOT
HETATM    1  C1  UNL     1     -34.764   5.028   4.344  1.00 20.00     0.065 C 
HETATM    2  C8  UNL     1     -36.178   6.497   2.955  1.00 20.00     0.027 C 
HETATM    3  C10 UNL     1     -35.382   6.365   4.252  1.00 20.00     0.114 C 
HETATM    4  N11 UNL     1     -34.279   3.977   4.418  1.00 20.00    -0.197 NA
ENDROOT
BRANCH   3   5
HETATM    5  C9  UNL     1     -34.344   7.478   4.426  1.00 20.00     0.253 C 
BRANCH   5   6
HETATM    6  N12 UNL     1     -33.078   7.183   3.686  1.00 20.00    -0.069 N 
HETATM    7  C2  UNL     1     -33.140   5.943   2.811  1.00 20.00     0.239 C 
HETATM    8  C4  UNL     1     -32.795   6.438   1.409  1.00 20.00     0.012 C 
HETATM    9  C5  UNL     1     -31.877   7.632   1.678  1.00 20.00     0.012 C 
HETATM   10  C6  UNL     1     -32.164   5.350   0.554  1.00 20.00     0.012 C 
HETATM   11  C3  UNL     1     -32.596   8.329   2.822  1.00 20.00     0.239 C 
HETATM   12  C7  UNL     1     -31.681   8.544   0.477  1.00 20.00     0.012 C 
HETATM   13  H31 UNL     1     -32.350   7.013   4.393  1.00 20.00     0.280 HD
ENDBRANCH   5   6
ENDBRANCH   3   5
TORSDOF 2
ENDMDL
MODEL 7
REMARK VINA RESULT:       2.9      1.780      4.977
REMARK  2 active torsions:
REMARK  status: ('A' for Active; 'I' for Inactive)
REMARK    1  A    between atoms: C9_9  and  C10_10 
REMARK    2  A    between atoms: C9_9  and  N12_12 
ROOT
HETATM    1  C1  UNL     1     -34.633   4.806   4.460  1.00 20.00     0.065 C 
HETATM    2  C8  UNL     1     -36.343   6.267   3.446  1.00 20.00     0.027 C 
HETATM    3  C10 UNL     1     -35.158   6.183   4.408  1.00 20.00     0.114 C 
HETATM    4  N11 UNL     1     -34.219   3.722   4.503  1.00 20.00    -0.197 NA
ENDROOT
BRANCH   3   5
HETATM    5  C9  UNL     1     -34.056   7.195   4.080  1.00 20.00     0.253 C 
BRANCH   5   6
HETATM    6  N12 UNL     1     -33.738   7.222   2.620  1.00 20.00    -0.069 N 
HETATM    7  C2  UNL     1     -32.766   8.316   2.212  1.00 20.00     0.239 C 
HETATM    8  C4  UNL     1     -31.609   7.579   1.540  1.00 20.00     0.012 C 
HETATM    9  C5  UNL     1     -32.282   6.337   0.954  1.00 20.00     0.012 C 
HETATM   10  C6  UNL     1     -30.896   8.444   0.512  1.00 20.00     0.012 C 
HETATM   11  C3  UNL     1     -33.198   5.910   2.089  1.00 20.00     0.239 C 
HETATM   12  C7  UNL     1     -31.310   5.239   0.552  1.00 20.00     0.012 C 
HETATM   13  H31 UNL     1     -34.620   7.407   2.123  1.00 20.00     0.280 HD
ENDBRANCH   5   6
ENDBRANCH   3   5
TORSDOF 2
ENDMDL
MODEL 8
REMARK VINA RESULT:       3.1      1.926      5.101
REMARK  2 active torsions:
REMARK  status: ('A' for Active; 'I' for Inactive)
REMARK    1  A    between atoms: C9_9  and  C10_10 
REMARK    2  A    between atoms: C9_9  and  N12_12 
ROOT
HETATM    1  C1  UNL     1     -34.771   6.181   3.628  1.00 20.00     0.065 C 
HETATM    2  C8  UNL     1     -33.117   5.728   1.854  1.00 20.00     0.027 C 
HETATM    3  C10 UNL     1     -33.777   6.795   2.727  1.00 20.00     0.114 C 
HETATM    4  N11 UNL     1     -35.555   5.700   4.335  1.00 20.00    -0.197 NA
ENDROOT
BRANCH   3   5
HETATM    5  C9  UNL     1     -32.760   7.638   3.503  1.00 20.00     0.253 C 
BRANCH   5   6
HETATM    6  N12 UNL     1     -32.063   8.624   2.621  1.00 20.00    -0.069 N 
HETATM    7  C2  UNL     1     -31.151   7.997   1.581  1.00 20.00     0.239 C 
HETATM    8  C4  UNL     1     -31.672   8.515   0.242  1.00 20.00     0.012 C 
HETATM    9  C5  UNL     1     -32.267   9.877   0.604  1.00 20.00     0.012 C 
HETATM   10  C6  UNL     1     -30.581   8.574  -0.816  1.00 20.00     0.012 C 
HETATM   11  C3  UNL     1     -33.004   9.565   1.896  1.00 20.00     0.239 C 
HETATM   12  C7  UNL     1     -33.186  10.453  -0.462  1.00 20.00     0.012 C 
HETATM   13  H31 UNL     1     -31.468   9.204   3.229  1.00 20.00     0.280 HD
ENDBRANCH   5   6
ENDBRANCH   3   5
TORSDOF 2
ENDMDL
MODEL 9
REMARK VINA RESULT:       3.1      1.674      5.231
REMARK  2 active torsions:
REMARK  status: ('A' for Active; 'I' for Inactive)
REMARK    1  A    between atoms: C9_9  and  C10_10 
REMARK    2  A    between atoms: C9_9  and  N12_12 
ROOT
HETATM    1  C1  UNL     1     -33.554   3.349   4.481  1.00 20.00     0.065 C 
HETATM    2  C8  UNL     1     -35.425   4.954   4.590  1.00 20.00     0.027 C 
HETATM    3  C10 UNL     1     -33.979   4.723   4.152  1.00 20.00     0.114 C 
HETATM    4  N11 UNL     1     -33.217   2.270   4.741  1.00 20.00    -0.197 NA
ENDROOT
BRANCH   3   5
HETATM    5  C9  UNL     1     -33.750   5.045   2.672  1.00 20.00     0.253 C 
BRANCH   5   6
HETATM    6  N12 UNL     1     -33.678   6.518   2.425  1.00 20.00    -0.069 N 
HETATM    7  C2  UNL     1     -33.016   7.307   3.541  1.00 20.00     0.239 C 
HETATM    8  C4  UNL     1     -31.857   8.039   2.868  1.00 20.00     0.012 C 
HETATM    9  C5  UNL     1     -32.357   8.237   1.435  1.00 20.00     0.012 C 
HETATM   10  C6  UNL     1     -31.498   9.331   3.584  1.00 20.00     0.012 C 
HETATM   11  C3  UNL     1     -32.981   6.884   1.131  1.00 20.00     0.239 C 
HETATM   12  C7  UNL     1     -31.264   8.605   0.444  1.00 20.00     0.012 C 
HETATM   13  H31 UNL     1     -34.646   6.858   2.352  1.00 20.00     0.280 HD
ENDBRANCH   5   6
ENDBRANCH   3   5
TORSDOF 2
ENDMDL
