MODEL 1
REMARK VINA RESULT:      -0.4      0.000      0.000
REMARK  3 active torsions:
REMARK  status: ('A' for Active; 'I' for Inactive)
REMARK    1  A    between atoms: C1_1  and  C7_7 
REMARK    2  A    between atoms: C1_1  and  C8_8 
REMARK    3  A    between atoms: C8_8  and  O10_10 
ROOT
HETATM    1  C1  UNL     1     -33.478   5.821   2.928  1.00 20.00     0.163 C 
HETATM    2  O9  UNL     1     -33.315   4.721   3.465  1.00 20.00    -0.294 OA
ENDROOT
BRANCH   1   3
HETATM    3  C7  UNL     1     -34.491   6.816   3.494  1.00 20.00     0.050 C 
HETATM    4  C2  UNL     1     -35.604   6.061   4.211  1.00 20.00     0.017 C 
HETATM    5  C3  UNL     1     -33.785   7.789   4.431  1.00 20.00     0.017 C 
ENDBRANCH   1   3
BRANCH   1   6
HETATM    6  C8  UNL     1     -32.678   6.225   1.683  1.00 20.00     0.113 C 
HETATM    7  C4  UNL     1     -33.609   6.667   0.559  1.00 20.00     0.054 C 
HETATM    8  C5  UNL     1     -31.739   5.110   1.234  1.00 20.00     0.054 C 
BRANCH   6   9
HETATM    9  O10 UNL     1     -31.887   7.358   2.037  1.00 20.00    -0.378 OA
HETATM   10  C6  UNL     1     -32.103   8.437   1.140  1.00 20.00     0.203 C 
ENDBRANCH   6   9
ENDBRANCH   1   6
TORSDOF 3
ENDMDL
MODEL 2
REMARK VINA RESULT:      -0.3      1.493      1.944
REMARK  3 active torsions:
REMARK  status: ('A' for Active; 'I' for Inactive)
REMARK    1  A    between atoms: C1_1  and  C7_7 
REMARK    2  A    between atoms: C1_1  and  C8_8 
REMARK    3  A    between atoms: C8_8  and  O10_10 
ROOT
HETATM    1  C1  UNL     1     -33.170   7.008   2.579  1.00 20.00     0.163 C 
HETATM    2  O9  UNL     1     -33.103   5.825   2.233  1.00 20.00    -0.294 OA
ENDROOT
BRANCH   1   3
HETATM    3  C7  UNL     1     -34.217   7.460   3.596  1.00 20.00     0.050 C 
HETATM    4  C2  UNL     1     -35.185   6.316   3.877  1.00 20.00     0.017 C 
HETATM    5  C3  UNL     1     -33.524   7.928   4.871  1.00 20.00     0.017 C 
ENDBRANCH   1   3
BRANCH   1   6
HETATM    6  C8  UNL     1     -32.213   8.059   2.003  1.00 20.00     0.113 C 
HETATM    7  C4  UNL     1     -31.423   7.489   0.829  1.00 20.00     0.054 C 
HETATM    8  C5  UNL     1     -31.294   8.630   3.079  1.00 20.00     0.054 C 
BRANCH   6   9
HETATM    9  O10 UNL     1     -33.011   9.123   1.488  1.00 20.00    -0.378 OA
HETATM   10  C6  UNL     1     -32.390   9.739   0.370  1.00 20.00     0.203 C 
ENDBRANCH   6   9
ENDBRANCH   1   6
TORSDOF 3
ENDMDL
MODEL 3
REMARK VINA RESULT:      -0.3      1.553      2.158
REMARK  3 active torsions:
REMARK  status: ('A' for Active; 'I' for Inactive)
REMARK    1  A    between atoms: C1_1  and  C7_7 
REMARK    2  A    between atoms: C1_1  and  C8_8 
REMARK    3  A    between atoms: C8_8  and  O10_10 
ROOT
HETATM    1  C1  UNL     1     -33.281   7.247   3.275  1.00 20.00     0.163 C 
HETATM    2  O9  UNL     1     -33.231   7.936   4.298  1.00 20.00    -0.294 OA
ENDROOT
BRANCH   1   3
HETATM    3  C7  UNL     1     -34.254   6.072   3.180  1.00 20.00     0.050 C 
HETATM    4  C2  UNL     1     -33.590   4.814   3.729  1.00 20.00     0.017 C 
HETATM    5  C3  UNL     1     -35.534   6.402   3.939  1.00 20.00     0.017 C 
ENDBRANCH   1   3
BRANCH   1   6
HETATM    6  C8  UNL     1     -32.377   7.543   2.072  1.00 20.00     0.113 C 
HETATM    7  C4  UNL     1     -32.067   6.265   1.298  1.00 20.00     0.054 C 
HETATM    8  C5  UNL     1     -31.105   8.272   2.493  1.00 20.00     0.054 C 
BRANCH   6   9
HETATM    9  O10 UNL     1     -33.108   8.394   1.190  1.00 20.00    -0.378 OA
HETATM   10  C6  UNL     1     -32.279   9.412   0.652  1.00 20.00     0.203 C 
ENDBRANCH   6   9
ENDBRANCH   1   6
TORSDOF 3
ENDMDL
MODEL 4
REMARK VINA RESULT:      -0.2      1.604      2.292
REMARK  3 active torsions:
REMARK  status: ('A' for Active; 'I' for Inactive)
REMARK    1  A    between atoms: C1_1  and  C7_7 
REMARK    2  A    between atoms: C1_1  and  C8_8 
REMARK    3  A    between atoms: C8_8  and  O10_10 
ROOT
HETATM    1  C1  UNL     1     -33.164   6.501   2.285  1.00 20.00     0.163 C 
HETATM    2  O9  UNL     1     -33.218   5.749   1.308  1.00 20.00    -0.294 OA
ENDROOT
BRANCH   1   3
HETATM    3  C7  UNL     1     -33.877   6.132   3.586  1.00 20.00     0.050 C 
HETATM    4  C2  UNL     1     -35.278   6.734   3.589  1.00 20.00     0.017 C 
HETATM    5  C3  UNL     1     -33.922   4.615   3.734  1.00 20.00     0.017 C 
ENDBRANCH   1   3
BRANCH   1   6
HETATM    6  C8  UNL     1     -32.387   7.822   2.230  1.00 20.00     0.113 C 
HETATM    7  C4  UNL     1     -31.059   7.641   1.502  1.00 20.00     0.054 C 
HETATM    8  C5  UNL     1     -32.192   8.417   3.621  1.00 20.00     0.054 C 
BRANCH   6   9
HETATM    9  O10 UNL     1     -33.162   8.738   1.458  1.00 20.00    -0.378 OA
HETATM   10  C6  UNL     1     -32.345   9.475   0.561  1.00 20.00     0.203 C 
ENDBRANCH   6   9
ENDBRANCH   1   6
TORSDOF 3
ENDMDL
MODEL 5
REMARK VINA RESULT:      -0.1      0.847      1.729
REMARK  3 active torsions:
REMARK  status: ('A' for Active; 'I' for Inactive)
REMARK    1  A    between atoms: C1_1  and  C7_7 
REMARK    2  A    between atoms: C1_1  and  C8_8 
REMARK    3  A    between atoms: C8_8  and  O10_10 
ROOT
HETATM    1  C1  UNL     1     -33.477   5.847   2.944  1.00 20.00     0.163 C 
HETATM    2  O9  UNL     1     -33.310   4.769   3.522  1.00 20.00    -0.294 OA
ENDROOT
BRANCH   1   3
HETATM    3  C7  UNL     1     -34.449   6.885   3.504  1.00 20.00     0.050 C 
HETATM    4  C2  UNL     1     -35.647   6.179   4.129  1.00 20.00     0.017 C 
HETATM    5  C3  UNL     1     -33.730   7.765   4.520  1.00 20.00     0.017 C 
ENDBRANCH   1   3
BRANCH   1   6
HETATM    6  C8  UNL     1     -32.721   6.180   1.651  1.00 20.00     0.113 C 
HETATM    7  C4  UNL     1     -32.171   7.603   1.695  1.00 20.00     0.054 C 
HETATM    8  C5  UNL     1     -33.588   5.947   0.418  1.00 20.00     0.054 C 
BRANCH   6   9
HETATM    9  O10 UNL     1     -31.598   5.304   1.578  1.00 20.00    -0.378 OA
HETATM   10  C6  UNL     1     -31.656   4.487   0.420  1.00 20.00     0.203 C 
ENDBRANCH   6   9
ENDBRANCH   1   6
TORSDOF 3
ENDMDL
MODEL 6
REMARK VINA RESULT:       0.1      1.251      2.238
REMARK  3 active torsions:
REMARK  status: ('A' for Active; 'I' for Inactive)
REMARK    1  A    between atoms: C1_1  and  C7_7 
REMARK    2  A    between atoms: C1_1  and  C8_8 
REMARK    3  A    between atoms: C8_8  and  O10_10 
ROOT
HETATM    1  C1  UNL     1     -33.391   6.698   3.098  1.00 20.00     0.163 C 
HETATM    2  O9  UNL     1     -33.136   7.536   3.967  1.00 20.00    -0.294 OA
ENDROOT
BRANCH   1   3
HETATM    3  C7  UNL     1     -34.448   5.623   3.345  1.00 20.00     0.050 C 
HETATM    4  C2  UNL     1     -33.799   4.409   4.001  1.00 20.00     0.017 C 
HETATM    5  C3  UNL     1     -35.566   6.191   4.211  1.00 20.00     0.017 C 
ENDBRANCH   1   3
BRANCH   1   6
HETATM    6  C8  UNL     1     -32.660   6.705   1.749  1.00 20.00     0.113 C 
HETATM    7  C4  UNL     1     -31.971   8.045   1.512  1.00 20.00     0.054 C 
HETATM    8  C5  UNL     1     -33.597   6.340   0.602  1.00 20.00     0.054 C 
BRANCH   6   9
HETATM    9  O10 UNL     1     -31.633   5.717   1.818  1.00 20.00    -0.378 OA
HETATM   10  C6  UNL     1     -31.799   4.731   0.810  1.00 20.00     0.203 C 
ENDBRANCH   6   9
ENDBRANCH   1   6
TORSDOF 3
ENDMDL
MODEL 7
REMARK VINA RESULT:       0.2      1.386      3.789
REMARK  3 active torsions:
REMARK  status: ('A' for Active; 'I' for Inactive)
REMARK    1  A    between atoms: C1_1  and  C7_7 
REMARK    2  A    between atoms: C1_1  and  C8_8 
REMARK    3  A    between atoms: C8_8  and  O10_10 
ROOT
HETATM    1  C1  UNL     1     -33.139   6.930   2.260  1.00 20.00     0.163 C 
HETATM    2  O9  UNL     1     -33.039   6.033   1.418  1.00 20.00    -0.294 OA
ENDROOT
BRANCH   1   3
HETATM    3  C7  UNL     1     -32.337   8.223   2.113  1.00 20.00     0.050 C 
HETATM    4  C2  UNL     1     -30.846   7.906   2.135  1.00 20.00     0.017 C 
HETATM    5  C3  UNL     1     -32.736   8.931   0.823  1.00 20.00     0.017 C 
ENDBRANCH   1   3
BRANCH   1   6
HETATM    6  C8  UNL     1     -34.063   6.781   3.475  1.00 20.00     0.113 C 
HETATM    7  C4  UNL     1     -35.525   6.933   3.067  1.00 20.00     0.054 C 
HETATM    8  C5  UNL     1     -33.683   7.748   4.591  1.00 20.00     0.054 C 
BRANCH   6   9
HETATM    9  O10 UNL     1     -33.907   5.450   3.966  1.00 20.00    -0.378 OA
HETATM   10  C6  UNL     1     -35.123   4.952   4.501  1.00 20.00     0.203 C 
ENDBRANCH   6   9
ENDBRANCH   1   6
TORSDOF 3
ENDMDL
MODEL 8
REMARK VINA RESULT:       0.5      1.107      3.839
REMARK  3 active torsions:
REMARK  status: ('A' for Active; 'I' for Inactive)
REMARK    1  A    between atoms: C1_1  and  C7_7 
REMARK    2  A    between atoms: C1_1  and  C8_8 
REMARK    3  A    between atoms: C8_8  and  O10_10 
ROOT
HETATM    1  C1  UNL     1     -33.183   6.815   2.367  1.00 20.00     0.163 C 
HETATM    2  O9  UNL     1     -32.565   7.842   2.072  1.00 20.00    -0.294 OA
ENDROOT
BRANCH   1   3
HETATM    3  C7  UNL     1     -33.048   5.557   1.510  1.00 20.00     0.050 C 
HETATM    4  C2  UNL     1     -33.832   5.734   0.214  1.00 20.00     0.017 C 
HETATM    5  C3  UNL     1     -31.574   5.279   1.235  1.00 20.00     0.017 C 
ENDBRANCH   1   3
BRANCH   1   6
HETATM    6  C8  UNL     1     -34.103   6.765   3.593  1.00 20.00     0.113 C 
HETATM    7  C4  UNL     1     -35.561   6.950   3.187  1.00 20.00     0.054 C 
HETATM    8  C5  UNL     1     -33.679   7.777   4.653  1.00 20.00     0.054 C 
BRANCH   6   9
HETATM    9  O10 UNL     1     -33.991   5.458   4.155  1.00 20.00    -0.378 OA
HETATM   10  C6  UNL     1     -35.259   4.955   4.544  1.00 20.00     0.203 C 
ENDBRANCH   6   9
ENDBRANCH   1   6
TORSDOF 3
ENDMDL
MODEL 9
REMARK VINA RESULT:       0.8      1.125      3.697
REMARK  3 active torsions:
REMARK  status: ('A' for Active; 'I' for Inactive)
REMARK    1  A    between atoms: C1_1  and  C7_7 
REMARK    2  A    between atoms: C1_1  and  C8_8 
REMARK    3  A    between atoms: C8_8  and  O10_10 
ROOT
HETATM    1  C1  UNL     1     -32.216   7.936   1.821  1.00 20.00     0.163 C 
HETATM    2  O9  UNL     1     -31.628   8.373   2.815  1.00 20.00    -0.294 OA
ENDROOT
BRANCH   1   3
HETATM    3  C7  UNL     1     -32.388   8.807   0.578  1.00 20.00     0.050 C 
HETATM    4  C2  UNL     1     -32.773  10.222   0.994  1.00 20.00     0.017 C 
HETATM    5  C3  UNL     1     -31.100   8.798  -0.238  1.00 20.00     0.017 C 
ENDBRANCH   1   3
BRANCH   1   6
HETATM    6  C8  UNL     1     -32.791   6.514   1.800  1.00 20.00     0.113 C 
HETATM    7  C4  UNL     1     -31.704   5.493   1.481  1.00 20.00     0.054 C 
HETATM    8  C5  UNL     1     -33.972   6.401   0.840  1.00 20.00     0.054 C 
BRANCH   6   9
HETATM    9  O10 UNL     1     -33.258   6.225   3.117  1.00 20.00    -0.378 OA
HETATM   10  C6  UNL     1     -34.483   6.889   3.387  1.00 20.00     0.203 C 
ENDBRANCH   6   9
ENDBRANCH   1   6
TORSDOF 3
ENDMDL
