MODEL 1
REMARK VINA RESULT:      -0.5      0.000      0.000
REMARK  3 active torsions:
REMARK  status: ('A' for Active; 'I' for Inactive)
REMARK    1  A    between atoms: C2_2  and  C9_9 
REMARK    2  A    between atoms: C7_7  and  C9_9 
REMARK    3  A    between atoms: C9_9  and  O11_11 
ROOT
HETATM    1  C3  UNL     1     -33.617   7.789   3.581  1.00 20.00     0.034 C 
HETATM    2  C4  UNL     1     -32.740   6.114   1.933  1.00 20.00     0.034 C 
HETATM    3  C5  UNL     1     -34.651   6.745   3.985  1.00 20.00     0.168 C 
HETATM    4  C6  UNL     1     -33.823   5.163   2.428  1.00 20.00     0.168 C 
HETATM    5  C7  UNL     1     -33.167   7.573   2.132  1.00 20.00     0.023 C 
HETATM    6  O10 UNL     1     -34.140   5.427   3.795  1.00 20.00    -0.391 OA
ENDROOT
BRANCH   5   7
HETATM    7  C9  UNL     1     -32.040   8.532   1.757  1.00 20.00     0.150 C 
BRANCH   7   8
HETATM    8  C2  UNL     1     -32.411   9.452   0.618  1.00 20.00    -0.064 C 
HETATM    9  C1  UNL     1     -32.362   9.030  -0.656  1.00 20.00     0.016 C 
HETATM   10  C8  UNL     1     -32.849  10.852   0.950  1.00 20.00     0.045 C 
ENDBRANCH   7   8
BRANCH   7  11
HETATM   11  O11 UNL     1     -30.885   7.779   1.391  1.00 20.00    -0.391 OA
HETATM   12  H27 UNL     1     -31.037   7.466   0.486  1.00 20.00     0.210 HD
ENDBRANCH   7  11
ENDBRANCH   5   7
TORSDOF 3
ENDMDL
MODEL 2
REMARK VINA RESULT:      -0.1      1.488      2.565
REMARK  3 active torsions:
REMARK  status: ('A' for Active; 'I' for Inactive)
REMARK    1  A    between atoms: C2_2  and  C9_9 
REMARK    2  A    between atoms: C7_7  and  C9_9 
REMARK    3  A    between atoms: C9_9  and  O11_11 
ROOT
HETATM    1  C3  UNL     1     -33.314   4.555   3.194  1.00 20.00     0.034 C 
HETATM    2  C4  UNL     1     -34.611   6.702   3.230  1.00 20.00     0.034 C 
HETATM    3  C5  UNL     1     -34.111   4.135   4.423  1.00 20.00     0.168 C 
HETATM    4  C6  UNL     1     -35.336   6.162   4.457  1.00 20.00     0.168 C 
HETATM    5  C7  UNL     1     -33.214   6.082   3.109  1.00 20.00     0.023 C 
HETATM    6  O10 UNL     1     -35.404   4.736   4.417  1.00 20.00    -0.391 OA
ENDROOT
BRANCH   5   7
HETATM    7  C9  UNL     1     -32.529   6.519   1.817  1.00 20.00     0.150 C 
BRANCH   7   8
HETATM    8  C2  UNL     1     -32.101   7.968   1.844  1.00 20.00    -0.064 C 
HETATM    9  C1  UNL     1     -31.590   8.518   2.958  1.00 20.00     0.016 C 
HETATM   10  C8  UNL     1     -32.254   8.776   0.585  1.00 20.00     0.045 C 
ENDBRANCH   7   8
BRANCH   7  11
HETATM   11  O11 UNL     1     -33.419   6.315   0.722  1.00 20.00    -0.391 OA
HETATM   12  H27 UNL     1     -34.292   6.142   1.106  1.00 20.00     0.210 HD
ENDBRANCH   7  11
ENDBRANCH   5   7
TORSDOF 3
ENDMDL
MODEL 3
REMARK VINA RESULT:       0.4      1.441      1.939
REMARK  3 active torsions:
REMARK  status: ('A' for Active; 'I' for Inactive)
REMARK    1  A    between atoms: C2_2  and  C9_9 
REMARK    2  A    between atoms: C7_7  and  C9_9 
REMARK    3  A    between atoms: C9_9  and  O11_11 
ROOT
HETATM    1  C3  UNL     1     -34.963   6.798   4.170  1.00 20.00     0.034 C 
HETATM    2  C4  UNL     1     -33.024   5.471   3.290  1.00 20.00     0.034 C 
HETATM    3  C5  UNL     1     -35.692   5.473   4.359  1.00 20.00     0.168 C 
HETATM    4  C6  UNL     1     -33.861   4.220   3.529  1.00 20.00     0.168 C 
HETATM    5  C7  UNL     1     -33.925   6.688   3.048  1.00 20.00     0.023 C 
HETATM    6  O10 UNL     1     -34.767   4.418   4.615  1.00 20.00    -0.391 OA
ENDROOT
BRANCH   5   7
HETATM    7  C9  UNL     1     -33.101   7.968   2.934  1.00 20.00     0.150 C 
BRANCH   7   8
HETATM    8  C2  UNL     1     -32.268   8.016   1.673  1.00 20.00    -0.064 C 
HETATM    9  C1  UNL     1     -31.542   6.955   1.283  1.00 20.00     0.016 C 
HETATM   10  C8  UNL     1     -32.282   9.281   0.862  1.00 20.00     0.045 C 
ENDBRANCH   7   8
BRANCH   7  11
HETATM   11  O11 UNL     1     -32.240   8.074   4.066  1.00 20.00    -0.391 OA
HETATM   12  H27 UNL     1     -32.624   8.754   4.641  1.00 20.00     0.210 HD
ENDBRANCH   7  11
ENDBRANCH   5   7
TORSDOF 3
ENDMDL
MODEL 4
REMARK VINA RESULT:       1.0      1.337      1.910
REMARK  3 active torsions:
REMARK  status: ('A' for Active; 'I' for Inactive)
REMARK    1  A    between atoms: C2_2  and  C9_9 
REMARK    2  A    between atoms: C7_7  and  C9_9 
REMARK    3  A    between atoms: C9_9  and  O11_11 
ROOT
HETATM    1  C3  UNL     1     -34.142   7.033   3.384  1.00 20.00     0.034 C 
HETATM    2  C4  UNL     1     -33.230   4.696   3.384  1.00 20.00     0.034 C 
HETATM    3  C5  UNL     1     -35.424   6.457   3.974  1.00 20.00     0.168 C 
HETATM    4  C6  UNL     1     -34.563   4.251   3.974  1.00 20.00     0.168 C 
HETATM    5  C7  UNL     1     -33.405   5.975   2.556  1.00 20.00     0.023 C 
HETATM    6  O10 UNL     1     -35.145   5.296   4.754  1.00 20.00    -0.391 OA
ENDROOT
BRANCH   5   7
HETATM    7  C9  UNL     1     -32.058   6.500   2.065  1.00 20.00     0.150 C 
BRANCH   7   8
HETATM    8  C2  UNL     1     -32.025   8.006   1.952  1.00 20.00    -0.064 C 
HETATM    9  C1  UNL     1     -32.343   8.620   0.800  1.00 20.00     0.016 C 
HETATM   10  C8  UNL     1     -31.635   8.801   3.167  1.00 20.00     0.045 C 
ENDBRANCH   7   8
BRANCH   7  11
HETATM   11  O11 UNL     1     -31.768   5.929   0.791  1.00 20.00    -0.391 OA
HETATM   12  H27 UNL     1     -32.323   5.139   0.711  1.00 20.00     0.210 HD
ENDBRANCH   7  11
ENDBRANCH   5   7
TORSDOF 3
ENDMDL
MODEL 5
REMARK VINA RESULT:       1.2      2.233      3.269
REMARK  3 active torsions:
REMARK  status: ('A' for Active; 'I' for Inactive)
REMARK    1  A    between atoms: C2_2  and  C9_9 
REMARK    2  A    between atoms: C7_7  and  C9_9 
REMARK    3  A    between atoms: C9_9  and  O11_11 
ROOT
HETATM    1  C3  UNL     1     -33.493   4.624   3.218  1.00 20.00     0.034 C 
HETATM    2  C4  UNL     1     -34.910   6.686   3.392  1.00 20.00     0.034 C 
HETATM    3  C5  UNL     1     -34.126   4.164   4.526  1.00 20.00     0.168 C 
HETATM    4  C6  UNL     1     -35.465   6.111   4.689  1.00 20.00     0.168 C 
HETATM    5  C7  UNL     1     -33.498   6.154   3.123  1.00 20.00     0.023 C 
HETATM    6  O10 UNL     1     -35.447   4.684   4.658  1.00 20.00    -0.391 OA
ENDROOT
BRANCH   5   7
HETATM    7  C9  UNL     1     -32.983   6.623   1.764  1.00 20.00     0.150 C 
BRANCH   7   8
HETATM    8  C2  UNL     1     -32.664   5.476   0.833  1.00 20.00    -0.064 C 
HETATM    9  C1  UNL     1     -31.440   4.923   0.811  1.00 20.00     0.016 C 
HETATM   10  C8  UNL     1     -33.758   4.962  -0.061  1.00 20.00     0.045 C 
ENDBRANCH   7   8
BRANCH   7  11
HETATM   11  O11 UNL     1     -31.810   7.410   1.953  1.00 20.00    -0.391 OA
HETATM   12  H27 UNL     1     -32.110   8.323   2.086  1.00 20.00     0.210 HD
ENDBRANCH   7  11
ENDBRANCH   5   7
TORSDOF 3
ENDMDL
MODEL 6
REMARK VINA RESULT:       1.3      1.472      4.611
REMARK  3 active torsions:
REMARK  status: ('A' for Active; 'I' for Inactive)
REMARK    1  A    between atoms: C2_2  and  C9_9 
REMARK    2  A    between atoms: C7_7  and  C9_9 
REMARK    3  A    between atoms: C9_9  and  O11_11 
ROOT
HETATM    1  C3  UNL     1     -31.649   7.287   1.653  1.00 20.00     0.034 C 
HETATM    2  C4  UNL     1     -33.110   9.263   2.154  1.00 20.00     0.034 C 
HETATM    3  C5  UNL     1     -31.378   7.920   0.294  1.00 20.00     0.168 C 
HETATM    4  C6  UNL     1     -32.757   9.787   0.767  1.00 20.00     0.168 C 
HETATM    5  C7  UNL     1     -33.010   7.734   2.198  1.00 20.00     0.023 C 
HETATM    6  O10 UNL     1     -31.459   9.342   0.374  1.00 20.00    -0.391 OA
ENDROOT
BRANCH   5   7
HETATM    7  C9  UNL     1     -33.237   7.209   3.613  1.00 20.00     0.150 C 
BRANCH   7   8
HETATM    8  C2  UNL     1     -34.280   6.116   3.669  1.00 20.00    -0.064 C 
HETATM    9  C1  UNL     1     -35.582   6.409   3.819  1.00 20.00     0.016 C 
HETATM   10  C8  UNL     1     -33.820   4.690   3.543  1.00 20.00     0.045 C 
ENDBRANCH   7   8
BRANCH   7  11
HETATM   11  O11 UNL     1     -33.645   8.286   4.454  1.00 20.00    -0.391 OA
HETATM   12  H27 UNL     1     -32.917   8.439   5.076  1.00 20.00     0.210 HD
ENDBRANCH   7  11
ENDBRANCH   5   7
TORSDOF 3
ENDMDL
MODEL 7
REMARK VINA RESULT:       1.3      1.518      4.533
REMARK  3 active torsions:
REMARK  status: ('A' for Active; 'I' for Inactive)
REMARK    1  A    between atoms: C2_2  and  C9_9 
REMARK    2  A    between atoms: C7_7  and  C9_9 
REMARK    3  A    between atoms: C9_9  and  O11_11 
ROOT
HETATM    1  C3  UNL     1     -32.716   5.995   2.029  1.00 20.00     0.034 C 
HETATM    2  C4  UNL     1     -32.419   8.397   2.687  1.00 20.00     0.034 C 
HETATM    3  C5  UNL     1     -32.060   6.351   0.701  1.00 20.00     0.168 C 
HETATM    4  C6  UNL     1     -31.779   8.620   1.322  1.00 20.00     0.168 C 
HETATM    5  C7  UNL     1     -33.402   7.222   2.640  1.00 20.00     0.023 C 
HETATM    6  O10 UNL     1     -31.140   7.428   0.864  1.00 20.00    -0.391 OA
ENDROOT
BRANCH   5   7
HETATM    7  C9  UNL     1     -33.953   6.910   4.029  1.00 20.00     0.150 C 
BRANCH   7   8
HETATM    8  C2  UNL     1     -35.272   6.173   3.983  1.00 20.00    -0.064 C 
HETATM    9  C1  UNL     1     -36.297   6.637   3.251  1.00 20.00     0.016 C 
HETATM   10  C8  UNL     1     -35.401   4.900   4.772  1.00 20.00     0.045 C 
ENDBRANCH   7   8
BRANCH   7  11
HETATM   11  O11 UNL     1     -34.125   8.128   4.751  1.00 20.00    -0.391 OA
HETATM   12  H27 UNL     1     -34.867   7.986   5.358  1.00 20.00     0.210 HD
ENDBRANCH   7  11
ENDBRANCH   5   7
TORSDOF 3
ENDMDL
MODEL 8
REMARK VINA RESULT:       1.3      0.988      1.862
REMARK  3 active torsions:
REMARK  status: ('A' for Active; 'I' for Inactive)
REMARK    1  A    between atoms: C2_2  and  C9_9 
REMARK    2  A    between atoms: C7_7  and  C9_9 
REMARK    3  A    between atoms: C9_9  and  O11_11 
ROOT
HETATM    1  C3  UNL     1     -32.370   6.671   1.120  1.00 20.00     0.034 C 
HETATM    2  C4  UNL     1     -32.930   8.463   2.784  1.00 20.00     0.034 C 
HETATM    3  C5  UNL     1     -33.011   5.677   2.081  1.00 20.00     0.168 C 
HETATM    4  C6  UNL     1     -33.541   7.369   3.652  1.00 20.00     0.168 C 
HETATM    5  C7  UNL     1     -31.833   7.888   1.881  1.00 20.00     0.023 C 
HETATM    6  O10 UNL     1     -34.041   6.303   2.844  1.00 20.00    -0.391 OA
ENDROOT
BRANCH   5   7
HETATM    7  C9  UNL     1     -31.302   8.948   0.919  1.00 20.00     0.150 C 
BRANCH   7   8
HETATM    8  C2  UNL     1     -32.383   9.884   0.427  1.00 20.00    -0.064 C 
HETATM    9  C1  UNL     1     -33.006   9.666  -0.742  1.00 20.00     0.016 C 
HETATM   10  C8  UNL     1     -32.748  11.060   1.289  1.00 20.00     0.045 C 
ENDBRANCH   7   8
BRANCH   7  11
HETATM   11  O11 UNL     1     -30.697   8.305  -0.201  1.00 20.00    -0.391 OA
HETATM   12  H27 UNL     1     -31.245   7.531  -0.403  1.00 20.00     0.210 HD
ENDBRANCH   7  11
ENDBRANCH   5   7
TORSDOF 3
ENDMDL
MODEL 9
REMARK VINA RESULT:       1.4      1.451      4.334
REMARK  3 active torsions:
REMARK  status: ('A' for Active; 'I' for Inactive)
REMARK    1  A    between atoms: C2_2  and  C9_9 
REMARK    2  A    between atoms: C7_7  and  C9_9 
REMARK    3  A    between atoms: C9_9  and  O11_11 
ROOT
HETATM    1  C3  UNL     1     -33.507   9.230   1.344  1.00 20.00     0.034 C 
HETATM    2  C4  UNL     1     -31.655   7.627   0.806  1.00 20.00     0.034 C 
HETATM    3  C5  UNL     1     -32.612  10.337   0.801  1.00 20.00     0.168 C 
HETATM    4  C6  UNL     1     -30.863   8.824   0.293  1.00 20.00     0.168 C 
HETATM    5  C7  UNL     1     -32.666   8.064   1.873  1.00 20.00     0.023 C 
HETATM    6  O10 UNL     1     -31.740   9.833  -0.208  1.00 20.00    -0.391 OA
ENDROOT
BRANCH   5   7
HETATM    7  C9  UNL     1     -33.551   6.896   2.302  1.00 20.00     0.150 C 
BRANCH   7   8
HETATM    8  C2  UNL     1     -34.094   7.060   3.702  1.00 20.00    -0.064 C 
HETATM    9  C1  UNL     1     -33.537   7.927   4.564  1.00 20.00     0.016 C 
HETATM   10  C8  UNL     1     -35.284   6.232   4.102  1.00 20.00     0.045 C 
ENDBRANCH   7   8
BRANCH   7  11
HETATM   11  O11 UNL     1     -32.799   5.687   2.232  1.00 20.00    -0.391 OA
HETATM   12  H27 UNL     1     -31.926   5.926   1.884  1.00 20.00     0.210 HD
ENDBRANCH   7  11
ENDBRANCH   5   7
TORSDOF 3
ENDMDL
