MODEL 1
REMARK VINA RESULT:      -0.7      0.000      0.000
REMARK  0 active torsions:
REMARK  status: ('A' for Active; 'I' for Inactive)
ROOT
HETATM    1  C1  UNL     1     -33.466   8.261   2.583  1.00 20.00     0.063 A 
HETATM    2  C2  UNL     1     -31.867   6.964   1.274  1.00 20.00     0.098 A 
HETATM    3  C3  UNL     1     -33.333   5.874   2.788  1.00 20.00     0.055 A 
HETATM    4  C4  UNL     1     -33.910   7.082   3.159  1.00 20.00    -0.037 A 
HETATM    5  C5  UNL     1     -32.438   8.196   1.635  1.00 20.00     0.175 A 
HETATM    6  C6  UNL     1     -32.317   5.778   1.855  1.00 20.00     0.134 A 
HETATM    7  C7  UNL     1     -33.981   4.810   3.538  1.00 20.00     0.163 A 
HETATM    8  C8  UNL     1     -34.986   6.921   4.183  1.00 20.00     0.047 A 
HETATM    9  C9  UNL     1     -35.037   5.404   4.440  1.00 20.00     0.088 A 
HETATM   10  O10 UNL     1     -32.011   9.275   1.089  1.00 20.00    -0.288 OA
HETATM   11  O11 UNL     1     -33.702   3.630   3.439  1.00 20.00    -0.292 OA
HETATM   12  F12 UNL     1     -31.780   4.601   1.516  1.00 20.00    -0.205 F 
ENDROOT
TORSDOF 0
ENDMDL
MODEL 2
REMARK VINA RESULT:      -0.6      1.813      4.450
REMARK  0 active torsions:
REMARK  status: ('A' for Active; 'I' for Inactive)
ROOT
HETATM    1  C1  UNL     1     -33.813   4.789   3.178  1.00 20.00     0.063 A 
HETATM    2  C2  UNL     1     -34.902   6.637   4.338  1.00 20.00     0.098 A 
HETATM    3  C3  UNL     1     -33.261   7.071   2.681  1.00 20.00     0.055 A 
HETATM    4  C4  UNL     1     -33.076   5.713   2.455  1.00 20.00    -0.037 A 
HETATM    5  C5  UNL     1     -34.730   5.259   4.125  1.00 20.00     0.175 A 
HETATM    6  C6  UNL     1     -34.160   7.565   3.609  1.00 20.00     0.134 A 
HETATM    7  C7  UNL     1     -32.371   7.805   1.797  1.00 20.00     0.163 A 
HETATM    8  C8  UNL     1     -32.051   5.434   1.405  1.00 20.00     0.047 A 
HETATM    9  C9  UNL     1     -31.576   6.830   0.962  1.00 20.00     0.088 A 
HETATM   10  O10 UNL     1     -35.423   4.421   4.805  1.00 20.00    -0.288 OA
HETATM   11  O11 UNL     1     -32.294   9.019   1.751  1.00 20.00    -0.292 OA
HETATM   12  F12 UNL     1     -34.318   8.879   3.806  1.00 20.00    -0.205 F 
ENDROOT
TORSDOF 0
ENDMDL
MODEL 3
REMARK VINA RESULT:       0.8      2.176      2.984
REMARK  0 active torsions:
REMARK  status: ('A' for Active; 'I' for Inactive)
ROOT
HETATM    1  C1  UNL     1     -32.966   4.709   1.913  1.00 20.00     0.063 A 
HETATM    2  C2  UNL     1     -31.774   6.713   1.199  1.00 20.00     0.098 A 
HETATM    3  C3  UNL     1     -33.401   6.843   2.921  1.00 20.00     0.055 A 
HETATM    4  C4  UNL     1     -33.659   5.480   2.832  1.00 20.00    -0.037 A 
HETATM    5  C5  UNL     1     -32.019   5.334   1.093  1.00 20.00     0.175 A 
HETATM    6  C6  UNL     1     -32.472   7.488   2.126  1.00 20.00     0.134 A 
HETATM    7  C7  UNL     1     -34.257   7.401   3.956  1.00 20.00     0.163 A 
HETATM    8  C8  UNL     1     -34.703   5.023   3.797  1.00 20.00     0.047 A 
HETATM    9  C9  UNL     1     -35.107   6.304   4.550  1.00 20.00     0.088 A 
HETATM   10  O10 UNL     1     -31.368   4.639   0.236  1.00 20.00    -0.288 OA
HETATM   11  O11 UNL     1     -34.270   8.575   4.278  1.00 20.00    -0.292 OA
HETATM   12  F12 UNL     1     -32.243   8.802   2.234  1.00 20.00    -0.205 F 
ENDROOT
TORSDOF 0
ENDMDL
MODEL 4
REMARK VINA RESULT:       1.1      1.020      3.660
REMARK  0 active torsions:
REMARK  status: ('A' for Active; 'I' for Inactive)
ROOT
HETATM    1  C1  UNL     1     -34.532   6.531   3.993  1.00 20.00     0.063 A 
HETATM    2  C2  UNL     1     -33.494   4.623   2.884  1.00 20.00     0.098 A 
HETATM    3  C3  UNL     1     -32.855   6.832   2.303  1.00 20.00     0.055 A 
HETATM    4  C4  UNL     1     -33.746   7.373   3.222  1.00 20.00    -0.037 A 
HETATM    5  C5  UNL     1     -34.402   5.149   3.820  1.00 20.00     0.175 A 
HETATM    6  C6  UNL     1     -32.704   5.471   2.110  1.00 20.00     0.134 A 
HETATM    7  C7  UNL     1     -32.166   7.927   1.640  1.00 20.00     0.163 A 
HETATM    8  C8  UNL     1     -33.723   8.866   3.243  1.00 20.00     0.047 A 
HETATM    9  C9  UNL     1     -32.669   9.242   2.187  1.00 20.00     0.088 A 
HETATM   10  O10 UNL     1     -35.119   4.352   4.522  1.00 20.00    -0.288 OA
HETATM   11  O11 UNL     1     -31.318   7.785   0.778  1.00 20.00    -0.292 OA
HETATM   12  F12 UNL     1     -31.836   4.979   1.219  1.00 20.00    -0.205 F 
ENDROOT
TORSDOF 0
ENDMDL
MODEL 5
REMARK VINA RESULT:       1.2      1.961      2.624
REMARK  0 active torsions:
REMARK  status: ('A' for Active; 'I' for Inactive)
ROOT
HETATM    1  C1  UNL     1     -32.002   6.339   1.671  1.00 20.00     0.063 A 
HETATM    2  C2  UNL     1     -32.986   8.427   2.460  1.00 20.00     0.098 A 
HETATM    3  C3  UNL     1     -33.781   6.349   3.282  1.00 20.00     0.055 A 
HETATM    4  C4  UNL     1     -32.876   5.648   2.495  1.00 20.00    -0.037 A 
HETATM    5  C5  UNL     1     -32.062   7.737   1.657  1.00 20.00     0.175 A 
HETATM    6  C6  UNL     1     -33.863   7.729   3.290  1.00 20.00     0.134 A 
HETATM    7  C7  UNL     1     -34.565   5.387   4.040  1.00 20.00     0.163 A 
HETATM    8  C8  UNL     1     -32.983   4.168   2.665  1.00 20.00     0.047 A 
HETATM    9  C9  UNL     1     -34.112   3.988   3.697  1.00 20.00     0.088 A 
HETATM   10  O10 UNL     1     -31.264   8.397   0.901  1.00 20.00    -0.288 OA
HETATM   11  O11 UNL     1     -35.446   5.685   4.826  1.00 20.00    -0.292 OA
HETATM   12  F12 UNL     1     -34.744   8.378   4.059  1.00 20.00    -0.205 F 
ENDROOT
TORSDOF 0
ENDMDL
MODEL 6
REMARK VINA RESULT:       1.6      1.015      1.231
REMARK  0 active torsions:
REMARK  status: ('A' for Active; 'I' for Inactive)
ROOT
HETATM    1  C1  UNL     1     -33.238   9.394   2.169  1.00 20.00     0.063 A 
HETATM    2  C2  UNL     1     -31.859   8.007   0.712  1.00 20.00     0.098 A 
HETATM    3  C3  UNL     1     -33.113   7.016   2.465  1.00 20.00     0.055 A 
HETATM    4  C4  UNL     1     -33.614   8.252   2.857  1.00 20.00    -0.037 A 
HETATM    5  C5  UNL     1     -32.354   9.266   1.091  1.00 20.00     0.175 A 
HETATM    6  C6  UNL     1     -32.239   6.858   1.405  1.00 20.00     0.134 A 
HETATM    7  C7  UNL     1     -33.665   6.002   3.348  1.00 20.00     0.163 A 
HETATM    8  C8  UNL     1     -34.537   8.159   4.027  1.00 20.00     0.047 A 
HETATM    9  C9  UNL     1     -34.574   6.657   4.359  1.00 20.00     0.088 A 
HETATM   10  O10 UNL     1     -31.993  10.311   0.441  1.00 20.00    -0.288 OA
HETATM   11  O11 UNL     1     -33.420   4.812   3.266  1.00 20.00    -0.292 OA
HETATM   12  F12 UNL     1     -31.773   5.656   1.050  1.00 20.00    -0.205 F 
ENDROOT
TORSDOF 0
ENDMDL
MODEL 7
REMARK VINA RESULT:       1.7      0.971      3.653
REMARK  0 active torsions:
REMARK  status: ('A' for Active; 'I' for Inactive)
ROOT
HETATM    1  C1  UNL     1     -34.358   5.137   4.260  1.00 20.00     0.063 A 
HETATM    2  C2  UNL     1     -32.777   4.052   2.752  1.00 20.00     0.098 A 
HETATM    3  C3  UNL     1     -33.109   6.399   2.645  1.00 20.00     0.055 A 
HETATM    4  C4  UNL     1     -34.043   6.352   3.673  1.00 20.00    -0.037 A 
HETATM    5  C5  UNL     1     -33.719   3.983   3.793  1.00 20.00     0.175 A 
HETATM    6  C6  UNL     1     -32.461   5.276   2.163  1.00 20.00     0.134 A 
HETATM    7  C7  UNL     1     -32.971   7.782   2.219  1.00 20.00     0.163 A 
HETATM    8  C8  UNL     1     -34.600   7.696   4.012  1.00 20.00     0.047 A 
HETATM    9  C9  UNL     1     -33.887   8.655   3.042  1.00 20.00     0.088 A 
HETATM   10  O10 UNL     1     -33.996   2.848   4.322  1.00 20.00    -0.288 OA
HETATM   11  O11 UNL     1     -32.226   8.157   1.332  1.00 20.00    -0.292 OA
HETATM   12  F12 UNL     1     -31.565   5.351   1.173  1.00 20.00    -0.205 F 
ENDROOT
TORSDOF 0
ENDMDL
