MODEL 1
REMARK VINA RESULT:      -0.8      0.000      0.000
REMARK  4 active torsions:
REMARK  status: ('A' for Active; 'I' for Inactive)
REMARK    1  A    between atoms: C2_2  and  C8_8 
REMARK    2  A    between atoms: C6_6  and  C9_9 
REMARK    3  A    between atoms: C8_8  and  C9_9 
REMARK    4  A    between atoms: C9_9  and  O11_11 
ROOT
HETATM    1  C9  UNL     1     -34.349   5.169   4.271  1.00 20.00     0.151 C 
ENDROOT
BRANCH   1   2
HETATM    2  C6  UNL     1     -34.152   6.278   3.255  1.00 20.00     0.150 C 
HETATM    3  C4  UNL     1     -33.496   7.520   3.832  1.00 20.00     0.036 C 
HETATM    4  C3  UNL     1     -32.854   8.118   2.605  1.00 20.00     0.029 C 
HETATM    5  C5  UNL     1     -32.382   6.884   1.866  1.00 20.00     0.168 C 
HETATM    6  O10 UNL     1     -33.291   5.823   2.198  1.00 20.00    -0.383 OA
ENDBRANCH   1   2
BRANCH   1   7
HETATM    7  C8  UNL     1     -33.845   3.828   3.722  1.00 20.00     0.067 C 
BRANCH   7   8
HETATM    8  C2  UNL     1     -33.214   2.942   4.775  1.00 20.00    -0.091 C 
HETATM    9  C1  UNL     1     -32.612   3.460   5.858  1.00 20.00     0.014 C 
HETATM   10  C7  UNL     1     -33.328   1.458   4.579  1.00 20.00     0.042 C 
ENDBRANCH   7   8
ENDBRANCH   1   7
BRANCH   1  11
HETATM   11  O11 UNL     1     -35.746   5.089   4.547  1.00 20.00    -0.393 OA
HETATM   12  H27 UNL     1     -36.056   5.999   4.668  1.00 20.00     0.210 HD
ENDBRANCH   1  11
TORSDOF 4
ENDMDL
MODEL 2
REMARK VINA RESULT:      -0.5      2.251      3.871
REMARK  4 active torsions:
REMARK  status: ('A' for Active; 'I' for Inactive)
REMARK    1  A    between atoms: C2_2  and  C8_8 
REMARK    2  A    between atoms: C6_6  and  C9_9 
REMARK    3  A    between atoms: C8_8  and  C9_9 
REMARK    4  A    between atoms: C9_9  and  O11_11 
ROOT
HETATM    1  C9  UNL     1     -32.761   6.957   1.691  1.00 20.00     0.151 C 
ENDROOT
BRANCH   1   2
HETATM    2  C6  UNL     1     -32.104   8.235   1.204  1.00 20.00     0.150 C 
HETATM    3  C4  UNL     1     -32.417   8.564  -0.245  1.00 20.00     0.036 C 
HETATM    4  C3  UNL     1     -32.241  10.062  -0.258  1.00 20.00     0.029 C 
HETATM    5  C5  UNL     1     -32.805  10.455   1.091  1.00 20.00     0.168 C 
HETATM    6  O10 UNL     1     -32.574   9.351   1.979  1.00 20.00    -0.383 OA
ENDBRANCH   1   2
BRANCH   1   7
HETATM    7  C8  UNL     1     -33.117   7.058   3.180  1.00 20.00     0.067 C 
BRANCH   7   8
HETATM    8  C2  UNL     1     -34.229   6.121   3.600  1.00 20.00    -0.091 C 
HETATM    9  C1  UNL     1     -35.474   6.568   3.828  1.00 20.00     0.014 C 
HETATM   10  C7  UNL     1     -33.890   4.662   3.708  1.00 20.00     0.042 C 
ENDBRANCH   7   8
ENDBRANCH   1   7
BRANCH   1  11
HETATM   11  O11 UNL     1     -31.830   5.896   1.482  1.00 20.00    -0.393 OA
HETATM   12  H27 UNL     1     -32.077   5.473   0.646  1.00 20.00     0.210 HD
ENDBRANCH   1  11
TORSDOF 4
ENDMDL
MODEL 3
REMARK VINA RESULT:      -0.3      1.705      4.682
REMARK  4 active torsions:
REMARK  status: ('A' for Active; 'I' for Inactive)
REMARK    1  A    between atoms: C2_2  and  C8_8 
REMARK    2  A    between atoms: C6_6  and  C9_9 
REMARK    3  A    between atoms: C8_8  and  C9_9 
REMARK    4  A    between atoms: C9_9  and  O11_11 
ROOT
HETATM    1  C9  UNL     1     -33.767   7.868   3.602  1.00 20.00     0.151 C 
ENDROOT
BRANCH   1   2
HETATM    2  C6  UNL     1     -34.283   6.465   3.344  1.00 20.00     0.150 C 
HETATM    3  C4  UNL     1     -33.282   5.377   3.691  1.00 20.00     0.036 C 
HETATM    4  C3  UNL     1     -34.195   4.209   3.973  1.00 20.00     0.029 C 
HETATM    5  C5  UNL     1     -35.355   4.881   4.675  1.00 20.00     0.168 C 
HETATM    6  O10 UNL     1     -35.444   6.216   4.154  1.00 20.00    -0.383 OA
ENDBRANCH   1   2
BRANCH   1   7
HETATM    7  C8  UNL     1     -32.305   8.004   3.155  1.00 20.00     0.067 C 
BRANCH   7   8
HETATM    8  C2  UNL     1     -32.128   7.971   1.652  1.00 20.00    -0.091 C 
HETATM    9  C1  UNL     1     -31.840   6.831   1.005  1.00 20.00     0.014 C 
HETATM   10  C7  UNL     1     -32.330   9.261   0.911  1.00 20.00     0.042 C 
ENDBRANCH   7   8
ENDBRANCH   1   7
BRANCH   1  11
HETATM   11  O11 UNL     1     -33.873   8.107   5.005  1.00 20.00    -0.393 OA
HETATM   12  H27 UNL     1     -34.819   8.142   5.208  1.00 20.00     0.210 HD
ENDBRANCH   1  11
TORSDOF 4
ENDMDL
MODEL 4
REMARK VINA RESULT:      -0.3      2.298      3.957
REMARK  4 active torsions:
REMARK  status: ('A' for Active; 'I' for Inactive)
REMARK    1  A    between atoms: C2_2  and  C8_8 
REMARK    2  A    between atoms: C6_6  and  C9_9 
REMARK    3  A    between atoms: C8_8  and  C9_9 
REMARK    4  A    between atoms: C9_9  and  O11_11 
ROOT
HETATM    1  C9  UNL     1     -32.708   6.969   1.664  1.00 20.00     0.151 C 
ENDROOT
BRANCH   1   2
HETATM    2  C6  UNL     1     -32.068   8.263   1.196  1.00 20.00     0.150 C 
HETATM    3  C4  UNL     1     -32.339   8.581  -0.264  1.00 20.00     0.036 C 
HETATM    4  C3  UNL     1     -32.201  10.083  -0.275  1.00 20.00     0.029 C 
HETATM    5  C5  UNL     1     -32.821  10.464   1.052  1.00 20.00     0.168 C 
HETATM    6  O10 UNL     1     -32.592   9.367   1.951  1.00 20.00    -0.383 OA
ENDBRANCH   1   2
BRANCH   1   7
HETATM    7  C8  UNL     1     -33.129   7.069   3.135  1.00 20.00     0.067 C 
BRANCH   7   8
HETATM    8  C2  UNL     1     -34.151   6.029   3.543  1.00 20.00    -0.091 C 
HETATM    9  C1  UNL     1     -33.834   4.726   3.618  1.00 20.00     0.014 C 
HETATM   10  C7  UNL     1     -35.524   6.521   3.899  1.00 20.00     0.042 C 
ENDBRANCH   7   8
ENDBRANCH   1   7
BRANCH   1  11
HETATM   11  O11 UNL     1     -31.739   5.934   1.502  1.00 20.00    -0.393 OA
HETATM   12  H27 UNL     1     -32.077   5.347   0.810  1.00 20.00     0.210 HD
ENDBRANCH   1  11
TORSDOF 4
ENDMDL
MODEL 5
REMARK VINA RESULT:      -0.3      2.598      5.551
REMARK  4 active torsions:
REMARK  status: ('A' for Active; 'I' for Inactive)
REMARK    1  A    between atoms: C2_2  and  C8_8 
REMARK    2  A    between atoms: C6_6  and  C9_9 
REMARK    3  A    between atoms: C8_8  and  C9_9 
REMARK    4  A    between atoms: C9_9  and  O11_11 
ROOT
HETATM    1  C9  UNL     1     -32.388   8.565   2.907  1.00 20.00     0.151 C 
ENDROOT
BRANCH   1   2
HETATM    2  C6  UNL     1     -33.019   7.345   3.552  1.00 20.00     0.150 C 
HETATM    3  C4  UNL     1     -34.413   7.601   4.099  1.00 20.00     0.036 C 
HETATM    4  C3  UNL     1     -35.011   6.217   4.054  1.00 20.00     0.029 C 
HETATM    5  C5  UNL     1     -34.434   5.668   2.766  1.00 20.00     0.168 C 
HETATM    6  O10 UNL     1     -33.156   6.296   2.580  1.00 20.00    -0.383 OA
ENDBRANCH   1   2
BRANCH   1   7
HETATM    7  C8  UNL     1     -32.014   8.280   1.447  1.00 20.00     0.067 C 
BRANCH   7   8
HETATM    8  C2  UNL     1     -32.368   9.408   0.501  1.00 20.00    -0.091 C 
HETATM    9  C1  UNL     1     -32.361   9.235  -0.830  1.00 20.00     0.014 C 
HETATM   10  C7  UNL     1     -32.767  10.718   1.117  1.00 20.00     0.042 C 
ENDBRANCH   7   8
ENDBRANCH   1   7
BRANCH   1  11
HETATM   11  O11 UNL     1     -31.218   8.884   3.658  1.00 20.00    -0.393 OA
HETATM   12  H27 UNL     1     -31.344   8.504   4.540  1.00 20.00     0.210 HD
ENDBRANCH   1  11
TORSDOF 4
ENDMDL
MODEL 6
REMARK VINA RESULT:      -0.2      1.808      2.970
REMARK  4 active torsions:
REMARK  status: ('A' for Active; 'I' for Inactive)
REMARK    1  A    between atoms: C2_2  and  C8_8 
REMARK    2  A    between atoms: C6_6  and  C9_9 
REMARK    3  A    between atoms: C8_8  and  C9_9 
REMARK    4  A    between atoms: C9_9  and  O11_11 
ROOT
HETATM    1  C9  UNL     1     -33.152   7.346   3.443  1.00 20.00     0.151 C 
ENDROOT
BRANCH   1   2
HETATM    2  C6  UNL     1     -32.180   8.045   2.511  1.00 20.00     0.150 C 
HETATM    3  C4  UNL     1     -31.849   7.240   1.265  1.00 20.00     0.036 C 
HETATM    4  C3  UNL     1     -31.467   8.331   0.296  1.00 20.00     0.029 C 
HETATM    5  C5  UNL     1     -32.451   9.425   0.652  1.00 20.00     0.168 C 
HETATM    6  O10 UNL     1     -32.748   9.281   2.050  1.00 20.00    -0.383 OA
ENDBRANCH   1   2
BRANCH   1   7
HETATM    7  C8  UNL     1     -33.639   6.025   2.834  1.00 20.00     0.067 C 
BRANCH   7   8
HETATM    8  C2  UNL     1     -34.337   5.123   3.830  1.00 20.00    -0.091 C 
HETATM    9  C1  UNL     1     -35.487   5.485   4.418  1.00 20.00     0.014 C 
HETATM   10  C7  UNL     1     -33.708   3.785   4.099  1.00 20.00     0.042 C 
ENDBRANCH   7   8
ENDBRANCH   1   7
BRANCH   1  11
HETATM   11  O11 UNL     1     -34.256   8.228   3.642  1.00 20.00    -0.393 OA
HETATM   12  H27 UNL     1     -34.383   8.703   2.807  1.00 20.00     0.210 HD
ENDBRANCH   1  11
TORSDOF 4
ENDMDL
MODEL 7
REMARK VINA RESULT:      -0.2      1.948      4.941
REMARK  4 active torsions:
REMARK  status: ('A' for Active; 'I' for Inactive)
REMARK    1  A    between atoms: C2_2  and  C8_8 
REMARK    2  A    between atoms: C6_6  and  C9_9 
REMARK    3  A    between atoms: C8_8  and  C9_9 
REMARK    4  A    between atoms: C9_9  and  O11_11 
ROOT
HETATM    1  C9  UNL     1     -32.436   6.040   1.923  1.00 20.00     0.151 C 
ENDROOT
BRANCH   1   2
HETATM    2  C6  UNL     1     -33.780   5.623   2.490  1.00 20.00     0.150 C 
HETATM    3  C4  UNL     1     -33.674   4.616   3.623  1.00 20.00     0.036 C 
HETATM    4  C3  UNL     1     -34.952   4.879   4.378  1.00 20.00     0.029 C 
HETATM    5  C5  UNL     1     -35.075   6.385   4.272  1.00 20.00     0.168 C 
HETATM    6  O10 UNL     1     -34.457   6.768   3.033  1.00 20.00    -0.383 OA
ENDBRANCH   1   2
BRANCH   1   7
HETATM    7  C8  UNL     1     -32.602   7.168   0.896  1.00 20.00     0.067 C 
BRANCH   7   8
HETATM    8  C2  UNL     1     -32.088   8.506   1.380  1.00 20.00    -0.091 C 
HETATM    9  C1  UNL     1     -31.451   8.629   2.556  1.00 20.00     0.014 C 
HETATM   10  C7  UNL     1     -32.282   9.684   0.469  1.00 20.00     0.042 C 
ENDBRANCH   7   8
ENDBRANCH   1   7
BRANCH   1  11
HETATM   11  O11 UNL     1     -31.864   4.892   1.299  1.00 20.00    -0.393 OA
HETATM   12  H27 UNL     1     -31.028   5.180   0.905  1.00 20.00     0.210 HD
ENDBRANCH   1  11
TORSDOF 4
ENDMDL
MODEL 8
REMARK VINA RESULT:      -0.2      2.861      3.888
REMARK  4 active torsions:
REMARK  status: ('A' for Active; 'I' for Inactive)
REMARK    1  A    between atoms: C2_2  and  C8_8 
REMARK    2  A    between atoms: C6_6  and  C9_9 
REMARK    3  A    between atoms: C8_8  and  C9_9 
REMARK    4  A    between atoms: C9_9  and  O11_11 
ROOT
HETATM    1  C9  UNL     1     -32.333   7.848   2.914  1.00 20.00     0.151 C 
ENDROOT
BRANCH   1   2
HETATM    2  C6  UNL     1     -32.582   8.313   1.491  1.00 20.00     0.150 C 
HETATM    3  C4  UNL     1     -32.873   9.800   1.381  1.00 20.00     0.036 C 
HETATM    4  C3  UNL     1     -32.434  10.087  -0.034  1.00 20.00     0.029 C 
HETATM    5  C5  UNL     1     -31.209   9.207  -0.166  1.00 20.00     0.168 C 
HETATM    6  O10 UNL     1     -31.415   8.072   0.688  1.00 20.00    -0.383 OA
ENDBRANCH   1   2
BRANCH   1   7
HETATM    7  C8  UNL     1     -33.650   7.753   3.696  1.00 20.00     0.067 C 
BRANCH   7   8
HETATM    8  C2  UNL     1     -34.293   6.384   3.631  1.00 20.00    -0.091 C 
HETATM    9  C1  UNL     1     -35.528   6.166   4.109  1.00 20.00     0.014 C 
HETATM   10  C7  UNL     1     -33.506   5.289   2.970  1.00 20.00     0.042 C 
ENDBRANCH   7   8
ENDBRANCH   1   7
BRANCH   1  11
HETATM   11  O11 UNL     1     -31.469   8.804   3.527  1.00 20.00    -0.393 OA
HETATM   12  H27 UNL     1     -30.723   8.307   3.891  1.00 20.00     0.210 HD
ENDBRANCH   1  11
TORSDOF 4
ENDMDL
MODEL 9
REMARK VINA RESULT:       0.3      2.418      4.015
REMARK  4 active torsions:
REMARK  status: ('A' for Active; 'I' for Inactive)
REMARK    1  A    between atoms: C2_2  and  C8_8 
REMARK    2  A    between atoms: C6_6  and  C9_9 
REMARK    3  A    between atoms: C8_8  and  C9_9 
REMARK    4  A    between atoms: C9_9  and  O11_11 
ROOT
HETATM    1  C9  UNL     1     -32.043   7.545   2.241  1.00 20.00     0.151 C 
ENDROOT
BRANCH   1   2
HETATM    2  C6  UNL     1     -31.792   8.584   1.165  1.00 20.00     0.150 C 
HETATM    3  C4  UNL     1     -32.647   8.392  -0.076  1.00 20.00     0.036 C 
HETATM    4  C3  UNL     1     -32.700   9.795  -0.625  1.00 20.00     0.029 C 
HETATM    5  C5  UNL     1     -32.792  10.623   0.640  1.00 20.00     0.168 C 
HETATM    6  O10 UNL     1     -32.105   9.894   1.668  1.00 20.00    -0.383 OA
ENDBRANCH   1   2
BRANCH   1   7
HETATM    7  C8  UNL     1     -33.325   6.754   1.949  1.00 20.00     0.067 C 
BRANCH   7   8
HETATM    8  C2  UNL     1     -34.001   6.219   3.193  1.00 20.00    -0.091 C 
HETATM    9  C1  UNL     1     -34.829   6.982   3.924  1.00 20.00     0.014 C 
HETATM   10  C7  UNL     1     -33.740   4.784   3.550  1.00 20.00     0.042 C 
ENDBRANCH   7   8
ENDBRANCH   1   7
BRANCH   1  11
HETATM   11  O11 UNL     1     -32.171   8.241   3.480  1.00 20.00    -0.393 OA
HETATM   12  H27 UNL     1     -32.687   7.668   4.066  1.00 20.00     0.210 HD
ENDBRANCH   1  11
TORSDOF 4
ENDMDL
