MODEL 1
REMARK VINA RESULT:      -0.1      0.000      0.000
REMARK  3 active torsions:
REMARK  status: ('A' for Active; 'I' for Inactive)
REMARK    1  A    between atoms: C2_2  and  C9_9 
REMARK    2  A    between atoms: C6_6  and  C9_9 
REMARK    3  A    between atoms: C9_9  and  N10_10 
ROOT
HETATM    1  C9  UNL     1     -32.848   6.649   1.937  1.00 20.00     0.254 C 
ENDROOT
BRANCH   1   2
HETATM    2  C2  UNL     1     -32.212   8.027   1.980  1.00 20.00    -0.060 C 
HETATM    3  C1  UNL     1     -31.602   8.472   3.091  1.00 20.00     0.016 C 
HETATM    4  C7  UNL     1     -32.285   8.892   0.750  1.00 20.00     0.044 C 
ENDBRANCH   1   2
BRANCH   1   5
HETATM    5  C6  UNL     1     -33.521   6.291   3.248  1.00 20.00     0.049 C 
HETATM    6  C3  UNL     1     -33.835   4.819   3.404  1.00 20.00     0.035 C 
HETATM    7  C4  UNL     1     -34.887   4.842   4.493  1.00 20.00     0.168 C 
HETATM    8  O11 UNL     1     -35.608   6.075   4.346  1.00 20.00    -0.391 OA
HETATM    9  C5  UNL     1     -34.899   6.910   3.417  1.00 20.00     0.174 C 
ENDBRANCH   1   5
BRANCH   1  10
HETATM   10  N10 UNL     1     -31.884   5.603   1.580  1.00 20.00     0.088 N 
HETATM   11  C8  UNL     1     -32.362   4.835   0.442  1.00 20.00     0.307 C 
HETATM   12  H28 UNL     1     -31.760   4.987   2.379  1.00 20.00     0.316 HD
ENDBRANCH   1  10
TORSDOF 3
ENDMDL
MODEL 2
REMARK VINA RESULT:       0.1      2.421      4.130
REMARK  3 active torsions:
REMARK  status: ('A' for Active; 'I' for Inactive)
REMARK    1  A    between atoms: C2_2  and  C9_9 
REMARK    2  A    between atoms: C6_6  and  C9_9 
REMARK    3  A    between atoms: C9_9  and  N10_10 
ROOT
HETATM    1  C9  UNL     1     -32.602   7.144   2.590  1.00 20.00     0.254 C 
ENDROOT
BRANCH   1   2
HETATM    2  C2  UNL     1     -33.589   7.385   3.718  1.00 20.00    -0.060 C 
HETATM    3  C1  UNL     1     -33.301   8.233   4.719  1.00 20.00     0.016 C 
HETATM    4  C7  UNL     1     -34.900   6.645   3.697  1.00 20.00     0.044 C 
ENDBRANCH   1   2
BRANCH   1   5
HETATM    5  C6  UNL     1     -32.149   8.439   1.943  1.00 20.00     0.049 C 
HETATM    6  C3  UNL     1     -33.280   9.344   1.506  1.00 20.00     0.035 C 
HETATM    7  C4  UNL     1     -32.584  10.244   0.506  1.00 20.00     0.168 C 
HETATM    8  O11 UNL     1     -31.549   9.461  -0.106  1.00 20.00    -0.391 OA
HETATM    9  C5  UNL     1     -31.402   8.240   0.635  1.00 20.00     0.174 C 
ENDBRANCH   1   5
BRANCH   1  10
HETATM   10  N10 UNL     1     -33.138   6.245   1.563  1.00 20.00     0.088 N 
HETATM   11  C8  UNL     1     -32.268   5.094   1.387  1.00 20.00     0.307 C 
HETATM   12  H28 UNL     1     -33.210   6.756   0.688  1.00 20.00     0.316 HD
ENDBRANCH   1  10
TORSDOF 3
ENDMDL
MODEL 3
REMARK VINA RESULT:       0.1      2.200      3.601
REMARK  3 active torsions:
REMARK  status: ('A' for Active; 'I' for Inactive)
REMARK    1  A    between atoms: C2_2  and  C9_9 
REMARK    2  A    between atoms: C6_6  and  C9_9 
REMARK    3  A    between atoms: C9_9  and  N10_10 
ROOT
HETATM    1  C9  UNL     1     -33.345   7.226   2.261  1.00 20.00     0.254 C 
ENDROOT
BRANCH   1   2
HETATM    2  C2  UNL     1     -33.973   7.246   3.643  1.00 20.00    -0.060 C 
HETATM    3  C1  UNL     1     -33.515   8.071   4.598  1.00 20.00     0.016 C 
HETATM    4  C7  UNL     1     -35.120   6.313   3.925  1.00 20.00     0.044 C 
ENDBRANCH   1   2
BRANCH   1   5
HETATM    5  C6  UNL     1     -32.993   5.820   1.814  1.00 20.00     0.049 C 
HETATM    6  C3  UNL     1     -31.536   5.629   1.453  1.00 20.00     0.035 C 
HETATM    7  C4  UNL     1     -31.590   4.369   0.615  1.00 20.00     0.168 C 
HETATM    8  O11 UNL     1     -32.862   4.368  -0.051  1.00 20.00    -0.391 OA
HETATM    9  C5  UNL     1     -33.679   5.398   0.525  1.00 20.00     0.174 C 
ENDBRANCH   1   5
BRANCH   1  10
HETATM   10  N10 UNL     1     -32.154   8.078   2.180  1.00 20.00     0.088 N 
HETATM   11  C8  UNL     1     -32.258   8.996   1.057  1.00 20.00     0.307 C 
HETATM   12  H28 UNL     1     -31.336   7.485   2.062  1.00 20.00     0.316 HD
ENDBRANCH   1  10
TORSDOF 3
ENDMDL
MODEL 4
REMARK VINA RESULT:       0.4      1.183      2.751
REMARK  3 active torsions:
REMARK  status: ('A' for Active; 'I' for Inactive)
REMARK    1  A    between atoms: C2_2  and  C9_9 
REMARK    2  A    between atoms: C6_6  and  C9_9 
REMARK    3  A    between atoms: C9_9  and  N10_10 
ROOT
HETATM    1  C9  UNL     1     -32.796   6.056   2.100  1.00 20.00     0.254 C 
ENDROOT
BRANCH   1   2
HETATM    2  C2  UNL     1     -32.497   5.148   0.922  1.00 20.00    -0.060 C 
HETATM    3  C1  UNL     1     -31.272   4.625   0.746  1.00 20.00     0.016 C 
HETATM    4  C7  UNL     1     -33.602   4.849  -0.056  1.00 20.00     0.044 C 
ENDBRANCH   1   2
BRANCH   1   5
HETATM    5  C6  UNL     1     -34.100   5.692   2.784  1.00 20.00     0.049 C 
HETATM    6  C3  UNL     1     -34.595   6.727   3.771  1.00 20.00     0.035 C 
HETATM    7  C4  UNL     1     -35.560   5.916   4.610  1.00 20.00     0.168 C 
HETATM    8  O11 UNL     1     -35.055   4.572   4.639  1.00 20.00    -0.391 OA
HETATM    9  C5  UNL     1     -34.004   4.459   3.668  1.00 20.00     0.174 C 
ENDBRANCH   1   5
BRANCH   1  10
HETATM   10  N10 UNL     1     -32.823   7.472   1.719  1.00 20.00     0.088 N 
HETATM   11  C8  UNL     1     -31.520   8.082   1.931  1.00 20.00     0.307 C 
HETATM   12  H28 UNL     1     -33.520   7.949   2.285  1.00 20.00     0.316 HD
ENDBRANCH   1  10
TORSDOF 3
ENDMDL
MODEL 5
REMARK VINA RESULT:       0.6      0.852      1.289
REMARK  3 active torsions:
REMARK  status: ('A' for Active; 'I' for Inactive)
REMARK    1  A    between atoms: C2_2  and  C9_9 
REMARK    2  A    between atoms: C6_6  and  C9_9 
REMARK    3  A    between atoms: C9_9  and  N10_10 
ROOT
HETATM    1  C9  UNL     1     -32.661   6.643   1.473  1.00 20.00     0.254 C 
ENDROOT
BRANCH   1   2
HETATM    2  C2  UNL     1     -32.085   8.025   1.723  1.00 20.00    -0.060 C 
HETATM    3  C1  UNL     1     -31.310   8.267   2.793  1.00 20.00     0.016 C 
HETATM    4  C7  UNL     1     -32.407   9.126   0.748  1.00 20.00     0.044 C 
ENDBRANCH   1   2
BRANCH   1   5
HETATM    5  C6  UNL     1     -33.883   6.371   2.330  1.00 20.00     0.049 C 
HETATM    6  C3  UNL     1     -34.096   7.374   3.444  1.00 20.00     0.035 C 
HETATM    7  C4  UNL     1     -35.016   6.610   4.373  1.00 20.00     0.168 C 
HETATM    8  O11 UNL     1     -34.678   5.221   4.241  1.00 20.00    -0.391 OA
HETATM    9  C5  UNL     1     -33.805   5.070   3.111  1.00 20.00     0.174 C 
ENDBRANCH   1   5
BRANCH   1  10
HETATM   10  N10 UNL     1     -31.671   5.582   1.681  1.00 20.00     0.088 N 
HETATM   11  C8  UNL     1     -31.619   4.698   0.528  1.00 20.00     0.307 C 
HETATM   12  H28 UNL     1     -31.931   5.050   2.507  1.00 20.00     0.316 HD
ENDBRANCH   1  10
TORSDOF 3
ENDMDL
MODEL 6
REMARK VINA RESULT:       0.7      1.600      2.683
REMARK  3 active torsions:
REMARK  status: ('A' for Active; 'I' for Inactive)
REMARK    1  A    between atoms: C2_2  and  C9_9 
REMARK    2  A    between atoms: C6_6  and  C9_9 
REMARK    3  A    between atoms: C9_9  and  N10_10 
ROOT
HETATM    1  C9  UNL     1     -32.851   6.916   3.082  1.00 20.00     0.254 C 
ENDROOT
BRANCH   1   2
HETATM    2  C2  UNL     1     -32.327   6.972   1.658  1.00 20.00    -0.060 C 
HETATM    3  C1  UNL     1     -32.189   5.852   0.929  1.00 20.00     0.016 C 
HETATM    4  C7  UNL     1     -31.955   8.310   1.080  1.00 20.00     0.044 C 
ENDBRANCH   1   2
BRANCH   1   5
HETATM    5  C6  UNL     1     -33.964   5.898   3.240  1.00 20.00     0.049 C 
HETATM    6  C3  UNL     1     -35.103   6.355   4.126  1.00 20.00     0.035 C 
HETATM    7  C4  UNL     1     -35.759   5.039   4.486  1.00 20.00     0.168 C 
HETATM    8  O11 UNL     1     -34.718   4.051   4.514  1.00 20.00    -0.391 OA
HETATM    9  C5  UNL     1     -33.531   4.623   3.944  1.00 20.00     0.174 C 
ENDBRANCH   1   5
BRANCH   1  10
HETATM   10  N10 UNL     1     -33.313   8.225   3.556  1.00 20.00     0.088 N 
HETATM   11  C8  UNL     1     -32.836   8.477   4.906  1.00 20.00     0.307 C 
HETATM   12  H28 UNL     1     -34.329   8.235   3.546  1.00 20.00     0.316 HD
ENDBRANCH   1  10
TORSDOF 3
ENDMDL
MODEL 7
REMARK VINA RESULT:       0.8      2.357      4.046
REMARK  3 active torsions:
REMARK  status: ('A' for Active; 'I' for Inactive)
REMARK    1  A    between atoms: C2_2  and  C9_9 
REMARK    2  A    between atoms: C6_6  and  C9_9 
REMARK    3  A    between atoms: C9_9  and  N10_10 
ROOT
HETATM    1  C9  UNL     1     -32.664   7.265   2.292  1.00 20.00     0.254 C 
ENDROOT
BRANCH   1   2
HETATM    2  C2  UNL     1     -33.453   7.453   3.575  1.00 20.00    -0.060 C 
HETATM    3  C1  UNL     1     -32.963   8.188   4.586  1.00 20.00     0.016 C 
HETATM    4  C7  UNL     1     -34.800   6.791   3.695  1.00 20.00     0.044 C 
ENDBRANCH   1   2
BRANCH   1   5
HETATM    5  C6  UNL     1     -32.936   8.367   1.287  1.00 20.00     0.049 C 
HETATM    6  C3  UNL     1     -31.861   8.529   0.235  1.00 20.00     0.035 C 
HETATM    7  C4  UNL     1     -32.134   9.930  -0.271  1.00 20.00     0.168 C 
HETATM    8  O11 UNL     1     -32.660  10.675   0.837  1.00 20.00    -0.391 OA
HETATM    9  C5  UNL     1     -32.967   9.758   1.899  1.00 20.00     0.174 C 
ENDBRANCH   1   5
BRANCH   1  10
HETATM   10  N10 UNL     1     -32.917   5.961   1.669  1.00 20.00     0.088 N 
HETATM   11  C8  UNL     1     -31.666   5.259   1.428  1.00 20.00     0.307 C 
HETATM   12  H28 UNL     1     -33.401   6.109   0.788  1.00 20.00     0.316 HD
ENDBRANCH   1  10
TORSDOF 3
ENDMDL
MODEL 8
REMARK VINA RESULT:       0.8      1.136      2.333
REMARK  3 active torsions:
REMARK  status: ('A' for Active; 'I' for Inactive)
REMARK    1  A    between atoms: C2_2  and  C9_9 
REMARK    2  A    between atoms: C6_6  and  C9_9 
REMARK    3  A    between atoms: C9_9  and  N10_10 
ROOT
HETATM    1  C9  UNL     1     -32.541   6.721   2.304  1.00 20.00     0.254 C 
ENDROOT
BRANCH   1   2
HETATM    2  C2  UNL     1     -32.588   5.698   1.183  1.00 20.00    -0.060 C 
HETATM    3  C1  UNL     1     -31.568   4.847   0.983  1.00 20.00     0.016 C 
HETATM    4  C7  UNL     1     -33.799   5.662   0.291  1.00 20.00     0.044 C 
ENDBRANCH   1   2
BRANCH   1   5
HETATM    5  C6  UNL     1     -33.402   6.313   3.484  1.00 20.00     0.049 C 
HETATM    6  C3  UNL     1     -33.788   4.849   3.495  1.00 20.00     0.035 C 
HETATM    7  C4  UNL     1     -34.979   4.852   4.430  1.00 20.00     0.168 C 
HETATM    8  O11 UNL     1     -35.627   6.123   4.271  1.00 20.00    -0.391 OA
HETATM    9  C5  UNL     1     -34.767   6.981   3.506  1.00 20.00     0.174 C 
ENDBRANCH   1   5
BRANCH   1  10
HETATM   10  N10 UNL     1     -32.933   8.060   1.852  1.00 20.00     0.088 N 
HETATM   11  C8  UNL     1     -31.848   8.688   1.115  1.00 20.00     0.307 C 
HETATM   12  H28 UNL     1     -33.165   8.624   2.665  1.00 20.00     0.316 HD
ENDBRANCH   1  10
TORSDOF 3
ENDMDL
MODEL 9
REMARK VINA RESULT:       1.2      2.292      4.476
REMARK  3 active torsions:
REMARK  status: ('A' for Active; 'I' for Inactive)
REMARK    1  A    between atoms: C2_2  and  C9_9 
REMARK    2  A    between atoms: C6_6  and  C9_9 
REMARK    3  A    between atoms: C9_9  and  N10_10 
ROOT
HETATM    1  C9  UNL     1     -34.376   6.468   3.349  1.00 20.00     0.254 C 
ENDROOT
BRANCH   1   2
HETATM    2  C2  UNL     1     -34.613   5.176   4.110  1.00 20.00    -0.060 C 
HETATM    3  C1  UNL     1     -35.698   5.022   4.887  1.00 20.00     0.016 C 
HETATM    4  C7  UNL     1     -33.603   4.068   3.981  1.00 20.00     0.044 C 
ENDBRANCH   1   2
BRANCH   1   5
HETATM    5  C6  UNL     1     -32.977   6.537   2.766  1.00 20.00     0.049 C 
HETATM    6  C3  UNL     1     -32.577   7.911   2.273  1.00 20.00     0.035 C 
HETATM    7  C4  UNL     1     -31.426   7.581   1.346  1.00 20.00     0.168 C 
HETATM    8  O11 UNL     1     -31.699   6.287   0.789  1.00 20.00    -0.391 OA
HETATM    9  C5  UNL     1     -32.796   5.704   1.509  1.00 20.00     0.174 C 
ENDBRANCH   1   5
BRANCH   1  10
HETATM   10  N10 UNL     1     -34.621   7.653   4.176  1.00 20.00     0.088 N 
HETATM   11  C8  UNL     1     -33.481   7.918   5.040  1.00 20.00     0.307 C 
HETATM   12  H28 UNL     1     -35.449   7.491   4.743  1.00 20.00     0.316 HD
ENDBRANCH   1  10
TORSDOF 3
ENDMDL
