MODEL 1
REMARK VINA RESULT:      -0.7      0.000      0.000
REMARK  3 active torsions:
REMARK  status: ('A' for Active; 'I' for Inactive)
REMARK    1  A    between atoms: C7_7  and  C8_8 
REMARK    2  A    between atoms: C7_7  and  C9_9 
REMARK    3  A    between atoms: C8_8  and  N10_10 
ROOT
HETATM    1  C1  UNL     1     -33.460   7.434   3.222  1.00 20.00     0.239 C 
HETATM    2  C2  UNL     1     -33.126   5.188   2.308  1.00 20.00     0.239 C 
HETATM    3  C3  UNL     1     -34.220   6.424   4.074  1.00 20.00     0.012 C 
HETATM    4  C4  UNL     1     -33.424   5.141   3.805  1.00 20.00     0.012 C 
HETATM    5  C5  UNL     1     -35.698   6.357   3.689  1.00 20.00     0.012 C 
HETATM    6  C6  UNL     1     -34.093   3.844   4.230  1.00 20.00     0.012 C 
HETATM    7  N10 UNL     1     -33.123   6.666   1.960  1.00 20.00    -0.070 N 
HETATM    8  H30 UNL     1     -33.898   6.822   1.302  1.00 20.00     0.279 HD
ENDROOT
BRANCH   7   9
HETATM    9  C8  UNL     1     -31.876   7.138   1.284  1.00 20.00     0.236 C 
BRANCH   9  10
HETATM   10  C7  UNL     1     -31.774   8.660   1.344  1.00 20.00     0.043 C 
BRANCH  10  11
HETATM   11  C9  UNL     1     -32.227   9.404   0.091  1.00 20.00     0.116 C 
HETATM   12 CL11 UNL     1     -33.025  10.945   0.479  1.00 20.00    -0.130 Cl
ENDBRANCH  10  11
ENDBRANCH   9  10
ENDBRANCH   7   9
TORSDOF 3
ENDMDL
MODEL 2
REMARK VINA RESULT:      -0.5      0.911      1.940
REMARK  3 active torsions:
REMARK  status: ('A' for Active; 'I' for Inactive)
REMARK    1  A    between atoms: C7_7  and  C8_8 
REMARK    2  A    between atoms: C7_7  and  C9_9 
REMARK    3  A    between atoms: C8_8  and  N10_10 
ROOT
HETATM    1  C1  UNL     1     -32.807   6.215   1.798  1.00 20.00     0.239 C 
HETATM    2  C2  UNL     1     -33.565   7.524   3.722  1.00 20.00     0.239 C 
HETATM    3  C3  UNL     1     -33.847   5.415   2.575  1.00 20.00     0.012 C 
HETATM    4  C4  UNL     1     -34.634   6.534   3.267  1.00 20.00     0.012 C 
HETATM    5  C5  UNL     1     -33.194   4.408   3.522  1.00 20.00     0.012 C 
HETATM    6  C6  UNL     1     -35.552   6.098   4.399  1.00 20.00     0.012 C 
HETATM    7  N10 UNL     1     -32.415   7.326   2.750  1.00 20.00    -0.070 N 
HETATM    8  H30 UNL     1     -31.616   6.979   3.297  1.00 20.00     0.279 HD
ENDROOT
BRANCH   7   9
HETATM    9  C8  UNL     1     -31.966   8.576   2.064  1.00 20.00     0.236 C 
BRANCH   9  10
HETATM   10  C7  UNL     1     -32.007   8.402   0.548  1.00 20.00     0.043 C 
BRANCH  10  11
HETATM   11  C9  UNL     1     -32.391   9.645  -0.250  1.00 20.00     0.116 C 
HETATM   12 CL11 UNL     1     -32.747  11.034   0.800  1.00 20.00    -0.130 Cl
ENDBRANCH  10  11
ENDBRANCH   9  10
ENDBRANCH   7   9
TORSDOF 3
ENDMDL
MODEL 3
REMARK VINA RESULT:       1.2      3.105      5.023
REMARK  3 active torsions:
REMARK  status: ('A' for Active; 'I' for Inactive)
REMARK    1  A    between atoms: C7_7  and  C8_8 
REMARK    2  A    between atoms: C7_7  and  C9_9 
REMARK    3  A    between atoms: C8_8  and  N10_10 
ROOT
HETATM    1  C1  UNL     1     -33.810   8.125   3.806  1.00 20.00     0.239 C 
HETATM    2  C2  UNL     1     -33.073   6.438   2.194  1.00 20.00     0.239 C 
HETATM    3  C3  UNL     1     -32.708   8.711   2.931  1.00 20.00     0.012 C 
HETATM    4  C4  UNL     1     -32.836   7.851   1.668  1.00 20.00     0.012 C 
HETATM    5  C5  UNL     1     -31.343   8.644   3.619  1.00 20.00     0.012 C 
HETATM    6  C6  UNL     1     -31.671   7.928   0.693  1.00 20.00     0.012 C 
HETATM    7  N10 UNL     1     -33.725   6.634   3.551  1.00 20.00    -0.070 N 
HETATM    8  H30 UNL     1     -33.080   6.249   4.254  1.00 20.00     0.279 HD
ENDROOT
BRANCH   7   9
HETATM    9  C8  UNL     1     -35.028   5.921   3.718  1.00 20.00     0.236 C 
BRANCH   9  10
HETATM   10  C7  UNL     1     -34.839   4.635   4.518  1.00 20.00     0.043 C 
BRANCH  10  11
HETATM   11  C9  UNL     1     -33.787   3.669   3.981  1.00 20.00     0.116 C 
HETATM   12 CL11 UNL     1     -32.881   2.869   5.285  1.00 20.00    -0.130 Cl
ENDBRANCH  10  11
ENDBRANCH   9  10
ENDBRANCH   7   9
TORSDOF 3
ENDMDL
MODEL 4
REMARK VINA RESULT:       1.2      2.778      4.656
REMARK  3 active torsions:
REMARK  status: ('A' for Active; 'I' for Inactive)
REMARK    1  A    between atoms: C7_7  and  C8_8 
REMARK    2  A    between atoms: C7_7  and  C9_9 
REMARK    3  A    between atoms: C8_8  and  N10_10 
ROOT
HETATM    1  C1  UNL     1     -33.265   8.340   2.360  1.00 20.00     0.239 C 
HETATM    2  C2  UNL     1     -32.948   5.962   2.844  1.00 20.00     0.239 C 
HETATM    3  C3  UNL     1     -32.334   7.733   1.317  1.00 20.00     0.012 C 
HETATM    4  C4  UNL     1     -32.754   6.259   1.358  1.00 20.00     0.012 C 
HETATM    5  C5  UNL     1     -30.865   7.993   1.650  1.00 20.00     0.012 C 
HETATM    6  C6  UNL     1     -31.806   5.280   0.683  1.00 20.00     0.012 C 
HETATM    7  N10 UNL     1     -33.305   7.301   3.462  1.00 20.00    -0.070 N 
HETATM    8  H30 UNL     1     -32.552   7.539   4.121  1.00 20.00     0.279 HD
ENDROOT
BRANCH   7   9
HETATM    9  C8  UNL     1     -34.581   7.300   4.242  1.00 20.00     0.236 C 
BRANCH   9  10
HETATM   10  C7  UNL     1     -35.435   6.089   3.875  1.00 20.00     0.043 C 
BRANCH  10  11
HETATM   11  C9  UNL     1     -35.346   4.902   4.830  1.00 20.00     0.116 C 
HETATM   12 CL11 UNL     1     -34.043   3.778   4.383  1.00 20.00    -0.130 Cl
ENDBRANCH  10  11
ENDBRANCH   9  10
ENDBRANCH   7   9
TORSDOF 3
ENDMDL
MODEL 5
REMARK VINA RESULT:       1.3      3.085      4.988
REMARK  3 active torsions:
REMARK  status: ('A' for Active; 'I' for Inactive)
REMARK    1  A    between atoms: C7_7  and  C8_8 
REMARK    2  A    between atoms: C7_7  and  C9_9 
REMARK    3  A    between atoms: C8_8  and  N10_10 
ROOT
HETATM    1  C1  UNL     1     -33.439   6.388   2.148  1.00 20.00     0.239 C 
HETATM    2  C2  UNL     1     -33.823   7.926   4.012  1.00 20.00     0.239 C 
HETATM    3  C3  UNL     1     -32.311   7.411   2.197  1.00 20.00     0.012 C 
HETATM    4  C4  UNL     1     -32.337   7.820   3.675  1.00 20.00     0.012 C 
HETATM    5  C5  UNL     1     -32.542   8.556   1.210  1.00 20.00     0.012 C 
HETATM    6  C6  UNL     1     -31.562   9.079   4.029  1.00 20.00     0.012 C 
HETATM    7  N10 UNL     1     -34.508   6.979   3.044  1.00 20.00    -0.070 N 
HETATM    8  H30 UNL     1     -35.116   7.551   2.442  1.00 20.00     0.279 HD
ENDROOT
BRANCH   7   9
HETATM    9  C8  UNL     1     -35.380   5.954   3.696  1.00 20.00     0.236 C 
BRANCH   9  10
HETATM   10  C7  UNL     1     -34.554   5.038   4.594  1.00 20.00     0.043 C 
BRANCH  10  11
HETATM   11  C9  UNL     1     -33.931   3.825   3.909  1.00 20.00     0.116 C 
HETATM   12 CL11 UNL     1     -32.971   2.838   5.033  1.00 20.00    -0.130 Cl
ENDBRANCH  10  11
ENDBRANCH   9  10
ENDBRANCH   7   9
TORSDOF 3
ENDMDL
MODEL 6
REMARK VINA RESULT:       2.2      1.362      1.362
REMARK  3 active torsions:
REMARK  status: ('A' for Active; 'I' for Inactive)
REMARK    1  A    between atoms: C7_7  and  C8_8 
REMARK    2  A    between atoms: C7_7  and  C9_9 
REMARK    3  A    between atoms: C8_8  and  N10_10 
ROOT
HETATM    1  C1  UNL     1     -34.226   7.850   3.700  1.00 20.00     0.239 C 
HETATM    2  C2  UNL     1     -33.089   5.915   2.724  1.00 20.00     0.239 C 
HETATM    3  C3  UNL     1     -34.977   6.579   4.081  1.00 20.00     0.012 C 
HETATM    4  C4  UNL     1     -33.863   5.529   3.982  1.00 20.00     0.012 C 
HETATM    5  C5  UNL     1     -36.175   6.332   3.164  1.00 20.00     0.012 C 
HETATM    6  C6  UNL     1     -34.318   4.078   3.971  1.00 20.00     0.012 C 
HETATM    7  N10 UNL     1     -33.309   7.410   2.577  1.00 20.00    -0.070 N 
HETATM    8  H30 UNL     1     -33.826   7.553   1.699  1.00 20.00     0.279 HD
ENDROOT
BRANCH   7   9
HETATM    9  C8  UNL     1     -32.051   8.211   2.479  1.00 20.00     0.236 C 
BRANCH   9  10
HETATM   10  C7  UNL     1     -32.314   9.542   1.778  1.00 20.00     0.043 C 
BRANCH  10  11
HETATM   11  C9  UNL     1     -31.964   9.588   0.293  1.00 20.00     0.116 C 
HETATM   12 CL11 UNL     1     -30.585   8.539  -0.105  1.00 20.00    -0.130 Cl
ENDBRANCH  10  11
ENDBRANCH   9  10
ENDBRANCH   7   9
TORSDOF 3
ENDMDL
MODEL 7
REMARK VINA RESULT:       2.2      2.621      5.230
REMARK  3 active torsions:
REMARK  status: ('A' for Active; 'I' for Inactive)
REMARK    1  A    between atoms: C7_7  and  C8_8 
REMARK    2  A    between atoms: C7_7  and  C9_9 
REMARK    3  A    between atoms: C8_8  and  N10_10 
ROOT
HETATM    1  C1  UNL     1     -31.665   7.662   1.386  1.00 20.00     0.239 C 
HETATM    2  C2  UNL     1     -33.440   9.215   2.040  1.00 20.00     0.239 C 
HETATM    3  C3  UNL     1     -31.623   8.887   0.480  1.00 20.00     0.012 C 
HETATM    4  C4  UNL     1     -32.278   9.947   1.373  1.00 20.00     0.012 C 
HETATM    5  C5  UNL     1     -32.339   8.633  -0.847  1.00 20.00     0.012 C 
HETATM    6  C6  UNL     1     -32.712  11.226   0.675  1.00 20.00     0.012 C 
HETATM    7  N10 UNL     1     -33.015   7.757   2.067  1.00 20.00    -0.070 N 
HETATM    8  H30 UNL     1     -33.681   7.239   1.478  1.00 20.00     0.279 HD
ENDROOT
BRANCH   7   9
HETATM    9  C8  UNL     1     -33.051   7.129   3.423  1.00 20.00     0.236 C 
BRANCH   9  10
HETATM   10  C7  UNL     1     -34.429   7.297   4.057  1.00 20.00     0.043 C 
BRANCH  10  11
HETATM   11  C9  UNL     1     -35.290   6.038   4.113  1.00 20.00     0.116 C 
HETATM   12 CL11 UNL     1     -34.312   4.554   4.066  1.00 20.00    -0.130 Cl
ENDBRANCH  10  11
ENDBRANCH   9  10
ENDBRANCH   7   9
TORSDOF 3
ENDMDL
