MODEL 1
REMARK VINA RESULT:      -1.3      0.000      0.000
REMARK  2 active torsions:
REMARK  status: ('A' for Active; 'I' for Inactive)
REMARK    1  A    between atoms: C3_3  and  C6_6 
REMARK    2  A    between atoms: C6_6  and  O9_9 
ROOT
HETATM    1  C2  UNL     1     -32.779   8.271   1.338  1.00 20.00     0.045 A 
HETATM    2  C5  UNL     1     -31.783   7.143   1.422  1.00 20.00     0.019 A 
HETATM    3  C6  UNL     1     -32.223   7.863   2.679  1.00 20.00     0.066 A 
HETATM    4  C8  UNL     1     -32.209   5.746   1.127  1.00 20.00     0.013 C 
ENDROOT
BRANCH   3   5
HETATM    5  C3  UNL     1     -33.093   7.236   3.765  1.00 20.00     0.024 A 
HETATM    6  C1  UNL     1     -33.879   8.061   4.750  1.00 20.00     0.012 A 
HETATM    7  C4  UNL     1     -34.598   7.254   3.702  1.00 20.00    -0.011 A 
HETATM    8  C7  UNL     1     -35.382   6.048   4.092  1.00 20.00     0.010 C 
ENDBRANCH   3   5
BRANCH   3   9
HETATM    9  O9  UNL     1     -31.232   8.772   3.212  1.00 20.00    -0.389 OA
HETATM   10  H23 UNL     1     -31.471   9.640   2.869  1.00 20.00     0.210 HD
ENDBRANCH   3   9
TORSDOF 2
ENDMDL
MODEL 2
REMARK VINA RESULT:      -1.1      2.076      4.045
REMARK  2 active torsions:
REMARK  status: ('A' for Active; 'I' for Inactive)
REMARK    1  A    between atoms: C3_3  and  C6_6 
REMARK    2  A    between atoms: C6_6  and  O9_9 
ROOT
HETATM    1  C2  UNL     1     -35.443   6.529   3.367  1.00 20.00     0.045 A 
HETATM    2  C5  UNL     1     -34.603   6.777   4.594  1.00 20.00     0.019 A 
HETATM    3  C6  UNL     1     -34.175   5.740   3.578  1.00 20.00     0.066 A 
HETATM    4  C8  UNL     1     -33.876   8.068   4.754  1.00 20.00     0.013 C 
ENDROOT
BRANCH   3   5
HETATM    5  C3  UNL     1     -32.962   5.888   2.662  1.00 20.00     0.024 A 
HETATM    6  C1  UNL     1     -33.010   5.557   1.194  1.00 20.00     0.012 A 
HETATM    7  C4  UNL     1     -32.855   6.987   1.637  1.00 20.00    -0.011 A 
HETATM    8  C7  UNL     1     -31.563   7.700   1.431  1.00 20.00     0.010 C 
ENDBRANCH   3   5
BRANCH   3   9
HETATM    9  O9  UNL     1     -34.389   4.376   4.006  1.00 20.00    -0.389 OA
HETATM   10  H23 UNL     1     -35.242   4.123   3.637  1.00 20.00     0.210 HD
ENDBRANCH   3   9
TORSDOF 2
ENDMDL
MODEL 3
REMARK VINA RESULT:      -1.1      1.557      2.394
REMARK  2 active torsions:
REMARK  status: ('A' for Active; 'I' for Inactive)
REMARK    1  A    between atoms: C3_3  and  C6_6 
REMARK    2  A    between atoms: C6_6  and  O9_9 
ROOT
HETATM    1  C2  UNL     1     -31.141   7.935   1.845  1.00 20.00     0.045 A 
HETATM    2  C5  UNL     1     -32.073   8.307   0.720  1.00 20.00     0.019 A 
HETATM    3  C6  UNL     1     -32.535   7.359   1.806  1.00 20.00     0.066 A 
HETATM    4  C8  UNL     1     -32.599   9.696   0.613  1.00 20.00     0.013 C 
ENDROOT
BRANCH   3   5
HETATM    5  C3  UNL     1     -33.588   7.707   2.855  1.00 20.00     0.024 A 
HETATM    6  C1  UNL     1     -34.441   6.662   3.524  1.00 20.00     0.012 A 
HETATM    7  C4  UNL     1     -33.401   7.404   4.318  1.00 20.00    -0.011 A 
HETATM    8  C7  UNL     1     -33.812   8.396   5.351  1.00 20.00     0.010 C 
ENDBRANCH   3   5
BRANCH   3   9
HETATM    9  O9  UNL     1     -32.594   5.975   1.391  1.00 20.00    -0.389 OA
HETATM   10  H23 UNL     1     -31.678   5.679   1.357  1.00 20.00     0.210 HD
ENDBRANCH   3   9
TORSDOF 2
ENDMDL
MODEL 4
REMARK VINA RESULT:      -1.1      1.680      3.862
REMARK  2 active torsions:
REMARK  status: ('A' for Active; 'I' for Inactive)
REMARK    1  A    between atoms: C3_3  and  C6_6 
REMARK    2  A    between atoms: C6_6  and  O9_9 
ROOT
HETATM    1  C2  UNL     1     -34.819   7.263   2.973  1.00 20.00     0.045 A 
HETATM    2  C5  UNL     1     -33.867   6.985   4.108  1.00 20.00     0.019 A 
HETATM    3  C6  UNL     1     -33.349   7.087   2.690  1.00 20.00     0.066 A 
HETATM    4  C8  UNL     1     -33.588   8.038   5.125  1.00 20.00     0.013 C 
ENDROOT
BRANCH   3   5
HETATM    5  C3  UNL     1     -32.476   8.230   2.177  1.00 20.00     0.024 A 
HETATM    6  C1  UNL     1     -31.257   7.998   1.323  1.00 20.00     0.012 A 
HETATM    7  C4  UNL     1     -32.475   8.658   0.733  1.00 20.00    -0.011 A 
HETATM    8  C7  UNL     1     -32.446  10.105   0.378  1.00 20.00     0.010 C 
ENDBRANCH   3   5
BRANCH   3   9
HETATM    9  O9  UNL     1     -33.007   5.813   2.097  1.00 20.00    -0.389 OA
HETATM   10  H23 UNL     1     -32.459   5.366   2.752  1.00 20.00     0.210 HD
ENDBRANCH   3   9
TORSDOF 2
ENDMDL
MODEL 5
REMARK VINA RESULT:      -1.0      1.790      3.642
REMARK  2 active torsions:
REMARK  status: ('A' for Active; 'I' for Inactive)
REMARK    1  A    between atoms: C3_3  and  C6_6 
REMARK    2  A    between atoms: C6_6  and  O9_9 
ROOT
HETATM    1  C2  UNL     1     -33.980   5.790   1.312  1.00 20.00     0.045 A 
HETATM    2  C5  UNL     1     -33.719   5.711   2.794  1.00 20.00     0.019 A 
HETATM    3  C6  UNL     1     -32.741   6.426   1.888  1.00 20.00     0.066 A 
HETATM    4  C8  UNL     1     -34.593   6.450   3.748  1.00 20.00     0.013 C 
ENDROOT
BRANCH   3   5
HETATM    5  C3  UNL     1     -32.524   7.938   1.885  1.00 20.00     0.024 A 
HETATM    6  C1  UNL     1     -31.156   8.561   1.981  1.00 20.00     0.012 A 
HETATM    7  C4  UNL     1     -31.944   8.667   0.702  1.00 20.00    -0.011 A 
HETATM    8  C7  UNL     1     -32.508   9.978   0.276  1.00 20.00     0.010 C 
ENDBRANCH   3   5
BRANCH   3   9
HETATM    9  O9  UNL     1     -31.523   5.687   1.639  1.00 20.00    -0.389 OA
HETATM   10  H23 UNL     1     -31.677   5.212   0.815  1.00 20.00     0.210 HD
ENDBRANCH   3   9
TORSDOF 2
ENDMDL
MODEL 6
REMARK VINA RESULT:      -0.9      1.058      1.217
REMARK  2 active torsions:
REMARK  status: ('A' for Active; 'I' for Inactive)
REMARK    1  A    between atoms: C3_3  and  C6_6 
REMARK    2  A    between atoms: C6_6  and  O9_9 
ROOT
HETATM    1  C2  UNL     1     -33.382   6.500   0.695  1.00 20.00     0.045 A 
HETATM    2  C5  UNL     1     -32.011   6.033   1.112  1.00 20.00     0.019 A 
HETATM    3  C6  UNL     1     -32.774   7.014   1.976  1.00 20.00     0.066 A 
HETATM    4  C8  UNL     1     -31.796   4.619   1.529  1.00 20.00     0.013 C 
ENDROOT
BRANCH   3   5
HETATM    5  C3  UNL     1     -33.355   6.676   3.346  1.00 20.00     0.024 A 
HETATM    6  C1  UNL     1     -34.032   7.703   4.216  1.00 20.00     0.012 A 
HETATM    7  C4  UNL     1     -34.838   6.594   3.595  1.00 20.00    -0.011 A 
HETATM    8  C7  UNL     1     -35.399   5.507   4.447  1.00 20.00     0.010 C 
ENDBRANCH   3   5
BRANCH   3   9
HETATM    9  O9  UNL     1     -32.282   8.372   1.897  1.00 20.00    -0.389 OA
HETATM   10  H23 UNL     1     -33.069   8.924   1.826  1.00 20.00     0.210 HD
ENDBRANCH   3   9
TORSDOF 2
ENDMDL
MODEL 7
REMARK VINA RESULT:      -0.6      1.759      2.265
REMARK  2 active torsions:
REMARK  status: ('A' for Active; 'I' for Inactive)
REMARK    1  A    between atoms: C3_3  and  C6_6 
REMARK    2  A    between atoms: C6_6  and  O9_9 
ROOT
HETATM    1  C2  UNL     1     -31.622   5.889   1.452  1.00 20.00     0.045 A 
HETATM    2  C5  UNL     1     -32.051   7.327   1.309  1.00 20.00     0.019 A 
HETATM    3  C6  UNL     1     -33.027   6.291   1.822  1.00 20.00     0.066 A 
HETATM    4  C8  UNL     1     -31.473   8.373   2.199  1.00 20.00     0.013 C 
ENDROOT
BRANCH   3   5
HETATM    5  C3  UNL     1     -33.538   6.234   3.260  1.00 20.00     0.024 A 
HETATM    6  C1  UNL     1     -34.210   7.405   3.928  1.00 20.00     0.012 A 
HETATM    7  C4  UNL     1     -35.007   6.174   3.591  1.00 20.00    -0.011 A 
HETATM    8  C7  UNL     1     -35.496   5.277   4.676  1.00 20.00     0.010 C 
ENDBRANCH   3   5
BRANCH   3   9
HETATM    9  O9  UNL     1     -34.030   5.900   0.856  1.00 20.00    -0.389 OA
HETATM   10  H23 UNL     1     -34.221   6.697   0.350  1.00 20.00     0.210 HD
ENDBRANCH   3   9
TORSDOF 2
ENDMDL
MODEL 8
REMARK VINA RESULT:      -0.6      1.624      2.358
REMARK  2 active torsions:
REMARK  status: ('A' for Active; 'I' for Inactive)
REMARK    1  A    between atoms: C3_3  and  C6_6 
REMARK    2  A    between atoms: C6_6  and  O9_9 
ROOT
HETATM    1  C2  UNL     1     -31.370   8.431   2.450  1.00 20.00     0.045 A 
HETATM    2  C5  UNL     1     -31.708   8.578   0.989  1.00 20.00     0.019 A 
HETATM    3  C6  UNL     1     -32.030   7.291   1.717  1.00 20.00     0.066 A 
HETATM    4  C8  UNL     1     -32.774   9.525   0.558  1.00 20.00     0.013 C 
ENDROOT
BRANCH   3   5
HETATM    5  C3  UNL     1     -33.446   6.822   2.043  1.00 20.00     0.024 A 
HETATM    6  C1  UNL     1     -33.780   5.379   2.316  1.00 20.00     0.012 A 
HETATM    7  C4  UNL     1     -33.853   6.391   3.428  1.00 20.00    -0.011 A 
HETATM    8  C7  UNL     1     -35.174   6.799   3.985  1.00 20.00     0.010 C 
ENDBRANCH   3   5
BRANCH   3   9
HETATM    9  O9  UNL     1     -31.139   6.197   1.396  1.00 20.00    -0.389 OA
HETATM   10  H23 UNL     1     -31.531   5.765   0.630  1.00 20.00     0.210 HD
ENDBRANCH   3   9
TORSDOF 2
ENDMDL
MODEL 9
REMARK VINA RESULT:      -0.2      1.597      3.725
REMARK  2 active torsions:
REMARK  status: ('A' for Active; 'I' for Inactive)
REMARK    1  A    between atoms: C3_3  and  C6_6 
REMARK    2  A    between atoms: C6_6  and  O9_9 
ROOT
HETATM    1  C2  UNL     1     -32.970   6.238   1.738  1.00 20.00     0.045 A 
HETATM    2  C5  UNL     1     -32.971   6.918   3.083  1.00 20.00     0.019 A 
HETATM    3  C6  UNL     1     -32.365   7.611   1.883  1.00 20.00     0.066 A 
HETATM    4  C8  UNL     1     -34.253   7.374   3.691  1.00 20.00     0.013 C 
ENDROOT
BRANCH   3   5
HETATM    5  C3  UNL     1     -32.968   8.841   1.209  1.00 20.00     0.024 A 
HETATM    6  C1  UNL     1     -32.554  10.245   1.567  1.00 20.00     0.012 A 
HETATM    7  C4  UNL     1     -32.199   9.676   0.219  1.00 20.00    -0.011 A 
HETATM    8  C7  UNL     1     -32.867  10.189  -1.011  1.00 20.00     0.010 C 
ENDBRANCH   3   5
BRANCH   3   9
HETATM    9  O9  UNL     1     -30.919   7.625   1.881  1.00 20.00    -0.389 OA
HETATM   10  H23 UNL     1     -30.670   8.219   1.164  1.00 20.00     0.210 HD
ENDBRANCH   3   9
TORSDOF 2
ENDMDL
