MODEL 1
REMARK VINA RESULT:       0.2      0.000      0.000
REMARK  3 active torsions:
REMARK  status: ('A' for Active; 'I' for Inactive)
REMARK    1  A    between atoms: C1_1  and  C7_7 
REMARK    2  A    between atoms: C1_1  and  C12_12 
REMARK    3  A    between atoms: C8_8  and  C13_13 
ROOT
HETATM    1  C2  UNL     1     -32.783   8.295   3.969  1.00 20.00     0.001 C 
HETATM    2  C3  UNL     1     -33.858   7.216   4.037  1.00 20.00     0.012 C 
HETATM    3  C4  UNL     1     -33.138   5.722   2.060  1.00 20.00     0.012 C 
HETATM    4  C5  UNL     1     -32.649   9.003   2.623  1.00 20.00     0.005 C 
HETATM    5  C6  UNL     1     -32.210   6.764   1.433  1.00 20.00     0.006 C 
HETATM    6  C7  UNL     1     -33.347   5.852   3.568  1.00 20.00     0.055 C 
HETATM    7  C8  UNL     1     -32.847   8.160   1.355  1.00 20.00    -0.011 C 
ENDROOT
BRANCH   6   8
HETATM    8  C1  UNL     1     -34.330   4.798   3.990  1.00 20.00     0.130 C 
HETATM    9  O14 UNL     1     -35.474   5.098   4.330  1.00 20.00    -0.298 OA
BRANCH   8  10
HETATM   10  C12 UNL     1     -33.825   3.367   3.970  1.00 20.00     0.074 C 
HETATM   11  C9  UNL     1     -32.895   3.058   5.129  1.00 20.00     0.013 C 
ENDBRANCH   8  10
ENDBRANCH   6   8
BRANCH   7  12
HETATM   12  C13 UNL     1     -32.291   8.930   0.151  1.00 20.00    -0.019 C 
HETATM   13  C10 UNL     1     -32.651  10.408   0.256  1.00 20.00     0.010 C 
HETATM   14  C11 UNL     1     -30.781   8.746   0.055  1.00 20.00     0.010 C 
ENDBRANCH   7  12
TORSDOF 3
ENDMDL
MODEL 2
REMARK VINA RESULT:       0.8      1.836      5.619
REMARK  3 active torsions:
REMARK  status: ('A' for Active; 'I' for Inactive)
REMARK    1  A    between atoms: C1_1  and  C7_7 
REMARK    2  A    between atoms: C1_1  and  C12_12 
REMARK    3  A    between atoms: C8_8  and  C13_13 
ROOT
HETATM    1  C2  UNL     1     -35.062   6.757   3.640  1.00 20.00     0.001 C 
HETATM    2  C3  UNL     1     -33.820   7.586   3.334  1.00 20.00     0.012 C 
HETATM    3  C4  UNL     1     -32.348   5.803   2.186  1.00 20.00     0.012 C 
HETATM    4  C5  UNL     1     -34.819   5.484   4.447  1.00 20.00     0.005 C 
HETATM    5  C6  UNL     1     -33.176   4.611   2.669  1.00 20.00     0.006 C 
HETATM    6  C7  UNL     1     -33.108   7.123   2.060  1.00 20.00     0.055 C 
HETATM    7  C8  UNL     1     -33.531   4.699   4.161  1.00 20.00    -0.011 C 
ENDROOT
BRANCH   6   8
HETATM    8  C1  UNL     1     -32.128   8.182   1.644  1.00 20.00     0.130 C 
HETATM    9  O14 UNL     1     -31.206   8.520   2.385  1.00 20.00    -0.298 OA
BRANCH   8  10
HETATM   10  C12 UNL     1     -32.350   8.796   0.274  1.00 20.00     0.074 C 
HETATM   11  C9  UNL     1     -32.553  10.299   0.332  1.00 20.00     0.013 C 
ENDBRANCH   8  10
ENDBRANCH   6   8
BRANCH   7  12
HETATM   12  C13 UNL     1     -33.662   3.291   4.758  1.00 20.00    -0.019 C 
HETATM   13  C10 UNL     1     -33.245   2.241   3.734  1.00 20.00     0.010 C 
HETATM   14  C11 UNL     1     -32.823   3.173   6.026  1.00 20.00     0.010 C 
ENDBRANCH   7  12
TORSDOF 3
ENDMDL
MODEL 3
REMARK VINA RESULT:       1.3      1.921      5.600
REMARK  3 active torsions:
REMARK  status: ('A' for Active; 'I' for Inactive)
REMARK    1  A    between atoms: C1_1  and  C7_7 
REMARK    2  A    between atoms: C1_1  and  C12_12 
REMARK    3  A    between atoms: C8_8  and  C13_13 
ROOT
HETATM    1  C2  UNL     1     -34.467   7.710   3.660  1.00 20.00     0.001 C 
HETATM    2  C3  UNL     1     -33.117   8.163   3.113  1.00 20.00     0.012 C 
HETATM    3  C4  UNL     1     -32.589   6.208   1.514  1.00 20.00     0.012 C 
HETATM    4  C5  UNL     1     -34.486   6.320   4.291  1.00 20.00     0.005 C 
HETATM    5  C6  UNL     1     -33.637   5.262   2.103  1.00 20.00     0.006 C 
HETATM    6  C7  UNL     1     -32.885   7.699   1.673  1.00 20.00     0.055 C 
HETATM    7  C8  UNL     1     -33.617   5.234   3.639  1.00 20.00    -0.011 C 
ENDROOT
BRANCH   6   8
HETATM    8  C1  UNL     1     -31.726   8.464   1.102  1.00 20.00     0.130 C 
HETATM    9  O14 UNL     1     -30.591   8.327   1.555  1.00 20.00    -0.298 OA
BRANCH   8  10
HETATM   10  C12 UNL     1     -32.046   9.398  -0.050  1.00 20.00     0.074 C 
HETATM   11  C9  UNL     1     -32.742  10.669   0.404  1.00 20.00     0.013 C 
ENDBRANCH   8  10
ENDBRANCH   6   8
BRANCH   7  12
HETATM   12  C13 UNL     1     -34.069   3.860   4.149  1.00 20.00    -0.019 C 
HETATM   13  C10 UNL     1     -32.879   3.083   4.703  1.00 20.00     0.010 C 
HETATM   14  C11 UNL     1     -35.153   4.018   5.210  1.00 20.00     0.010 C 
ENDBRANCH   7  12
TORSDOF 3
ENDMDL
MODEL 4
REMARK VINA RESULT:       1.3      1.038      2.138
REMARK  3 active torsions:
REMARK  status: ('A' for Active; 'I' for Inactive)
REMARK    1  A    between atoms: C1_1  and  C7_7 
REMARK    2  A    between atoms: C1_1  and  C12_12 
REMARK    3  A    between atoms: C8_8  and  C13_13 
ROOT
HETATM    1  C2  UNL     1     -32.604   5.302   0.941  1.00 20.00     0.001 C 
HETATM    2  C3  UNL     1     -32.788   4.742   2.348  1.00 20.00     0.012 C 
HETATM    3  C4  UNL     1     -34.061   6.693   3.458  1.00 20.00     0.012 C 
HETATM    4  C5  UNL     1     -31.920   6.664   0.862  1.00 20.00     0.005 C 
HETATM    5  C6  UNL     1     -33.724   7.713   2.368  1.00 20.00     0.006 C 
HETATM    6  C7  UNL     1     -34.079   5.233   3.008  1.00 20.00     0.055 C 
HETATM    7  C8  UNL     1     -32.243   7.685   1.963  1.00 20.00    -0.011 C 
ENDROOT
BRANCH   6   8
HETATM    8  C1  UNL     1     -34.357   4.382   4.213  1.00 20.00     0.130 C 
HETATM    9  O14 UNL     1     -35.263   4.667   4.995  1.00 20.00    -0.298 OA
BRANCH   8  10
HETATM   10  C12 UNL     1     -33.462   3.170   4.397  1.00 20.00     0.074 C 
HETATM   11  C9  UNL     1     -32.731   3.180   5.727  1.00 20.00     0.013 C 
ENDBRANCH   8  10
ENDBRANCH   6   8
BRANCH   7  12
HETATM   12  C13 UNL     1     -31.793   9.077   1.502  1.00 20.00    -0.019 C 
HETATM   13  C10 UNL     1     -31.061   8.981   0.168  1.00 20.00     0.010 C 
HETATM   14  C11 UNL     1     -32.992  10.013   1.396  1.00 20.00     0.010 C 
ENDBRANCH   7  12
TORSDOF 3
ENDMDL
MODEL 5
REMARK VINA RESULT:       1.5      2.297      5.796
REMARK  3 active torsions:
REMARK  status: ('A' for Active; 'I' for Inactive)
REMARK    1  A    between atoms: C1_1  and  C7_7 
REMARK    2  A    between atoms: C1_1  and  C12_12 
REMARK    3  A    between atoms: C8_8  and  C13_13 
ROOT
HETATM    1  C2  UNL     1     -31.690   5.337   1.577  1.00 20.00     0.001 C 
HETATM    2  C3  UNL     1     -31.893   6.589   0.730  1.00 20.00     0.012 C 
HETATM    3  C4  UNL     1     -32.932   8.169   2.485  1.00 20.00     0.012 C 
HETATM    4  C5  UNL     1     -32.938   4.811   2.280  1.00 20.00     0.005 C 
HETATM    5  C6  UNL     1     -33.268   7.061   3.485  1.00 20.00     0.006 C 
HETATM    6  C7  UNL     1     -31.761   7.876   1.548  1.00 20.00     0.055 C 
HETATM    7  C8  UNL     1     -33.935   5.845   2.823  1.00 20.00    -0.011 C 
ENDROOT
BRANCH   6   8
HETATM    8  C1  UNL     1     -31.624   9.035   0.604  1.00 20.00     0.130 C 
HETATM    9  O14 UNL     1     -30.729   9.063  -0.241  1.00 20.00    -0.298 OA
BRANCH   8  10
HETATM   10  C12 UNL     1     -32.642  10.148   0.760  1.00 20.00     0.074 C 
HETATM   11  C9  UNL     1     -33.145  10.673  -0.572  1.00 20.00     0.013 C 
ENDBRANCH   8  10
ENDBRANCH   6   8
BRANCH   7  12
HETATM   12  C13 UNL     1     -34.881   5.154   3.814  1.00 20.00    -0.019 C 
HETATM   13  C10 UNL     1     -34.144   4.053   4.568  1.00 20.00     0.010 C 
HETATM   14  C11 UNL     1     -35.469   6.174   4.783  1.00 20.00     0.010 C 
ENDBRANCH   7  12
TORSDOF 3
ENDMDL
MODEL 6
REMARK VINA RESULT:       2.3      1.029      1.668
REMARK  3 active torsions:
REMARK  status: ('A' for Active; 'I' for Inactive)
REMARK    1  A    between atoms: C1_1  and  C7_7 
REMARK    2  A    between atoms: C1_1  and  C12_12 
REMARK    3  A    between atoms: C8_8  and  C13_13 
ROOT
HETATM    1  C2  UNL     1     -32.364   8.343   3.814  1.00 20.00     0.001 C 
HETATM    2  C3  UNL     1     -33.525   7.367   3.978  1.00 20.00     0.012 C 
HETATM    3  C4  UNL     1     -33.173   5.880   1.899  1.00 20.00     0.012 C 
HETATM    4  C5  UNL     1     -32.311   9.080   2.479  1.00 20.00     0.005 C 
HETATM    5  C6  UNL     1     -32.223   6.851   1.196  1.00 20.00     0.006 C 
HETATM    6  C7  UNL     1     -33.202   5.977   3.424  1.00 20.00     0.055 C 
HETATM    7  C8  UNL     1     -32.727   8.302   1.222  1.00 20.00    -0.011 C 
ENDROOT
BRANCH   6   8
HETATM    8  C1  UNL     1     -34.230   5.006   3.929  1.00 20.00     0.130 C 
HETATM    9  O14 UNL     1     -33.992   3.800   3.980  1.00 20.00    -0.298 OA
BRANCH   8  10
HETATM   10  C12 UNL     1     -35.556   5.603   4.363  1.00 20.00     0.074 C 
HETATM   11  C9  UNL     1     -36.183   6.476   3.291  1.00 20.00     0.013 C 
ENDBRANCH   8  10
ENDBRANCH   6   8
BRANCH   7  12
HETATM   12  C13 UNL     1     -32.235   9.057  -0.019  1.00 20.00    -0.019 C 
HETATM   13  C10 UNL     1     -32.576  10.538   0.092  1.00 20.00     0.010 C 
HETATM   14  C11 UNL     1     -30.733   8.859  -0.199  1.00 20.00     0.010 C 
ENDBRANCH   7  12
TORSDOF 3
ENDMDL
