MODEL 1
REMARK VINA RESULT:      -2.2      0.000      0.000
REMARK  3 active torsions:
REMARK  status: ('A' for Active; 'I' for Inactive)
REMARK    1  A    between atoms: C3_3  and  C6_6 
REMARK    2  A    between atoms: C3_3  and  O8_8 
REMARK    3  A    between atoms: C6_6  and  C7_7 
ROOT
HETATM    1  C1  UNL     1     -33.558   7.519   4.444  1.00 20.00     0.045 A 
HETATM    2  C2  UNL     1     -33.666   7.714   2.954  1.00 20.00     0.019 A 
HETATM    3  C3  UNL     1     -34.224   6.463   3.598  1.00 20.00     0.061 A 
HETATM    4  C4  UNL     1     -32.444   7.696   2.103  1.00 20.00     0.013 C 
ENDROOT
BRANCH   3   5
HETATM    5  C6  UNL     1     -33.582   5.126   3.431  1.00 20.00     0.038 C 
BRANCH   5   6
HETATM    6  C7  UNL     1     -34.160   4.073   4.390  1.00 20.00    -0.002 C 
HETATM    7  C5  UNL     1     -33.168   2.962   4.699  1.00 20.00     0.005 C 
ENDBRANCH   5   6
ENDBRANCH   3   5
BRANCH   3   8
HETATM    8  O8  UNL     1     -35.659   6.401   3.687  1.00 20.00    -0.389 OA
HETATM    9  H22 UNL     1     -35.892   6.872   4.498  1.00 20.00     0.210 HD
ENDBRANCH   3   8
TORSDOF 3
ENDMDL
MODEL 2
REMARK VINA RESULT:      -2.1      1.343      3.728
REMARK  3 active torsions:
REMARK  status: ('A' for Active; 'I' for Inactive)
REMARK    1  A    between atoms: C3_3  and  C6_6 
REMARK    2  A    between atoms: C3_3  and  O8_8 
REMARK    3  A    between atoms: C6_6  and  C7_7 
ROOT
HETATM    1  C1  UNL     1     -35.465   6.347   3.586  1.00 20.00     0.045 A 
HETATM    2  C2  UNL     1     -34.432   5.548   4.337  1.00 20.00     0.019 A 
HETATM    3  C3  UNL     1     -34.018   6.772   3.549  1.00 20.00     0.061 A 
HETATM    4  C4  UNL     1     -34.088   4.165   3.901  1.00 20.00     0.013 C 
ENDROOT
BRANCH   3   5
HETATM    5  C6  UNL     1     -33.246   6.677   2.275  1.00 20.00     0.038 C 
BRANCH   5   6
HETATM    6  C7  UNL     1     -32.111   7.712   2.198  1.00 20.00    -0.002 C 
HETATM    7  C5  UNL     1     -32.308   8.705   1.063  1.00 20.00     0.005 C 
ENDBRANCH   5   6
ENDBRANCH   3   5
BRANCH   3   8
HETATM    8  O8  UNL     1     -33.685   7.930   4.335  1.00 20.00    -0.389 OA
HETATM    9  H22 UNL     1     -32.803   7.760   4.691  1.00 20.00     0.210 HD
ENDBRANCH   3   8
TORSDOF 3
ENDMDL
MODEL 3
REMARK VINA RESULT:      -1.4      2.448      3.407
REMARK  3 active torsions:
REMARK  status: ('A' for Active; 'I' for Inactive)
REMARK    1  A    between atoms: C3_3  and  C6_6 
REMARK    2  A    between atoms: C3_3  and  O8_8 
REMARK    3  A    between atoms: C6_6  and  C7_7 
ROOT
HETATM    1  C1  UNL     1     -31.562   7.442   1.367  1.00 20.00     0.045 A 
HETATM    2  C2  UNL     1     -31.749   8.930   1.229  1.00 20.00     0.019 A 
HETATM    3  C3  UNL     1     -32.304   8.205   2.436  1.00 20.00     0.061 A 
HETATM    4  C4  UNL     1     -32.625   9.481   0.157  1.00 20.00     0.013 C 
ENDROOT
BRANCH   3   5
HETATM    5  C6  UNL     1     -33.767   7.985   2.630  1.00 20.00     0.038 C 
BRANCH   5   6
HETATM    6  C7  UNL     1     -34.096   7.419   4.022  1.00 20.00    -0.002 C 
HETATM    7  C5  UNL     1     -35.111   6.287   3.963  1.00 20.00     0.005 C 
ENDBRANCH   5   6
ENDBRANCH   3   5
BRANCH   3   8
HETATM    8  O8  UNL     1     -31.589   8.416   3.667  1.00 20.00    -0.389 OA
HETATM    9  H22 UNL     1     -31.562   7.556   4.106  1.00 20.00     0.210 HD
ENDBRANCH   3   8
TORSDOF 3
ENDMDL
MODEL 4
REMARK VINA RESULT:      -1.4      1.998      4.246
REMARK  3 active torsions:
REMARK  status: ('A' for Active; 'I' for Inactive)
REMARK    1  A    between atoms: C3_3  and  C6_6 
REMARK    2  A    between atoms: C3_3  and  O8_8 
REMARK    3  A    between atoms: C6_6  and  C7_7 
ROOT
HETATM    1  C1  UNL     1     -33.028   5.486   3.085  1.00 20.00     0.045 A 
HETATM    2  C2  UNL     1     -34.170   6.467   3.029  1.00 20.00     0.019 A 
HETATM    3  C3  UNL     1     -33.039   6.561   2.027  1.00 20.00     0.061 A 
HETATM    4  C4  UNL     1     -34.356   7.466   4.118  1.00 20.00     0.013 C 
ENDROOT
BRANCH   3   5
HETATM    5  C6  UNL     1     -32.028   7.658   2.067  1.00 20.00     0.038 C 
BRANCH   5   6
HETATM    6  C7  UNL     1     -31.811   8.307   0.690  1.00 20.00    -0.002 C 
HETATM    7  C5  UNL     1     -32.497   9.659   0.570  1.00 20.00     0.005 C 
ENDBRANCH   5   6
ENDBRANCH   3   5
BRANCH   3   8
HETATM    8  O8  UNL     1     -33.358   6.124   0.693  1.00 20.00    -0.389 OA
HETATM    9  H22 UNL     1     -32.521   6.117   0.212  1.00 20.00     0.210 HD
ENDBRANCH   3   8
TORSDOF 3
ENDMDL
MODEL 5
REMARK VINA RESULT:      -1.3      1.401      1.802
REMARK  3 active torsions:
REMARK  status: ('A' for Active; 'I' for Inactive)
REMARK    1  A    between atoms: C3_3  and  C6_6 
REMARK    2  A    between atoms: C3_3  and  O8_8 
REMARK    3  A    between atoms: C6_6  and  C7_7 
ROOT
HETATM    1  C1  UNL     1     -35.141   7.134   3.174  1.00 20.00     0.045 A 
HETATM    2  C2  UNL     1     -33.784   7.479   3.732  1.00 20.00     0.019 A 
HETATM    3  C3  UNL     1     -34.107   6.050   3.349  1.00 20.00     0.061 A 
HETATM    4  C4  UNL     1     -33.643   7.912   5.151  1.00 20.00     0.013 C 
ENDROOT
BRANCH   3   5
HETATM    5  C6  UNL     1     -34.314   4.979   4.367  1.00 20.00     0.038 C 
BRANCH   5   6
HETATM    6  C7  UNL     1     -33.700   3.636   3.940  1.00 20.00    -0.002 C 
HETATM    7  C5  UNL     1     -32.998   2.927   5.087  1.00 20.00     0.005 C 
ENDBRANCH   5   6
ENDBRANCH   3   5
BRANCH   3   8
HETATM    8  O8  UNL     1     -33.482   5.579   2.141  1.00 20.00    -0.389 OA
HETATM    9  H22 UNL     1     -33.796   6.163   1.438  1.00 20.00     0.210 HD
ENDBRANCH   3   8
TORSDOF 3
ENDMDL
MODEL 6
REMARK VINA RESULT:      -1.2      1.601      3.169
REMARK  3 active torsions:
REMARK  status: ('A' for Active; 'I' for Inactive)
REMARK    1  A    between atoms: C3_3  and  C6_6 
REMARK    2  A    between atoms: C3_3  and  O8_8 
REMARK    3  A    between atoms: C6_6  and  C7_7 
ROOT
HETATM    1  C1  UNL     1     -35.513   6.106   3.969  1.00 20.00     0.045 A 
HETATM    2  C2  UNL     1     -34.270   5.363   4.386  1.00 20.00     0.019 A 
HETATM    3  C3  UNL     1     -34.164   6.573   3.481  1.00 20.00     0.061 A 
HETATM    4  C4  UNL     1     -34.024   3.978   3.897  1.00 20.00     0.013 C 
ENDROOT
BRANCH   3   5
HETATM    5  C6  UNL     1     -33.813   6.458   2.035  1.00 20.00     0.038 C 
BRANCH   5   6
HETATM    6  C7  UNL     1     -32.302   6.589   1.786  1.00 20.00    -0.002 C 
HETATM    7  C5  UNL     1     -31.706   5.340   1.156  1.00 20.00     0.005 C 
ENDBRANCH   5   6
ENDBRANCH   3   5
BRANCH   3   8
HETATM    8  O8  UNL     1     -33.651   7.765   4.102  1.00 20.00    -0.389 OA
HETATM    9  H22 UNL     1     -33.464   7.524   5.019  1.00 20.00     0.210 HD
ENDBRANCH   3   8
TORSDOF 3
ENDMDL
MODEL 7
REMARK VINA RESULT:      -1.2      2.087      2.997
REMARK  3 active torsions:
REMARK  status: ('A' for Active; 'I' for Inactive)
REMARK    1  A    between atoms: C3_3  and  C6_6 
REMARK    2  A    between atoms: C3_3  and  O8_8 
REMARK    3  A    between atoms: C6_6  and  C7_7 
ROOT
HETATM    1  C1  UNL     1     -33.081   5.646   1.025  1.00 20.00     0.045 A 
HETATM    2  C2  UNL     1     -32.097   6.419   1.865  1.00 20.00     0.019 A 
HETATM    3  C3  UNL     1     -33.388   5.918   2.477  1.00 20.00     0.061 A 
HETATM    4  C4  UNL     1     -31.850   7.863   1.595  1.00 20.00     0.013 C 
ENDROOT
BRANCH   3   5
HETATM    5  C6  UNL     1     -34.505   6.837   2.844  1.00 20.00     0.038 C 
BRANCH   5   6
HETATM    6  C7  UNL     1     -34.602   7.066   4.361  1.00 20.00    -0.002 C 
HETATM    7  C5  UNL     1     -33.591   8.085   4.861  1.00 20.00     0.005 C 
ENDBRANCH   5   6
ENDBRANCH   3   5
BRANCH   3   8
HETATM    8  O8  UNL     1     -33.255   4.794   3.366  1.00 20.00    -0.389 OA
HETATM    9  H22 UNL     1     -32.731   5.111   4.113  1.00 20.00     0.210 HD
ENDBRANCH   3   8
TORSDOF 3
ENDMDL
MODEL 8
REMARK VINA RESULT:      -1.1      2.831      4.983
REMARK  3 active torsions:
REMARK  status: ('A' for Active; 'I' for Inactive)
REMARK    1  A    between atoms: C3_3  and  C6_6 
REMARK    2  A    between atoms: C3_3  and  O8_8 
REMARK    3  A    between atoms: C6_6  and  C7_7 
ROOT
HETATM    1  C1  UNL     1     -33.581   7.484   2.524  1.00 20.00     0.045 A 
HETATM    2  C2  UNL     1     -32.529   6.427   2.306  1.00 20.00     0.019 A 
HETATM    3  C3  UNL     1     -32.177   7.891   2.149  1.00 20.00     0.061 A 
HETATM    4  C4  UNL     1     -32.624   5.500   1.143  1.00 20.00     0.013 C 
ENDROOT
BRANCH   3   5
HETATM    5  C6  UNL     1     -31.910   8.508   0.817  1.00 20.00     0.038 C 
BRANCH   5   6
HETATM    6  C7  UNL     1     -32.457   9.942   0.713  1.00 20.00    -0.002 C 
HETATM    7  C5  UNL     1     -32.910  10.290  -0.696  1.00 20.00     0.005 C 
ENDBRANCH   5   6
ENDBRANCH   3   5
BRANCH   3   8
HETATM    8  O8  UNL     1     -31.384   8.453   3.210  1.00 20.00    -0.389 OA
HETATM    9  H22 UNL     1     -30.660   7.830   3.355  1.00 20.00     0.210 HD
ENDBRANCH   3   8
TORSDOF 3
ENDMDL
MODEL 9
REMARK VINA RESULT:      -1.0      2.383      3.209
REMARK  3 active torsions:
REMARK  status: ('A' for Active; 'I' for Inactive)
REMARK    1  A    between atoms: C3_3  and  C6_6 
REMARK    2  A    between atoms: C3_3  and  O8_8 
REMARK    3  A    between atoms: C6_6  and  C7_7 
ROOT
HETATM    1  C1  UNL     1     -31.209   7.565   1.742  1.00 20.00     0.045 A 
HETATM    2  C2  UNL     1     -32.398   6.819   1.197  1.00 20.00     0.019 A 
HETATM    3  C3  UNL     1     -32.591   7.882   2.258  1.00 20.00     0.061 A 
HETATM    4  C4  UNL     1     -32.570   5.367   1.483  1.00 20.00     0.013 C 
ENDROOT
BRANCH   3   5
HETATM    5  C6  UNL     1     -32.957   7.547   3.665  1.00 20.00     0.038 C 
BRANCH   5   6
HETATM    6  C7  UNL     1     -34.472   7.631   3.913  1.00 20.00    -0.002 C 
HETATM    7  C5  UNL     1     -35.130   6.261   3.958  1.00 20.00     0.005 C 
ENDBRANCH   5   6
ENDBRANCH   3   5
BRANCH   3   8
HETATM    8  O8  UNL     1     -33.163   9.119   1.796  1.00 20.00    -0.389 OA
HETATM    9  H22 UNL     1     -32.427   9.630   1.436  1.00 20.00     0.210 HD
ENDBRANCH   3   8
TORSDOF 3
ENDMDL
