MODEL 1
REMARK VINA RESULT:      -2.0      0.000      0.000
REMARK  5 active torsions:
REMARK  status: ('A' for Active; 'I' for Inactive)
REMARK    1  A    between atoms: C4_4  and  C7_7 
REMARK    2  A    between atoms: C5_5  and  C8_8 
REMARK    3  A    between atoms: C6_6  and  C7_7 
REMARK    4  A    between atoms: C6_6  and  O9_9 
REMARK    5  A    between atoms: C7_7  and  C8_8 
ROOT
HETATM    1  C7  UNL     1     -33.254   7.185   2.132  1.00 20.00     0.027 C 
ENDROOT
BRANCH   1   2
HETATM    2  C4  UNL     1     -33.074   5.908   1.280  1.00 20.00     0.004 C 
HETATM    3  C1  UNL     1     -31.717   5.242   1.464  1.00 20.00     0.005 C 
ENDBRANCH   1   2
BRANCH   1   4
HETATM    4  C6  UNL     1     -32.023   8.105   2.008  1.00 20.00     0.173 C 
BRANCH   4   5
HETATM    5  O9  UNL     1     -31.877   8.597   0.682  1.00 20.00    -0.396 OA
HETATM    6  C3  UNL     1     -32.491   9.869   0.528  1.00 20.00     0.201 C 
ENDBRANCH   4   5
ENDBRANCH   1   4
BRANCH   1   7
HETATM    7  C8  UNL     1     -33.596   6.880   3.620  1.00 20.00     0.088 C 
HETATM    8 CL10 UNL     1     -33.140   8.286   4.652  1.00 20.00    -0.125 Cl
BRANCH   7   9
HETATM    9  C5  UNL     1     -35.065   6.500   3.868  1.00 20.00     0.016 C 
HETATM   10  C2  UNL     1     -35.238   5.103   4.455  1.00 20.00     0.006 C 
ENDBRANCH   7   9
ENDBRANCH   1   7
TORSDOF 5
ENDMDL
MODEL 2
REMARK VINA RESULT:      -1.1      2.654      4.723
REMARK  5 active torsions:
REMARK  status: ('A' for Active; 'I' for Inactive)
REMARK    1  A    between atoms: C4_4  and  C7_7 
REMARK    2  A    between atoms: C5_5  and  C8_8 
REMARK    3  A    between atoms: C6_6  and  C7_7 
REMARK    4  A    between atoms: C6_6  and  O9_9 
REMARK    5  A    between atoms: C7_7  and  C8_8 
ROOT
HETATM    1  C7  UNL     1     -34.269   6.370   3.210  1.00 20.00     0.027 C 
ENDROOT
BRANCH   1   2
HETATM    2  C4  UNL     1     -34.544   7.661   4.013  1.00 20.00     0.004 C 
HETATM    3  C1  UNL     1     -33.520   7.925   5.109  1.00 20.00     0.005 C 
ENDBRANCH   1   2
BRANCH   1   4
HETATM    4  C6  UNL     1     -34.447   5.123   4.100  1.00 20.00     0.173 C 
BRANCH   4   5
HETATM    5  O9  UNL     1     -33.583   4.070   3.693  1.00 20.00    -0.396 OA
HETATM    6  C3  UNL     1     -33.391   3.123   4.734  1.00 20.00     0.201 C 
ENDBRANCH   4   5
ENDBRANCH   1   4
BRANCH   1   7
HETATM    7  C8  UNL     1     -32.882   6.377   2.502  1.00 20.00     0.088 C 
HETATM    8 CL10 UNL     1     -33.010   5.562   0.900  1.00 20.00    -0.125 Cl
BRANCH   7   9
HETATM    9  C5  UNL     1     -32.264   7.775   2.333  1.00 20.00     0.016 C 
HETATM   10  C2  UNL     1     -31.931   8.117   0.885  1.00 20.00     0.006 C 
ENDBRANCH   7   9
ENDBRANCH   1   7
TORSDOF 5
ENDMDL
MODEL 3
REMARK VINA RESULT:      -1.1      2.264      4.100
REMARK  5 active torsions:
REMARK  status: ('A' for Active; 'I' for Inactive)
REMARK    1  A    between atoms: C4_4  and  C7_7 
REMARK    2  A    between atoms: C5_5  and  C8_8 
REMARK    3  A    between atoms: C6_6  and  C7_7 
REMARK    4  A    between atoms: C6_6  and  O9_9 
REMARK    5  A    between atoms: C7_7  and  C8_8 
ROOT
HETATM    1  C7  UNL     1     -33.238   5.908   2.911  1.00 20.00     0.027 C 
ENDROOT
BRANCH   1   2
HETATM    2  C4  UNL     1     -33.284   5.337   1.475  1.00 20.00     0.004 C 
HETATM    3  C1  UNL     1     -31.915   4.956   0.928  1.00 20.00     0.005 C 
ENDBRANCH   1   2
BRANCH   1   4
HETATM    4  C6  UNL     1     -34.291   5.225   3.806  1.00 20.00     0.173 C 
BRANCH   4   5
HETATM    5  O9  UNL     1     -34.174   3.810   3.756  1.00 20.00    -0.396 OA
HETATM    6  C3  UNL     1     -33.327   3.321   4.787  1.00 20.00     0.201 C 
ENDBRANCH   4   5
ENDBRANCH   1   4
BRANCH   1   7
HETATM    7  C8  UNL     1     -33.365   7.459   2.953  1.00 20.00     0.088 C 
HETATM    8 CL10 UNL     1     -33.838   7.988   4.610  1.00 20.00    -0.125 Cl
BRANCH   7   9
HETATM    9  C5  UNL     1     -32.103   8.212   2.501  1.00 20.00     0.016 C 
HETATM   10  C2  UNL     1     -32.219   8.799   1.099  1.00 20.00     0.006 C 
ENDBRANCH   7   9
ENDBRANCH   1   7
TORSDOF 5
ENDMDL
MODEL 4
REMARK VINA RESULT:      -0.9      1.912      2.619
REMARK  5 active torsions:
REMARK  status: ('A' for Active; 'I' for Inactive)
REMARK    1  A    between atoms: C4_4  and  C7_7 
REMARK    2  A    between atoms: C5_5  and  C8_8 
REMARK    3  A    between atoms: C6_6  and  C7_7 
REMARK    4  A    between atoms: C6_6  and  O9_9 
REMARK    5  A    between atoms: C7_7  and  C8_8 
ROOT
HETATM    1  C7  UNL     1     -32.706   7.220   2.804  1.00 20.00     0.027 C 
ENDROOT
BRANCH   1   2
HETATM    2  C4  UNL     1     -33.613   8.190   3.595  1.00 20.00     0.004 C 
HETATM    3  C1  UNL     1     -33.277   8.262   5.079  1.00 20.00     0.005 C 
ENDBRANCH   1   2
BRANCH   1   4
HETATM    4  C6  UNL     1     -32.025   7.945   1.626  1.00 20.00     0.173 C 
BRANCH   4   5
HETATM    5  O9  UNL     1     -32.530   9.264   1.468  1.00 20.00    -0.396 OA
HETATM    6  C3  UNL     1     -32.390   9.719   0.130  1.00 20.00     0.201 C 
ENDBRANCH   4   5
ENDBRANCH   1   4
BRANCH   1   7
HETATM    7  C8  UNL     1     -33.451   5.935   2.336  1.00 20.00     0.088 C 
HETATM    8 CL10 UNL     1     -32.511   5.127   1.028  1.00 20.00    -0.125 Cl
BRANCH   7   9
HETATM    9  C5  UNL     1     -33.756   4.933   3.462  1.00 20.00     0.016 C 
HETATM   10  C2  UNL     1     -35.065   5.220   4.188  1.00 20.00     0.006 C 
ENDBRANCH   7   9
ENDBRANCH   1   7
TORSDOF 5
ENDMDL
MODEL 5
REMARK VINA RESULT:      -0.8      2.776      4.126
REMARK  5 active torsions:
REMARK  status: ('A' for Active; 'I' for Inactive)
REMARK    1  A    between atoms: C4_4  and  C7_7 
REMARK    2  A    between atoms: C5_5  and  C8_8 
REMARK    3  A    between atoms: C6_6  and  C7_7 
REMARK    4  A    between atoms: C6_6  and  O9_9 
REMARK    5  A    between atoms: C7_7  and  C8_8 
ROOT
HETATM    1  C7  UNL     1     -33.342   5.844   3.128  1.00 20.00     0.027 C 
ENDROOT
BRANCH   1   2
HETATM    2  C4  UNL     1     -32.747   6.005   1.711  1.00 20.00     0.004 C 
HETATM    3  C1  UNL     1     -32.012   7.323   1.508  1.00 20.00     0.005 C 
ENDBRANCH   1   2
BRANCH   1   4
HETATM    4  C6  UNL     1     -33.996   4.457   3.294  1.00 20.00     0.173 C 
BRANCH   4   5
HETATM    5  O9  UNL     1     -33.911   4.003   4.638  1.00 20.00    -0.396 OA
HETATM    6  C3  UNL     1     -33.109   2.835   4.744  1.00 20.00     0.201 C 
ENDBRANCH   4   5
ENDBRANCH   1   4
BRANCH   1   7
HETATM    7  C8  UNL     1     -34.323   6.991   3.511  1.00 20.00     0.088 C 
HETATM    8 CL10 UNL     1     -36.005   6.350   3.605  1.00 20.00    -0.125 Cl
BRANCH   7   9
HETATM    9  C5  UNL     1     -33.965   7.723   4.814  1.00 20.00     0.016 C 
HETATM   10  C2  UNL     1     -32.633   8.463   4.745  1.00 20.00     0.006 C 
ENDBRANCH   7   9
ENDBRANCH   1   7
TORSDOF 5
ENDMDL
MODEL 6
REMARK VINA RESULT:      -0.8      1.499      1.703
REMARK  5 active torsions:
REMARK  status: ('A' for Active; 'I' for Inactive)
REMARK    1  A    between atoms: C4_4  and  C7_7 
REMARK    2  A    between atoms: C5_5  and  C8_8 
REMARK    3  A    between atoms: C6_6  and  C7_7 
REMARK    4  A    between atoms: C6_6  and  O9_9 
REMARK    5  A    between atoms: C7_7  and  C8_8 
ROOT
HETATM    1  C7  UNL     1     -32.903   6.866   1.723  1.00 20.00     0.027 C 
ENDROOT
BRANCH   1   2
HETATM    2  C4  UNL     1     -32.010   5.605   1.702  1.00 20.00     0.004 C 
HETATM    3  C1  UNL     1     -32.282   4.687   0.517  1.00 20.00     0.005 C 
ENDBRANCH   1   2
BRANCH   1   4
HETATM    4  C6  UNL     1     -32.048   8.142   1.856  1.00 20.00     0.173 C 
BRANCH   4   5
HETATM    5  O9  UNL     1     -31.791   8.727   0.587  1.00 20.00    -0.396 OA
HETATM    6  C3  UNL     1     -32.551   9.912   0.396  1.00 20.00     0.201 C 
ENDBRANCH   4   5
ENDBRANCH   1   4
BRANCH   1   7
HETATM    7  C8  UNL     1     -34.018   6.805   2.809  1.00 20.00     0.088 C 
HETATM    8 CL10 UNL     1     -33.858   5.283   3.762  1.00 20.00    -0.125 Cl
BRANCH   7   9
HETATM    9  C5  UNL     1     -34.049   8.017   3.754  1.00 20.00     0.016 C 
HETATM   10  C2  UNL     1     -33.336   7.768   5.079  1.00 20.00     0.006 C 
ENDBRANCH   7   9
ENDBRANCH   1   7
TORSDOF 5
ENDMDL
MODEL 7
REMARK VINA RESULT:      -0.8      1.854      4.059
REMARK  5 active torsions:
REMARK  status: ('A' for Active; 'I' for Inactive)
REMARK    1  A    between atoms: C4_4  and  C7_7 
REMARK    2  A    between atoms: C5_5  and  C8_8 
REMARK    3  A    between atoms: C6_6  and  C7_7 
REMARK    4  A    between atoms: C6_6  and  O9_9 
REMARK    5  A    between atoms: C7_7  and  C8_8 
ROOT
HETATM    1  C7  UNL     1     -32.807   6.829   2.479  1.00 20.00     0.027 C 
ENDROOT
BRANCH   1   2
HETATM    2  C4  UNL     1     -32.953   5.996   1.185  1.00 20.00     0.004 C 
HETATM    3  C1  UNL     1     -31.882   4.925   1.028  1.00 20.00     0.005 C 
ENDBRANCH   1   2
BRANCH   1   4
HETATM    4  C6  UNL     1     -34.056   6.682   3.370  1.00 20.00     0.173 C 
BRANCH   4   5
HETATM    5  O9  UNL     1     -34.247   5.332   3.773  1.00 20.00    -0.396 OA
HETATM    6  C3  UNL     1     -35.421   5.185   4.560  1.00 20.00     0.201 C 
ENDBRANCH   4   5
ENDBRANCH   1   4
BRANCH   1   7
HETATM    7  C8  UNL     1     -32.469   8.325   2.205  1.00 20.00     0.088 C 
HETATM    8 CL10 UNL     1     -31.305   8.924   3.444  1.00 20.00    -0.125 Cl
BRANCH   7   9
HETATM    9  C5  UNL     1     -31.925   8.603   0.794  1.00 20.00     0.016 C 
HETATM   10  C2  UNL     1     -32.445   9.905   0.192  1.00 20.00     0.006 C 
ENDBRANCH   7   9
ENDBRANCH   1   7
TORSDOF 5
ENDMDL
MODEL 8
REMARK VINA RESULT:      -0.7      1.359      3.600
REMARK  5 active torsions:
REMARK  status: ('A' for Active; 'I' for Inactive)
REMARK    1  A    between atoms: C4_4  and  C7_7 
REMARK    2  A    between atoms: C5_5  and  C8_8 
REMARK    3  A    between atoms: C6_6  and  C7_7 
REMARK    4  A    between atoms: C6_6  and  O9_9 
REMARK    5  A    between atoms: C7_7  and  C8_8 
ROOT
HETATM    1  C7  UNL     1     -34.113   6.730   2.907  1.00 20.00     0.027 C 
ENDROOT
BRANCH   1   2
HETATM    2  C4  UNL     1     -35.095   6.353   4.040  1.00 20.00     0.004 C 
HETATM    3  C1  UNL     1     -35.001   4.893   4.464  1.00 20.00     0.005 C 
ENDBRANCH   1   2
BRANCH   1   4
HETATM    4  C6  UNL     1     -33.174   5.551   2.581  1.00 20.00     0.173 C 
BRANCH   4   5
HETATM    5  O9  UNL     1     -33.020   5.386   1.178  1.00 20.00    -0.396 OA
HETATM    6  C3  UNL     1     -31.724   4.905   0.849  1.00 20.00     0.201 C 
ENDBRANCH   4   5
ENDBRANCH   1   4
BRANCH   1   7
HETATM    7  C8  UNL     1     -33.317   8.036   3.201  1.00 20.00     0.088 C 
HETATM    8 CL10 UNL     1     -33.011   8.179   4.971  1.00 20.00    -0.125 Cl
BRANCH   7   9
HETATM    9  C5  UNL     1     -31.995   8.160   2.426  1.00 20.00     0.016 C 
HETATM   10  C2  UNL     1     -32.151   8.837   1.069  1.00 20.00     0.006 C 
ENDBRANCH   7   9
ENDBRANCH   1   7
TORSDOF 5
ENDMDL
MODEL 9
REMARK VINA RESULT:      -0.7      2.516      3.101
REMARK  5 active torsions:
REMARK  status: ('A' for Active; 'I' for Inactive)
REMARK    1  A    between atoms: C4_4  and  C7_7 
REMARK    2  A    between atoms: C5_5  and  C8_8 
REMARK    3  A    between atoms: C6_6  and  C7_7 
REMARK    4  A    between atoms: C6_6  and  O9_9 
REMARK    5  A    between atoms: C7_7  and  C8_8 
ROOT
HETATM    1  C7  UNL     1     -33.970   6.071   2.781  1.00 20.00     0.027 C 
ENDROOT
BRANCH   1   2
HETATM    2  C4  UNL     1     -32.728   5.847   1.888  1.00 20.00     0.004 C 
HETATM    3  C1  UNL     1     -31.969   7.129   1.571  1.00 20.00     0.005 C 
ENDBRANCH   1   2
BRANCH   1   4
HETATM    4  C6  UNL     1     -34.072   7.546   3.219  1.00 20.00     0.173 C 
BRANCH   4   5
HETATM    5  O9  UNL     1     -34.023   7.669   4.634  1.00 20.00    -0.396 OA
HETATM    6  C3  UNL     1     -32.885   8.410   5.053  1.00 20.00     0.201 C 
ENDBRANCH   4   5
ENDBRANCH   1   4
BRANCH   1   7
HETATM    7  C8  UNL     1     -34.026   5.103   4.000  1.00 20.00     0.088 C 
HETATM    8 CL10 UNL     1     -35.685   5.103   4.704  1.00 20.00    -0.125 Cl
BRANCH   7   9
HETATM    9  C5  UNL     1     -33.587   3.663   3.687  1.00 20.00     0.016 C 
HETATM   10  C2  UNL     1     -33.076   2.909   4.910  1.00 20.00     0.006 C 
ENDBRANCH   7   9
ENDBRANCH   1   7
TORSDOF 5
ENDMDL
