MODEL 1
REMARK VINA RESULT:      -0.1      0.000      0.000
REMARK  3 active torsions:
REMARK  status: ('A' for Active; 'I' for Inactive)
REMARK    1  A    between atoms: C3_3  and  C9_9 
REMARK    2  A    between atoms: C3_3  and  O10_10 
REMARK    3  A    between atoms: C8_8  and  C9_9 
ROOT
HETATM    1  C1  UNL     1     -35.191   6.537   3.398  1.00 20.00     0.046 A 
HETATM    2  C2  UNL     1     -34.256   5.623   4.147  1.00 20.00     0.019 A 
HETATM    3  C3  UNL     1     -33.707   6.807   3.382  1.00 20.00     0.068 A 
HETATM    4  C4  UNL     1     -34.056   4.217   3.696  1.00 20.00     0.013 C 
ENDROOT
BRANCH   3   5
HETATM    5  C9  UNL     1     -32.909   6.642   2.074  1.00 20.00    -0.017 C 
HETATM    6  C6  UNL     1     -32.090   5.344   2.161  1.00 20.00     0.018 C 
HETATM    7  C7  UNL     1     -33.903   6.536   0.905  1.00 20.00     0.018 C 
BRANCH   5   8
HETATM    8  C8  UNL     1     -31.985   7.877   1.912  1.00 20.00     0.007 C 
HETATM    9  C5  UNL     1     -32.397   8.878   0.840  1.00 20.00     0.006 C 
ENDBRANCH   5   8
ENDBRANCH   3   5
BRANCH   3  10
HETATM   10  O10 UNL     1     -33.263   7.913   4.188  1.00 20.00    -0.389 OA
HETATM   11  H28 UNL     1     -32.303   7.945   4.083  1.00 20.00     0.210 HD
ENDBRANCH   3  10
TORSDOF 3
ENDMDL
MODEL 2
REMARK VINA RESULT:       0.4      0.489      1.885
REMARK  3 active torsions:
REMARK  status: ('A' for Active; 'I' for Inactive)
REMARK    1  A    between atoms: C3_3  and  C9_9 
REMARK    2  A    between atoms: C3_3  and  O10_10 
REMARK    3  A    between atoms: C8_8  and  C9_9 
ROOT
HETATM    1  C1  UNL     1     -35.231   6.505   3.498  1.00 20.00     0.046 A 
HETATM    2  C2  UNL     1     -34.254   5.596   4.197  1.00 20.00     0.019 A 
HETATM    3  C3  UNL     1     -33.752   6.787   3.411  1.00 20.00     0.068 A 
HETATM    4  C4  UNL     1     -34.066   4.193   3.730  1.00 20.00     0.013 C 
ENDROOT
BRANCH   3   5
HETATM    5  C9  UNL     1     -33.018   6.634   2.065  1.00 20.00    -0.017 C 
HETATM    6  C6  UNL     1     -34.063   6.406   0.961  1.00 20.00     0.018 C 
HETATM    7  C7  UNL     1     -32.252   7.936   1.776  1.00 20.00     0.018 C 
BRANCH   5   8
HETATM    8  C8  UNL     1     -32.049   5.428   2.177  1.00 20.00     0.007 C 
HETATM    9  C5  UNL     1     -31.672   4.756   0.862  1.00 20.00     0.006 C 
ENDBRANCH   5   8
ENDBRANCH   3   5
BRANCH   3  10
HETATM   10  O10 UNL     1     -33.277   7.893   4.200  1.00 20.00    -0.389 OA
HETATM   11  H28 UNL     1     -33.921   8.003   4.912  1.00 20.00     0.210 HD
ENDBRANCH   3  10
TORSDOF 3
ENDMDL
MODEL 3
REMARK VINA RESULT:       0.7      1.143      1.633
REMARK  3 active torsions:
REMARK  status: ('A' for Active; 'I' for Inactive)
REMARK    1  A    between atoms: C3_3  and  C9_9 
REMARK    2  A    between atoms: C3_3  and  O10_10 
REMARK    3  A    between atoms: C8_8  and  C9_9 
ROOT
HETATM    1  C1  UNL     1     -34.638   7.655   3.464  1.00 20.00     0.046 A 
HETATM    2  C2  UNL     1     -33.902   6.373   3.753  1.00 20.00     0.019 A 
HETATM    3  C3  UNL     1     -33.133   7.658   3.539  1.00 20.00     0.068 A 
HETATM    4  C4  UNL     1     -33.900   5.265   2.757  1.00 20.00     0.013 C 
ENDROOT
BRANCH   3   5
HETATM    5  C9  UNL     1     -32.298   7.915   2.269  1.00 20.00    -0.017 C 
HETATM    6  C6  UNL     1     -30.919   8.448   2.691  1.00 20.00     0.018 C 
HETATM    7  C7  UNL     1     -32.120   6.582   1.524  1.00 20.00     0.018 C 
BRANCH   5   8
HETATM    8  C8  UNL     1     -33.054   8.948   1.395  1.00 20.00     0.007 C 
HETATM    9  C5  UNL     1     -32.236   9.609   0.292  1.00 20.00     0.006 C 
ENDBRANCH   5   8
ENDBRANCH   3   5
BRANCH   3  10
HETATM   10  O10 UNL     1     -32.566   8.244   4.725  1.00 20.00    -0.389 OA
HETATM   11  H28 UNL     1     -33.306   8.373   5.333  1.00 20.00     0.210 HD
ENDBRANCH   3  10
TORSDOF 3
ENDMDL
MODEL 4
REMARK VINA RESULT:       0.7      1.624      2.481
REMARK  3 active torsions:
REMARK  status: ('A' for Active; 'I' for Inactive)
REMARK    1  A    between atoms: C3_3  and  C9_9 
REMARK    2  A    between atoms: C3_3  and  O10_10 
REMARK    3  A    between atoms: C8_8  and  C9_9 
ROOT
HETATM    1  C1  UNL     1     -33.016   5.611   3.167  1.00 20.00     0.046 A 
HETATM    2  C2  UNL     1     -34.275   6.435   3.092  1.00 20.00     0.019 A 
HETATM    3  C3  UNL     1     -33.184   6.620   2.059  1.00 20.00     0.068 A 
HETATM    4  C4  UNL     1     -34.568   7.457   4.136  1.00 20.00     0.013 C 
ENDROOT
BRANCH   3   5
HETATM    5  C9  UNL     1     -32.293   7.877   2.020  1.00 20.00    -0.017 C 
HETATM    6  C6  UNL     1     -31.972   8.293   3.465  1.00 20.00     0.018 C 
HETATM    7  C7  UNL     1     -30.985   7.525   1.293  1.00 20.00     0.018 C 
BRANCH   5   8
HETATM    8  C8  UNL     1     -33.065   8.995   1.274  1.00 20.00     0.007 C 
HETATM    9  C5  UNL     1     -32.293   9.715   0.176  1.00 20.00     0.006 C 
ENDBRANCH   5   8
ENDBRANCH   3   5
BRANCH   3  10
HETATM   10  O10 UNL     1     -33.468   6.079   0.756  1.00 20.00    -0.389 OA
HETATM   11  H28 UNL     1     -33.156   6.740   0.124  1.00 20.00     0.210 HD
ENDBRANCH   3  10
TORSDOF 3
ENDMDL
MODEL 5
REMARK VINA RESULT:       0.9      1.553      3.429
REMARK  3 active torsions:
REMARK  status: ('A' for Active; 'I' for Inactive)
REMARK    1  A    between atoms: C3_3  and  C9_9 
REMARK    2  A    between atoms: C3_3  and  O10_10 
REMARK    3  A    between atoms: C8_8  and  C9_9 
ROOT
HETATM    1  C1  UNL     1     -33.490   5.736   1.218  1.00 20.00     0.046 A 
HETATM    2  C2  UNL     1     -32.368   6.437   1.938  1.00 20.00     0.019 A 
HETATM    3  C3  UNL     1     -33.484   5.785   2.725  1.00 20.00     0.068 A 
HETATM    4  C4  UNL     1     -32.219   7.916   1.839  1.00 20.00     0.013 C 
ENDROOT
BRANCH   3   5
HETATM    5  C9  UNL     1     -34.551   6.606   3.473  1.00 20.00    -0.017 C 
HETATM    6  C6  UNL     1     -35.721   6.878   2.513  1.00 20.00     0.018 C 
HETATM    7  C7  UNL     1     -35.057   5.777   4.666  1.00 20.00     0.018 C 
BRANCH   5   8
HETATM    8  C8  UNL     1     -33.898   7.930   3.948  1.00 20.00     0.007 C 
HETATM    9  C5  UNL     1     -33.295   7.908   5.347  1.00 20.00     0.006 C 
ENDBRANCH   5   8
ENDBRANCH   3   5
BRANCH   3  10
HETATM   10  O10 UNL     1     -33.136   4.557   3.390  1.00 20.00    -0.389 OA
HETATM   11  H28 UNL     1     -32.454   4.146   2.843  1.00 20.00     0.210 HD
ENDBRANCH   3  10
TORSDOF 3
ENDMDL
MODEL 6
REMARK VINA RESULT:       1.0      1.313      3.435
REMARK  3 active torsions:
REMARK  status: ('A' for Active; 'I' for Inactive)
REMARK    1  A    between atoms: C3_3  and  C9_9 
REMARK    2  A    between atoms: C3_3  and  O10_10 
REMARK    3  A    between atoms: C8_8  and  C9_9 
ROOT
HETATM    1  C1  UNL     1     -31.779   5.800   1.823  1.00 20.00     0.046 A 
HETATM    2  C2  UNL     1     -32.861   6.125   0.825  1.00 20.00     0.019 A 
HETATM    3  C3  UNL     1     -32.797   6.866   2.143  1.00 20.00     0.068 A 
HETATM    4  C4  UNL     1     -33.926   5.128   0.520  1.00 20.00     0.013 C 
ENDROOT
BRANCH   3   5
HETATM    5  C9  UNL     1     -33.825   6.636   3.267  1.00 20.00    -0.017 C 
HETATM    6  C6  UNL     1     -33.515   7.606   4.418  1.00 20.00     0.018 C 
HETATM    7  C7  UNL     1     -35.228   6.938   2.714  1.00 20.00     0.018 C 
BRANCH   5   8
HETATM    8  C8  UNL     1     -33.712   5.161   3.732  1.00 20.00     0.007 C 
HETATM    9  C5  UNL     1     -34.899   4.621   4.521  1.00 20.00     0.006 C 
ENDBRANCH   5   8
ENDBRANCH   3   5
BRANCH   3  10
HETATM   10  O10 UNL     1     -32.327   8.224   2.066  1.00 20.00    -0.389 OA
HETATM   11  H28 UNL     1     -31.939   8.318   1.185  1.00 20.00     0.210 HD
ENDBRANCH   3  10
TORSDOF 3
ENDMDL
MODEL 7
REMARK VINA RESULT:       1.1      1.551      3.454
REMARK  3 active torsions:
REMARK  status: ('A' for Active; 'I' for Inactive)
REMARK    1  A    between atoms: C3_3  and  C9_9 
REMARK    2  A    between atoms: C3_3  and  O10_10 
REMARK    3  A    between atoms: C8_8  and  C9_9 
ROOT
HETATM    1  C1  UNL     1     -31.219   7.546   2.155  1.00 20.00     0.046 A 
HETATM    2  C2  UNL     1     -32.214   6.866   1.250  1.00 20.00     0.019 A 
HETATM    3  C3  UNL     1     -32.655   8.005   2.143  1.00 20.00     0.068 A 
HETATM    4  C4  UNL     1     -32.615   5.453   1.500  1.00 20.00     0.013 C 
ENDROOT
BRANCH   3   5
HETATM    5  C9  UNL     1     -33.544   7.782   3.382  1.00 20.00    -0.017 C 
HETATM    6  C6  UNL     1     -32.724   8.115   4.639  1.00 20.00     0.018 C 
HETATM    7  C7  UNL     1     -34.748   8.736   3.296  1.00 20.00     0.018 C 
BRANCH   5   8
HETATM    8  C8  UNL     1     -34.003   6.301   3.388  1.00 20.00     0.007 C 
HETATM    9  C5  UNL     1     -35.305   6.013   4.125  1.00 20.00     0.006 C 
ENDBRANCH   5   8
ENDBRANCH   3   5
BRANCH   3  10
HETATM   10  O10 UNL     1     -32.908   9.254   1.474  1.00 20.00    -0.389 OA
HETATM   11  H28 UNL     1     -33.327   9.824   2.132  1.00 20.00     0.210 HD
ENDBRANCH   3  10
TORSDOF 3
ENDMDL
MODEL 8
REMARK VINA RESULT:       1.1      1.370      1.782
REMARK  3 active torsions:
REMARK  status: ('A' for Active; 'I' for Inactive)
REMARK    1  A    between atoms: C3_3  and  C9_9 
REMARK    2  A    between atoms: C3_3  and  O10_10 
REMARK    3  A    between atoms: C8_8  and  C9_9 
ROOT
HETATM    1  C1  UNL     1     -33.934   6.761   4.473  1.00 20.00     0.046 A 
HETATM    2  C2  UNL     1     -35.137   6.231   3.737  1.00 20.00     0.019 A 
HETATM    3  C3  UNL     1     -33.746   5.809   3.320  1.00 20.00     0.068 A 
HETATM    4  C4  UNL     1     -35.977   7.145   2.912  1.00 20.00     0.013 C 
ENDROOT
BRANCH   3   5
HETATM    5  C9  UNL     1     -33.094   6.302   2.013  1.00 20.00    -0.017 C 
HETATM    6  C6  UNL     1     -31.862   5.430   1.723  1.00 20.00     0.018 C 
HETATM    7  C7  UNL     1     -34.110   6.139   0.870  1.00 20.00     0.018 C 
BRANCH   5   8
HETATM    8  C8  UNL     1     -32.696   7.788   2.201  1.00 20.00     0.007 C 
HETATM    9  C5  UNL     1     -31.969   8.434   1.028  1.00 20.00     0.006 C 
ENDBRANCH   5   8
ENDBRANCH   3   5
BRANCH   3  10
HETATM   10  O10 UNL     1     -33.376   4.464   3.672  1.00 20.00    -0.389 OA
HETATM   11  H28 UNL     1     -33.580   4.373   4.612  1.00 20.00     0.210 HD
ENDBRANCH   3  10
TORSDOF 3
ENDMDL
MODEL 9
REMARK VINA RESULT:       1.2      1.489      3.775
REMARK  3 active torsions:
REMARK  status: ('A' for Active; 'I' for Inactive)
REMARK    1  A    between atoms: C3_3  and  C9_9 
REMARK    2  A    between atoms: C3_3  and  O10_10 
REMARK    3  A    between atoms: C8_8  and  C9_9 
ROOT
HETATM    1  C1  UNL     1     -33.038   8.151   1.334  1.00 20.00     0.046 A 
HETATM    2  C2  UNL     1     -31.819   7.830   2.160  1.00 20.00     0.019 A 
HETATM    3  C3  UNL     1     -33.003   6.888   2.157  1.00 20.00     0.068 A 
HETATM    4  C4  UNL     1     -31.468   8.668   3.340  1.00 20.00     0.013 C 
ENDROOT
BRANCH   3   5
HETATM    5  C9  UNL     1     -33.936   6.737   3.374  1.00 20.00    -0.017 C 
HETATM    6  C6  UNL     1     -33.519   7.763   4.440  1.00 20.00     0.018 C 
HETATM    7  C7  UNL     1     -35.377   7.031   2.925  1.00 20.00     0.018 C 
BRANCH   5   8
HETATM    8  C8  UNL     1     -33.801   5.288   3.910  1.00 20.00     0.007 C 
HETATM    9  C5  UNL     1     -35.043   4.708   4.576  1.00 20.00     0.006 C 
ENDBRANCH   5   8
ENDBRANCH   3   5
BRANCH   3  10
HETATM   10  O10 UNL     1     -32.820   5.665   1.421  1.00 20.00    -0.389 OA
HETATM   11  H28 UNL     1     -32.894   5.908   0.488  1.00 20.00     0.210 HD
ENDBRANCH   3  10
TORSDOF 3
ENDMDL
