MODEL 1
REMARK VINA RESULT:      -0.6      0.000      0.000
REMARK  3 active torsions:
REMARK  status: ('A' for Active; 'I' for Inactive)
REMARK    1  A    between atoms: C1_1  and  C8_8 
REMARK    2  A    between atoms: C1_1  and  C9_9 
REMARK    3  A    between atoms: C9_9  and  C10_10 
ROOT
HETATM    1  C4  UNL     1     -32.566   5.586   1.521  1.00 20.00     0.018 C 
HETATM    2  C9  UNL     1     -33.348   6.827   1.964  1.00 20.00     0.059 C 
ENDROOT
BRANCH   2   3
HETATM    3  C1  UNL     1     -32.396   8.031   1.901  1.00 20.00     0.134 C 
HETATM    4  O11 UNL     1     -31.567   8.243   2.788  1.00 20.00    -0.297 OA
BRANCH   3   5
HETATM    5  C8  UNL     1     -32.497   8.931   0.670  1.00 20.00     0.048 C 
HETATM    6  C2  UNL     1     -31.198   8.857  -0.123  1.00 20.00     0.017 C 
HETATM    7  C3  UNL     1     -32.812  10.370   1.070  1.00 20.00     0.017 C 
ENDBRANCH   3   5
ENDBRANCH   2   3
BRANCH   2   8
HETATM    8  C10 UNL     1     -34.072   6.696   3.345  1.00 20.00    -0.041 C 
HETATM    9  C5  UNL     1     -33.816   5.292   3.937  1.00 20.00     0.015 C 
HETATM   10  C6  UNL     1     -35.597   6.848   3.164  1.00 20.00     0.015 C 
HETATM   11  C7  UNL     1     -33.600   7.739   4.375  1.00 20.00     0.015 C 
ENDBRANCH   2   8
TORSDOF 3
ENDMDL
MODEL 2
REMARK VINA RESULT:      -0.5      0.034      1.306
REMARK  3 active torsions:
REMARK  status: ('A' for Active; 'I' for Inactive)
REMARK    1  A    between atoms: C1_1  and  C8_8 
REMARK    2  A    between atoms: C1_1  and  C9_9 
REMARK    3  A    between atoms: C9_9  and  C10_10 
ROOT
HETATM    1  C4  UNL     1     -32.537   5.582   1.507  1.00 20.00     0.018 C 
HETATM    2  C9  UNL     1     -33.336   6.808   1.962  1.00 20.00     0.059 C 
ENDROOT
BRANCH   2   3
HETATM    3  C1  UNL     1     -32.402   8.026   1.909  1.00 20.00     0.134 C 
HETATM    4  O11 UNL     1     -31.581   8.246   2.801  1.00 20.00    -0.297 OA
BRANCH   3   5
HETATM    5  C8  UNL     1     -32.509   8.930   0.681  1.00 20.00     0.048 C 
HETATM    6  C2  UNL     1     -31.219   8.850  -0.126  1.00 20.00     0.017 C 
HETATM    7  C3  UNL     1     -32.810  10.370   1.088  1.00 20.00     0.017 C 
ENDBRANCH   3   5
ENDBRANCH   2   3
BRANCH   2   8
HETATM    8  C10 UNL     1     -34.058   6.655   3.341  1.00 20.00    -0.041 C 
HETATM    9  C5  UNL     1     -35.578   6.863   3.160  1.00 20.00     0.015 C 
HETATM   10  C6  UNL     1     -33.560   7.733   4.326  1.00 20.00     0.015 C 
HETATM   11  C7  UNL     1     -33.842   5.272   3.984  1.00 20.00     0.015 C 
ENDBRANCH   2   8
TORSDOF 3
ENDMDL
MODEL 3
REMARK VINA RESULT:      -0.5      0.043      1.303
REMARK  3 active torsions:
REMARK  status: ('A' for Active; 'I' for Inactive)
REMARK    1  A    between atoms: C1_1  and  C8_8 
REMARK    2  A    between atoms: C1_1  and  C9_9 
REMARK    3  A    between atoms: C9_9  and  C10_10 
ROOT
HETATM    1  C4  UNL     1     -32.546   5.576   1.488  1.00 20.00     0.018 C 
HETATM    2  C9  UNL     1     -33.336   6.811   1.939  1.00 20.00     0.059 C 
ENDROOT
BRANCH   2   3
HETATM    3  C1  UNL     1     -32.389   8.019   1.889  1.00 20.00     0.134 C 
HETATM    4  O11 UNL     1     -31.559   8.223   2.777  1.00 20.00    -0.297 OA
BRANCH   3   5
HETATM    5  C8  UNL     1     -32.496   8.935   0.670  1.00 20.00     0.048 C 
HETATM    6  C2  UNL     1     -31.202   8.869  -0.132  1.00 20.00     0.017 C 
HETATM    7  C3  UNL     1     -32.807  10.369   1.090  1.00 20.00     0.017 C 
ENDBRANCH   3   5
ENDBRANCH   2   3
BRANCH   2   8
HETATM    8  C10 UNL     1     -34.065   6.665   3.315  1.00 20.00    -0.041 C 
HETATM    9  C5  UNL     1     -33.533   7.728   4.302  1.00 20.00     0.015 C 
HETATM   10  C6  UNL     1     -33.772   5.280   3.930  1.00 20.00     0.015 C 
HETATM   11  C7  UNL     1     -35.592   6.835   3.210  1.00 20.00     0.015 C 
ENDBRANCH   2   8
TORSDOF 3
ENDMDL
MODEL 4
REMARK VINA RESULT:       0.1      1.529      4.385
REMARK  3 active torsions:
REMARK  status: ('A' for Active; 'I' for Inactive)
REMARK    1  A    between atoms: C1_1  and  C8_8 
REMARK    2  A    between atoms: C1_1  and  C9_9 
REMARK    3  A    between atoms: C9_9  and  C10_10 
ROOT
HETATM    1  C4  UNL     1     -33.592   8.000   4.235  1.00 20.00     0.018 C 
HETATM    2  C9  UNL     1     -33.472   7.516   2.785  1.00 20.00     0.059 C 
ENDROOT
BRANCH   2   3
HETATM    3  C1  UNL     1     -33.607   5.986   2.786  1.00 20.00     0.134 C 
HETATM    4  O11 UNL     1     -33.292   5.312   1.804  1.00 20.00    -0.297 OA
BRANCH   3   5
HETATM    5  C8  UNL     1     -34.113   5.336   4.073  1.00 20.00     0.048 C 
HETATM    6  C2  UNL     1     -33.774   3.850   4.061  1.00 20.00     0.017 C 
HETATM    7  C3  UNL     1     -35.615   5.551   4.239  1.00 20.00     0.017 C 
ENDBRANCH   3   5
ENDBRANCH   2   3
BRANCH   2   8
HETATM    8  C10 UNL     1     -32.199   8.015   2.023  1.00 20.00    -0.041 C 
HETATM    9  C5  UNL     1     -31.219   8.671   3.020  1.00 20.00     0.015 C 
HETATM   10  C6  UNL     1     -32.586   9.088   0.984  1.00 20.00     0.015 C 
HETATM   11  C7  UNL     1     -31.450   6.882   1.295  1.00 20.00     0.015 C 
ENDBRANCH   2   8
TORSDOF 3
ENDMDL
MODEL 5
REMARK VINA RESULT:       1.0      1.222      4.240
REMARK  3 active torsions:
REMARK  status: ('A' for Active; 'I' for Inactive)
REMARK    1  A    between atoms: C1_1  and  C8_8 
REMARK    2  A    between atoms: C1_1  and  C9_9 
REMARK    3  A    between atoms: C9_9  and  C10_10 
ROOT
HETATM    1  C4  UNL     1     -32.946   5.768   1.099  1.00 20.00     0.018 C 
HETATM    2  C9  UNL     1     -32.401   6.682   2.202  1.00 20.00     0.059 C 
ENDROOT
BRANCH   2   3
HETATM    3  C1  UNL     1     -33.439   6.724   3.334  1.00 20.00     0.134 C 
HETATM    4  O11 UNL     1     -33.472   7.655   4.141  1.00 20.00    -0.297 OA
BRANCH   3   5
HETATM    5  C8  UNL     1     -34.451   5.581   3.389  1.00 20.00     0.048 C 
HETATM    6  C2  UNL     1     -35.712   6.051   4.106  1.00 20.00     0.017 C 
HETATM    7  C3  UNL     1     -33.856   4.357   4.079  1.00 20.00     0.017 C 
ENDBRANCH   3   5
ENDBRANCH   2   3
BRANCH   2   8
HETATM    8  C10 UNL     1     -31.961   8.106   1.726  1.00 20.00    -0.041 C 
HETATM    9  C5  UNL     1     -31.213   7.997   0.379  1.00 20.00     0.015 C 
HETATM   10  C6  UNL     1     -30.984   8.730   2.745  1.00 20.00     0.015 C 
HETATM   11  C7  UNL     1     -33.145   9.071   1.535  1.00 20.00     0.015 C 
ENDBRANCH   2   8
TORSDOF 3
ENDMDL
MODEL 6
REMARK VINA RESULT:       1.1      1.130      4.290
REMARK  3 active torsions:
REMARK  status: ('A' for Active; 'I' for Inactive)
REMARK    1  A    between atoms: C1_1  and  C8_8 
REMARK    2  A    between atoms: C1_1  and  C9_9 
REMARK    3  A    between atoms: C9_9  and  C10_10 
ROOT
HETATM    1  C4  UNL     1     -31.014   8.422   2.916  1.00 20.00     0.018 C 
HETATM    2  C9  UNL     1     -32.314   8.323   2.110  1.00 20.00     0.059 C 
ENDROOT
BRANCH   2   3
HETATM    3  C1  UNL     1     -32.753   6.851   2.104  1.00 20.00     0.134 C 
HETATM    4  O11 UNL     1     -32.111   5.991   1.499  1.00 20.00    -0.297 OA
BRANCH   3   5
HETATM    5  C8  UNL     1     -34.000   6.497   2.914  1.00 20.00     0.048 C 
HETATM    6  C2  UNL     1     -34.178   7.504   4.044  1.00 20.00     0.017 C 
HETATM    7  C3  UNL     1     -33.911   5.074   3.460  1.00 20.00     0.017 C 
ENDBRANCH   3   5
ENDBRANCH   2   3
BRANCH   2   8
HETATM    8  C10 UNL     1     -32.254   8.946   0.676  1.00 20.00    -0.041 C 
HETATM    9  C5  UNL     1     -30.800   8.914   0.154  1.00 20.00     0.015 C 
HETATM   10  C6  UNL     1     -32.695  10.424   0.718  1.00 20.00     0.015 C 
HETATM   11  C7  UNL     1     -33.141   8.204  -0.341  1.00 20.00     0.015 C 
ENDBRANCH   2   8
TORSDOF 3
ENDMDL
MODEL 7
REMARK VINA RESULT:       1.4      2.372      4.963
REMARK  3 active torsions:
REMARK  status: ('A' for Active; 'I' for Inactive)
REMARK    1  A    between atoms: C1_1  and  C8_8 
REMARK    2  A    between atoms: C1_1  and  C9_9 
REMARK    3  A    between atoms: C9_9  and  C10_10 
ROOT
HETATM    1  C4  UNL     1     -33.096   5.075   1.913  1.00 20.00     0.018 C 
HETATM    2  C9  UNL     1     -33.204   5.550   3.367  1.00 20.00     0.059 C 
ENDROOT
BRANCH   2   3
HETATM    3  C1  UNL     1     -33.807   4.404   4.193  1.00 20.00     0.134 C 
HETATM    4  O11 UNL     1     -35.014   4.354   4.438  1.00 20.00    -0.297 OA
BRANCH   3   5
HETATM    5  C8  UNL     1     -32.850   3.310   4.663  1.00 20.00     0.048 C 
HETATM    6  C2  UNL     1     -33.457   1.942   4.374  1.00 20.00     0.017 C 
HETATM    7  C3  UNL     1     -32.532   3.463   6.148  1.00 20.00     0.017 C 
ENDBRANCH   3   5
ENDBRANCH   2   3
BRANCH   2   8
HETATM    8  C10 UNL     1     -33.958   6.906   3.566  1.00 20.00    -0.041 C 
HETATM    9  C5  UNL     1     -33.548   7.899   2.455  1.00 20.00     0.015 C 
HETATM   10  C6  UNL     1     -33.566   7.541   4.917  1.00 20.00     0.015 C 
HETATM   11  C7  UNL     1     -35.490   6.756   3.527  1.00 20.00     0.015 C 
ENDBRANCH   2   8
TORSDOF 3
ENDMDL
MODEL 8
REMARK VINA RESULT:       1.4      1.412      2.569
REMARK  3 active torsions:
REMARK  status: ('A' for Active; 'I' for Inactive)
REMARK    1  A    between atoms: C1_1  and  C8_8 
REMARK    2  A    between atoms: C1_1  and  C9_9 
REMARK    3  A    between atoms: C9_9  and  C10_10 
ROOT
HETATM    1  C4  UNL     1     -32.999   8.416   3.130  1.00 20.00     0.018 C 
HETATM    2  C9  UNL     1     -32.158   7.627   2.120  1.00 20.00     0.059 C 
ENDROOT
BRANCH   2   3
HETATM    3  C1  UNL     1     -31.827   8.564   0.949  1.00 20.00     0.134 C 
HETATM    4  O11 UNL     1     -30.823   8.395   0.254  1.00 20.00    -0.297 OA
BRANCH   3   5
HETATM    5  C8  UNL     1     -32.817   9.692   0.662  1.00 20.00     0.048 C 
HETATM    6  C2  UNL     1     -32.969   9.865  -0.845  1.00 20.00     0.017 C 
HETATM    7  C3  UNL     1     -32.368  10.994   1.319  1.00 20.00     0.017 C 
ENDBRANCH   3   5
ENDBRANCH   2   3
BRANCH   2   8
HETATM    8  C10 UNL     1     -32.782   6.269   1.655  1.00 20.00    -0.041 C 
HETATM    9  C5  UNL     1     -33.691   5.704   2.769  1.00 20.00     0.015 C 
HETATM   10  C6  UNL     1     -31.670   5.231   1.398  1.00 20.00     0.015 C 
HETATM   11  C7  UNL     1     -33.627   6.401   0.374  1.00 20.00     0.015 C 
ENDBRANCH   2   8
TORSDOF 3
ENDMDL
MODEL 9
REMARK VINA RESULT:       1.5      1.430      3.823
REMARK  3 active torsions:
REMARK  status: ('A' for Active; 'I' for Inactive)
REMARK    1  A    between atoms: C1_1  and  C8_8 
REMARK    2  A    between atoms: C1_1  and  C9_9 
REMARK    3  A    between atoms: C9_9  and  C10_10 
ROOT
HETATM    1  C4  UNL     1     -32.369   8.230   1.873  1.00 20.00     0.018 C 
HETATM    2  C9  UNL     1     -33.359   7.096   2.162  1.00 20.00     0.059 C 
ENDROOT
BRANCH   2   3
HETATM    3  C1  UNL     1     -33.741   7.172   3.647  1.00 20.00     0.134 C 
HETATM    4  O11 UNL     1     -32.948   7.583   4.496  1.00 20.00    -0.297 OA
BRANCH   3   5
HETATM    5  C8  UNL     1     -35.163   6.752   4.020  1.00 20.00     0.048 C 
HETATM    6  C2  UNL     1     -35.155   5.310   4.514  1.00 20.00     0.017 C 
HETATM    7  C3  UNL     1     -36.110   6.917   2.834  1.00 20.00     0.017 C 
ENDBRANCH   3   5
ENDBRANCH   2   3
BRANCH   2   8
HETATM    8  C10 UNL     1     -32.880   5.672   1.728  1.00 20.00    -0.041 C 
HETATM    9  C5  UNL     1     -31.392   5.726   1.313  1.00 20.00     0.015 C 
HETATM   10  C6  UNL     1     -33.683   5.189   0.503  1.00 20.00     0.015 C 
HETATM   11  C7  UNL     1     -33.022   4.621   2.846  1.00 20.00     0.015 C 
ENDBRANCH   2   8
TORSDOF 3
ENDMDL
