MODEL 1
REMARK VINA RESULT:      -2.5      0.000      0.000
REMARK  3 active torsions:
REMARK  status: ('A' for Active; 'I' for Inactive)
REMARK    1  A    between atoms: C2_2  and  C6_6 
REMARK    2  A    between atoms: C3_3  and  C7_7 
REMARK    3  A    between atoms: C3_3  and  O8_8 
ROOT
HETATM    1  C1  UNL     1     -32.261   6.454   1.797  1.00 20.00     0.045 A 
HETATM    2  C2  UNL     1     -33.431   7.299   2.229  1.00 20.00     0.022 A 
HETATM    3  C3  UNL     1     -32.144   7.957   1.790  1.00 20.00     0.062 A 
ENDROOT
BRANCH   3   4
HETATM    4  C7  UNL     1     -32.087   8.691   0.492  1.00 20.00     0.034 C 
HETATM    5  C5  UNL     1     -32.505  10.134   0.616  1.00 20.00     0.008 C 
ENDBRANCH   3   4
BRANCH   3   6
HETATM    6  O8  UNL     1     -31.311   8.526   2.814  1.00 20.00    -0.389 OA
HETATM    7  H22 UNL     1     -30.687   9.104   2.355  1.00 20.00     0.210 HD
ENDBRANCH   3   6
BRANCH   2   8
HETATM    8  C6  UNL     1     -33.864   7.305   3.654  1.00 20.00     0.003 C 
HETATM    9  C4  UNL     1     -35.041   6.400   3.915  1.00 20.00     0.005 C 
ENDBRANCH   2   8
TORSDOF 3
ENDMDL
MODEL 2
REMARK VINA RESULT:      -2.2      1.287      3.761
REMARK  3 active torsions:
REMARK  status: ('A' for Active; 'I' for Inactive)
REMARK    1  A    between atoms: C2_2  and  C6_6 
REMARK    2  A    between atoms: C3_3  and  C7_7 
REMARK    3  A    between atoms: C3_3  and  O8_8 
ROOT
HETATM    1  C1  UNL     1     -31.416   7.996   2.615  1.00 20.00     0.045 A 
HETATM    2  C2  UNL     1     -32.418   8.766   1.795  1.00 20.00     0.022 A 
HETATM    3  C3  UNL     1     -32.834   7.499   2.502  1.00 20.00     0.062 A 
ENDROOT
BRANCH   3   4
HETATM    4  C7  UNL     1     -33.743   7.569   3.684  1.00 20.00     0.034 C 
HETATM    5  C5  UNL     1     -34.746   6.445   3.721  1.00 20.00     0.008 C 
ENDBRANCH   3   4
BRANCH   3   6
HETATM    6  O8  UNL     1     -33.025   6.324   1.695  1.00 20.00    -0.389 OA
HETATM    7  H22 UNL     1     -33.948   6.067   1.819  1.00 20.00     0.210 HD
ENDBRANCH   3   6
BRANCH   2   8
HETATM    8  C6  UNL     1     -32.284   8.824   0.312  1.00 20.00     0.003 C 
HETATM    9  C4  UNL     1     -32.648  10.171  -0.260  1.00 20.00     0.005 C 
ENDBRANCH   2   8
TORSDOF 3
ENDMDL
MODEL 3
REMARK VINA RESULT:      -2.0      2.231      3.210
REMARK  3 active torsions:
REMARK  status: ('A' for Active; 'I' for Inactive)
REMARK    1  A    between atoms: C2_2  and  C6_6 
REMARK    2  A    between atoms: C3_3  and  C7_7 
REMARK    3  A    between atoms: C3_3  and  O8_8 
ROOT
HETATM    1  C1  UNL     1     -35.119   6.291   3.667  1.00 20.00     0.045 A 
HETATM    2  C2  UNL     1     -34.005   5.424   4.195  1.00 20.00     0.022 A 
HETATM    3  C3  UNL     1     -33.736   6.402   3.077  1.00 20.00     0.062 A 
ENDROOT
BRANCH   3   4
HETATM    4  C7  UNL     1     -32.915   7.621   3.336  1.00 20.00     0.034 C 
HETATM    5  C5  UNL     1     -32.086   8.034   2.147  1.00 20.00     0.008 C 
ENDBRANCH   3   4
BRANCH   3   6
HETATM    6  O8  UNL     1     -33.573   5.865   1.754  1.00 20.00    -0.389 OA
HETATM    7  H22 UNL     1     -33.331   4.938   1.874  1.00 20.00     0.210 HD
ENDBRANCH   3   6
BRANCH   2   8
HETATM    8  C6  UNL     1     -34.025   3.953   3.957  1.00 20.00     0.003 C 
HETATM    9  C4  UNL     1     -33.150   3.190   4.918  1.00 20.00     0.005 C 
ENDBRANCH   2   8
TORSDOF 3
ENDMDL
MODEL 4
REMARK VINA RESULT:      -1.4      1.473      4.007
REMARK  3 active torsions:
REMARK  status: ('A' for Active; 'I' for Inactive)
REMARK    1  A    between atoms: C2_2  and  C6_6 
REMARK    2  A    between atoms: C3_3  and  C7_7 
REMARK    3  A    between atoms: C3_3  and  O8_8 
ROOT
HETATM    1  C1  UNL     1     -32.763   7.718   4.084  1.00 20.00     0.045 A 
HETATM    2  C2  UNL     1     -33.169   8.110   2.687  1.00 20.00     0.022 A 
HETATM    3  C3  UNL     1     -33.683   6.825   3.291  1.00 20.00     0.062 A 
ENDROOT
BRANCH   3   4
HETATM    4  C7  UNL     1     -35.119   6.706   3.679  1.00 20.00     0.034 C 
HETATM    5  C5  UNL     1     -35.426   5.421   4.404  1.00 20.00     0.008 C 
ENDBRANCH   3   4
BRANCH   3   6
HETATM    6  O8  UNL     1     -33.108   5.596   2.815  1.00 20.00    -0.389 OA
HETATM    7  H22 UNL     1     -32.187   5.799   2.608  1.00 20.00     0.210 HD
ENDBRANCH   3   6
BRANCH   2   8
HETATM    8  C6  UNL     1     -32.164   8.109   1.588  1.00 20.00     0.003 C 
HETATM    9  C4  UNL     1     -32.281   9.308   0.681  1.00 20.00     0.005 C 
ENDBRANCH   2   8
TORSDOF 3
ENDMDL
MODEL 5
REMARK VINA RESULT:      -1.0      1.894      4.042
REMARK  3 active torsions:
REMARK  status: ('A' for Active; 'I' for Inactive)
REMARK    1  A    between atoms: C2_2  and  C6_6 
REMARK    2  A    between atoms: C3_3  and  C7_7 
REMARK    3  A    between atoms: C3_3  and  O8_8 
ROOT
HETATM    1  C1  UNL     1     -33.484   6.129   1.211  1.00 20.00     0.045 A 
HETATM    2  C2  UNL     1     -32.289   6.649   1.968  1.00 20.00     0.022 A 
HETATM    3  C3  UNL     1     -33.409   5.958   2.707  1.00 20.00     0.062 A 
ENDROOT
BRANCH   3   4
HETATM    4  C7  UNL     1     -33.192   4.602   3.289  1.00 20.00     0.034 C 
HETATM    5  C5  UNL     1     -34.224   4.236   4.326  1.00 20.00     0.008 C 
ENDBRANCH   3   4
BRANCH   3   6
HETATM    6  O8  UNL     1     -34.300   6.783   3.478  1.00 20.00    -0.389 OA
HETATM    7  H22 UNL     1     -34.150   7.688   3.173  1.00 20.00     0.210 HD
ENDBRANCH   3   6
BRANCH   2   8
HETATM    8  C6  UNL     1     -32.062   8.117   2.090  1.00 20.00     0.003 C 
HETATM    9  C4  UNL     1     -32.098   8.830   0.762  1.00 20.00     0.005 C 
ENDBRANCH   2   8
TORSDOF 3
ENDMDL
MODEL 6
REMARK VINA RESULT:      -0.7      1.600      3.640
REMARK  3 active torsions:
REMARK  status: ('A' for Active; 'I' for Inactive)
REMARK    1  A    between atoms: C2_2  and  C6_6 
REMARK    2  A    between atoms: C3_3  and  C7_7 
REMARK    3  A    between atoms: C3_3  and  O8_8 
ROOT
HETATM    1  C1  UNL     1     -32.487   8.461   2.836  1.00 20.00     0.045 A 
HETATM    2  C2  UNL     1     -32.833   8.693   1.388  1.00 20.00     0.022 A 
HETATM    3  C3  UNL     1     -32.193   7.394   1.812  1.00 20.00     0.062 A 
ENDROOT
BRANCH   3   4
HETATM    4  C7  UNL     1     -32.991   6.133   1.804  1.00 20.00     0.034 C 
HETATM    5  C5  UNL     1     -32.294   5.001   1.093  1.00 20.00     0.008 C 
ENDBRANCH   3   4
BRANCH   3   6
HETATM    6  O8  UNL     1     -30.806   7.203   1.485  1.00 20.00    -0.389 OA
HETATM    7  H22 UNL     1     -30.332   7.226   2.327  1.00 20.00     0.210 HD
ENDBRANCH   3   6
BRANCH   2   8
HETATM    8  C6  UNL     1     -32.086   9.709   0.594  1.00 20.00     0.003 C 
HETATM    9  C4  UNL     1     -32.838  10.169  -0.629  1.00 20.00     0.005 C 
ENDBRANCH   2   8
TORSDOF 3
ENDMDL
MODEL 7
REMARK VINA RESULT:      -0.7      1.394      1.780
REMARK  3 active torsions:
REMARK  status: ('A' for Active; 'I' for Inactive)
REMARK    1  A    between atoms: C2_2  and  C6_6 
REMARK    2  A    between atoms: C3_3  and  C7_7 
REMARK    3  A    between atoms: C3_3  and  O8_8 
ROOT
HETATM    1  C1  UNL     1     -33.113   6.086   2.764  1.00 20.00     0.045 A 
HETATM    2  C2  UNL     1     -34.422   6.813   2.933  1.00 20.00     0.022 A 
HETATM    3  C3  UNL     1     -33.118   7.549   3.127  1.00 20.00     0.062 A 
ENDROOT
BRANCH   3   4
HETATM    4  C7  UNL     1     -32.680   8.564   2.125  1.00 20.00     0.034 C 
HETATM    5  C5  UNL     1     -31.604   8.052   1.202  1.00 20.00     0.008 C 
ENDBRANCH   3   4
BRANCH   3   6
HETATM    6  O8  UNL     1     -32.730   7.862   4.476  1.00 20.00    -0.389 OA
HETATM    7  H22 UNL     1     -32.140   8.625   4.409  1.00 20.00     0.210 HD
ENDBRANCH   3   6
BRANCH   2   8
HETATM    8  C6  UNL     1     -35.314   6.489   4.082  1.00 20.00     0.003 C 
HETATM    9  C4  UNL     1     -35.284   5.029   4.457  1.00 20.00     0.005 C 
ENDBRANCH   2   8
TORSDOF 3
ENDMDL
MODEL 8
REMARK VINA RESULT:      -0.6      1.830      2.827
REMARK  3 active torsions:
REMARK  status: ('A' for Active; 'I' for Inactive)
REMARK    1  A    between atoms: C2_2  and  C6_6 
REMARK    2  A    between atoms: C3_3  and  C7_7 
REMARK    3  A    between atoms: C3_3  and  O8_8 
ROOT
HETATM    1  C1  UNL     1     -32.296   7.946   2.148  1.00 20.00     0.045 A 
HETATM    2  C2  UNL     1     -32.997   7.069   3.153  1.00 20.00     0.022 A 
HETATM    3  C3  UNL     1     -32.709   6.548   1.766  1.00 20.00     0.062 A 
ENDROOT
BRANCH   3   4
HETATM    4  C7  UNL     1     -31.670   5.495   1.567  1.00 20.00     0.034 C 
HETATM    5  C5  UNL     1     -32.031   4.512   0.482  1.00 20.00     0.008 C 
ENDBRANCH   3   4
BRANCH   3   6
HETATM    6  O8  UNL     1     -33.816   6.448   0.854  1.00 20.00    -0.389 OA
HETATM    7  H22 UNL     1     -33.691   7.157   0.210  1.00 20.00     0.210 HD
ENDBRANCH   3   6
BRANCH   2   8
HETATM    8  C6  UNL     1     -34.383   7.395   3.591  1.00 20.00     0.003 C 
HETATM    9  C4  UNL     1     -35.144   6.190   4.083  1.00 20.00     0.005 C 
ENDBRANCH   2   8
TORSDOF 3
ENDMDL
MODEL 9
REMARK VINA RESULT:      -0.6      1.561      2.067
REMARK  3 active torsions:
REMARK  status: ('A' for Active; 'I' for Inactive)
REMARK    1  A    between atoms: C2_2  and  C6_6 
REMARK    2  A    between atoms: C3_3  and  C7_7 
REMARK    3  A    between atoms: C3_3  and  O8_8 
ROOT
HETATM    1  C1  UNL     1     -34.337   7.493   2.623  1.00 20.00     0.045 A 
HETATM    2  C2  UNL     1     -33.536   6.611   3.546  1.00 20.00     0.022 A 
HETATM    3  C3  UNL     1     -33.029   6.908   2.155  1.00 20.00     0.062 A 
ENDROOT
BRANCH   3   4
HETATM    4  C7  UNL     1     -31.844   7.796   1.968  1.00 20.00     0.034 C 
HETATM    5  C5  UNL     1     -32.107   8.932   1.012  1.00 20.00     0.008 C 
ENDBRANCH   3   4
BRANCH   3   6
HETATM    6  O8  UNL     1     -33.125   5.858   1.178  1.00 20.00    -0.389 OA
HETATM    7  H22 UNL     1     -33.610   6.235   0.432  1.00 20.00     0.210 HD
ENDBRANCH   3   6
BRANCH   2   8
HETATM    8  C6  UNL     1     -34.045   5.262   3.919  1.00 20.00     0.003 C 
HETATM    9  C4  UNL     1     -35.443   5.295   4.482  1.00 20.00     0.005 C 
ENDBRANCH   2   8
TORSDOF 3
ENDMDL
