MODEL 1
REMARK VINA RESULT:      -1.1      0.000      0.000
REMARK  2 active torsions:
REMARK  status: ('A' for Active; 'I' for Inactive)
REMARK    1  A    between atoms: C4_4  and  C7_7 
REMARK    2  A    between atoms: C7_7  and  C8_8 
ROOT
HETATM    1  C1  UNL     1     -33.241   4.995   3.687  1.00 20.00     0.034 C 
HETATM    2  C2  UNL     1     -34.224   3.979   4.231  1.00 20.00     0.168 C 
HETATM    3  C3  UNL     1     -35.280   6.054   4.156  1.00 20.00     0.173 C 
HETATM    4  C4  UNL     1     -34.169   6.047   3.121  1.00 20.00     0.026 C 
HETATM    5  O9  UNL     1     -35.387   4.709   4.646  1.00 20.00    -0.391 OA
ENDROOT
BRANCH   4   6
HETATM    6  C7  UNL     1     -33.520   7.402   2.911  1.00 20.00     0.067 C 
HETATM    7 BR10 UNL     1     -33.163   8.197   4.675  1.00 20.00    -0.090 Br
BRANCH   6   8
HETATM    8  C8  UNL     1     -32.237   7.414   2.057  1.00 20.00    -0.008 C 
HETATM    9  C5  UNL     1     -32.152   8.700   1.227  1.00 20.00     0.011 C 
HETATM   10  C6  UNL     1     -32.089   6.212   1.152  1.00 20.00     0.011 C 
ENDBRANCH   6   8
ENDBRANCH   4   6
TORSDOF 2
ENDMDL
MODEL 2
REMARK VINA RESULT:      -0.3      2.040      2.729
REMARK  2 active torsions:
REMARK  status: ('A' for Active; 'I' for Inactive)
REMARK    1  A    between atoms: C4_4  and  C7_7 
REMARK    2  A    between atoms: C7_7  and  C8_8 
ROOT
HETATM    1  C1  UNL     1     -34.099   6.306   2.887  1.00 20.00     0.034 C 
HETATM    2  C2  UNL     1     -34.971   6.490   4.112  1.00 20.00     0.168 C 
HETATM    3  C3  UNL     1     -33.313   8.126   4.139  1.00 20.00     0.173 C 
HETATM    4  C4  UNL     1     -33.536   7.697   2.700  1.00 20.00     0.026 C 
HETATM    5  O9  UNL     1     -34.351   7.506   4.913  1.00 20.00    -0.391 OA
ENDROOT
BRANCH   4   6
HETATM    6  C7  UNL     1     -32.285   7.751   1.845  1.00 20.00     0.067 C 
HETATM    7 BR10 UNL     1     -31.877   5.928   1.226  1.00 20.00    -0.090 Br
BRANCH   6   8
HETATM    8  C8  UNL     1     -32.325   8.720   0.646  1.00 20.00    -0.008 C 
HETATM    9  C5  UNL     1     -30.974   8.739  -0.079  1.00 20.00     0.011 C 
HETATM   10  C6  UNL     1     -32.730  10.130   1.007  1.00 20.00     0.011 C 
ENDBRANCH   6   8
ENDBRANCH   4   6
TORSDOF 2
ENDMDL
MODEL 3
REMARK VINA RESULT:      -0.1      2.309      4.348
REMARK  2 active torsions:
REMARK  status: ('A' for Active; 'I' for Inactive)
REMARK    1  A    between atoms: C4_4  and  C7_7 
REMARK    2  A    between atoms: C7_7  and  C8_8 
ROOT
HETATM    1  C1  UNL     1     -33.075   8.979   1.950  1.00 20.00     0.034 C 
HETATM    2  C2  UNL     1     -32.309   9.401   0.713  1.00 20.00     0.168 C 
HETATM    3  C3  UNL     1     -31.455   7.360   1.444  1.00 20.00     0.173 C 
HETATM    4  C4  UNL     1     -32.890   7.478   1.928  1.00 20.00     0.026 C 
HETATM    5  O9  UNL     1     -31.237   8.461   0.549  1.00 20.00    -0.391 OA
ENDROOT
BRANCH   4   6
HETATM    6  C7  UNL     1     -33.144   6.801   3.261  1.00 20.00     0.067 C 
HETATM    7 BR10 UNL     1     -33.471   8.194   4.612  1.00 20.00    -0.090 Br
BRANCH   6   8
HETATM    8  C8  UNL     1     -34.282   5.761   3.288  1.00 20.00    -0.008 C 
HETATM    9  C5  UNL     1     -35.504   6.316   4.029  1.00 20.00     0.011 C 
HETATM   10  C6  UNL     1     -33.885   4.429   3.884  1.00 20.00     0.011 C 
ENDBRANCH   6   8
ENDBRANCH   4   6
TORSDOF 2
ENDMDL
MODEL 4
REMARK VINA RESULT:      -0.1      1.890      2.102
REMARK  2 active torsions:
REMARK  status: ('A' for Active; 'I' for Inactive)
REMARK    1  A    between atoms: C4_4  and  C7_7 
REMARK    2  A    between atoms: C7_7  and  C8_8 
ROOT
HETATM    1  C1  UNL     1     -33.893   4.777   3.722  1.00 20.00     0.034 C 
HETATM    2  C2  UNL     1     -35.218   4.881   4.448  1.00 20.00     0.168 C 
HETATM    3  C3  UNL     1     -34.567   7.022   3.802  1.00 20.00     0.173 C 
HETATM    4  C4  UNL     1     -33.916   6.022   2.863  1.00 20.00     0.026 C 
HETATM    5  O9  UNL     1     -35.497   6.279   4.605  1.00 20.00    -0.391 OA
ENDROOT
BRANCH   4   6
HETATM    6  C7  UNL     1     -32.553   6.455   2.357  1.00 20.00     0.067 C 
HETATM    7 BR10 UNL     1     -32.132   5.413   0.742  1.00 20.00    -0.090 Br
BRANCH   6   8
HETATM    8  C8  UNL     1     -32.382   7.960   2.074  1.00 20.00    -0.008 C 
HETATM    9  C5  UNL     1     -31.798   8.185   0.675  1.00 20.00     0.011 C 
HETATM   10  C6  UNL     1     -31.544   8.688   3.100  1.00 20.00     0.011 C 
ENDBRANCH   6   8
ENDBRANCH   4   6
TORSDOF 2
ENDMDL
MODEL 5
REMARK VINA RESULT:       0.0      1.754      2.296
REMARK  2 active torsions:
REMARK  status: ('A' for Active; 'I' for Inactive)
REMARK    1  A    between atoms: C4_4  and  C7_7 
REMARK    2  A    between atoms: C7_7  and  C8_8 
ROOT
HETATM    1  C1  UNL     1     -34.755   6.764   3.507  1.00 20.00     0.034 C 
HETATM    2  C2  UNL     1     -35.529   5.872   4.455  1.00 20.00     0.168 C 
HETATM    3  C3  UNL     1     -33.799   4.623   3.521  1.00 20.00     0.173 C 
HETATM    4  C4  UNL     1     -33.403   6.089   3.486  1.00 20.00     0.026 C 
HETATM    5  O9  UNL     1     -35.002   4.547   4.301  1.00 20.00    -0.391 OA
ENDROOT
BRANCH   4   6
HETATM    6  C7  UNL     1     -32.540   6.461   2.294  1.00 20.00     0.067 C 
HETATM    7 BR10 UNL     1     -33.246   5.537   0.707  1.00 20.00    -0.090 Br
BRANCH   6   8
HETATM    8  C8  UNL     1     -32.394   7.968   2.007  1.00 20.00    -0.008 C 
HETATM    9  C5  UNL     1     -31.783   8.198   0.620  1.00 20.00     0.011 C 
HETATM   10  C6  UNL     1     -31.594   8.718   3.048  1.00 20.00     0.011 C 
ENDBRANCH   6   8
ENDBRANCH   4   6
TORSDOF 2
ENDMDL
MODEL 6
REMARK VINA RESULT:       0.1      3.014      4.725
REMARK  2 active torsions:
REMARK  status: ('A' for Active; 'I' for Inactive)
REMARK    1  A    between atoms: C4_4  and  C7_7 
REMARK    2  A    between atoms: C7_7  and  C8_8 
ROOT
HETATM    1  C1  UNL     1     -31.416   7.761   0.901  1.00 20.00     0.034 C 
HETATM    2  C2  UNL     1     -30.989   9.115   0.374  1.00 20.00     0.168 C 
HETATM    3  C3  UNL     1     -33.184   9.283   1.135  1.00 20.00     0.173 C 
HETATM    4  C4  UNL     1     -32.509   8.141   1.874  1.00 20.00     0.026 C 
HETATM    5  O9  UNL     1     -32.153   9.954   0.395  1.00 20.00    -0.391 OA
ENDROOT
BRANCH   4   6
HETATM    6  C7  UNL     1     -33.448   7.004   2.231  1.00 20.00     0.067 C 
HETATM    7 BR10 UNL     1     -32.683   5.329   1.538  1.00 20.00    -0.090 Br
BRANCH   6   8
HETATM    8  C8  UNL     1     -33.789   6.851   3.727  1.00 20.00    -0.008 C 
HETATM    9  C5  UNL     1     -35.208   6.297   3.905  1.00 20.00     0.011 C 
HETATM   10  C6  UNL     1     -33.633   8.124   4.528  1.00 20.00     0.011 C 
ENDBRANCH   6   8
ENDBRANCH   4   6
TORSDOF 2
ENDMDL
MODEL 7
REMARK VINA RESULT:       0.3      2.734      4.551
REMARK  2 active torsions:
REMARK  status: ('A' for Active; 'I' for Inactive)
REMARK    1  A    between atoms: C4_4  and  C7_7 
REMARK    2  A    between atoms: C7_7  and  C8_8 
ROOT
HETATM    1  C1  UNL     1     -32.412   8.460  -0.037  1.00 20.00     0.034 C 
HETATM    2  C2  UNL     1     -32.525   9.886  -0.536  1.00 20.00     0.168 C 
HETATM    3  C3  UNL     1     -32.790   9.896   1.778  1.00 20.00     0.173 C 
HETATM    4  C4  UNL     1     -31.978   8.671   1.397  1.00 20.00     0.026 C 
HETATM    5  O9  UNL     1     -32.912  10.689   0.588  1.00 20.00    -0.391 OA
ENDROOT
BRANCH   4   6
HETATM    6  C7  UNL     1     -32.213   7.476   2.300  1.00 20.00     0.067 C 
HETATM    7 BR10 UNL     1     -33.319   8.057   3.820  1.00 20.00    -0.090 Br
BRANCH   6   8
HETATM    8  C8  UNL     1     -32.840   6.235   1.634  1.00 20.00    -0.008 C 
HETATM    9  C5  UNL     1     -33.810   5.537   2.594  1.00 20.00     0.011 C 
HETATM   10  C6  UNL     1     -31.829   5.238   1.115  1.00 20.00     0.011 C 
ENDBRANCH   6   8
ENDBRANCH   4   6
TORSDOF 2
ENDMDL
MODEL 8
REMARK VINA RESULT:       0.5      2.026      4.036
REMARK  2 active torsions:
REMARK  status: ('A' for Active; 'I' for Inactive)
REMARK    1  A    between atoms: C4_4  and  C7_7 
REMARK    2  A    between atoms: C7_7  and  C8_8 
ROOT
HETATM    1  C1  UNL     1     -32.267   8.285   2.462  1.00 20.00     0.034 C 
HETATM    2  C2  UNL     1     -31.752   8.082   1.052  1.00 20.00     0.168 C 
HETATM    3  C3  UNL     1     -32.599   6.053   1.823  1.00 20.00     0.173 C 
HETATM    4  C4  UNL     1     -33.288   7.176   2.578  1.00 20.00     0.026 C 
HETATM    5  O9  UNL     1     -31.835   6.676   0.779  1.00 20.00    -0.391 OA
ENDROOT
BRANCH   4   6
HETATM    6  C7  UNL     1     -33.657   6.816   4.005  1.00 20.00     0.067 C 
HETATM    7 BR10 UNL     1     -33.291   8.374   5.150  1.00 20.00    -0.090 Br
BRANCH   6   8
HETATM    8  C8  UNL     1     -35.100   6.323   4.229  1.00 20.00    -0.008 C 
HETATM    9  C5  UNL     1     -35.127   4.804   4.438  1.00 20.00     0.011 C 
HETATM   10  C6  UNL     1     -36.059   6.703   3.123  1.00 20.00     0.011 C 
ENDBRANCH   6   8
ENDBRANCH   4   6
TORSDOF 2
ENDMDL
MODEL 9
REMARK VINA RESULT:       0.5      1.568      2.266
REMARK  2 active torsions:
REMARK  status: ('A' for Active; 'I' for Inactive)
REMARK    1  A    between atoms: C4_4  and  C7_7 
REMARK    2  A    between atoms: C7_7  and  C8_8 
ROOT
HETATM    1  C1  UNL     1     -35.280   6.386   3.624  1.00 20.00     0.034 C 
HETATM    2  C2  UNL     1     -35.586   5.528   4.835  1.00 20.00     0.168 C 
HETATM    3  C3  UNL     1     -33.861   4.519   3.638  1.00 20.00     0.173 C 
HETATM    4  C4  UNL     1     -33.845   6.007   3.335  1.00 20.00     0.026 C 
HETATM    5  O9  UNL     1     -34.805   4.332   4.703  1.00 20.00    -0.391 OA
ENDROOT
BRANCH   4   6
HETATM    6  C7  UNL     1     -33.385   6.340   1.928  1.00 20.00     0.067 C 
HETATM    7 BR10 UNL     1     -31.986   7.719   2.044  1.00 20.00    -0.090 Br
BRANCH   6   8
HETATM    8  C8  UNL     1     -32.889   5.153   1.079  1.00 20.00    -0.008 C 
HETATM    9  C5  UNL     1     -31.407   5.325   0.723  1.00 20.00     0.011 C 
HETATM   10  C6  UNL     1     -33.692   4.918  -0.180  1.00 20.00     0.011 C 
ENDBRANCH   6   8
ENDBRANCH   4   6
TORSDOF 2
ENDMDL
