MODEL 1
REMARK VINA RESULT:      -1.8      0.000      0.000
REMARK  4 active torsions:
REMARK  status: ('A' for Active; 'I' for Inactive)
REMARK    1  A    between atoms: C2_2  and  C7_7 
REMARK    2  A    between atoms: C3_3  and  C8_8 
REMARK    3  A    between atoms: C3_3  and  O10_10 
REMARK    4  A    between atoms: C8_8  and  C9_9 
ROOT
HETATM    1  C1  UNL     1     -31.250   7.428   1.773  1.00 20.00     0.045 A 
HETATM    2  C2  UNL     1     -32.354   8.158   1.055  1.00 20.00     0.022 A 
HETATM    3  C3  UNL     1     -32.642   7.438   2.351  1.00 20.00     0.062 A 
ENDROOT
BRANCH   3   4
HETATM    4  C8  UNL     1     -33.476   6.165   2.344  1.00 20.00     0.042 C 
BRANCH   4   5
HETATM    5  C9  UNL     1     -34.053   5.799   3.723  1.00 20.00    -0.020 C 
HETATM    6  C5  UNL     1     -35.480   6.315   3.912  1.00 20.00     0.009 C 
HETATM    7  C6  UNL     1     -34.022   4.281   3.913  1.00 20.00     0.009 C 
ENDBRANCH   4   5
ENDBRANCH   3   4
BRANCH   3   8
HETATM    8  O10 UNL     1     -32.826   8.244   3.527  1.00 20.00    -0.389 OA
HETATM    9  H28 UNL     1     -33.674   8.693   3.411  1.00 20.00     0.210 HD
ENDBRANCH   3   8
BRANCH   2  10
HETATM   10  C7  UNL     1     -32.340   9.646   0.978  1.00 20.00     0.003 C 
HETATM   11  C4  UNL     1     -32.749  10.169  -0.376  1.00 20.00     0.005 C 
ENDBRANCH   2  10
TORSDOF 4
ENDMDL
MODEL 2
REMARK VINA RESULT:      -1.4      1.096      1.429
REMARK  4 active torsions:
REMARK  status: ('A' for Active; 'I' for Inactive)
REMARK    1  A    between atoms: C2_2  and  C7_7 
REMARK    2  A    between atoms: C3_3  and  C8_8 
REMARK    3  A    between atoms: C3_3  and  O10_10 
REMARK    4  A    between atoms: C8_8  and  C9_9 
ROOT
HETATM    1  C1  UNL     1     -31.428   7.479   1.082  1.00 20.00     0.045 A 
HETATM    2  C2  UNL     1     -32.594   8.429   0.995  1.00 20.00     0.022 A 
HETATM    3  C3  UNL     1     -32.246   7.777   2.312  1.00 20.00     0.062 A 
ENDROOT
BRANCH   3   4
HETATM    4  C8  UNL     1     -33.157   6.707   2.894  1.00 20.00     0.042 C 
BRANCH   4   5
HETATM    5  C9  UNL     1     -34.347   7.276   3.689  1.00 20.00    -0.020 C 
HETATM    6  C5  UNL     1     -35.374   6.202   4.048  1.00 20.00     0.009 C 
HETATM    7  C6  UNL     1     -33.842   7.957   4.963  1.00 20.00     0.009 C 
ENDBRANCH   4   5
ENDBRANCH   3   4
BRANCH   3   8
HETATM    8  O10 UNL     1     -31.607   8.597   3.305  1.00 20.00    -0.389 OA
HETATM    9  H28 UNL     1     -31.814   9.511   3.067  1.00 20.00     0.210 HD
ENDBRANCH   3   8
BRANCH   2  10
HETATM   10  C7  UNL     1     -32.360   9.882   0.759  1.00 20.00     0.003 C 
HETATM   11  C4  UNL     1     -32.763  10.325  -0.625  1.00 20.00     0.005 C 
ENDBRANCH   2  10
TORSDOF 4
ENDMDL
MODEL 3
REMARK VINA RESULT:      -1.3      1.274      4.768
REMARK  4 active torsions:
REMARK  status: ('A' for Active; 'I' for Inactive)
REMARK    1  A    between atoms: C2_2  and  C7_7 
REMARK    2  A    between atoms: C3_3  and  C8_8 
REMARK    3  A    between atoms: C3_3  and  O10_10 
REMARK    4  A    between atoms: C8_8  and  C9_9 
ROOT
HETATM    1  C1  UNL     1     -35.591   6.340   3.870  1.00 20.00     0.045 A 
HETATM    2  C2  UNL     1     -34.530   5.293   3.653  1.00 20.00     0.022 A 
HETATM    3  C3  UNL     1     -34.156   6.756   3.673  1.00 20.00     0.062 A 
ENDROOT
BRANCH   3   4
HETATM    4  C8  UNL     1     -33.737   7.450   2.385  1.00 20.00     0.042 C 
BRANCH   4   5
HETATM    5  C9  UNL     1     -32.250   7.258   2.037  1.00 20.00    -0.020 C 
HETATM    6  C5  UNL     1     -31.989   5.936   1.314  1.00 20.00     0.009 C 
HETATM    7  C6  UNL     1     -31.764   8.425   1.175  1.00 20.00     0.009 C 
ENDBRANCH   4   5
ENDBRANCH   3   4
BRANCH   3   8
HETATM    8  O10 UNL     1     -33.481   7.249   4.843  1.00 20.00    -0.389 OA
HETATM    9  H28 UNL     1     -32.936   6.517   5.162  1.00 20.00     0.210 HD
ENDBRANCH   3   8
BRANCH   2  10
HETATM   10  C7  UNL     1     -34.146   4.376   4.764  1.00 20.00     0.003 C 
HETATM   11  C4  UNL     1     -33.409   3.151   4.286  1.00 20.00     0.005 C 
ENDBRANCH   2  10
TORSDOF 4
ENDMDL
MODEL 4
REMARK VINA RESULT:      -0.7      1.208      4.537
REMARK  4 active torsions:
REMARK  status: ('A' for Active; 'I' for Inactive)
REMARK    1  A    between atoms: C2_2  and  C7_7 
REMARK    2  A    between atoms: C3_3  and  C8_8 
REMARK    3  A    between atoms: C3_3  and  O10_10 
REMARK    4  A    between atoms: C8_8  and  C9_9 
ROOT
HETATM    1  C1  UNL     1     -35.106   7.072   3.047  1.00 20.00     0.045 A 
HETATM    2  C2  UNL     1     -34.205   5.929   3.434  1.00 20.00     0.022 A 
HETATM    3  C3  UNL     1     -33.838   7.344   3.815  1.00 20.00     0.062 A 
ENDROOT
BRANCH   3   4
HETATM    4  C8  UNL     1     -32.670   8.037   3.129  1.00 20.00     0.042 C 
BRANCH   4   5
HETATM    5  C9  UNL     1     -32.642   7.833   1.604  1.00 20.00    -0.020 C 
HETATM    6  C5  UNL     1     -32.094   9.053   0.863  1.00 20.00     0.009 C 
HETATM    7  C6  UNL     1     -31.804   6.599   1.260  1.00 20.00     0.009 C 
ENDBRANCH   4   5
ENDBRANCH   3   4
BRANCH   3   8
HETATM    8  O10 UNL     1     -34.009   7.721   5.192  1.00 20.00    -0.389 OA
HETATM    9  H28 UNL     1     -34.087   8.685   5.194  1.00 20.00     0.210 HD
ENDBRANCH   3   8
BRANCH   2  10
HETATM   10  C7  UNL     1     -34.650   4.938   4.454  1.00 20.00     0.003 C 
HETATM   11  C4  UNL     1     -33.837   3.668   4.434  1.00 20.00     0.005 C 
ENDBRANCH   2  10
TORSDOF 4
ENDMDL
MODEL 5
REMARK VINA RESULT:      -0.7      1.352      4.759
REMARK  4 active torsions:
REMARK  status: ('A' for Active; 'I' for Inactive)
REMARK    1  A    between atoms: C2_2  and  C7_7 
REMARK    2  A    between atoms: C3_3  and  C8_8 
REMARK    3  A    between atoms: C3_3  and  O10_10 
REMARK    4  A    between atoms: C8_8  and  C9_9 
ROOT
HETATM    1  C1  UNL     1     -33.860   5.378   2.081  1.00 20.00     0.045 A 
HETATM    2  C2  UNL     1     -33.320   5.041   3.446  1.00 20.00     0.022 A 
HETATM    3  C3  UNL     1     -33.936   6.396   3.190  1.00 20.00     0.062 A 
ENDROOT
BRANCH   3   4
HETATM    4  C8  UNL     1     -33.054   7.635   3.144  1.00 20.00     0.042 C 
BRANCH   4   5
HETATM    5  C9  UNL     1     -32.517   7.957   1.738  1.00 20.00    -0.020 C 
HETATM    6  C5  UNL     1     -32.710   9.426   1.364  1.00 20.00     0.009 C 
HETATM    7  C6  UNL     1     -31.033   7.591   1.653  1.00 20.00     0.009 C 
ENDBRANCH   4   5
ENDBRANCH   3   4
BRANCH   3   8
HETATM    8  O10 UNL     1     -35.247   6.637   3.729  1.00 20.00    -0.389 OA
HETATM    9  H28 UNL     1     -35.237   7.549   4.051  1.00 20.00     0.210 HD
ENDBRANCH   3   8
BRANCH   2  10
HETATM   10  C7  UNL     1     -34.004   4.021   4.290  1.00 20.00     0.003 C 
HETATM   11  C4  UNL     1     -33.073   2.940   4.777  1.00 20.00     0.005 C 
ENDBRANCH   2  10
TORSDOF 4
ENDMDL
MODEL 6
REMARK VINA RESULT:      -0.5      1.426      2.153
REMARK  4 active torsions:
REMARK  status: ('A' for Active; 'I' for Inactive)
REMARK    1  A    between atoms: C2_2  and  C7_7 
REMARK    2  A    between atoms: C3_3  and  C8_8 
REMARK    3  A    between atoms: C3_3  and  O10_10 
REMARK    4  A    between atoms: C8_8  and  C9_9 
ROOT
HETATM    1  C1  UNL     1     -33.695   7.661   2.594  1.00 20.00     0.045 A 
HETATM    2  C2  UNL     1     -32.243   7.612   2.195  1.00 20.00     0.022 A 
HETATM    3  C3  UNL     1     -33.055   6.340   2.250  1.00 20.00     0.062 A 
ENDROOT
BRANCH   3   4
HETATM    4  C8  UNL     1     -32.791   5.318   3.346  1.00 20.00     0.042 C 
BRANCH   4   5
HETATM    5  C9  UNL     1     -34.002   4.418   3.652  1.00 20.00    -0.020 C 
HETATM    6  C5  UNL     1     -33.626   3.208   4.508  1.00 20.00     0.009 C 
HETATM    7  C6  UNL     1     -35.089   5.232   4.357  1.00 20.00     0.009 C 
ENDBRANCH   4   5
ENDBRANCH   3   4
BRANCH   3   8
HETATM    8  O10 UNL     1     -33.455   5.758   0.998  1.00 20.00    -0.389 OA
HETATM    9  H28 UNL     1     -32.636   5.520   0.544  1.00 20.00     0.210 HD
ENDBRANCH   3   8
BRANCH   2  10
HETATM   10  C7  UNL     1     -31.803   8.200   0.898  1.00 20.00     0.003 C 
HETATM   11  C4  UNL     1     -32.427   9.544   0.620  1.00 20.00     0.005 C 
ENDBRANCH   2  10
TORSDOF 4
ENDMDL
MODEL 7
REMARK VINA RESULT:      -0.5      1.413      4.561
REMARK  4 active torsions:
REMARK  status: ('A' for Active; 'I' for Inactive)
REMARK    1  A    between atoms: C2_2  and  C7_7 
REMARK    2  A    between atoms: C3_3  and  C8_8 
REMARK    3  A    between atoms: C3_3  and  O10_10 
REMARK    4  A    between atoms: C8_8  and  C9_9 
ROOT
HETATM    1  C1  UNL     1     -33.004   7.254   4.315  1.00 20.00     0.045 A 
HETATM    2  C2  UNL     1     -34.278   7.658   3.621  1.00 20.00     0.022 A 
HETATM    3  C3  UNL     1     -32.996   7.530   2.833  1.00 20.00     0.062 A 
ENDROOT
BRANCH   3   4
HETATM    4  C8  UNL     1     -32.306   8.777   2.298  1.00 20.00     0.042 C 
BRANCH   4   5
HETATM    5  C9  UNL     1     -32.446   8.952   0.775  1.00 20.00    -0.020 C 
HETATM    6  C5  UNL     1     -32.758  10.395   0.381  1.00 20.00     0.009 C 
HETATM    7  C6  UNL     1     -31.162   8.491   0.080  1.00 20.00     0.009 C 
ENDBRANCH   4   5
ENDBRANCH   3   4
BRANCH   3   8
HETATM    8  O10 UNL     1     -32.855   6.380   1.983  1.00 20.00    -0.389 OA
HETATM    9  H28 UNL     1     -32.499   6.711   1.147  1.00 20.00     0.210 HD
ENDBRANCH   3   8
BRANCH   2  10
HETATM   10  C7  UNL     1     -35.388   6.676   3.465  1.00 20.00     0.003 C 
HETATM   11  C4  UNL     1     -35.254   5.486   4.381  1.00 20.00     0.005 C 
ENDBRANCH   2  10
TORSDOF 4
ENDMDL
MODEL 8
REMARK VINA RESULT:      -0.2      1.349      4.755
REMARK  4 active torsions:
REMARK  status: ('A' for Active; 'I' for Inactive)
REMARK    1  A    between atoms: C2_2  and  C7_7 
REMARK    2  A    between atoms: C3_3  and  C8_8 
REMARK    3  A    between atoms: C3_3  and  O10_10 
REMARK    4  A    between atoms: C8_8  and  C9_9 
ROOT
HETATM    1  C1  UNL     1     -32.325   7.969   3.186  1.00 20.00     0.045 A 
HETATM    2  C2  UNL     1     -33.677   7.333   2.994  1.00 20.00     0.022 A 
HETATM    3  C3  UNL     1     -32.660   7.299   1.878  1.00 20.00     0.062 A 
ENDROOT
BRANCH   3   4
HETATM    4  C8  UNL     1     -32.875   8.141   0.629  1.00 20.00     0.042 C 
BRANCH   4   5
HETATM    5  C9  UNL     1     -31.940   9.360   0.539  1.00 20.00    -0.020 C 
HETATM    6  C5  UNL     1     -30.816   9.158  -0.477  1.00 20.00     0.009 C 
HETATM    7  C6  UNL     1     -32.748  10.608   0.176  1.00 20.00     0.009 C 
ENDBRANCH   4   5
ENDBRANCH   3   4
BRANCH   3   8
HETATM    8  O10 UNL     1     -31.997   6.049   1.627  1.00 20.00    -0.389 OA
HETATM    9  H28 UNL     1     -31.221   6.040   2.204  1.00 20.00     0.210 HD
ENDBRANCH   3   8
BRANCH   2  10
HETATM   10  C7  UNL     1     -34.040   6.104   3.754  1.00 20.00     0.003 C 
HETATM   11  C4  UNL     1     -35.503   6.044   4.111  1.00 20.00     0.005 C 
ENDBRANCH   2  10
TORSDOF 4
ENDMDL
MODEL 9
REMARK VINA RESULT:       0.2      1.784      2.887
REMARK  4 active torsions:
REMARK  status: ('A' for Active; 'I' for Inactive)
REMARK    1  A    between atoms: C2_2  and  C7_7 
REMARK    2  A    between atoms: C3_3  and  C8_8 
REMARK    3  A    between atoms: C3_3  and  O10_10 
REMARK    4  A    between atoms: C8_8  and  C9_9 
ROOT
HETATM    1  C1  UNL     1     -34.194   7.755   4.640  1.00 20.00     0.045 A 
HETATM    2  C2  UNL     1     -33.360   7.171   3.530  1.00 20.00     0.022 A 
HETATM    3  C3  UNL     1     -34.663   6.516   3.921  1.00 20.00     0.062 A 
ENDROOT
BRANCH   3   4
HETATM    4  C8  UNL     1     -34.654   5.174   4.638  1.00 20.00     0.042 C 
BRANCH   4   5
HETATM    5  C9  UNL     1     -34.064   4.029   3.794  1.00 20.00    -0.020 C 
HETATM    6  C5  UNL     1     -33.129   4.537   2.696  1.00 20.00     0.009 C 
HETATM    7  C6  UNL     1     -33.315   3.049   4.699  1.00 20.00     0.009 C 
ENDBRANCH   4   5
ENDBRANCH   3   4
BRANCH   3   8
HETATM    8  O10 UNL     1     -35.782   6.692   3.035  1.00 20.00    -0.389 OA
HETATM    9  H28 UNL     1     -36.433   7.207   3.531  1.00 20.00     0.210 HD
ENDBRANCH   3   8
BRANCH   2  10
HETATM   10  C7  UNL     1     -33.212   7.904   2.241  1.00 20.00     0.003 C 
HETATM   11  C4  UNL     1     -31.802   7.880   1.709  1.00 20.00     0.005 C 
ENDBRANCH   2  10
TORSDOF 4
ENDMDL
