MODEL 1
REMARK VINA RESULT:      -1.8      0.000      0.000
REMARK  4 active torsions:
REMARK  status: ('A' for Active; 'I' for Inactive)
REMARK    1  A    between atoms: C6_6  and  C7_7 
REMARK    2  A    between atoms: C6_6  and  C9_9 
REMARK    3  A    between atoms: C8_8  and  C10_10 
REMARK    4  A    between atoms: C9_9  and  C10_10 
ROOT
HETATM    1  C5  UNL     1     -32.038   5.656   1.252  1.00 20.00     0.011 C 
HETATM    2  C9  UNL     1     -32.858   6.797   1.875  1.00 20.00     0.001 C 
ENDROOT
BRANCH   2   3
HETATM    3  C6  UNL     1     -32.112   8.150   1.779  1.00 20.00     0.009 C 
BRANCH   3   4
HETATM    4  C7  UNL     1     -32.303   8.933   0.462  1.00 20.00    -0.022 C 
HETATM    5  C1  UNL     1     -31.047   8.926  -0.410  1.00 20.00     0.009 C 
HETATM    6  C2  UNL     1     -32.701  10.379   0.777  1.00 20.00     0.009 C 
ENDBRANCH   3   4
ENDBRANCH   2   3
BRANCH   2   7
HETATM    7  C10 UNL     1     -33.292   6.446   3.333  1.00 20.00     0.089 C 
HETATM    8 CL11 UNL     1     -33.799   7.947   4.200  1.00 20.00    -0.124 Cl
BRANCH   7   9
HETATM    9  C8  UNL     1     -34.396   5.360   3.466  1.00 20.00    -0.004 C 
HETATM   10  C3  UNL     1     -35.596   5.846   4.288  1.00 20.00     0.011 C 
HETATM   11  C4  UNL     1     -33.856   4.077   4.118  1.00 20.00     0.011 C 
ENDBRANCH   7   9
ENDBRANCH   2   7
TORSDOF 4
ENDMDL
MODEL 2
REMARK VINA RESULT:      -1.1      0.540      1.110
REMARK  4 active torsions:
REMARK  status: ('A' for Active; 'I' for Inactive)
REMARK    1  A    between atoms: C6_6  and  C7_7 
REMARK    2  A    between atoms: C6_6  and  C9_9 
REMARK    3  A    between atoms: C8_8  and  C10_10 
REMARK    4  A    between atoms: C9_9  and  C10_10 
ROOT
HETATM    1  C5  UNL     1     -32.099   5.806   1.144  1.00 20.00     0.011 C 
HETATM    2  C9  UNL     1     -32.724   7.030   1.832  1.00 20.00     0.001 C 
ENDROOT
BRANCH   2   3
HETATM    3  C6  UNL     1     -31.759   8.240   1.824  1.00 20.00     0.009 C 
BRANCH   3   4
HETATM    4  C7  UNL     1     -31.969   9.262   0.685  1.00 20.00    -0.022 C 
HETATM    5  C1  UNL     1     -32.785  10.476   1.132  1.00 20.00     0.009 C 
HETATM    6  C2  UNL     1     -32.669   8.580  -0.495  1.00 20.00     0.009 C 
ENDBRANCH   3   4
ENDBRANCH   2   3
BRANCH   2   7
HETATM    7  C10 UNL     1     -33.234   6.671   3.263  1.00 20.00     0.089 C 
HETATM    8 CL11 UNL     1     -33.739   8.173   4.129  1.00 20.00    -0.124 Cl
BRANCH   7   9
HETATM    9  C8  UNL     1     -34.371   5.613   3.329  1.00 20.00    -0.004 C 
HETATM   10  C3  UNL     1     -35.593   6.119   4.107  1.00 20.00     0.011 C 
HETATM   11  C4  UNL     1     -33.895   4.306   3.982  1.00 20.00     0.011 C 
ENDBRANCH   7   9
ENDBRANCH   2   7
TORSDOF 4
ENDMDL
MODEL 3
REMARK VINA RESULT:      -0.6      1.582      2.220
REMARK  4 active torsions:
REMARK  status: ('A' for Active; 'I' for Inactive)
REMARK    1  A    between atoms: C6_6  and  C7_7 
REMARK    2  A    between atoms: C6_6  and  C9_9 
REMARK    3  A    between atoms: C8_8  and  C10_10 
REMARK    4  A    between atoms: C9_9  and  C10_10 
ROOT
HETATM    1  C5  UNL     1     -32.254   8.657   3.806  1.00 20.00     0.011 C 
HETATM    2  C9  UNL     1     -32.002   7.751   2.591  1.00 20.00     0.001 C 
ENDROOT
BRANCH   2   3
HETATM    3  C6  UNL     1     -31.567   8.571   1.352  1.00 20.00     0.009 C 
BRANCH   3   4
HETATM    4  C7  UNL     1     -32.685   9.364   0.642  1.00 20.00    -0.022 C 
HETATM    5  C1  UNL     1     -32.603   9.257  -0.882  1.00 20.00     0.009 C 
HETATM    6  C2  UNL     1     -32.613  10.837   1.057  1.00 20.00     0.009 C 
ENDBRANCH   3   4
ENDBRANCH   2   3
BRANCH   2   7
HETATM    7  C10 UNL     1     -33.232   6.833   2.308  1.00 20.00     0.089 C 
HETATM    8 CL11 UNL     1     -32.769   5.524   1.153  1.00 20.00    -0.124 Cl
BRANCH   7   9
HETATM    9  C8  UNL     1     -33.916   6.216   3.560  1.00 20.00    -0.004 C 
HETATM   10  C3  UNL     1     -33.876   4.683   3.551  1.00 20.00     0.011 C 
HETATM   11  C4  UNL     1     -35.384   6.656   3.683  1.00 20.00     0.011 C 
ENDBRANCH   7   9
ENDBRANCH   2   7
TORSDOF 4
ENDMDL
MODEL 4
REMARK VINA RESULT:      -0.4      1.320      4.737
REMARK  4 active torsions:
REMARK  status: ('A' for Active; 'I' for Inactive)
REMARK    1  A    between atoms: C6_6  and  C7_7 
REMARK    2  A    between atoms: C6_6  and  C9_9 
REMARK    3  A    between atoms: C8_8  and  C10_10 
REMARK    4  A    between atoms: C9_9  and  C10_10 
ROOT
HETATM    1  C5  UNL     1     -33.174   6.028   0.508  1.00 20.00     0.011 C 
HETATM    2  C9  UNL     1     -32.527   6.543   1.804  1.00 20.00     0.001 C 
ENDROOT
BRANCH   2   3
HETATM    3  C6  UNL     1     -33.251   5.996   3.057  1.00 20.00     0.009 C 
BRANCH   3   4
HETATM    4  C7  UNL     1     -34.386   6.881   3.620  1.00 20.00    -0.022 C 
HETATM    5  C1  UNL     1     -33.901   7.818   4.727  1.00 20.00     0.009 C 
HETATM    6  C2  UNL     1     -35.512   5.992   4.157  1.00 20.00     0.009 C 
ENDBRANCH   3   4
ENDBRANCH   2   3
BRANCH   2   7
HETATM    7  C10 UNL     1     -32.419   8.100   1.797  1.00 20.00     0.089 C 
HETATM    8 CL11 UNL     1     -31.050   8.625   2.852  1.00 20.00    -0.124 Cl
BRANCH   7   9
HETATM    9  C8  UNL     1     -32.293   8.763   0.397  1.00 20.00    -0.004 C 
HETATM   10  C3  UNL     1     -30.862   8.699  -0.152  1.00 20.00     0.011 C 
HETATM   11  C4  UNL     1     -32.730  10.237   0.423  1.00 20.00     0.011 C 
ENDBRANCH   7   9
ENDBRANCH   2   7
TORSDOF 4
ENDMDL
MODEL 5
REMARK VINA RESULT:      -0.4      1.278      5.318
REMARK  4 active torsions:
REMARK  status: ('A' for Active; 'I' for Inactive)
REMARK    1  A    between atoms: C6_6  and  C7_7 
REMARK    2  A    between atoms: C6_6  and  C9_9 
REMARK    3  A    between atoms: C8_8  and  C10_10 
REMARK    4  A    between atoms: C9_9  and  C10_10 
ROOT
HETATM    1  C5  UNL     1     -35.364   5.317   4.603  1.00 20.00     0.011 C 
HETATM    2  C9  UNL     1     -34.348   5.197   3.455  1.00 20.00     0.001 C 
ENDROOT
BRANCH   2   3
HETATM    3  C6  UNL     1     -33.173   4.264   3.833  1.00 20.00     0.009 C 
BRANCH   3   4
HETATM    4  C7  UNL     1     -33.456   3.245   4.958  1.00 20.00    -0.022 C 
HETATM    5  C1  UNL     1     -32.507   3.407   6.147  1.00 20.00     0.009 C 
HETATM    6  C2  UNL     1     -33.344   1.821   4.403  1.00 20.00     0.009 C 
ENDBRANCH   3   4
ENDBRANCH   2   3
BRANCH   2   7
HETATM    7  C10 UNL     1     -33.874   6.604   2.975  1.00 20.00     0.089 C 
HETATM    8 CL11 UNL     1     -33.837   7.749   4.371  1.00 20.00    -0.124 Cl
BRANCH   7   9
HETATM    9  C8  UNL     1     -32.512   6.639   2.226  1.00 20.00    -0.004 C 
HETATM   10  C3  UNL     1     -32.143   8.051   1.753  1.00 20.00     0.011 C 
HETATM   11  C4  UNL     1     -32.512   5.709   1.002  1.00 20.00     0.011 C 
ENDBRANCH   7   9
ENDBRANCH   2   7
TORSDOF 4
ENDMDL
MODEL 6
REMARK VINA RESULT:      -0.4      1.515      5.172
REMARK  4 active torsions:
REMARK  status: ('A' for Active; 'I' for Inactive)
REMARK    1  A    between atoms: C6_6  and  C7_7 
REMARK    2  A    between atoms: C6_6  and  C9_9 
REMARK    3  A    between atoms: C8_8  and  C10_10 
REMARK    4  A    between atoms: C9_9  and  C10_10 
ROOT
HETATM    1  C5  UNL     1     -33.078   8.066   4.304  1.00 20.00     0.011 C 
HETATM    2  C9  UNL     1     -33.383   7.690   2.845  1.00 20.00     0.001 C 
ENDROOT
BRANCH   2   3
HETATM    3  C6  UNL     1     -33.913   6.240   2.731  1.00 20.00     0.009 C 
BRANCH   3   4
HETATM    4  C7  UNL     1     -34.210   5.524   4.067  1.00 20.00    -0.022 C 
HETATM    5  C1  UNL     1     -33.862   4.036   4.023  1.00 20.00     0.009 C 
HETATM    6  C2  UNL     1     -35.690   5.694   4.424  1.00 20.00     0.009 C 
ENDBRANCH   3   4
ENDBRANCH   2   3
BRANCH   2   7
HETATM    7  C10 UNL     1     -32.150   7.957   1.926  1.00 20.00     0.089 C 
HETATM    8 CL11 UNL     1     -31.465   6.391   1.346  1.00 20.00    -0.124 Cl
BRANCH   7   9
HETATM    9  C8  UNL     1     -32.399   8.906   0.720  1.00 20.00    -0.004 C 
HETATM   10  C3  UNL     1     -31.193   8.977  -0.225  1.00 20.00     0.011 C 
HETATM   11  C4  UNL     1     -32.734  10.334   1.178  1.00 20.00     0.011 C 
ENDBRANCH   7   9
ENDBRANCH   2   7
TORSDOF 4
ENDMDL
MODEL 7
REMARK VINA RESULT:      -0.3      1.006      4.873
REMARK  4 active torsions:
REMARK  status: ('A' for Active; 'I' for Inactive)
REMARK    1  A    between atoms: C6_6  and  C7_7 
REMARK    2  A    between atoms: C6_6  and  C9_9 
REMARK    3  A    between atoms: C8_8  and  C10_10 
REMARK    4  A    between atoms: C9_9  and  C10_10 
ROOT
HETATM    1  C5  UNL     1     -32.059   5.124   0.847  1.00 20.00     0.011 C 
HETATM    2  C9  UNL     1     -32.647   5.649   2.166  1.00 20.00     0.001 C 
ENDROOT
BRANCH   2   3
HETATM    3  C6  UNL     1     -33.808   4.757   2.666  1.00 20.00     0.009 C 
BRANCH   3   4
HETATM    4  C7  UNL     1     -33.840   4.479   4.185  1.00 20.00    -0.022 C 
HETATM    5  C1  UNL     1     -33.440   3.043   4.526  1.00 20.00     0.009 C 
HETATM    6  C2  UNL     1     -35.244   4.764   4.729  1.00 20.00     0.009 C 
ENDBRANCH   3   4
ENDBRANCH   2   3
BRANCH   2   7
HETATM    7  C10 UNL     1     -33.047   7.152   2.044  1.00 20.00     0.089 C 
HETATM    8 CL11 UNL     1     -33.829   7.706   3.574  1.00 20.00    -0.124 Cl
BRANCH   7   9
HETATM    9  C8  UNL     1     -31.901   8.127   1.653  1.00 20.00    -0.004 C 
HETATM   10  C3  UNL     1     -31.245   8.778   2.877  1.00 20.00     0.011 C 
HETATM   11  C4  UNL     1     -32.397   9.247   0.724  1.00 20.00     0.011 C 
ENDBRANCH   7   9
ENDBRANCH   2   7
TORSDOF 4
ENDMDL
MODEL 8
REMARK VINA RESULT:      -0.2      2.062      4.971
REMARK  4 active torsions:
REMARK  status: ('A' for Active; 'I' for Inactive)
REMARK    1  A    between atoms: C6_6  and  C7_7 
REMARK    2  A    between atoms: C6_6  and  C9_9 
REMARK    3  A    between atoms: C8_8  and  C10_10 
REMARK    4  A    between atoms: C9_9  and  C10_10 
ROOT
HETATM    1  C5  UNL     1     -31.977   6.255   1.166  1.00 20.00     0.011 C 
HETATM    2  C9  UNL     1     -32.144   7.553   1.973  1.00 20.00     0.001 C 
ENDROOT
BRANCH   2   3
HETATM    3  C6  UNL     1     -33.590   7.709   2.504  1.00 20.00     0.009 C 
BRANCH   3   4
HETATM    4  C7  UNL     1     -33.886   7.035   3.862  1.00 20.00    -0.022 C 
HETATM    5  C1  UNL     1     -35.279   6.404   3.910  1.00 20.00     0.009 C 
HETATM    6  C2  UNL     1     -33.750   8.065   4.988  1.00 20.00     0.009 C 
ENDBRANCH   3   4
ENDBRANCH   2   3
BRANCH   2   7
HETATM    7  C10 UNL     1     -31.662   8.790   1.154  1.00 20.00     0.089 C 
HETATM    8 CL11 UNL     1     -30.690   8.246  -0.267  1.00 20.00    -0.124 Cl
BRANCH   7   9
HETATM    9  C8  UNL     1     -32.777   9.769   0.689  1.00 20.00    -0.004 C 
HETATM   10  C3  UNL     1     -32.858   9.877  -0.839  1.00 20.00     0.011 C 
HETATM   11  C4  UNL     1     -32.571  11.181   1.259  1.00 20.00     0.011 C 
ENDBRANCH   7   9
ENDBRANCH   2   7
TORSDOF 4
ENDMDL
MODEL 9
REMARK VINA RESULT:      -0.0      1.968      5.372
REMARK  4 active torsions:
REMARK  status: ('A' for Active; 'I' for Inactive)
REMARK    1  A    between atoms: C6_6  and  C7_7 
REMARK    2  A    between atoms: C6_6  and  C9_9 
REMARK    3  A    between atoms: C8_8  and  C10_10 
REMARK    4  A    between atoms: C9_9  and  C10_10 
ROOT
HETATM    1  C5  UNL     1     -35.610   6.324   3.784  1.00 20.00     0.011 C 
HETATM    2  C9  UNL     1     -34.521   5.273   3.514  1.00 20.00     0.001 C 
ENDROOT
BRANCH   2   3
HETATM    3  C6  UNL     1     -34.350   4.311   4.714  1.00 20.00     0.009 C 
BRANCH   3   4
HETATM    4  C7  UNL     1     -33.081   3.431   4.696  1.00 20.00    -0.022 C 
HETATM    5  C1  UNL     1     -33.377   1.986   4.293  1.00 20.00     0.009 C 
HETATM    6  C2  UNL     1     -32.422   3.453   6.080  1.00 20.00     0.009 C 
ENDBRANCH   3   4
ENDBRANCH   2   3
BRANCH   2   7
HETATM    7  C10 UNL     1     -33.182   5.950   3.083  1.00 20.00     0.089 C 
HETATM    8 CL11 UNL     1     -32.663   5.315   1.474  1.00 20.00    -0.124 Cl
BRANCH   7   9
HETATM    9  C8  UNL     1     -33.186   7.504   3.062  1.00 20.00    -0.004 C 
HETATM   10  C3  UNL     1     -32.176   8.077   2.060  1.00 20.00     0.011 C 
HETATM   11  C4  UNL     1     -32.874   8.093   4.447  1.00 20.00     0.011 C 
ENDBRANCH   7   9
ENDBRANCH   2   7
TORSDOF 4
ENDMDL
