MODEL 1
REMARK VINA RESULT:      -0.2      0.000      0.000
REMARK  2 active torsions:
REMARK  status: ('A' for Active; 'I' for Inactive)
REMARK    1  A    between atoms: C5_5  and  C7_7 
REMARK    2  A    between atoms: C7_7  and  O9_9 
ROOT
HETATM    1  C2  UNL     1     -31.039   8.323   2.104  1.00 20.00     0.045 A 
HETATM    2  C6  UNL     1     -31.753   8.483   0.787  1.00 20.00     0.019 A 
HETATM    3  C7  UNL     1     -32.092   7.334   1.699  1.00 20.00     0.066 A 
HETATM    4  C8  UNL     1     -32.669   9.635   0.563  1.00 20.00     0.013 C 
ENDROOT
BRANCH   3   5
HETATM    5  C5  UNL     1     -33.387   7.281   2.455  1.00 20.00     0.030 C 
HETATM    6  C1  UNL     1     -33.260   7.884   3.855  1.00 20.00     0.018 C 
HETATM    7  C3  UNL     1     -34.573   7.604   4.567  1.00 20.00     0.074 C 
HETATM    8  S10 UNL     1     -35.046   5.935   4.040  1.00 20.00    -0.169 SA
HETATM    9  C4  UNL     1     -33.872   5.848   2.659  1.00 20.00     0.081 C 
ENDBRANCH   3   5
BRANCH   3  10
HETATM   10  O9  UNL     1     -31.634   6.040   1.286  1.00 20.00    -0.389 OA
HETATM   11  H24 UNL     1     -31.789   5.449   2.036  1.00 20.00     0.210 HD
ENDBRANCH   3  10
TORSDOF 2
ENDMDL
MODEL 2
REMARK VINA RESULT:       1.3      1.506      2.000
REMARK  2 active torsions:
REMARK  status: ('A' for Active; 'I' for Inactive)
REMARK    1  A    between atoms: C5_5  and  C7_7 
REMARK    2  A    between atoms: C7_7  and  O9_9 
ROOT
HETATM    1  C2  UNL     1     -32.455   8.321   1.177  1.00 20.00     0.045 A 
HETATM    2  C6  UNL     1     -31.475   7.220   1.492  1.00 20.00     0.019 A 
HETATM    3  C7  UNL     1     -32.501   7.638   2.512  1.00 20.00     0.066 A 
HETATM    4  C8  UNL     1     -31.542   5.923   0.764  1.00 20.00     0.013 C 
ENDROOT
BRANCH   3   5
HETATM    5  C5  UNL     1     -33.673   6.767   2.857  1.00 20.00     0.030 C 
HETATM    6  C1  UNL     1     -34.478   7.323   4.032  1.00 20.00     0.018 C 
HETATM    7  C3  UNL     1     -35.510   6.268   4.388  1.00 20.00     0.074 C 
HETATM    8  S10 UNL     1     -34.649   4.684   4.193  1.00 20.00    -0.169 SA
HETATM    9  C4  UNL     1     -33.240   5.363   3.273  1.00 20.00     0.081 C 
ENDBRANCH   3   5
BRANCH   3  10
HETATM   10  O9  UNL     1     -32.013   8.385   3.634  1.00 20.00    -0.389 OA
HETATM   11  H24 UNL     1     -31.075   8.549   3.460  1.00 20.00     0.210 HD
ENDBRANCH   3  10
TORSDOF 2
ENDMDL
MODEL 3
REMARK VINA RESULT:       1.6      2.517      4.314
REMARK  2 active torsions:
REMARK  status: ('A' for Active; 'I' for Inactive)
REMARK    1  A    between atoms: C5_5  and  C7_7 
REMARK    2  A    between atoms: C7_7  and  O9_9 
ROOT
HETATM    1  C2  UNL     1     -35.170   5.814   5.151  1.00 20.00     0.045 A 
HETATM    2  C6  UNL     1     -35.002   4.662   4.195  1.00 20.00     0.019 A 
HETATM    3  C7  UNL     1     -34.836   6.078   3.712  1.00 20.00     0.066 A 
HETATM    4  C8  UNL     1     -33.858   3.720   4.346  1.00 20.00     0.013 C 
ENDROOT
BRANCH   3   5
HETATM    5  C5  UNL     1     -33.491   6.640   3.356  1.00 20.00     0.030 C 
HETATM    6  C1  UNL     1     -33.392   8.134   3.662  1.00 20.00     0.018 C 
HETATM    7  C3  UNL     1     -32.065   8.606   3.094  1.00 20.00     0.074 C 
HETATM    8  S10 UNL     1     -31.878   7.707   1.529  1.00 20.00    -0.169 SA
HETATM    9  C4  UNL     1     -33.187   6.496   1.867  1.00 20.00     0.081 C 
ENDBRANCH   3   5
BRANCH   3  10
HETATM   10  O9  UNL     1     -35.892   6.597   2.892  1.00 20.00    -0.389 OA
HETATM   11  H24 UNL     1     -36.717   6.378   3.346  1.00 20.00     0.210 HD
ENDBRANCH   3  10
TORSDOF 2
ENDMDL
MODEL 4
REMARK VINA RESULT:       1.8      1.530      2.251
REMARK  2 active torsions:
REMARK  status: ('A' for Active; 'I' for Inactive)
REMARK    1  A    between atoms: C5_5  and  C7_7 
REMARK    2  A    between atoms: C7_7  and  O9_9 
ROOT
HETATM    1  C2  UNL     1     -31.373   6.215   1.431  1.00 20.00     0.045 A 
HETATM    2  C6  UNL     1     -32.187   7.484   1.441  1.00 20.00     0.019 A 
HETATM    3  C7  UNL     1     -32.849   6.155   1.694  1.00 20.00     0.066 A 
HETATM    4  C8  UNL     1     -31.980   8.500   2.510  1.00 20.00     0.013 C 
ENDROOT
BRANCH   3   5
HETATM    5  C5  UNL     1     -33.341   5.764   3.056  1.00 20.00     0.030 C 
HETATM    6  C1  UNL     1     -33.506   4.251   3.196  1.00 20.00     0.018 C 
HETATM    7  C3  UNL     1     -34.173   4.009   4.539  1.00 20.00     0.074 C 
HETATM    8  S10 UNL     1     -35.385   5.348   4.708  1.00 20.00    -0.169 SA
HETATM    9  C4  UNL     1     -34.711   6.365   3.364  1.00 20.00     0.081 C 
ENDBRANCH   3   5
BRANCH   3  10
HETATM   10  O9  UNL     1     -33.671   5.645   0.636  1.00 20.00    -0.389 OA
HETATM   11  H24 UNL     1     -33.089   5.111   0.078  1.00 20.00     0.210 HD
ENDBRANCH   3  10
TORSDOF 2
ENDMDL
MODEL 5
REMARK VINA RESULT:       1.9      2.422      4.059
REMARK  2 active torsions:
REMARK  status: ('A' for Active; 'I' for Inactive)
REMARK    1  A    between atoms: C5_5  and  C7_7 
REMARK    2  A    between atoms: C7_7  and  O9_9 
ROOT
HETATM    1  C2  UNL     1     -35.625   6.465   3.827  1.00 20.00     0.045 A 
HETATM    2  C6  UNL     1     -34.455   6.826   4.705  1.00 20.00     0.019 A 
HETATM    3  C7  UNL     1     -34.268   5.895   3.537  1.00 20.00     0.066 A 
HETATM    4  C8  UNL     1     -33.928   8.219   4.720  1.00 20.00     0.013 C 
ENDROOT
BRANCH   3   5
HETATM    5  C5  UNL     1     -33.538   6.319   2.296  1.00 20.00     0.030 C 
HETATM    6  C1  UNL     1     -32.496   5.290   1.861  1.00 20.00     0.018 C 
HETATM    7  C3  UNL     1     -31.716   5.918   0.719  1.00 20.00     0.074 C 
HETATM    8  S10 UNL     1     -31.530   7.662   1.181  1.00 20.00    -0.169 SA
HETATM    9  C4  UNL     1     -32.776   7.626   2.501  1.00 20.00     0.081 C 
ENDBRANCH   3   5
BRANCH   3  10
HETATM   10  O9  UNL     1     -34.071   4.510   3.853  1.00 20.00    -0.389 OA
HETATM   11  H24 UNL     1     -33.828   4.077   3.024  1.00 20.00     0.210 HD
ENDBRANCH   3  10
TORSDOF 2
ENDMDL
MODEL 6
REMARK VINA RESULT:       1.9      2.555      4.201
REMARK  2 active torsions:
REMARK  status: ('A' for Active; 'I' for Inactive)
REMARK    1  A    between atoms: C5_5  and  C7_7 
REMARK    2  A    between atoms: C7_7  and  O9_9 
ROOT
HETATM    1  C2  UNL     1     -34.662   5.560   4.289  1.00 20.00     0.045 A 
HETATM    2  C6  UNL     1     -35.662   6.656   4.027  1.00 20.00     0.019 A 
HETATM    3  C7  UNL     1     -34.187   6.933   3.915  1.00 20.00     0.066 A 
HETATM    4  C8  UNL     1     -36.563   6.584   2.844  1.00 20.00     0.013 C 
ENDROOT
BRANCH   3   5
HETATM    5  C5  UNL     1     -33.522   7.148   2.587  1.00 20.00     0.030 C 
HETATM    6  C1  UNL     1     -32.869   5.872   2.057  1.00 20.00     0.018 C 
HETATM    7  C3  UNL     1     -32.088   6.268   0.816  1.00 20.00     0.074 C 
HETATM    8  S10 UNL     1     -31.366   7.884   1.211  1.00 20.00    -0.169 SA
HETATM    9  C4  UNL     1     -32.405   8.187   2.669  1.00 20.00     0.081 C 
ENDBRANCH   3   5
BRANCH   3  10
HETATM   10  O9  UNL     1     -33.607   7.721   4.963  1.00 20.00    -0.389 OA
HETATM   11  H24 UNL     1     -34.168   8.504   5.052  1.00 20.00     0.210 HD
ENDBRANCH   3  10
TORSDOF 2
ENDMDL
MODEL 7
REMARK VINA RESULT:       2.3      2.457      4.057
REMARK  2 active torsions:
REMARK  status: ('A' for Active; 'I' for Inactive)
REMARK    1  A    between atoms: C5_5  and  C7_7 
REMARK    2  A    between atoms: C7_7  and  O9_9 
ROOT
HETATM    1  C2  UNL     1     -33.685   5.848   3.778  1.00 20.00     0.045 A 
HETATM    2  C6  UNL     1     -34.785   6.856   3.989  1.00 20.00     0.019 A 
HETATM    3  C7  UNL     1     -33.413   7.308   3.562  1.00 20.00     0.066 A 
HETATM    4  C8  UNL     1     -35.964   6.883   3.079  1.00 20.00     0.013 C 
ENDROOT
BRANCH   3   5
HETATM    5  C5  UNL     1     -33.143   7.811   2.174  1.00 20.00     0.030 C 
HETATM    6  C1  UNL     1     -31.706   7.537   1.732  1.00 20.00     0.018 C 
HETATM    7  C3  UNL     1     -31.517   8.249   0.404  1.00 20.00     0.074 C 
HETATM    8  S10 UNL     1     -32.419   9.813   0.578  1.00 20.00    -0.169 SA
HETATM    9  C4  UNL     1     -33.332   9.323   2.068  1.00 20.00     0.081 C 
ENDBRANCH   3   5
BRANCH   3  10
HETATM   10  O9  UNL     1     -32.624   7.970   4.559  1.00 20.00    -0.389 OA
HETATM   11  H24 UNL     1     -32.381   7.291   5.203  1.00 20.00     0.210 HD
ENDBRANCH   3  10
TORSDOF 2
ENDMDL
MODEL 8
REMARK VINA RESULT:       2.3      2.687      4.441
REMARK  2 active torsions:
REMARK  status: ('A' for Active; 'I' for Inactive)
REMARK    1  A    between atoms: C5_5  and  C7_7 
REMARK    2  A    between atoms: C7_7  and  O9_9 
ROOT
HETATM    1  C2  UNL     1     -34.761   6.455   4.932  1.00 20.00     0.045 A 
HETATM    2  C6  UNL     1     -34.991   5.105   4.302  1.00 20.00     0.019 A 
HETATM    3  C7  UNL     1     -35.105   6.357   3.474  1.00 20.00     0.066 A 
HETATM    4  C8  UNL     1     -33.865   4.141   4.159  1.00 20.00     0.013 C 
ENDROOT
BRANCH   3   5
HETATM    5  C5  UNL     1     -34.074   6.722   2.446  1.00 20.00     0.030 C 
HETATM    6  C1  UNL     1     -33.183   5.535   2.079  1.00 20.00     0.018 C 
HETATM    7  C3  UNL     1     -32.085   6.079   1.181  1.00 20.00     0.074 C 
HETATM    8  S10 UNL     1     -31.664   7.697   1.883  1.00 20.00    -0.169 SA
HETATM    9  C4  UNL     1     -33.131   7.814   2.945  1.00 20.00     0.081 C 
ENDBRANCH   3   5
BRANCH   3  10
HETATM   10  O9  UNL     1     -36.431   6.752   3.098  1.00 20.00    -0.389 OA
HETATM   11  H24 UNL     1     -36.617   6.303   2.262  1.00 20.00     0.210 HD
ENDBRANCH   3  10
TORSDOF 2
ENDMDL
MODEL 9
REMARK VINA RESULT:       2.4      2.275      3.862
REMARK  2 active torsions:
REMARK  status: ('A' for Active; 'I' for Inactive)
REMARK    1  A    between atoms: C5_5  and  C7_7 
REMARK    2  A    between atoms: C7_7  and  O9_9 
ROOT
HETATM    1  C2  UNL     1     -34.730   7.512   3.324  1.00 20.00     0.045 A 
HETATM    2  C6  UNL     1     -33.654   7.250   4.346  1.00 20.00     0.019 A 
HETATM    3  C7  UNL     1     -33.348   7.137   2.876  1.00 20.00     0.066 A 
HETATM    4  C8  UNL     1     -33.138   8.359   5.196  1.00 20.00     0.013 C 
ENDROOT
BRANCH   3   5
HETATM    5  C5  UNL     1     -32.501   8.151   2.165  1.00 20.00     0.030 C 
HETATM    6  C1  UNL     1     -33.344   9.220   1.471  1.00 20.00     0.018 C 
HETATM    7  C3  UNL     1     -32.385  10.064   0.650  1.00 20.00     0.074 C 
HETATM    8  S10 UNL     1     -31.185   8.885  -0.028  1.00 20.00    -0.169 SA
HETATM    9  C4  UNL     1     -31.647   7.515   1.070  1.00 20.00     0.081 C 
ENDBRANCH   3   5
BRANCH   3  10
HETATM   10  O9  UNL     1     -33.176   5.809   2.364  1.00 20.00    -0.389 OA
HETATM   11  H24 UNL     1     -32.751   5.907   1.501  1.00 20.00     0.210 HD
ENDBRANCH   3  10
TORSDOF 2
ENDMDL
