MODEL 1
REMARK VINA RESULT:      -2.2      0.000      0.000
REMARK  3 active torsions:
REMARK  status: ('A' for Active; 'I' for Inactive)
REMARK    1  A    between atoms: C2_2  and  C6_6 
REMARK    2  A    between atoms: C3_3  and  C7_7 
REMARK    3  A    between atoms: C3_3  and  O8_8 
ROOT
HETATM    1  C1  UNL     1     -31.247   7.655   1.964  1.00 20.00     0.045 A 
HETATM    2  C2  UNL     1     -32.288   8.188   1.013  1.00 20.00     0.022 A 
HETATM    3  C3  UNL     1     -32.687   7.232   2.116  1.00 20.00     0.062 A 
ENDROOT
BRANCH   3   4
HETATM    4  C7  UNL     1     -33.472   7.673   3.307  1.00 20.00     0.034 C 
HETATM    5  C5  UNL     1     -34.553   6.696   3.691  1.00 20.00     0.008 C 
ENDBRANCH   3   4
BRANCH   3   6
HETATM    6  O8  UNL     1     -32.995   5.892   1.691  1.00 20.00    -0.389 OA
HETATM    7  H22 UNL     1     -33.142   5.387   2.501  1.00 20.00     0.210 HD
ENDBRANCH   3   6
BRANCH   2   8
HETATM    8  C6  UNL     1     -32.657   9.631   1.035  1.00 20.00     0.003 C 
HETATM    9  C4  UNL     1     -32.658  10.260  -0.335  1.00 20.00     0.005 C 
ENDBRANCH   2   8
TORSDOF 3
ENDMDL
MODEL 2
REMARK VINA RESULT:      -1.9      1.268      3.618
REMARK  3 active torsions:
REMARK  status: ('A' for Active; 'I' for Inactive)
REMARK    1  A    between atoms: C2_2  and  C6_6 
REMARK    2  A    between atoms: C3_3  and  C7_7 
REMARK    3  A    between atoms: C3_3  and  O8_8 
ROOT
HETATM    1  C1  UNL     1     -33.033   6.574   1.523  1.00 20.00     0.045 A 
HETATM    2  C2  UNL     1     -32.900   7.023   2.955  1.00 20.00     0.022 A 
HETATM    3  C3  UNL     1     -32.287   7.846   1.843  1.00 20.00     0.062 A 
ENDROOT
BRANCH   3   4
HETATM    4  C7  UNL     1     -32.849   9.165   1.426  1.00 20.00     0.034 C 
HETATM    5  C5  UNL     1     -32.297   9.647   0.110  1.00 20.00     0.008 C 
ENDBRANCH   3   4
BRANCH   3   6
HETATM    6  O8  UNL     1     -30.854   7.775   1.739  1.00 20.00    -0.389 OA
HETATM    7  H22 UNL     1     -30.668   6.981   1.223  1.00 20.00     0.210 HD
ENDBRANCH   3   6
BRANCH   2   8
HETATM    8  C6  UNL     1     -34.099   7.475   3.716  1.00 20.00     0.003 C 
HETATM    9  C4  UNL     1     -35.114   6.379   3.922  1.00 20.00     0.005 C 
ENDBRANCH   2   8
TORSDOF 3
ENDMDL
MODEL 3
REMARK VINA RESULT:      -1.5      1.193      3.648
REMARK  3 active torsions:
REMARK  status: ('A' for Active; 'I' for Inactive)
REMARK    1  A    between atoms: C2_2  and  C6_6 
REMARK    2  A    between atoms: C3_3  and  C7_7 
REMARK    3  A    between atoms: C3_3  and  O8_8 
ROOT
HETATM    1  C1  UNL     1     -33.696   6.293   1.086  1.00 20.00     0.045 A 
HETATM    2  C2  UNL     1     -33.511   5.978   2.548  1.00 20.00     0.022 A 
HETATM    3  C3  UNL     1     -32.346   6.493   1.730  1.00 20.00     0.062 A 
ENDROOT
BRANCH   3   4
HETATM    4  C7  UNL     1     -31.798   7.871   1.902  1.00 20.00     0.034 C 
HETATM    5  C5  UNL     1     -32.160   8.791   0.765  1.00 20.00     0.008 C 
ENDBRANCH   3   4
BRANCH   3   6
HETATM    6  O8  UNL     1     -31.343   5.515   1.400  1.00 20.00    -0.389 OA
HETATM    7  H22 UNL     1     -31.422   4.823   2.069  1.00 20.00     0.210 HD
ENDBRANCH   3   6
BRANCH   2   8
HETATM    8  C6  UNL     1     -34.186   6.808   3.586  1.00 20.00     0.003 C 
HETATM    9  C4  UNL     1     -35.386   6.128   4.195  1.00 20.00     0.005 C 
ENDBRANCH   2   8
TORSDOF 3
ENDMDL
MODEL 4
REMARK VINA RESULT:      -1.5      2.349      3.727
REMARK  3 active torsions:
REMARK  status: ('A' for Active; 'I' for Inactive)
REMARK    1  A    between atoms: C2_2  and  C6_6 
REMARK    2  A    between atoms: C3_3  and  C7_7 
REMARK    3  A    between atoms: C3_3  and  O8_8 
ROOT
HETATM    1  C1  UNL     1     -35.259   6.625   2.995  1.00 20.00     0.045 A 
HETATM    2  C2  UNL     1     -34.433   7.049   4.181  1.00 20.00     0.022 A 
HETATM    3  C3  UNL     1     -34.748   5.585   3.960  1.00 20.00     0.062 A 
ENDROOT
BRANCH   3   4
HETATM    4  C7  UNL     1     -33.711   4.605   3.520  1.00 20.00     0.034 C 
HETATM    5  C5  UNL     1     -33.591   3.424   4.448  1.00 20.00     0.008 C 
ENDBRANCH   3   4
BRANCH   3   6
HETATM    6  O8  UNL     1     -35.726   5.023   4.853  1.00 20.00    -0.389 OA
HETATM    7  H22 UNL     1     -35.755   5.613   5.616  1.00 20.00     0.210 HD
ENDBRANCH   3   6
BRANCH   2   8
HETATM    8  C6  UNL     1     -33.067   7.611   3.982  1.00 20.00     0.003 C 
HETATM    9  C4  UNL     1     -32.759   7.913   2.537  1.00 20.00     0.005 C 
ENDBRANCH   2   8
TORSDOF 3
ENDMDL
MODEL 5
REMARK VINA RESULT:      -0.9      1.937      2.946
REMARK  3 active torsions:
REMARK  status: ('A' for Active; 'I' for Inactive)
REMARK    1  A    between atoms: C2_2  and  C6_6 
REMARK    2  A    between atoms: C3_3  and  C7_7 
REMARK    3  A    between atoms: C3_3  and  O8_8 
ROOT
HETATM    1  C1  UNL     1     -32.411   8.398   1.342  1.00 20.00     0.045 A 
HETATM    2  C2  UNL     1     -31.918   7.039   1.762  1.00 20.00     0.022 A 
HETATM    3  C3  UNL     1     -32.469   7.998   2.795  1.00 20.00     0.062 A 
ENDROOT
BRANCH   3   4
HETATM    4  C7  UNL     1     -33.790   7.783   3.457  1.00 20.00     0.034 C 
HETATM    5  C5  UNL     1     -33.736   7.983   4.950  1.00 20.00     0.008 C 
ENDBRANCH   3   4
BRANCH   3   6
HETATM    6  O8  UNL     1     -31.490   8.610   3.654  1.00 20.00    -0.389 OA
HETATM    7  H22 UNL     1     -31.587   8.178   4.512  1.00 20.00     0.210 HD
ENDBRANCH   3   6
BRANCH   2   8
HETATM    8  C6  UNL     1     -32.650   5.811   1.342  1.00 20.00     0.003 C 
HETATM    9  C4  UNL     1     -31.758   4.788   0.685  1.00 20.00     0.005 C 
ENDBRANCH   2   8
TORSDOF 3
ENDMDL
MODEL 6
REMARK VINA RESULT:      -0.9      1.899      3.367
REMARK  3 active torsions:
REMARK  status: ('A' for Active; 'I' for Inactive)
REMARK    1  A    between atoms: C2_2  and  C6_6 
REMARK    2  A    between atoms: C3_3  and  C7_7 
REMARK    3  A    between atoms: C3_3  and  O8_8 
ROOT
HETATM    1  C1  UNL     1     -31.911   8.460   3.353  1.00 20.00     0.045 A 
HETATM    2  C2  UNL     1     -33.352   8.043   3.210  1.00 20.00     0.022 A 
HETATM    3  C3  UNL     1     -32.368   7.762   2.095  1.00 20.00     0.062 A 
ENDROOT
BRANCH   3   4
HETATM    4  C7  UNL     1     -31.882   6.384   1.788  1.00 20.00     0.034 C 
HETATM    5  C5  UNL     1     -32.829   5.613   0.905  1.00 20.00     0.008 C 
ENDBRANCH   3   4
BRANCH   3   6
HETATM    6  O8  UNL     1     -32.501   8.595   0.929  1.00 20.00    -0.389 OA
HETATM    7  H22 UNL     1     -32.761   9.465   1.257  1.00 20.00     0.210 HD
ENDBRANCH   3   6
BRANCH   2   8
HETATM    8  C6  UNL     1     -33.911   6.963   4.072  1.00 20.00     0.003 C 
HETATM    9  C4  UNL     1     -35.316   6.573   3.691  1.00 20.00     0.005 C 
ENDBRANCH   2   8
TORSDOF 3
ENDMDL
MODEL 7
REMARK VINA RESULT:      -0.8      1.851      2.896
REMARK  3 active torsions:
REMARK  status: ('A' for Active; 'I' for Inactive)
REMARK    1  A    between atoms: C2_2  and  C6_6 
REMARK    2  A    between atoms: C3_3  and  C7_7 
REMARK    3  A    between atoms: C3_3  and  O8_8 
ROOT
HETATM    1  C1  UNL     1     -32.507   8.328   1.953  1.00 20.00     0.045 A 
HETATM    2  C2  UNL     1     -32.231   6.871   2.221  1.00 20.00     0.022 A 
HETATM    3  C3  UNL     1     -33.101   7.665   3.171  1.00 20.00     0.062 A 
ENDROOT
BRANCH   3   4
HETATM    4  C7  UNL     1     -34.577   7.458   3.263  1.00 20.00     0.034 C 
HETATM    5  C5  UNL     1     -34.952   6.303   4.154  1.00 20.00     0.008 C 
ENDBRANCH   3   4
BRANCH   3   6
HETATM    6  O8  UNL     1     -32.491   8.005   4.429  1.00 20.00    -0.389 OA
HETATM    7  H22 UNL     1     -31.618   8.355   4.212  1.00 20.00     0.210 HD
ENDBRANCH   3   6
BRANCH   2   8
HETATM    8  C6  UNL     1     -32.785   5.823   1.318  1.00 20.00     0.003 C 
HETATM    9  C4  UNL     1     -31.748   4.828   0.864  1.00 20.00     0.005 C 
ENDBRANCH   2   8
TORSDOF 3
ENDMDL
MODEL 8
REMARK VINA RESULT:      -0.7      2.726      3.417
REMARK  3 active torsions:
REMARK  status: ('A' for Active; 'I' for Inactive)
REMARK    1  A    between atoms: C2_2  and  C6_6 
REMARK    2  A    between atoms: C3_3  and  C7_7 
REMARK    3  A    between atoms: C3_3  and  O8_8 
ROOT
HETATM    1  C1  UNL     1     -33.469   5.225   3.871  1.00 20.00     0.045 A 
HETATM    2  C2  UNL     1     -33.878   5.544   2.457  1.00 20.00     0.022 A 
HETATM    3  C3  UNL     1     -34.420   6.365   3.606  1.00 20.00     0.062 A 
ENDROOT
BRANCH   3   4
HETATM    4  C7  UNL     1     -33.986   7.772   3.856  1.00 20.00     0.034 C 
HETATM    5  C5  UNL     1     -33.365   7.960   5.216  1.00 20.00     0.008 C 
ENDBRANCH   3   4
BRANCH   3   6
HETATM    6  O8  UNL     1     -35.798   6.123   3.942  1.00 20.00    -0.389 OA
HETATM    7  H22 UNL     1     -36.251   6.966   3.815  1.00 20.00     0.210 HD
ENDBRANCH   3   6
BRANCH   2   8
HETATM    8  C6  UNL     1     -32.880   6.085   1.491  1.00 20.00     0.003 C 
HETATM    9  C4  UNL     1     -31.884   5.051   1.032  1.00 20.00     0.005 C 
ENDBRANCH   2   8
TORSDOF 3
ENDMDL
MODEL 9
REMARK VINA RESULT:      -0.6      2.757      3.795
REMARK  3 active torsions:
REMARK  status: ('A' for Active; 'I' for Inactive)
REMARK    1  A    between atoms: C2_2  and  C6_6 
REMARK    2  A    between atoms: C3_3  and  C7_7 
REMARK    3  A    between atoms: C3_3  and  O8_8 
ROOT
HETATM    1  C1  UNL     1     -35.514   6.205   3.638  1.00 20.00     0.045 A 
HETATM    2  C2  UNL     1     -34.316   6.734   4.382  1.00 20.00     0.022 A 
HETATM    3  C3  UNL     1     -34.130   5.739   3.258  1.00 20.00     0.062 A 
ENDROOT
BRANCH   3   4
HETATM    4  C7  UNL     1     -33.549   6.126   1.938  1.00 20.00     0.034 C 
HETATM    5  C5  UNL     1     -32.301   5.353   1.599  1.00 20.00     0.008 C 
ENDBRANCH   3   4
BRANCH   3   6
HETATM    6  O8  UNL     1     -33.785   4.403   3.667  1.00 20.00    -0.389 OA
HETATM    7  H22 UNL     1     -33.138   4.505   4.376  1.00 20.00     0.210 HD
ENDBRANCH   3   6
BRANCH   2   8
HETATM    8  C6  UNL     1     -33.924   8.167   4.253  1.00 20.00     0.003 C 
HETATM    9  C4  UNL     1     -32.732   8.530   5.101  1.00 20.00     0.005 C 
ENDBRANCH   2   8
TORSDOF 3
ENDMDL
