MODEL 1
REMARK VINA RESULT:      -1.8      0.000      0.000
REMARK  2 active torsions:
REMARK  status: ('A' for Active; 'I' for Inactive)
REMARK    1  A    between atoms: C3_3  and  C6_6 
REMARK    2  A    between atoms: C6_6  and  O9_9 
ROOT
HETATM    1  C2  UNL     1     -31.343   8.176   2.414  1.00 20.00     0.045 A 
HETATM    2  C5  UNL     1     -31.895   8.312   1.018  1.00 20.00     0.019 A 
HETATM    3  C6  UNL     1     -32.449   7.260   1.954  1.00 20.00     0.066 A 
HETATM    4  C8  UNL     1     -32.680   9.519   0.638  1.00 20.00     0.013 C 
ENDROOT
BRANCH   3   5
HETATM    5  C3  UNL     1     -33.849   7.305   2.560  1.00 20.00     0.024 A 
HETATM    6  C1  UNL     1     -34.343   6.277   3.544  1.00 20.00     0.012 A 
HETATM    7  C4  UNL     1     -34.150   7.704   3.986  1.00 20.00    -0.011 A 
HETATM    8  C7  UNL     1     -33.070   8.050   4.953  1.00 20.00     0.010 C 
ENDBRANCH   3   5
BRANCH   3   9
HETATM    9  O9  UNL     1     -32.016   5.914   1.647  1.00 20.00    -0.389 OA
HETATM   10  H23 UNL     1     -32.813   5.446   1.374  1.00 20.00     0.210 HD
ENDBRANCH   3   9
TORSDOF 2
ENDMDL
MODEL 2
REMARK VINA RESULT:      -1.0      1.497      2.194
REMARK  2 active torsions:
REMARK  status: ('A' for Active; 'I' for Inactive)
REMARK    1  A    between atoms: C3_3  and  C6_6 
REMARK    2  A    between atoms: C6_6  and  O9_9 
ROOT
HETATM    1  C2  UNL     1     -31.800   5.788   1.798  1.00 20.00     0.045 A 
HETATM    2  C5  UNL     1     -32.118   7.182   1.323  1.00 20.00     0.019 A 
HETATM    3  C6  UNL     1     -33.203   6.323   1.934  1.00 20.00     0.066 A 
HETATM    4  C8  UNL     1     -31.554   8.363   2.035  1.00 20.00     0.013 C 
ENDROOT
BRANCH   3   5
HETATM    5  C3  UNL     1     -33.843   6.591   3.293  1.00 20.00     0.024 A 
HETATM    6  C1  UNL     1     -35.298   6.319   3.574  1.00 20.00     0.012 A 
HETATM    7  C4  UNL     1     -34.236   5.516   4.280  1.00 20.00    -0.011 A 
HETATM    8  C7  UNL     1     -34.067   4.068   3.976  1.00 20.00     0.010 C 
ENDBRANCH   3   5
BRANCH   3   9
HETATM    9  O9  UNL     1     -34.138   5.785   0.971  1.00 20.00    -0.389 OA
HETATM   10  H23 UNL     1     -33.604   5.535   0.209  1.00 20.00     0.210 HD
ENDBRANCH   3   9
TORSDOF 2
ENDMDL
MODEL 3
REMARK VINA RESULT:      -0.6      1.686      3.716
REMARK  2 active torsions:
REMARK  status: ('A' for Active; 'I' for Inactive)
REMARK    1  A    between atoms: C3_3  and  C6_6 
REMARK    2  A    between atoms: C6_6  and  O9_9 
ROOT
HETATM    1  C2  UNL     1     -34.035   5.686   3.910  1.00 20.00     0.045 A 
HETATM    2  C5  UNL     1     -35.124   6.722   4.007  1.00 20.00     0.019 A 
HETATM    3  C6  UNL     1     -33.712   7.137   3.659  1.00 20.00     0.066 A 
HETATM    4  C8  UNL     1     -36.223   6.749   3.002  1.00 20.00     0.013 C 
ENDROOT
BRANCH   3   5
HETATM    5  C3  UNL     1     -33.285   7.651   2.287  1.00 20.00     0.024 A 
HETATM    6  C1  UNL     1     -31.857   8.003   1.959  1.00 20.00     0.012 A 
HETATM    7  C4  UNL     1     -32.518   6.837   1.271  1.00 20.00    -0.011 A 
HETATM    8  C7  UNL     1     -32.066   5.446   1.554  1.00 20.00     0.010 C 
ENDBRANCH   3   5
BRANCH   3   9
HETATM    9  O9  UNL     1     -33.006   7.784   4.743  1.00 20.00    -0.389 OA
HETATM   10  H23 UNL     1     -32.541   8.525   4.338  1.00 20.00     0.210 HD
ENDBRANCH   3   9
TORSDOF 2
ENDMDL
MODEL 4
REMARK VINA RESULT:      -0.5      1.466      2.159
REMARK  2 active torsions:
REMARK  status: ('A' for Active; 'I' for Inactive)
REMARK    1  A    between atoms: C3_3  and  C6_6 
REMARK    2  A    between atoms: C6_6  and  O9_9 
ROOT
HETATM    1  C2  UNL     1     -33.030   9.504   1.825  1.00 20.00     0.045 A 
HETATM    2  C5  UNL     1     -32.050   9.536   0.681  1.00 20.00     0.019 A 
HETATM    3  C6  UNL     1     -32.121   8.325   1.585  1.00 20.00     0.066 A 
HETATM    4  C8  UNL     1     -32.541   9.499  -0.725  1.00 20.00     0.013 C 
ENDROOT
BRANCH   3   5
HETATM    5  C3  UNL     1     -32.653   6.962   1.150  1.00 20.00     0.024 A 
HETATM    6  C1  UNL     1     -32.105   5.666   1.686  1.00 20.00     0.012 A 
HETATM    7  C4  UNL     1     -33.520   6.070   2.008  1.00 20.00    -0.011 A 
HETATM    8  C7  UNL     1     -33.896   6.440   3.401  1.00 20.00     0.010 C 
ENDBRANCH   3   5
BRANCH   3   9
HETATM    9  O9  UNL     1     -31.021   8.224   2.518  1.00 20.00    -0.389 OA
HETATM   10  H23 UNL     1     -30.973   7.290   2.755  1.00 20.00     0.210 HD
ENDBRANCH   3   9
TORSDOF 2
ENDMDL
MODEL 5
REMARK VINA RESULT:      -0.4      1.322      1.916
REMARK  2 active torsions:
REMARK  status: ('A' for Active; 'I' for Inactive)
REMARK    1  A    between atoms: C3_3  and  C6_6 
REMARK    2  A    between atoms: C6_6  and  O9_9 
ROOT
HETATM    1  C2  UNL     1     -32.134   8.050   0.888  1.00 20.00     0.045 A 
HETATM    2  C5  UNL     1     -31.652   6.770   1.520  1.00 20.00     0.019 A 
HETATM    3  C6  UNL     1     -32.439   7.770   2.337  1.00 20.00     0.066 A 
HETATM    4  C8  UNL     1     -32.234   5.463   1.101  1.00 20.00     0.013 C 
ENDROOT
BRANCH   3   5
HETATM    5  C3  UNL     1     -33.861   7.535   2.840  1.00 20.00     0.024 A 
HETATM    6  C1  UNL     1     -34.243   6.337   3.669  1.00 20.00     0.012 A 
HETATM    7  C4  UNL     1     -34.301   7.715   4.274  1.00 20.00    -0.011 A 
HETATM    8  C7  UNL     1     -33.345   8.102   5.349  1.00 20.00     0.010 C 
ENDBRANCH   3   5
BRANCH   3   9
HETATM    9  O9  UNL     1     -31.635   8.528   3.270  1.00 20.00    -0.389 OA
HETATM   10  H23 UNL     1     -30.728   8.239   3.119  1.00 20.00     0.210 HD
ENDBRANCH   3   9
TORSDOF 2
ENDMDL
MODEL 6
REMARK VINA RESULT:      -0.4      1.440      3.637
REMARK  2 active torsions:
REMARK  status: ('A' for Active; 'I' for Inactive)
REMARK    1  A    between atoms: C3_3  and  C6_6 
REMARK    2  A    between atoms: C6_6  and  O9_9 
ROOT
HETATM    1  C2  UNL     1     -35.341   6.525   3.778  1.00 20.00     0.045 A 
HETATM    2  C5  UNL     1     -34.114   6.914   4.562  1.00 20.00     0.019 A 
HETATM    3  C6  UNL     1     -33.972   6.199   3.236  1.00 20.00     0.066 A 
HETATM    4  C8  UNL     1     -33.754   8.351   4.723  1.00 20.00     0.013 C 
ENDROOT
BRANCH   3   5
HETATM    5  C3  UNL     1     -33.423   6.847   1.968  1.00 20.00     0.024 A 
HETATM    6  C1  UNL     1     -32.046   7.453   1.895  1.00 20.00     0.012 A 
HETATM    7  C4  UNL     1     -32.369   6.228   1.080  1.00 20.00    -0.011 A 
HETATM    8  C7  UNL     1     -31.732   4.921   1.406  1.00 20.00     0.010 C 
ENDBRANCH   3   5
BRANCH   3   9
HETATM    9  O9  UNL     1     -33.603   4.806   3.357  1.00 20.00    -0.389 OA
HETATM   10  H23 UNL     1     -33.693   4.599   4.294  1.00 20.00     0.210 HD
ENDBRANCH   3   9
TORSDOF 2
ENDMDL
MODEL 7
REMARK VINA RESULT:      -0.3      1.527      3.738
REMARK  2 active torsions:
REMARK  status: ('A' for Active; 'I' for Inactive)
REMARK    1  A    between atoms: C3_3  and  C6_6 
REMARK    2  A    between atoms: C6_6  and  O9_9 
ROOT
HETATM    1  C2  UNL     1     -33.974   7.536   4.852  1.00 20.00     0.045 A 
HETATM    2  C5  UNL     1     -34.996   6.731   4.092  1.00 20.00     0.019 A 
HETATM    3  C6  UNL     1     -33.869   7.418   3.352  1.00 20.00     0.066 A 
HETATM    4  C8  UNL     1     -35.048   5.250   4.247  1.00 20.00     0.013 C 
ENDROOT
BRANCH   3   5
HETATM    5  C3  UNL     1     -32.717   6.681   2.673  1.00 20.00     0.024 A 
HETATM    6  C1  UNL     1     -32.788   6.203   1.246  1.00 20.00     0.012 A 
HETATM    7  C4  UNL     1     -31.815   7.290   1.624  1.00 20.00    -0.011 A 
HETATM    8  C7  UNL     1     -32.013   8.679   1.123  1.00 20.00     0.010 C 
ENDBRANCH   3   5
BRANCH   3   9
HETATM    9  O9  UNL     1     -34.275   8.605   2.633  1.00 20.00    -0.389 OA
HETATM   10  H23 UNL     1     -34.031   8.442   1.715  1.00 20.00     0.210 HD
ENDBRANCH   3   9
TORSDOF 2
ENDMDL
MODEL 8
REMARK VINA RESULT:      -0.1      1.612      3.379
REMARK  2 active torsions:
REMARK  status: ('A' for Active; 'I' for Inactive)
REMARK    1  A    between atoms: C3_3  and  C6_6 
REMARK    2  A    between atoms: C6_6  and  O9_9 
ROOT
HETATM    1  C2  UNL     1     -34.774   7.842   3.306  1.00 20.00     0.045 A 
HETATM    2  C5  UNL     1     -34.063   7.610   4.613  1.00 20.00     0.019 A 
HETATM    3  C6  UNL     1     -34.165   6.495   3.597  1.00 20.00     0.066 A 
HETATM    4  C8  UNL     1     -32.773   8.301   4.897  1.00 20.00     0.013 C 
ENDROOT
BRANCH   3   5
HETATM    5  C3  UNL     1     -32.981   5.948   2.804  1.00 20.00     0.024 A 
HETATM    6  C1  UNL     1     -33.048   5.684   1.322  1.00 20.00     0.012 A 
HETATM    7  C4  UNL     1     -32.142   6.766   1.849  1.00 20.00    -0.011 A 
HETATM    8  C7  UNL     1     -32.440   8.197   1.565  1.00 20.00     0.010 C 
ENDBRANCH   3   5
BRANCH   3   9
HETATM    9  O9  UNL     1     -35.126   5.471   3.944  1.00 20.00    -0.389 OA
HETATM   10  H23 UNL     1     -35.197   5.503   4.904  1.00 20.00     0.210 HD
ENDBRANCH   3   9
TORSDOF 2
ENDMDL
MODEL 9
REMARK VINA RESULT:      -0.1      1.410      3.786
REMARK  2 active torsions:
REMARK  status: ('A' for Active; 'I' for Inactive)
REMARK    1  A    between atoms: C3_3  and  C6_6 
REMARK    2  A    between atoms: C6_6  and  O9_9 
ROOT
HETATM    1  C2  UNL     1     -32.546   6.550   1.751  1.00 20.00     0.045 A 
HETATM    2  C5  UNL     1     -32.926   7.194   3.059  1.00 20.00     0.019 A 
HETATM    3  C6  UNL     1     -32.294   8.021   1.961  1.00 20.00     0.066 A 
HETATM    4  C8  UNL     1     -34.361   7.345   3.430  1.00 20.00     0.013 C 
ENDROOT
BRANCH   3   5
HETATM    5  C3  UNL     1     -33.031   9.096   1.166  1.00 20.00     0.024 A 
HETATM    6  C1  UNL     1     -32.515  10.505   1.032  1.00 20.00     0.012 A 
HETATM    7  C4  UNL     1     -32.587   9.615  -0.182  1.00 20.00    -0.011 A 
HETATM    8  C7  UNL     1     -31.337   9.140  -0.838  1.00 20.00     0.010 C 
ENDBRANCH   3   5
BRANCH   3   9
HETATM    9  O9  UNL     1     -30.908   8.357   2.204  1.00 20.00    -0.389 OA
HETATM   10  H23 UNL     1     -30.925   9.026   2.898  1.00 20.00     0.210 HD
ENDBRANCH   3   9
TORSDOF 2
ENDMDL
