MODEL 1
REMARK VINA RESULT:      -1.2      0.000      0.000
REMARK  3 active torsions:
REMARK  status: ('A' for Active; 'I' for Inactive)
REMARK    1  A    between atoms: C1_1  and  C7_7 
REMARK    2  A    between atoms: C1_1  and  C8_8 
REMARK    3  A    between atoms: C8_8  and  C9_9 
ROOT
HETATM    1  C3  UNL     1     -32.737   5.547   1.302  1.00 20.00     0.018 C 
HETATM    2  C8  UNL     1     -33.351   6.819   1.897  1.00 20.00     0.058 C 
ENDROOT
BRANCH   2   3
HETATM    3  C1  UNL     1     -32.293   7.927   1.822  1.00 20.00     0.131 C 
HETATM    4  O10 UNL     1     -31.107   7.708   2.069  1.00 20.00    -0.298 OA
BRANCH   3   5
HETATM    5  C7  UNL     1     -32.788   9.302   1.399  1.00 20.00     0.074 C 
HETATM    6  C2  UNL     1     -32.369   9.665  -0.014  1.00 20.00     0.013 C 
ENDBRANCH   3   5
ENDBRANCH   2   3
BRANCH   2   7
HETATM    7  C9  UNL     1     -33.969   6.652   3.323  1.00 20.00    -0.041 C 
HETATM    8  C4  UNL     1     -35.502   6.819   3.262  1.00 20.00     0.015 C 
HETATM    9  C5  UNL     1     -33.412   7.662   4.346  1.00 20.00     0.015 C 
HETATM   10  C6  UNL     1     -33.680   5.231   3.853  1.00 20.00     0.015 C 
ENDBRANCH   2   7
TORSDOF 3
ENDMDL
MODEL 2
REMARK VINA RESULT:      -1.1      0.047      1.358
REMARK  3 active torsions:
REMARK  status: ('A' for Active; 'I' for Inactive)
REMARK    1  A    between atoms: C1_1  and  C7_7 
REMARK    2  A    between atoms: C1_1  and  C8_8 
REMARK    3  A    between atoms: C8_8  and  C9_9 
ROOT
HETATM    1  C3  UNL     1     -32.703   5.566   1.270  1.00 20.00     0.018 C 
HETATM    2  C8  UNL     1     -33.337   6.825   1.872  1.00 20.00     0.058 C 
ENDROOT
BRANCH   2   3
HETATM    3  C1  UNL     1     -32.292   7.945   1.818  1.00 20.00     0.131 C 
HETATM    4  O10 UNL     1     -31.107   7.739   2.083  1.00 20.00    -0.298 OA
BRANCH   3   5
HETATM    5  C7  UNL     1     -32.796   9.316   1.394  1.00 20.00     0.074 C 
HETATM    6  C2  UNL     1     -32.397   9.672  -0.026  1.00 20.00     0.013 C 
ENDBRANCH   3   5
ENDBRANCH   2   3
BRANCH   2   7
HETATM    7  C9  UNL     1     -33.967   6.636   3.290  1.00 20.00    -0.041 C 
HETATM    8  C4  UNL     1     -33.667   5.218   3.822  1.00 20.00     0.015 C 
HETATM    9  C5  UNL     1     -35.493   6.848   3.308  1.00 20.00     0.015 C 
HETATM   10  C6  UNL     1     -33.337   7.641   4.278  1.00 20.00     0.015 C 
ENDBRANCH   2   7
TORSDOF 3
ENDMDL
MODEL 3
REMARK VINA RESULT:      -1.0      0.042      1.374
REMARK  3 active torsions:
REMARK  status: ('A' for Active; 'I' for Inactive)
REMARK    1  A    between atoms: C1_1  and  C7_7 
REMARK    2  A    between atoms: C1_1  and  C8_8 
REMARK    3  A    between atoms: C8_8  and  C9_9 
ROOT
HETATM    1  C3  UNL     1     -32.733   5.529   1.285  1.00 20.00     0.018 C 
HETATM    2  C8  UNL     1     -33.354   6.791   1.894  1.00 20.00     0.058 C 
ENDROOT
BRANCH   2   3
HETATM    3  C1  UNL     1     -32.304   7.906   1.829  1.00 20.00     0.131 C 
HETATM    4  O10 UNL     1     -31.118   7.693   2.081  1.00 20.00    -0.298 OA
BRANCH   3   5
HETATM    5  C7  UNL     1     -32.805   9.280   1.410  1.00 20.00     0.074 C 
HETATM    6  C2  UNL     1     -32.369   9.657   0.006  1.00 20.00     0.013 C 
ENDBRANCH   3   5
ENDBRANCH   2   3
BRANCH   2   7
HETATM    7  C9  UNL     1     -33.970   6.606   3.319  1.00 20.00    -0.041 C 
HETATM    8  C4  UNL     1     -33.375   7.643   4.294  1.00 20.00     0.015 C 
HETATM    9  C5  UNL     1     -33.732   5.199   3.902  1.00 20.00     0.015 C 
HETATM   10  C6  UNL     1     -35.494   6.845   3.264  1.00 20.00     0.015 C 
ENDBRANCH   2   7
TORSDOF 3
ENDMDL
MODEL 4
REMARK VINA RESULT:      -0.3      2.070      3.603
REMARK  3 active torsions:
REMARK  status: ('A' for Active; 'I' for Inactive)
REMARK    1  A    between atoms: C1_1  and  C7_7 
REMARK    2  A    between atoms: C1_1  and  C8_8 
REMARK    3  A    between atoms: C8_8  and  C9_9 
ROOT
HETATM    1  C3  UNL     1     -33.752   4.302   3.546  1.00 20.00     0.018 C 
HETATM    2  C8  UNL     1     -33.345   5.753   3.264  1.00 20.00     0.058 C 
ENDROOT
BRANCH   2   3
HETATM    3  C1  UNL     1     -34.512   6.655   3.684  1.00 20.00     0.131 C 
HETATM    4  O10 UNL     1     -35.668   6.235   3.737  1.00 20.00    -0.298 OA
BRANCH   3   5
HETATM    5  C7  UNL     1     -34.156   8.086   4.057  1.00 20.00     0.074 C 
HETATM    6  C2  UNL     1     -33.125   8.161   5.169  1.00 20.00     0.013 C 
ENDBRANCH   3   5
ENDBRANCH   2   3
BRANCH   2   7
HETATM    7  C9  UNL     1     -32.845   6.030   1.809  1.00 20.00    -0.041 C 
HETATM    8  C4  UNL     1     -32.160   7.411   1.736  1.00 20.00     0.015 C 
HETATM    9  C5  UNL     1     -33.976   5.993   0.763  1.00 20.00     0.015 C 
HETATM   10  C6  UNL     1     -31.793   4.973   1.409  1.00 20.00     0.015 C 
ENDBRANCH   2   7
TORSDOF 3
ENDMDL
MODEL 5
REMARK VINA RESULT:      -0.0      1.493      4.080
REMARK  3 active torsions:
REMARK  status: ('A' for Active; 'I' for Inactive)
REMARK    1  A    between atoms: C1_1  and  C7_7 
REMARK    2  A    between atoms: C1_1  and  C8_8 
REMARK    3  A    between atoms: C8_8  and  C9_9 
ROOT
HETATM    1  C3  UNL     1     -33.890   7.883   4.200  1.00 20.00     0.018 C 
HETATM    2  C8  UNL     1     -33.605   7.447   2.759  1.00 20.00     0.058 C 
ENDROOT
BRANCH   2   3
HETATM    3  C1  UNL     1     -33.683   5.917   2.710  1.00 20.00     0.131 C 
HETATM    4  O10 UNL     1     -33.176   5.272   1.792  1.00 20.00    -0.298 OA
BRANCH   3   5
HETATM    5  C7  UNL     1     -34.397   5.242   3.872  1.00 20.00     0.074 C 
HETATM    6  C2  UNL     1     -33.830   3.869   4.187  1.00 20.00     0.013 C 
ENDBRANCH   3   5
ENDBRANCH   2   3
BRANCH   2   7
HETATM    7  C9  UNL     1     -32.286   8.017   2.142  1.00 20.00    -0.041 C 
HETATM    8  C4  UNL     1     -32.614   9.080   1.072  1.00 20.00     0.015 C 
HETATM    9  C5  UNL     1     -31.403   6.933   1.494  1.00 20.00     0.015 C 
HETATM   10  C6  UNL     1     -31.454   8.712   3.242  1.00 20.00     0.015 C 
ENDBRANCH   2   7
TORSDOF 3
ENDMDL
MODEL 6
REMARK VINA RESULT:       0.0      1.494      4.067
REMARK  3 active torsions:
REMARK  status: ('A' for Active; 'I' for Inactive)
REMARK    1  A    between atoms: C1_1  and  C7_7 
REMARK    2  A    between atoms: C1_1  and  C8_8 
REMARK    3  A    between atoms: C8_8  and  C9_9 
ROOT
HETATM    1  C3  UNL     1     -33.852   7.901   4.235  1.00 20.00     0.018 C 
HETATM    2  C8  UNL     1     -33.609   7.464   2.786  1.00 20.00     0.058 C 
ENDROOT
BRANCH   2   3
HETATM    3  C1  UNL     1     -33.690   5.934   2.740  1.00 20.00     0.131 C 
HETATM    4  O10 UNL     1     -33.196   5.286   1.816  1.00 20.00    -0.298 OA
BRANCH   3   5
HETATM    5  C7  UNL     1     -34.390   5.262   3.912  1.00 20.00     0.074 C 
HETATM    6  C2  UNL     1     -33.855   3.869   4.191  1.00 20.00     0.013 C 
ENDBRANCH   3   5
ENDBRANCH   2   3
BRANCH   2   7
HETATM    7  C9  UNL     1     -32.308   8.032   2.131  1.00 20.00    -0.041 C 
HETATM    8  C4  UNL     1     -31.419   8.696   3.203  1.00 20.00     0.015 C 
HETATM    9  C5  UNL     1     -32.590   9.068   1.025  1.00 20.00     0.015 C 
HETATM   10  C6  UNL     1     -31.494   6.880   1.505  1.00 20.00     0.015 C 
ENDBRANCH   2   7
TORSDOF 3
ENDMDL
MODEL 7
REMARK VINA RESULT:       0.1      1.494      4.092
REMARK  3 active torsions:
REMARK  status: ('A' for Active; 'I' for Inactive)
REMARK    1  A    between atoms: C1_1  and  C7_7 
REMARK    2  A    between atoms: C1_1  and  C8_8 
REMARK    3  A    between atoms: C8_8  and  C9_9 
ROOT
HETATM    1  C3  UNL     1     -33.917   7.874   4.195  1.00 20.00     0.018 C 
HETATM    2  C8  UNL     1     -33.606   7.443   2.757  1.00 20.00     0.058 C 
ENDROOT
BRANCH   2   3
HETATM    3  C1  UNL     1     -33.680   5.912   2.703  1.00 20.00     0.131 C 
HETATM    4  O10 UNL     1     -33.170   5.272   1.782  1.00 20.00    -0.298 OA
BRANCH   3   5
HETATM    5  C7  UNL     1     -34.393   5.231   3.861  1.00 20.00     0.074 C 
HETATM    6  C2  UNL     1     -33.815   3.864   4.179  1.00 20.00     0.013 C 
ENDBRANCH   3   5
ENDBRANCH   2   3
BRANCH   2   7
HETATM    7  C9  UNL     1     -32.278   8.018   2.165  1.00 20.00    -0.041 C 
HETATM    8  C4  UNL     1     -31.458   6.890   1.503  1.00 20.00     0.015 C 
HETATM    9  C5  UNL     1     -31.392   8.705   3.222  1.00 20.00     0.015 C 
HETATM   10  C6  UNL     1     -32.602   9.056   1.069  1.00 20.00     0.015 C 
ENDBRANCH   2   7
TORSDOF 3
ENDMDL
MODEL 8
REMARK VINA RESULT:       0.1      2.207      4.425
REMARK  3 active torsions:
REMARK  status: ('A' for Active; 'I' for Inactive)
REMARK    1  A    between atoms: C1_1  and  C7_7 
REMARK    2  A    between atoms: C1_1  and  C8_8 
REMARK    3  A    between atoms: C8_8  and  C9_9 
ROOT
HETATM    1  C3  UNL     1     -33.104   5.252   1.852  1.00 20.00     0.018 C 
HETATM    2  C8  UNL     1     -33.315   5.682   3.308  1.00 20.00     0.058 C 
ENDROOT
BRANCH   2   3
HETATM    3  C1  UNL     1     -34.165   4.605   3.994  1.00 20.00     0.131 C 
HETATM    4  O10 UNL     1     -35.289   4.850   4.432  1.00 20.00    -0.298 OA
BRANCH   3   5
HETATM    5  C7  UNL     1     -33.552   3.216   4.077  1.00 20.00     0.074 C 
HETATM    6  C2  UNL     1     -32.788   2.991   5.369  1.00 20.00     0.013 C 
ENDBRANCH   3   5
ENDBRANCH   2   3
BRANCH   2   7
HETATM    7  C9  UNL     1     -33.882   7.127   3.497  1.00 20.00    -0.041 C 
HETATM    8  C4  UNL     1     -33.543   7.651   4.908  1.00 20.00     0.015 C 
HETATM    9  C5  UNL     1     -35.408   7.209   3.302  1.00 20.00     0.015 C 
HETATM   10  C6  UNL     1     -33.221   8.082   2.479  1.00 20.00     0.015 C 
ENDBRANCH   2   7
TORSDOF 3
ENDMDL
MODEL 9
REMARK VINA RESULT:       0.1      2.197      4.323
REMARK  3 active torsions:
REMARK  status: ('A' for Active; 'I' for Inactive)
REMARK    1  A    between atoms: C1_1  and  C7_7 
REMARK    2  A    between atoms: C1_1  and  C8_8 
REMARK    3  A    between atoms: C8_8  and  C9_9 
ROOT
HETATM    1  C3  UNL     1     -33.147   5.263   1.825  1.00 20.00     0.018 C 
HETATM    2  C8  UNL     1     -33.302   5.685   3.290  1.00 20.00     0.058 C 
ENDROOT
BRANCH   2   3
HETATM    3  C1  UNL     1     -34.166   4.629   3.991  1.00 20.00     0.131 C 
HETATM    4  O10 UNL     1     -35.279   4.900   4.442  1.00 20.00    -0.298 OA
BRANCH   3   5
HETATM    5  C7  UNL     1     -33.582   3.227   4.071  1.00 20.00     0.074 C 
HETATM    6  C2  UNL     1     -32.765   3.007   5.331  1.00 20.00     0.013 C 
ENDBRANCH   3   5
ENDBRANCH   2   3
BRANCH   2   7
HETATM    7  C9  UNL     1     -33.815   7.146   3.509  1.00 20.00    -0.041 C 
HETATM    8  C4  UNL     1     -33.156   8.099   2.490  1.00 20.00     0.015 C 
HETATM    9  C5  UNL     1     -33.532   7.680   4.927  1.00 20.00     0.015 C 
HETATM   10  C6  UNL     1     -35.340   7.203   3.276  1.00 20.00     0.015 C 
ENDBRANCH   2   7
TORSDOF 3
ENDMDL
