MODEL 1
REMARK VINA RESULT:       0.5      0.000      0.000
REMARK  2 active torsions:
REMARK  status: ('A' for Active; 'I' for Inactive)
REMARK    1  A    between atoms: C6_6  and  C9_9 
REMARK    2  A    between atoms: C8_8  and  C9_9 
ROOT
HETATM    1  C1  UNL     1     -31.952   5.856   1.438  1.00 20.00     0.027 C 
HETATM    2  C2  UNL     1     -33.482   5.833   1.413  1.00 20.00     0.008 C 
HETATM    3  C3  UNL     1     -33.412   7.081   3.682  1.00 20.00     0.032 C 
HETATM    4  C4  UNL     1     -31.334   7.223   1.745  1.00 20.00     0.167 C 
HETATM    5  C5  UNL     1     -32.999   8.391   3.010  1.00 20.00     0.168 C 
HETATM    6  C6  UNL     1     -34.160   6.096   2.771  1.00 20.00     0.006 C 
HETATM    7  O10 UNL     1     -32.312   8.255   1.769  1.00 20.00    -0.391 OA
ENDROOT
BRANCH   6   8
HETATM    8  C9  UNL     1     -34.377   4.777   3.523  1.00 20.00     0.086 C 
HETATM    9 CL11 UNL     1     -35.551   5.093   4.822  1.00 20.00    -0.125 Cl
BRANCH   8  10
HETATM   10  C8  UNL     1     -33.054   4.250   4.060  1.00 20.00     0.016 C 
HETATM   11  C7  UNL     1     -33.205   2.901   4.751  1.00 20.00     0.006 C 
ENDBRANCH   8  10
ENDBRANCH   6   8
TORSDOF 2
ENDMDL
MODEL 2
REMARK VINA RESULT:       0.6      0.987      2.010
REMARK  2 active torsions:
REMARK  status: ('A' for Active; 'I' for Inactive)
REMARK    1  A    between atoms: C6_6  and  C9_9 
REMARK    2  A    between atoms: C8_8  and  C9_9 
ROOT
HETATM    1  C1  UNL     1     -33.594   8.336   2.788  1.00 20.00     0.027 C 
HETATM    2  C2  UNL     1     -33.094   7.260   3.753  1.00 20.00     0.008 C 
HETATM    3  C3  UNL     1     -32.882   5.695   1.700  1.00 20.00     0.032 C 
HETATM    4  C4  UNL     1     -32.731   8.530   1.538  1.00 20.00     0.167 C 
HETATM    5  C5  UNL     1     -31.636   6.427   1.203  1.00 20.00     0.168 C 
HETATM    6  C6  UNL     1     -33.146   5.820   3.208  1.00 20.00     0.006 C 
HETATM    7  O10 UNL     1     -31.520   7.788   1.608  1.00 20.00    -0.391 OA
ENDROOT
BRANCH   6   8
HETATM    8  C9  UNL     1     -34.496   5.172   3.541  1.00 20.00     0.086 C 
HETATM    9 CL11 UNL     1     -35.631   6.484   3.939  1.00 20.00    -0.125 Cl
BRANCH   8  10
HETATM   10  C8  UNL     1     -34.340   4.181   4.685  1.00 20.00     0.016 C 
HETATM   11  C7  UNL     1     -33.343   3.076   4.364  1.00 20.00     0.006 C 
ENDBRANCH   8  10
ENDBRANCH   6   8
TORSDOF 2
ENDMDL
MODEL 3
REMARK VINA RESULT:       0.9      1.440      2.362
REMARK  2 active torsions:
REMARK  status: ('A' for Active; 'I' for Inactive)
REMARK    1  A    between atoms: C6_6  and  C9_9 
REMARK    2  A    between atoms: C8_8  and  C9_9 
ROOT
HETATM    1  C1  UNL     1     -32.482   8.608   2.172  1.00 20.00     0.027 C 
HETATM    2  C2  UNL     1     -32.420   7.618   3.336  1.00 20.00     0.008 C 
HETATM    3  C3  UNL     1     -33.375   5.841   1.710  1.00 20.00     0.032 C 
HETATM    4  C4  UNL     1     -31.870   8.101   0.862  1.00 20.00     0.167 C 
HETATM    5  C5  UNL     1     -32.039   5.715   0.978  1.00 20.00     0.168 C 
HETATM    6  C6  UNL     1     -33.274   6.347   3.157  1.00 20.00     0.006 C 
HETATM    7  O10 UNL     1     -31.196   6.862   1.037  1.00 20.00    -0.391 OA
ENDROOT
BRANCH   6   8
HETATM    8  C9  UNL     1     -34.685   6.569   3.715  1.00 20.00     0.086 C 
HETATM    9 CL11 UNL     1     -34.594   7.924   4.866  1.00 20.00    -0.125 Cl
BRANCH   8  10
HETATM   10  C8  UNL     1     -35.202   5.295   4.367  1.00 20.00     0.016 C 
HETATM   11  C7  UNL     1     -34.170   4.175   4.353  1.00 20.00     0.006 C 
ENDBRANCH   8  10
ENDBRANCH   6   8
TORSDOF 2
ENDMDL
MODEL 4
REMARK VINA RESULT:       1.2      3.111      4.918
REMARK  2 active torsions:
REMARK  status: ('A' for Active; 'I' for Inactive)
REMARK    1  A    between atoms: C6_6  and  C9_9 
REMARK    2  A    between atoms: C8_8  and  C9_9 
ROOT
HETATM    1  C1  UNL     1     -33.062   5.604   1.562  1.00 20.00     0.027 C 
HETATM    2  C2  UNL     1     -31.875   6.537   1.807  1.00 20.00     0.008 C 
HETATM    3  C3  UNL     1     -33.586   8.286   2.657  1.00 20.00     0.032 C 
HETATM    4  C4  UNL     1     -34.035   5.479   2.738  1.00 20.00     0.167 C 
HETATM    5  C5  UNL     1     -33.799   7.523   3.964  1.00 20.00     0.168 C 
HETATM    6  C6  UNL     1     -32.238   8.025   1.968  1.00 20.00     0.006 C 
HETATM    7  O10 UNL     1     -33.542   6.122   3.906  1.00 20.00    -0.391 OA
ENDROOT
BRANCH   6   8
HETATM    8  C9  UNL     1     -32.221   8.729   0.606  1.00 20.00     0.086 C 
HETATM    9 CL11 UNL     1     -30.570   8.589  -0.045  1.00 20.00    -0.125 Cl
BRANCH   8  10
HETATM   10  C8  UNL     1     -32.658  10.180   0.754  1.00 20.00     0.016 C 
HETATM   11  C7  UNL     1     -33.043  10.808  -0.579  1.00 20.00     0.006 C 
ENDBRANCH   8  10
ENDBRANCH   6   8
TORSDOF 2
ENDMDL
MODEL 5
REMARK VINA RESULT:       1.4      2.151      3.296
REMARK  2 active torsions:
REMARK  status: ('A' for Active; 'I' for Inactive)
REMARK    1  A    between atoms: C6_6  and  C9_9 
REMARK    2  A    between atoms: C8_8  and  C9_9 
ROOT
HETATM    1  C1  UNL     1     -32.972  10.074   1.111  1.00 20.00     0.027 C 
HETATM    2  C2  UNL     1     -32.283   9.601   2.393  1.00 20.00     0.008 C 
HETATM    3  C3  UNL     1     -32.419   7.200   1.429  1.00 20.00     0.032 C 
HETATM    4  C4  UNL     1     -32.355   9.540  -0.185  1.00 20.00     0.167 C 
HETATM    5  C5  UNL     1     -31.299   7.480   0.428  1.00 20.00     0.168 C 
HETATM    6  C6  UNL     1     -32.406   8.092   2.680  1.00 20.00     0.006 C 
HETATM    7  O10 UNL     1     -31.138   8.845   0.053  1.00 20.00    -0.391 OA
ENDROOT
BRANCH   6   8
HETATM    8  C9  UNL     1     -33.660   7.809   3.517  1.00 20.00     0.086 C 
HETATM    9 CL11 UNL     1     -33.277   8.222   5.205  1.00 20.00    -0.125 Cl
BRANCH   8  10
HETATM   10  C8  UNL     1     -34.081   6.355   3.363  1.00 20.00     0.016 C 
HETATM   11  C7  UNL     1     -35.357   6.037   4.133  1.00 20.00     0.006 C 
ENDBRANCH   8  10
ENDBRANCH   6   8
TORSDOF 2
ENDMDL
MODEL 6
REMARK VINA RESULT:       1.7      2.498      3.806
REMARK  2 active torsions:
REMARK  status: ('A' for Active; 'I' for Inactive)
REMARK    1  A    between atoms: C6_6  and  C9_9 
REMARK    2  A    between atoms: C8_8  and  C9_9 
ROOT
HETATM    1  C1  UNL     1     -33.524   7.946   3.760  1.00 20.00     0.027 C 
HETATM    2  C2  UNL     1     -33.786   7.356   2.374  1.00 20.00     0.008 C 
HETATM    3  C3  UNL     1     -33.570   5.017   3.468  1.00 20.00     0.032 C 
HETATM    4  C4  UNL     1     -34.374   7.348   4.886  1.00 20.00     0.167 C 
HETATM    5  C5  UNL     1     -34.938   5.144   4.137  1.00 20.00     0.168 C 
HETATM    6  C6  UNL     1     -33.384   5.877   2.209  1.00 20.00     0.006 C 
HETATM    7  O10 UNL     1     -35.379   6.476   4.385  1.00 20.00    -0.391 OA
ENDROOT
BRANCH   6   8
HETATM    8  C9  UNL     1     -31.930   5.769   1.733  1.00 20.00     0.086 C 
HETATM    9 CL11 UNL     1     -31.390   7.409   1.299  1.00 20.00    -0.125 Cl
BRANCH   8  10
HETATM   10  C8  UNL     1     -31.827   4.802   0.563  1.00 20.00     0.016 C 
HETATM   11  C7  UNL     1     -33.190   4.436  -0.009  1.00 20.00     0.006 C 
ENDBRANCH   8  10
ENDBRANCH   6   8
TORSDOF 2
ENDMDL
MODEL 7
REMARK VINA RESULT:       1.8      2.739      4.773
REMARK  2 active torsions:
REMARK  status: ('A' for Active; 'I' for Inactive)
REMARK    1  A    between atoms: C6_6  and  C9_9 
REMARK    2  A    between atoms: C8_8  and  C9_9 
ROOT
HETATM    1  C1  UNL     1     -33.888   7.983   4.092  1.00 20.00     0.027 C 
HETATM    2  C2  UNL     1     -34.112   8.232   2.600  1.00 20.00     0.008 C 
HETATM    3  C3  UNL     1     -32.645   6.142   2.159  1.00 20.00     0.032 C 
HETATM    4  C4  UNL     1     -34.136   6.541   4.548  1.00 20.00     0.167 C 
HETATM    5  C5  UNL     1     -33.762   5.198   2.601  1.00 20.00     0.168 C 
HETATM    6  C6  UNL     1     -33.119   7.517   1.663  1.00 20.00     0.006 C 
HETATM    7  O10 UNL     1     -34.706   5.749   3.515  1.00 20.00    -0.391 OA
ENDROOT
BRANCH   6   8
HETATM    8  C9  UNL     1     -31.899   8.407   1.399  1.00 20.00     0.086 C 
HETATM    9 CL11 UNL     1     -30.953   8.474   2.905  1.00 20.00    -0.125 Cl
BRANCH   8  10
HETATM   10  C8  UNL     1     -32.341   9.789   0.938  1.00 20.00     0.016 C 
HETATM   11  C7  UNL     1     -32.649   9.831  -0.553  1.00 20.00     0.006 C 
ENDBRANCH   8  10
ENDBRANCH   6   8
TORSDOF 2
ENDMDL
MODEL 8
REMARK VINA RESULT:       1.9      2.478      4.222
REMARK  2 active torsions:
REMARK  status: ('A' for Active; 'I' for Inactive)
REMARK    1  A    between atoms: C6_6  and  C9_9 
REMARK    2  A    between atoms: C8_8  and  C9_9 
ROOT
HETATM    1  C1  UNL     1     -34.321   7.574   3.692  1.00 20.00     0.027 C 
HETATM    2  C2  UNL     1     -34.567   6.938   2.322  1.00 20.00     0.008 C 
HETATM    3  C3  UNL     1     -33.219   4.894   3.169  1.00 20.00     0.032 C 
HETATM    4  C4  UNL     1     -34.632   6.667   4.887  1.00 20.00     0.167 C 
HETATM    5  C5  UNL     1     -34.373   4.434   4.060  1.00 20.00     0.168 C 
HETATM    6  C6  UNL     1     -33.634   5.763   1.972  1.00 20.00     0.006 C 
HETATM    7  O10 UNL     1     -35.266   5.460   4.486  1.00 20.00    -0.391 OA
ENDROOT
BRANCH   6   8
HETATM    8  C9  UNL     1     -32.376   6.275   1.259  1.00 20.00     0.086 C 
HETATM    9 CL11 UNL     1     -31.180   4.956   1.279  1.00 20.00    -0.125 Cl
BRANCH   8  10
HETATM   10  C8  UNL     1     -31.856   7.532   1.940  1.00 20.00     0.016 C 
HETATM   11  C7  UNL     1     -31.923   8.754   1.032  1.00 20.00     0.006 C 
ENDBRANCH   8  10
ENDBRANCH   6   8
TORSDOF 2
ENDMDL
MODEL 9
REMARK VINA RESULT:       2.0      2.542      4.282
REMARK  2 active torsions:
REMARK  status: ('A' for Active; 'I' for Inactive)
REMARK    1  A    between atoms: C6_6  and  C9_9 
REMARK    2  A    between atoms: C8_8  and  C9_9 
ROOT
HETATM    1  C1  UNL     1     -34.640   5.396   3.159  1.00 20.00     0.027 C 
HETATM    2  C2  UNL     1     -33.131   5.642   3.211  1.00 20.00     0.008 C 
HETATM    3  C3  UNL     1     -33.671   8.176   3.168  1.00 20.00     0.032 C 
HETATM    4  C4  UNL     1     -35.459   6.204   4.170  1.00 20.00     0.167 C 
HETATM    5  C5  UNL     1     -34.145   8.155   4.621  1.00 20.00     0.168 C 
HETATM    6  C6  UNL     1     -32.687   7.057   2.793  1.00 20.00     0.006 C 
HETATM    7  O10 UNL     1     -34.629   6.900   5.091  1.00 20.00    -0.391 OA
ENDROOT
BRANCH   6   8
HETATM    8  C9  UNL     1     -32.415   7.107   1.285  1.00 20.00     0.086 C 
HETATM    9 CL11 UNL     1     -31.703   5.544   0.821  1.00 20.00    -0.125 Cl
BRANCH   8  10
HETATM   10  C8  UNL     1     -31.500   8.277   0.950  1.00 20.00     0.016 C 
HETATM   11  C7  UNL     1     -32.237   9.405   0.240  1.00 20.00     0.006 C 
ENDBRANCH   8  10
ENDBRANCH   6   8
TORSDOF 2
ENDMDL
