MODEL 1
REMARK VINA RESULT:      -2.5      0.000      0.000
REMARK  3 active torsions:
REMARK  status: ('A' for Active; 'I' for Inactive)
REMARK    1  A    between atoms: C2_2  and  C6_6 
REMARK    2  A    between atoms: C3_3  and  C7_7 
REMARK    3  A    between atoms: C3_3  and  O8_8 
ROOT
HETATM    1  C1  UNL     1     -35.431   6.210   3.677  1.00 20.00     0.045 A 
HETATM    2  C2  UNL     1     -34.337   5.395   4.316  1.00 20.00     0.022 A 
HETATM    3  C3  UNL     1     -33.994   6.649   3.539  1.00 20.00     0.062 A 
ENDROOT
BRANCH   3   4
HETATM    4  C7  UNL     1     -33.325   6.603   2.206  1.00 20.00     0.034 C 
HETATM    5  C5  UNL     1     -32.293   7.686   2.031  1.00 20.00     0.008 C 
ENDBRANCH   3   4
BRANCH   3   6
HETATM    6  O8  UNL     1     -33.605   7.782   4.337  1.00 20.00    -0.389 OA
HETATM    7  H22 UNL     1     -32.660   7.903   4.177  1.00 20.00     0.210 HD
ENDBRANCH   3   6
BRANCH   2   8
HETATM    8  C6  UNL     1     -34.022   4.030   3.806  1.00 20.00     0.003 C 
HETATM    9  C4  UNL     1     -33.291   3.179   4.814  1.00 20.00     0.005 C 
ENDBRANCH   2   8
TORSDOF 3
ENDMDL
MODEL 2
REMARK VINA RESULT:      -1.7      1.316      3.727
REMARK  3 active torsions:
REMARK  status: ('A' for Active; 'I' for Inactive)
REMARK    1  A    between atoms: C2_2  and  C6_6 
REMARK    2  A    between atoms: C3_3  and  C7_7 
REMARK    3  A    between atoms: C3_3  and  O8_8 
ROOT
HETATM    1  C1  UNL     1     -33.504   7.523   4.393  1.00 20.00     0.045 A 
HETATM    2  C2  UNL     1     -33.581   7.719   2.902  1.00 20.00     0.022 A 
HETATM    3  C3  UNL     1     -34.186   6.486   3.537  1.00 20.00     0.062 A 
ENDROOT
BRANCH   3   4
HETATM    4  C7  UNL     1     -33.580   5.131   3.383  1.00 20.00     0.034 C 
HETATM    5  C5  UNL     1     -34.138   4.125   4.356  1.00 20.00     0.008 C 
ENDBRANCH   3   4
BRANCH   3   6
HETATM    6  O8  UNL     1     -35.624   6.467   3.600  1.00 20.00    -0.389 OA
HETATM    7  H22 UNL     1     -35.897   5.671   3.125  1.00 20.00     0.210 HD
ENDBRANCH   3   6
BRANCH   2   8
HETATM    8  C6  UNL     1     -32.343   7.664   2.072  1.00 20.00     0.003 C 
HETATM    9  C4  UNL     1     -32.228   8.818   1.108  1.00 20.00     0.005 C 
ENDBRANCH   2   8
TORSDOF 3
ENDMDL
MODEL 3
REMARK VINA RESULT:      -1.7      2.036      4.028
REMARK  3 active torsions:
REMARK  status: ('A' for Active; 'I' for Inactive)
REMARK    1  A    between atoms: C2_2  and  C6_6 
REMARK    2  A    between atoms: C3_3  and  C7_7 
REMARK    3  A    between atoms: C3_3  and  O8_8 
ROOT
HETATM    1  C1  UNL     1     -33.414   6.276   1.149  1.00 20.00     0.045 A 
HETATM    2  C2  UNL     1     -32.177   6.712   1.889  1.00 20.00     0.022 A 
HETATM    3  C3  UNL     1     -33.351   6.133   2.649  1.00 20.00     0.062 A 
ENDROOT
BRANCH   3   4
HETATM    4  C7  UNL     1     -34.232   6.971   3.516  1.00 20.00     0.034 C 
HETATM    5  C5  UNL     1     -35.384   6.198   4.102  1.00 20.00     0.008 C 
ENDBRANCH   3   4
BRANCH   3   6
HETATM    6  O8  UNL     1     -33.167   4.794   3.144  1.00 20.00    -0.389 OA
HETATM    7  H22 UNL     1     -33.190   4.865   4.107  1.00 20.00     0.210 HD
ENDBRANCH   3   6
BRANCH   2   8
HETATM    8  C6  UNL     1     -31.814   8.156   1.962  1.00 20.00     0.003 C 
HETATM    9  C4  UNL     1     -32.173   8.917   0.710  1.00 20.00     0.005 C 
ENDBRANCH   2   8
TORSDOF 3
ENDMDL
MODEL 4
REMARK VINA RESULT:      -1.4      2.690      4.679
REMARK  3 active torsions:
REMARK  status: ('A' for Active; 'I' for Inactive)
REMARK    1  A    between atoms: C2_2  and  C6_6 
REMARK    2  A    between atoms: C3_3  and  C7_7 
REMARK    3  A    between atoms: C3_3  and  O8_8 
ROOT
HETATM    1  C1  UNL     1     -31.342   7.981   2.379  1.00 20.00     0.045 A 
HETATM    2  C2  UNL     1     -32.386   8.815   1.682  1.00 20.00     0.022 A 
HETATM    3  C3  UNL     1     -32.754   7.465   2.259  1.00 20.00     0.062 A 
ENDROOT
BRANCH   3   4
HETATM    4  C7  UNL     1     -33.045   6.282   1.397  1.00 20.00     0.034 C 
HETATM    5  C5  UNL     1     -31.901   5.304   1.338  1.00 20.00     0.008 C 
ENDBRANCH   3   4
BRANCH   3   6
HETATM    6  O8  UNL     1     -33.540   7.503   3.465  1.00 20.00    -0.389 OA
HETATM    7  H22 UNL     1     -33.441   6.631   3.869  1.00 20.00     0.210 HD
ENDBRANCH   3   6
BRANCH   2   8
HETATM    8  C6  UNL     1     -32.296   9.057   0.214  1.00 20.00     0.003 C 
HETATM    9  C4  UNL     1     -32.710  10.453  -0.179  1.00 20.00     0.005 C 
ENDBRANCH   2   8
TORSDOF 3
ENDMDL
MODEL 5
REMARK VINA RESULT:      -1.0      2.273      3.390
REMARK  3 active torsions:
REMARK  status: ('A' for Active; 'I' for Inactive)
REMARK    1  A    between atoms: C2_2  and  C6_6 
REMARK    2  A    between atoms: C3_3  and  C7_7 
REMARK    3  A    between atoms: C3_3  and  O8_8 
ROOT
HETATM    1  C1  UNL     1     -31.787   8.430   3.419  1.00 20.00     0.045 A 
HETATM    2  C2  UNL     1     -32.872   7.413   3.181  1.00 20.00     0.022 A 
HETATM    3  C3  UNL     1     -32.254   8.150   2.013  1.00 20.00     0.062 A 
ENDROOT
BRANCH   3   4
HETATM    4  C7  UNL     1     -32.994   9.199   1.250  1.00 20.00     0.034 C 
HETATM    5  C5  UNL     1     -32.233   9.699   0.051  1.00 20.00     0.008 C 
ENDBRANCH   3   4
BRANCH   3   6
HETATM    6  O8  UNL     1     -31.357   7.375   1.197  1.00 20.00    -0.389 OA
HETATM    7  H22 UNL     1     -31.446   7.727   0.302  1.00 20.00     0.210 HD
ENDBRANCH   3   6
BRANCH   2   8
HETATM    8  C6  UNL     1     -34.264   7.675   3.644  1.00 20.00     0.003 C 
HETATM    9  C4  UNL     1     -35.048   6.413   3.899  1.00 20.00     0.005 C 
ENDBRANCH   2   8
TORSDOF 3
ENDMDL
MODEL 6
REMARK VINA RESULT:      -0.8      2.743      3.244
REMARK  3 active torsions:
REMARK  status: ('A' for Active; 'I' for Inactive)
REMARK    1  A    between atoms: C2_2  and  C6_6 
REMARK    2  A    between atoms: C3_3  and  C7_7 
REMARK    3  A    between atoms: C3_3  and  O8_8 
ROOT
HETATM    1  C1  UNL     1     -33.405   7.660   2.616  1.00 20.00     0.045 A 
HETATM    2  C2  UNL     1     -32.449   6.596   2.145  1.00 20.00     0.022 A 
HETATM    3  C3  UNL     1     -32.135   8.057   1.906  1.00 20.00     0.062 A 
ENDROOT
BRANCH   3   4
HETATM    4  C7  UNL     1     -32.202   8.675   0.549  1.00 20.00     0.034 C 
HETATM    5  C5  UNL     1     -32.526  10.146   0.590  1.00 20.00     0.008 C 
ENDBRANCH   3   4
BRANCH   3   6
HETATM    6  O8  UNL     1     -31.098   8.610   2.737  1.00 20.00    -0.389 OA
HETATM    7  H22 UNL     1     -30.310   8.081   2.559  1.00 20.00     0.210 HD
ENDBRANCH   3   6
BRANCH   2   8
HETATM    8  C6  UNL     1     -32.837   5.672   1.041  1.00 20.00     0.003 C 
HETATM    9  C4  UNL     1     -31.768   4.660   0.717  1.00 20.00     0.005 C 
ENDBRANCH   2   8
TORSDOF 3
ENDMDL
MODEL 7
REMARK VINA RESULT:      -0.5      1.249      1.774
REMARK  3 active torsions:
REMARK  status: ('A' for Active; 'I' for Inactive)
REMARK    1  A    between atoms: C2_2  and  C6_6 
REMARK    2  A    between atoms: C3_3  and  C7_7 
REMARK    3  A    between atoms: C3_3  and  O8_8 
ROOT
HETATM    1  C1  UNL     1     -34.475   8.213   3.255  1.00 20.00     0.045 A 
HETATM    2  C2  UNL     1     -34.143   6.986   4.063  1.00 20.00     0.022 A 
HETATM    3  C3  UNL     1     -33.292   7.361   2.869  1.00 20.00     0.062 A 
ENDROOT
BRANCH   3   4
HETATM    4  C7  UNL     1     -33.317   6.582   1.596  1.00 20.00     0.034 C 
HETATM    5  C5  UNL     1     -32.095   5.723   1.410  1.00 20.00     0.008 C 
ENDBRANCH   3   4
BRANCH   3   6
HETATM    6  O8  UNL     1     -31.997   7.907   3.181  1.00 20.00    -0.389 OA
HETATM    7  H22 UNL     1     -31.930   7.888   4.144  1.00 20.00     0.210 HD
ENDBRANCH   3   6
BRANCH   2   8
HETATM    8  C6  UNL     1     -35.058   5.809   4.053  1.00 20.00     0.003 C 
HETATM    9  C4  UNL     1     -34.348   4.508   4.334  1.00 20.00     0.005 C 
ENDBRANCH   2   8
TORSDOF 3
ENDMDL
MODEL 8
REMARK VINA RESULT:      -0.4      2.282      2.930
REMARK  3 active torsions:
REMARK  status: ('A' for Active; 'I' for Inactive)
REMARK    1  A    between atoms: C2_2  and  C6_6 
REMARK    2  A    between atoms: C3_3  and  C7_7 
REMARK    3  A    between atoms: C3_3  and  O8_8 
ROOT
HETATM    1  C1  UNL     1     -32.462   5.473   2.170  1.00 20.00     0.045 A 
HETATM    2  C2  UNL     1     -33.801   6.122   2.405  1.00 20.00     0.022 A 
HETATM    3  C3  UNL     1     -32.788   6.781   1.494  1.00 20.00     0.062 A 
ENDROOT
BRANCH   3   4
HETATM    4  C7  UNL     1     -32.056   8.023   1.880  1.00 20.00     0.034 C 
HETATM    5  C5  UNL     1     -32.151   9.107   0.839  1.00 20.00     0.008 C 
ENDBRANCH   3   4
BRANCH   3   6
HETATM    6  O8  UNL     1     -33.082   6.704   0.087  1.00 20.00    -0.389 OA
HETATM    7  H22 UNL     1     -32.672   5.886  -0.223  1.00 20.00     0.210 HD
ENDBRANCH   3   6
BRANCH   2   8
HETATM    8  C6  UNL     1     -34.143   6.673   3.748  1.00 20.00     0.003 C 
HETATM    9  C4  UNL     1     -35.413   6.092   4.316  1.00 20.00     0.005 C 
ENDBRANCH   2   8
TORSDOF 3
ENDMDL
MODEL 9
REMARK VINA RESULT:      -0.2      1.507      1.868
REMARK  3 active torsions:
REMARK  status: ('A' for Active; 'I' for Inactive)
REMARK    1  A    between atoms: C2_2  and  C6_6 
REMARK    2  A    between atoms: C3_3  and  C7_7 
REMARK    3  A    between atoms: C3_3  and  O8_8 
ROOT
HETATM    1  C1  UNL     1     -33.831   5.591   2.695  1.00 20.00     0.045 A 
HETATM    2  C2  UNL     1     -34.464   4.761   3.781  1.00 20.00     0.022 A 
HETATM    3  C3  UNL     1     -34.739   6.247   3.705  1.00 20.00     0.062 A 
ENDROOT
BRANCH   3   4
HETATM    4  C7  UNL     1     -34.177   7.213   4.695  1.00 20.00     0.034 C 
HETATM    5  C5  UNL     1     -33.110   8.100   4.108  1.00 20.00     0.008 C 
ENDBRANCH   3   4
BRANCH   3   6
HETATM    6  O8  UNL     1     -36.048   6.610   3.229  1.00 20.00    -0.389 OA
HETATM    7  H22 UNL     1     -36.225   7.487   3.593  1.00 20.00     0.210 HD
ENDBRANCH   3   6
BRANCH   2   8
HETATM    8  C6  UNL     1     -33.623   4.159   4.854  1.00 20.00     0.003 C 
HETATM    9  C4  UNL     1     -33.240   2.728   4.569  1.00 20.00     0.005 C 
ENDBRANCH   2   8
TORSDOF 3
ENDMDL
