MODEL 1
REMARK VINA RESULT:      -0.9      0.000      0.000
REMARK  2 active torsions:
REMARK  status: ('A' for Active; 'I' for Inactive)
REMARK    1  A    between atoms: C4_4  and  C7_7 
REMARK    2  A    between atoms: C6_6  and  C7_7 
ROOT
HETATM    1  C1  UNL     1     -34.252   7.525   4.119  1.00 20.00     0.034 C 
HETATM    2  C2  UNL     1     -35.422   6.600   3.846  1.00 20.00     0.168 C 
HETATM    3  C3  UNL     1     -33.456   5.352   3.728  1.00 20.00     0.173 C 
HETATM    4  C4  UNL     1     -33.089   6.805   3.471  1.00 20.00     0.026 C 
HETATM    5  O8  UNL     1     -34.889   5.274   3.721  1.00 20.00    -0.391 OA
ENDROOT
BRANCH   4   6
HETATM    6  C7  UNL     1     -32.987   7.107   1.977  1.00 20.00     0.063 C 
HETATM    7 BR9  UNL     1     -32.534   5.440   1.047  1.00 20.00    -0.091 Br
BRANCH   6   8
HETATM    8  C6  UNL     1     -31.929   8.174   1.682  1.00 20.00     0.012 C 
HETATM    9  C5  UNL     1     -32.390   9.228   0.683  1.00 20.00     0.006 C 
ENDBRANCH   6   8
ENDBRANCH   4   6
TORSDOF 2
ENDMDL
MODEL 2
REMARK VINA RESULT:       0.1      1.776      3.491
REMARK  2 active torsions:
REMARK  status: ('A' for Active; 'I' for Inactive)
REMARK    1  A    between atoms: C4_4  and  C7_7 
REMARK    2  A    between atoms: C6_6  and  C7_7 
ROOT
HETATM    1  C1  UNL     1     -34.445   7.345   4.151  1.00 20.00     0.034 C 
HETATM    2  C2  UNL     1     -33.297   7.975   4.915  1.00 20.00     0.168 C 
HETATM    3  C3  UNL     1     -32.740   7.939   2.651  1.00 20.00     0.173 C 
HETATM    4  C4  UNL     1     -33.782   6.856   2.880  1.00 20.00     0.026 C 
HETATM    5  O8  UNL     1     -32.336   8.413   3.944  1.00 20.00    -0.391 OA
ENDROOT
BRANCH   4   6
HETATM    6  C7  UNL     1     -33.139   5.481   3.062  1.00 20.00     0.063 C 
HETATM    7 BR9  UNL     1     -32.488   4.879   1.311  1.00 20.00    -0.091 Br
BRANCH   6   8
HETATM    8  C6  UNL     1     -34.128   4.460   3.631  1.00 20.00     0.012 C 
HETATM    9  C5  UNL     1     -33.462   3.354   4.440  1.00 20.00     0.006 C 
ENDBRANCH   6   8
ENDBRANCH   4   6
TORSDOF 2
ENDMDL
MODEL 3
REMARK VINA RESULT:       0.1      2.002      2.472
REMARK  2 active torsions:
REMARK  status: ('A' for Active; 'I' for Inactive)
REMARK    1  A    between atoms: C4_4  and  C7_7 
REMARK    2  A    between atoms: C6_6  and  C7_7 
ROOT
HETATM    1  C1  UNL     1     -33.755   5.048   2.615  1.00 20.00     0.034 C 
HETATM    2  C2  UNL     1     -34.024   4.358   3.937  1.00 20.00     0.168 C 
HETATM    3  C3  UNL     1     -35.319   6.295   3.842  1.00 20.00     0.173 C 
HETATM    4  C4  UNL     1     -34.148   6.484   2.892  1.00 20.00     0.026 C 
HETATM    5  O8  UNL     1     -35.060   5.102   4.595  1.00 20.00    -0.391 OA
ENDROOT
BRANCH   4   6
HETATM    6  C7  UNL     1     -33.012   7.273   3.543  1.00 20.00     0.063 C 
HETATM    7 BR9  UNL     1     -33.742   8.219   5.099  1.00 20.00    -0.091 Br
BRANCH   6   8
HETATM    8  C6  UNL     1     -32.385   8.276   2.570  1.00 20.00     0.012 C 
HETATM    9  C5  UNL     1     -31.721   7.620   1.365  1.00 20.00     0.006 C 
ENDBRANCH   6   8
ENDBRANCH   4   6
TORSDOF 2
ENDMDL
MODEL 4
REMARK VINA RESULT:       0.2      2.186      3.451
REMARK  2 active torsions:
REMARK  status: ('A' for Active; 'I' for Inactive)
REMARK    1  A    between atoms: C4_4  and  C7_7 
REMARK    2  A    between atoms: C6_6  and  C7_7 
ROOT
HETATM    1  C1  UNL     1     -32.901   7.915   1.646  1.00 20.00     0.034 C 
HETATM    2  C2  UNL     1     -31.477   7.396   1.671  1.00 20.00     0.168 C 
HETATM    3  C3  UNL     1     -32.921   5.572   1.521  1.00 20.00     0.173 C 
HETATM    4  C4  UNL     1     -33.707   6.726   2.123  1.00 20.00     0.026 C 
HETATM    5  O8  UNL     1     -31.545   5.975   1.486  1.00 20.00    -0.391 OA
ENDROOT
BRANCH   4   6
HETATM    6  C7  UNL     1     -33.758   6.642   3.648  1.00 20.00     0.063 C 
HETATM    7 BR9  UNL     1     -35.175   5.377   4.141  1.00 20.00    -0.091 Br
BRANCH   6   8
HETATM    8  C6  UNL     1     -34.033   8.008   4.284  1.00 20.00     0.012 C 
HETATM    9  C5  UNL     1     -33.005   8.407   5.335  1.00 20.00     0.006 C 
ENDBRANCH   6   8
ENDBRANCH   4   6
TORSDOF 2
ENDMDL
MODEL 5
REMARK VINA RESULT:       0.4      2.927      4.233
REMARK  2 active torsions:
REMARK  status: ('A' for Active; 'I' for Inactive)
REMARK    1  A    between atoms: C4_4  and  C7_7 
REMARK    2  A    between atoms: C6_6  and  C7_7 
ROOT
HETATM    1  C1  UNL     1     -31.359   8.535   0.259  1.00 20.00     0.034 C 
HETATM    2  C2  UNL     1     -32.417   9.425  -0.362  1.00 20.00     0.168 C 
HETATM    3  C3  UNL     1     -32.500   9.692   1.953  1.00 20.00     0.173 C 
HETATM    4  C4  UNL     1     -31.864   8.340   1.673  1.00 20.00     0.026 C 
HETATM    5  O8  UNL     1     -33.007  10.184   0.703  1.00 20.00    -0.391 OA
ENDROOT
BRANCH   4   6
HETATM    6  C7  UNL     1     -32.883   7.205   1.766  1.00 20.00     0.063 C 
HETATM    7 BR9  UNL     1     -33.802   7.352   3.494  1.00 20.00    -0.091 Br
BRANCH   6   8
HETATM    8  C6  UNL     1     -32.218   5.831   1.643  1.00 20.00     0.012 C 
HETATM    9  C5  UNL     1     -32.857   4.939   0.585  1.00 20.00     0.006 C 
ENDBRANCH   6   8
ENDBRANCH   4   6
TORSDOF 2
ENDMDL
MODEL 6
REMARK VINA RESULT:       0.8      2.478      4.027
REMARK  2 active torsions:
REMARK  status: ('A' for Active; 'I' for Inactive)
REMARK    1  A    between atoms: C4_4  and  C7_7 
REMARK    2  A    between atoms: C6_6  and  C7_7 
ROOT
HETATM    1  C1  UNL     1     -33.018   5.798   1.298  1.00 20.00     0.034 C 
HETATM    2  C2  UNL     1     -33.026   7.123   0.562  1.00 20.00     0.168 C 
HETATM    3  C3  UNL     1     -31.998   7.440   2.630  1.00 20.00     0.173 C 
HETATM    4  C4  UNL     1     -32.890   6.214   2.748  1.00 20.00     0.026 C 
HETATM    5  O8  UNL     1     -32.300   8.059   1.371  1.00 20.00    -0.391 OA
ENDROOT
BRANCH   4   6
HETATM    6  C7  UNL     1     -34.244   6.557   3.367  1.00 20.00     0.063 C 
HETATM    7 BR9  UNL     1     -33.976   8.020   4.647  1.00 20.00    -0.091 Br
BRANCH   6   8
HETATM    8  C6  UNL     1     -34.868   5.352   4.076  1.00 20.00     0.012 C 
HETATM    9  C5  UNL     1     -33.946   4.141   4.142  1.00 20.00     0.006 C 
ENDBRANCH   6   8
ENDBRANCH   4   6
TORSDOF 2
ENDMDL
MODEL 7
REMARK VINA RESULT:       0.9      1.712      2.364
REMARK  2 active torsions:
REMARK  status: ('A' for Active; 'I' for Inactive)
REMARK    1  A    between atoms: C4_4  and  C7_7 
REMARK    2  A    between atoms: C6_6  and  C7_7 
ROOT
HETATM    1  C1  UNL     1     -33.125   5.471   1.451  1.00 20.00     0.034 C 
HETATM    2  C2  UNL     1     -33.057   4.855   2.835  1.00 20.00     0.168 C 
HETATM    3  C3  UNL     1     -34.150   6.908   2.999  1.00 20.00     0.173 C 
HETATM    4  C4  UNL     1     -33.294   6.947   1.743  1.00 20.00     0.026 C 
HETATM    5  O8  UNL     1     -33.788   5.719   3.716  1.00 20.00    -0.391 OA
ENDROOT
BRANCH   4   6
HETATM    6  C7  UNL     1     -31.954   7.639   1.992  1.00 20.00     0.063 C 
HETATM    7 BR9  UNL     1     -32.119   8.715   3.625  1.00 20.00    -0.091 Br
BRANCH   6   8
HETATM    8  C6  UNL     1     -31.546   8.532   0.817  1.00 20.00     0.012 C 
HETATM    9  C5  UNL     1     -32.501   9.695   0.578  1.00 20.00     0.006 C 
ENDBRANCH   6   8
ENDBRANCH   4   6
TORSDOF 2
ENDMDL
MODEL 8
REMARK VINA RESULT:       1.1      1.894      2.376
REMARK  2 active torsions:
REMARK  status: ('A' for Active; 'I' for Inactive)
REMARK    1  A    between atoms: C4_4  and  C7_7 
REMARK    2  A    between atoms: C6_6  and  C7_7 
ROOT
HETATM    1  C1  UNL     1     -32.756   7.862   3.203  1.00 20.00     0.034 C 
HETATM    2  C2  UNL     1     -33.858   6.850   2.960  1.00 20.00     0.168 C 
HETATM    3  C3  UNL     1     -32.010   6.247   1.672  1.00 20.00     0.173 C 
HETATM    4  C4  UNL     1     -31.895   7.734   1.964  1.00 20.00     0.026 C 
HETATM    5  O8  UNL     1     -33.314   5.834   2.105  1.00 20.00    -0.391 OA
ENDROOT
BRANCH   4   6
HETATM    6  C7  UNL     1     -32.426   8.581   0.807  1.00 20.00     0.063 C 
HETATM    7 BR9  UNL     1     -31.021   8.698  -0.557  1.00 20.00    -0.091 Br
BRANCH   6   8
HETATM    8  C6  UNL     1     -32.826   9.986   1.267  1.00 20.00     0.012 C 
HETATM    9  C5  UNL     1     -32.664  11.048   0.187  1.00 20.00     0.006 C 
ENDBRANCH   6   8
ENDBRANCH   4   6
TORSDOF 2
ENDMDL
MODEL 9
REMARK VINA RESULT:       1.2      1.858      2.416
REMARK  2 active torsions:
REMARK  status: ('A' for Active; 'I' for Inactive)
REMARK    1  A    between atoms: C4_4  and  C7_7 
REMARK    2  A    between atoms: C6_6  and  C7_7 
ROOT
HETATM    1  C1  UNL     1     -35.272   6.682   2.894  1.00 20.00     0.034 C 
HETATM    2  C2  UNL     1     -35.171   5.992   4.240  1.00 20.00     0.168 C 
HETATM    3  C3  UNL     1     -34.018   8.015   4.364  1.00 20.00     0.173 C 
HETATM    4  C4  UNL     1     -34.079   7.616   2.899  1.00 20.00     0.026 C 
HETATM    5  O8  UNL     1     -34.490   6.894   5.125  1.00 20.00    -0.391 OA
ENDROOT
BRANCH   4   6
HETATM    6  C7  UNL     1     -32.799   6.912   2.449  1.00 20.00     0.063 C 
HETATM    7 BR9  UNL     1     -31.674   8.228   1.525  1.00 20.00    -0.091 Br
BRANCH   6   8
HETATM    8  C6  UNL     1     -33.094   5.732   1.519  1.00 20.00     0.012 C 
HETATM    9  C5  UNL     1     -31.840   5.057   0.977  1.00 20.00     0.006 C 
ENDBRANCH   6   8
ENDBRANCH   4   6
TORSDOF 2
ENDMDL
