MODEL 1
REMARK VINA RESULT:      -1.4      0.000      0.000
REMARK  2 active torsions:
REMARK  status: ('A' for Active; 'I' for Inactive)
REMARK    1  A    between atoms: C3_3  and  C7_7 
REMARK    2  A    between atoms: C3_3  and  O8_8 
ROOT
HETATM    1  C1  UNL     1     -31.503   8.196   2.650  1.00 20.00     0.045 A 
HETATM    2  C2  UNL     1     -32.465   8.826   1.676  1.00 20.00     0.019 A 
HETATM    3  C3  UNL     1     -32.839   7.548   2.387  1.00 20.00     0.065 A 
HETATM    4  C4  UNL     1     -32.150   8.845   0.220  1.00 20.00     0.013 C 
ENDROOT
BRANCH   3   5
HETATM    5  C7  UNL     1     -33.893   7.564   3.444  1.00 20.00     0.012 C 
HETATM    6  C5  UNL     1     -34.540   6.180   3.626  1.00 20.00     0.012 C 
HETATM    7  C6  UNL     1     -33.340   8.049   4.796  1.00 20.00     0.012 C 
ENDBRANCH   3   5
BRANCH   3   8
HETATM    8  O8  UNL     1     -32.806   6.332   1.622  1.00 20.00    -0.389 OA
HETATM    9  H22 UNL     1     -33.255   5.668   2.161  1.00 20.00     0.210 HD
ENDBRANCH   3   8
TORSDOF 2
ENDMDL
MODEL 2
REMARK VINA RESULT:      -1.0      1.782      2.183
REMARK  2 active torsions:
REMARK  status: ('A' for Active; 'I' for Inactive)
REMARK    1  A    between atoms: C3_3  and  C7_7 
REMARK    2  A    between atoms: C3_3  and  O8_8 
ROOT
HETATM    1  C1  UNL     1     -32.200   6.734   2.130  1.00 20.00     0.045 A 
HETATM    2  C2  UNL     1     -33.243   6.104   1.243  1.00 20.00     0.019 A 
HETATM    3  C3  UNL     1     -33.396   6.050   2.744  1.00 20.00     0.065 A 
HETATM    4  C4  UNL     1     -32.913   4.889   0.447  1.00 20.00     0.013 C 
ENDROOT
BRANCH   3   5
HETATM    5  C7  UNL     1     -34.453   6.862   3.415  1.00 20.00     0.012 C 
HETATM    6  C5  UNL     1     -35.444   5.977   4.194  1.00 20.00     0.012 C 
HETATM    7  C6  UNL     1     -33.850   7.909   4.368  1.00 20.00     0.012 C 
ENDBRANCH   3   5
BRANCH   3   8
HETATM    8  O8  UNL     1     -33.137   4.792   3.389  1.00 20.00    -0.389 OA
HETATM    9  H22 UNL     1     -32.681   4.248   2.734  1.00 20.00     0.210 HD
ENDBRANCH   3   8
TORSDOF 2
ENDMDL
MODEL 3
REMARK VINA RESULT:      -0.9      1.627      3.783
REMARK  2 active torsions:
REMARK  status: ('A' for Active; 'I' for Inactive)
REMARK    1  A    between atoms: C3_3  and  C7_7 
REMARK    2  A    between atoms: C3_3  and  O8_8 
ROOT
HETATM    1  C1  UNL     1     -33.385   5.154   3.596  1.00 20.00     0.045 A 
HETATM    2  C2  UNL     1     -34.666   5.850   3.213  1.00 20.00     0.019 A 
HETATM    3  C3  UNL     1     -33.342   6.555   3.039  1.00 20.00     0.065 A 
HETATM    4  C4  UNL     1     -35.637   6.261   4.265  1.00 20.00     0.013 C 
ENDROOT
BRANCH   3   5
HETATM    5  C7  UNL     1     -32.799   6.794   1.670  1.00 20.00     0.012 C 
HETATM    6  C5  UNL     1     -31.877   8.026   1.628  1.00 20.00     0.012 C 
HETATM    7  C6  UNL     1     -32.035   5.569   1.136  1.00 20.00     0.012 C 
ENDBRANCH   3   5
BRANCH   3   8
HETATM    8  O8  UNL     1     -33.019   7.593   3.979  1.00 20.00    -0.389 OA
HETATM    9  H22 UNL     1     -32.057   7.678   3.959  1.00 20.00     0.210 HD
ENDBRANCH   3   8
TORSDOF 2
ENDMDL
MODEL 4
REMARK VINA RESULT:      -0.8      1.425      3.650
REMARK  2 active torsions:
REMARK  status: ('A' for Active; 'I' for Inactive)
REMARK    1  A    between atoms: C3_3  and  C7_7 
REMARK    2  A    between atoms: C3_3  and  O8_8 
ROOT
HETATM    1  C1  UNL     1     -32.292   6.528   1.720  1.00 20.00     0.045 A 
HETATM    2  C2  UNL     1     -33.504   7.239   2.263  1.00 20.00     0.019 A 
HETATM    3  C3  UNL     1     -32.296   8.032   1.827  1.00 20.00     0.065 A 
HETATM    4  C4  UNL     1     -33.870   7.101   3.701  1.00 20.00     0.013 C 
ENDROOT
BRANCH   3   5
HETATM    5  C7  UNL     1     -32.358   8.865   0.590  1.00 20.00     0.012 C 
HETATM    6  C5  UNL     1     -32.712  10.329   0.905  1.00 20.00     0.012 C 
HETATM    7  C6  UNL     1     -31.036   8.820  -0.196  1.00 20.00     0.012 C 
ENDBRANCH   3   5
BRANCH   3   8
HETATM    8  O8  UNL     1     -31.464   8.589   2.858  1.00 20.00    -0.389 OA
HETATM    9  H22 UNL     1     -32.022   8.648   3.644  1.00 20.00     0.210 HD
ENDBRANCH   3   8
TORSDOF 2
ENDMDL
MODEL 5
REMARK VINA RESULT:      -0.7      1.299      3.589
REMARK  2 active torsions:
REMARK  status: ('A' for Active; 'I' for Inactive)
REMARK    1  A    between atoms: C3_3  and  C7_7 
REMARK    2  A    between atoms: C3_3  and  O8_8 
ROOT
HETATM    1  C1  UNL     1     -35.093   5.889   3.698  1.00 20.00     0.045 A 
HETATM    2  C2  UNL     1     -33.950   5.110   4.296  1.00 20.00     0.019 A 
HETATM    3  C3  UNL     1     -33.690   6.104   3.189  1.00 20.00     0.065 A 
HETATM    4  C4  UNL     1     -33.845   3.642   4.066  1.00 20.00     0.013 C 
ENDROOT
BRANCH   3   5
HETATM    5  C7  UNL     1     -32.979   7.381   3.487  1.00 20.00     0.012 C 
HETATM    6  C5  UNL     1     -32.390   8.017   2.215  1.00 20.00     0.012 C 
HETATM    7  C6  UNL     1     -33.900   8.399   4.184  1.00 20.00     0.012 C 
ENDBRANCH   3   5
BRANCH   3   8
HETATM    8  O8  UNL     1     -33.410   5.578   1.881  1.00 20.00    -0.389 OA
HETATM    9  H22 UNL     1     -32.472   5.349   1.884  1.00 20.00     0.210 HD
ENDBRANCH   3   8
TORSDOF 2
ENDMDL
MODEL 6
REMARK VINA RESULT:      -0.6      1.176      3.594
REMARK  2 active torsions:
REMARK  status: ('A' for Active; 'I' for Inactive)
REMARK    1  A    between atoms: C3_3  and  C7_7 
REMARK    2  A    between atoms: C3_3  and  O8_8 
ROOT
HETATM    1  C1  UNL     1     -35.448   6.057   3.653  1.00 20.00     0.045 A 
HETATM    2  C2  UNL     1     -34.264   5.470   4.378  1.00 20.00     0.019 A 
HETATM    3  C3  UNL     1     -34.048   6.411   3.216  1.00 20.00     0.065 A 
HETATM    4  C4  UNL     1     -33.968   4.014   4.268  1.00 20.00     0.013 C 
ENDROOT
BRANCH   3   5
HETATM    5  C7  UNL     1     -33.518   7.784   3.459  1.00 20.00     0.012 C 
HETATM    6  C5  UNL     1     -33.233   8.031   4.952  1.00 20.00     0.012 C 
HETATM    7  C6  UNL     1     -32.240   8.056   2.646  1.00 20.00     0.012 C 
ENDBRANCH   3   5
BRANCH   3   8
HETATM    8  O8  UNL     1     -33.615   5.835   1.973  1.00 20.00    -0.389 OA
HETATM    9  H22 UNL     1     -32.703   6.127   1.850  1.00 20.00     0.210 HD
ENDBRANCH   3   8
TORSDOF 2
ENDMDL
MODEL 7
REMARK VINA RESULT:      -0.6      1.243      1.740
REMARK  2 active torsions:
REMARK  status: ('A' for Active; 'I' for Inactive)
REMARK    1  A    between atoms: C3_3  and  C7_7 
REMARK    2  A    between atoms: C3_3  and  O8_8 
ROOT
HETATM    1  C1  UNL     1     -31.611   6.484   1.805  1.00 20.00     0.045 A 
HETATM    2  C2  UNL     1     -32.222   7.847   2.002  1.00 20.00     0.019 A 
HETATM    3  C3  UNL     1     -33.088   6.612   2.083  1.00 20.00     0.065 A 
HETATM    4  C4  UNL     1     -32.320   8.795   0.858  1.00 20.00     0.013 C 
ENDROOT
BRANCH   3   5
HETATM    5  C7  UNL     1     -33.637   6.172   3.399  1.00 20.00     0.012 C 
HETATM    6  C5  UNL     1     -34.989   6.842   3.706  1.00 20.00     0.012 C 
HETATM    7  C6  UNL     1     -33.801   4.643   3.467  1.00 20.00     0.012 C 
ENDBRANCH   3   5
BRANCH   3   8
HETATM    8  O8  UNL     1     -33.960   6.344   0.973  1.00 20.00    -0.389 OA
HETATM    9  H22 UNL     1     -34.120   7.197   0.550  1.00 20.00     0.210 HD
ENDBRANCH   3   8
TORSDOF 2
ENDMDL
MODEL 8
REMARK VINA RESULT:      -0.6      1.806      2.610
REMARK  2 active torsions:
REMARK  status: ('A' for Active; 'I' for Inactive)
REMARK    1  A    between atoms: C3_3  and  C7_7 
REMARK    2  A    between atoms: C3_3  and  O8_8 
ROOT
HETATM    1  C1  UNL     1     -33.943   6.207   1.257  1.00 20.00     0.045 A 
HETATM    2  C2  UNL     1     -32.772   5.439   1.812  1.00 20.00     0.019 A 
HETATM    3  C3  UNL     1     -33.182   6.749   2.440  1.00 20.00     0.065 A 
HETATM    4  C4  UNL     1     -31.517   5.313   1.019  1.00 20.00     0.013 C 
ENDROOT
BRANCH   3   5
HETATM    5  C7  UNL     1     -33.817   6.761   3.790  1.00 20.00     0.012 C 
HETATM    6  C5  UNL     1     -33.656   8.125   4.486  1.00 20.00     0.012 C 
HETATM    7  C6  UNL     1     -35.312   6.399   3.721  1.00 20.00     0.012 C 
ENDBRANCH   3   5
BRANCH   3   8
HETATM    8  O8  UNL     1     -32.352   7.894   2.182  1.00 20.00    -0.389 OA
HETATM    9  H22 UNL     1     -31.536   7.547   1.798  1.00 20.00     0.210 HD
ENDBRANCH   3   8
TORSDOF 2
ENDMDL
MODEL 9
REMARK VINA RESULT:      -0.5      1.475      1.920
REMARK  2 active torsions:
REMARK  status: ('A' for Active; 'I' for Inactive)
REMARK    1  A    between atoms: C3_3  and  C7_7 
REMARK    2  A    between atoms: C3_3  and  O8_8 
ROOT
HETATM    1  C1  UNL     1     -32.501   8.766   2.645  1.00 20.00     0.045 A 
HETATM    2  C2  UNL     1     -32.867   8.912   1.190  1.00 20.00     0.019 A 
HETATM    3  C3  UNL     1     -32.288   7.613   1.696  1.00 20.00     0.065 A 
HETATM    4  C4  UNL     1     -32.086   9.826   0.311  1.00 20.00     0.013 C 
ENDROOT
BRANCH   3   5
HETATM    5  C7  UNL     1     -33.152   6.400   1.793  1.00 20.00     0.012 C 
HETATM    6  C5  UNL     1     -32.394   5.125   1.383  1.00 20.00     0.012 C 
HETATM    7  C6  UNL     1     -33.722   6.218   3.212  1.00 20.00     0.012 C 
ENDBRANCH   3   5
BRANCH   3   8
HETATM    8  O8  UNL     1     -30.921   7.324   1.357  1.00 20.00    -0.389 OA
HETATM    9  H22 UNL     1     -30.811   7.604   0.440  1.00 20.00     0.210 HD
ENDBRANCH   3   8
TORSDOF 2
ENDMDL
