MODEL 1
REMARK VINA RESULT:      -0.7      0.000      0.000
REMARK  2 active torsions:
REMARK  status: ('A' for Active; 'I' for Inactive)
REMARK    1  A    between atoms: C4_4  and  C7_7 
REMARK    2  A    between atoms: C7_7  and  C8_8 
ROOT
HETATM    1  C1  UNL     1     -35.258   6.303   4.215  1.00 20.00     0.034 C 
HETATM    2  C2  UNL     1     -35.518   4.850   4.552  1.00 20.00     0.168 C 
HETATM    3  C3  UNL     1     -33.395   5.014   3.608  1.00 20.00     0.173 C 
HETATM    4  C4  UNL     1     -34.230   6.182   3.113  1.00 20.00     0.026 C 
HETATM    5  O9  UNL     1     -34.294   4.142   4.312  1.00 20.00    -0.391 OA
ENDROOT
BRANCH   4   6
HETATM    6  C7  UNL     1     -33.428   7.447   2.869  1.00 20.00     0.067 C 
HETATM    7 BR10 UNL     1     -32.963   8.233   4.611  1.00 20.00    -0.090 Br
BRANCH   6   8
HETATM    8  C8  UNL     1     -32.162   7.289   2.004  1.00 20.00    -0.008 C 
HETATM    9  C5  UNL     1     -31.932   8.539   1.147  1.00 20.00     0.011 C 
HETATM   10  C6  UNL     1     -32.167   6.061   1.124  1.00 20.00     0.011 C 
ENDBRANCH   6   8
ENDBRANCH   4   6
TORSDOF 2
ENDMDL
MODEL 2
REMARK VINA RESULT:      -0.7      1.782      2.032
REMARK  2 active torsions:
REMARK  status: ('A' for Active; 'I' for Inactive)
REMARK    1  A    between atoms: C4_4  and  C7_7 
REMARK    2  A    between atoms: C7_7  and  C8_8 
ROOT
HETATM    1  C1  UNL     1     -34.587   6.836   3.802  1.00 20.00     0.034 C 
HETATM    2  C2  UNL     1     -35.606   5.910   4.432  1.00 20.00     0.168 C 
HETATM    3  C3  UNL     1     -33.843   4.618   3.627  1.00 20.00     0.173 C 
HETATM    4  C4  UNL     1     -33.893   5.909   2.829  1.00 20.00     0.026 C 
HETATM    5  O9  UNL     1     -35.027   4.598   4.440  1.00 20.00    -0.391 OA
ENDROOT
BRANCH   4   6
HETATM    6  C7  UNL     1     -32.531   6.397   2.369  1.00 20.00     0.067 C 
HETATM    7 BR10 UNL     1     -32.022   5.387   0.759  1.00 20.00    -0.090 Br
BRANCH   6   8
HETATM    8  C8  UNL     1     -32.408   7.911   2.106  1.00 20.00    -0.008 C 
HETATM    9  C5  UNL     1     -31.833   8.172   0.709  1.00 20.00     0.011 C 
HETATM   10  C6  UNL     1     -31.592   8.650   3.141  1.00 20.00     0.011 C 
ENDBRANCH   6   8
ENDBRANCH   4   6
TORSDOF 2
ENDMDL
MODEL 3
REMARK VINA RESULT:      -0.3      2.851      4.695
REMARK  2 active torsions:
REMARK  status: ('A' for Active; 'I' for Inactive)
REMARK    1  A    between atoms: C4_4  and  C7_7 
REMARK    2  A    between atoms: C7_7  and  C8_8 
ROOT
HETATM    1  C1  UNL     1     -33.235   9.129   0.887  1.00 20.00     0.034 C 
HETATM    2  C2  UNL     1     -32.033   9.872   0.342  1.00 20.00     0.168 C 
HETATM    3  C3  UNL     1     -31.326   7.780   1.085  1.00 20.00     0.173 C 
HETATM    4  C4  UNL     1     -32.584   8.158   1.846  1.00 20.00     0.026 C 
HETATM    5  O9  UNL     1     -30.938   8.945   0.339  1.00 20.00    -0.391 OA
ENDROOT
BRANCH   4   6
HETATM    6  C7  UNL     1     -33.454   6.971   2.216  1.00 20.00     0.067 C 
HETATM    7 BR10 UNL     1     -32.578   5.334   1.567  1.00 20.00    -0.090 Br
BRANCH   6   8
HETATM    8  C8  UNL     1     -33.805   6.828   3.710  1.00 20.00    -0.008 C 
HETATM    9  C5  UNL     1     -35.227   6.282   3.883  1.00 20.00     0.011 C 
HETATM   10  C6  UNL     1     -33.648   8.104   4.504  1.00 20.00     0.011 C 
ENDBRANCH   6   8
ENDBRANCH   4   6
TORSDOF 2
ENDMDL
MODEL 4
REMARK VINA RESULT:      -0.1      2.812      4.654
REMARK  2 active torsions:
REMARK  status: ('A' for Active; 'I' for Inactive)
REMARK    1  A    between atoms: C4_4  and  C7_7 
REMARK    2  A    between atoms: C7_7  and  C8_8 
ROOT
HETATM    1  C1  UNL     1     -32.638  10.113   1.429  1.00 20.00     0.034 C 
HETATM    2  C2  UNL     1     -32.824  10.829   0.109  1.00 20.00     0.168 C 
HETATM    3  C3  UNL     1     -32.557   8.555  -0.323  1.00 20.00     0.173 C 
HETATM    4  C4  UNL     1     -31.885   8.873   1.001  1.00 20.00     0.026 C 
HETATM    5  O9  UNL     1     -32.927   9.816  -0.902  1.00 20.00    -0.391 OA
ENDROOT
BRANCH   4   6
HETATM    6  C7  UNL     1     -31.940   7.735   2.003  1.00 20.00     0.067 C 
HETATM    7 BR10 UNL     1     -32.348   8.487   3.775  1.00 20.00    -0.090 Br
BRANCH   6   8
HETATM    8  C8  UNL     1     -32.920   6.591   1.675  1.00 20.00    -0.008 C 
HETATM    9  C5  UNL     1     -33.842   6.309   2.867  1.00 20.00     0.011 C 
HETATM   10  C6  UNL     1     -32.247   5.311   1.237  1.00 20.00     0.011 C 
ENDBRANCH   6   8
ENDBRANCH   4   6
TORSDOF 2
ENDMDL
MODEL 5
REMARK VINA RESULT:      -0.0      2.064      2.767
REMARK  2 active torsions:
REMARK  status: ('A' for Active; 'I' for Inactive)
REMARK    1  A    between atoms: C4_4  and  C7_7 
REMARK    2  A    between atoms: C7_7  and  C8_8 
ROOT
HETATM    1  C1  UNL     1     -32.959   8.149   4.187  1.00 20.00     0.034 C 
HETATM    2  C2  UNL     1     -34.178   7.687   4.957  1.00 20.00     0.168 C 
HETATM    3  C3  UNL     1     -34.113   6.540   2.930  1.00 20.00     0.173 C 
HETATM    4  C4  UNL     1     -33.367   7.851   2.761  1.00 20.00     0.026 C 
HETATM    5  O9  UNL     1     -34.747   6.597   4.218  1.00 20.00    -0.391 OA
ENDROOT
BRANCH   4   6
HETATM    6  C7  UNL     1     -32.207   7.773   1.786  1.00 20.00     0.067 C 
HETATM    7 BR10 UNL     1     -32.038   5.912   1.171  1.00 20.00    -0.090 Br
BRANCH   6   8
HETATM    8  C8  UNL     1     -32.274   8.727   0.577  1.00 20.00    -0.008 C 
HETATM    9  C5  UNL     1     -30.935   8.750  -0.169  1.00 20.00     0.011 C 
HETATM   10  C6  UNL     1     -32.687  10.137   0.928  1.00 20.00     0.011 C 
ENDBRANCH   6   8
ENDBRANCH   4   6
TORSDOF 2
ENDMDL
MODEL 6
REMARK VINA RESULT:       0.1      2.273      4.310
REMARK  2 active torsions:
REMARK  status: ('A' for Active; 'I' for Inactive)
REMARK    1  A    between atoms: C4_4  and  C7_7 
REMARK    2  A    between atoms: C7_7  and  C8_8 
ROOT
HETATM    1  C1  UNL     1     -31.555   7.279   1.404  1.00 20.00     0.034 C 
HETATM    2  C2  UNL     1     -31.477   8.419   0.410  1.00 20.00     0.168 C 
HETATM    3  C3  UNL     1     -33.054   8.971   2.034  1.00 20.00     0.173 C 
HETATM    4  C4  UNL     1     -32.949   7.457   1.963  1.00 20.00     0.026 C 
HETATM    5  O9  UNL     1     -32.287   9.482   0.932  1.00 20.00    -0.391 OA
ENDROOT
BRANCH   4   6
HETATM    6  C7  UNL     1     -33.179   6.766   3.294  1.00 20.00     0.067 C 
HETATM    7 BR10 UNL     1     -33.503   8.144   4.661  1.00 20.00    -0.090 Br
BRANCH   6   8
HETATM    8  C8  UNL     1     -34.304   5.714   3.325  1.00 20.00    -0.008 C 
HETATM    9  C5  UNL     1     -35.534   6.258   4.061  1.00 20.00     0.011 C 
HETATM   10  C6  UNL     1     -33.893   4.391   3.929  1.00 20.00     0.011 C 
ENDBRANCH   6   8
ENDBRANCH   4   6
TORSDOF 2
ENDMDL
MODEL 7
REMARK VINA RESULT:       0.2      1.888      2.317
REMARK  2 active torsions:
REMARK  status: ('A' for Active; 'I' for Inactive)
REMARK    1  A    between atoms: C4_4  and  C7_7 
REMARK    2  A    between atoms: C7_7  and  C8_8 
ROOT
HETATM    1  C1  UNL     1     -33.848   4.690   3.458  1.00 20.00     0.034 C 
HETATM    2  C2  UNL     1     -35.003   4.754   4.435  1.00 20.00     0.168 C 
HETATM    3  C3  UNL     1     -34.702   6.875   3.517  1.00 20.00     0.173 C 
HETATM    4  C4  UNL     1     -33.381   6.129   3.442  1.00 20.00     0.026 C 
HETATM    5  O9  UNL     1     -35.583   6.060   4.308  1.00 20.00    -0.391 OA
ENDROOT
BRANCH   4   6
HETATM    6  C7  UNL     1     -32.540   6.497   2.235  1.00 20.00     0.067 C 
HETATM    7 BR10 UNL     1     -33.292   5.594   0.657  1.00 20.00    -0.090 Br
BRANCH   6   8
HETATM    8  C8  UNL     1     -32.378   8.004   1.956  1.00 20.00    -0.008 C 
HETATM    9  C5  UNL     1     -31.760   8.235   0.572  1.00 20.00     0.011 C 
HETATM   10  C6  UNL     1     -31.575   8.741   3.002  1.00 20.00     0.011 C 
ENDBRANCH   6   8
ENDBRANCH   4   6
TORSDOF 2
ENDMDL
MODEL 8
REMARK VINA RESULT:       0.5      2.509      4.262
REMARK  2 active torsions:
REMARK  status: ('A' for Active; 'I' for Inactive)
REMARK    1  A    between atoms: C4_4  and  C7_7 
REMARK    2  A    between atoms: C7_7  and  C8_8 
ROOT
HETATM    1  C1  UNL     1     -33.163   9.438   1.604  1.00 20.00     0.034 C 
HETATM    2  C2  UNL     1     -32.431   9.996   0.402  1.00 20.00     0.168 C 
HETATM    3  C3  UNL     1     -31.462   7.954   0.967  1.00 20.00     0.173 C 
HETATM    4  C4  UNL     1     -32.112   8.535   2.210  1.00 20.00     0.026 C 
HETATM    5  O9  UNL     1     -31.519   8.979  -0.038  1.00 20.00    -0.391 OA
ENDROOT
BRANCH   4   6
HETATM    6  C7  UNL     1     -32.664   7.486   3.158  1.00 20.00     0.067 C 
HETATM    7 BR10 UNL     1     -33.180   8.376   4.834  1.00 20.00    -0.090 Br
BRANCH   6   8
HETATM    8  C8  UNL     1     -33.837   6.642   2.623  1.00 20.00    -0.008 C 
HETATM    9  C5  UNL     1     -34.860   6.371   3.733  1.00 20.00     0.011 C 
HETATM   10  C6  UNL     1     -33.417   5.337   1.988  1.00 20.00     0.011 C 
ENDBRANCH   6   8
ENDBRANCH   4   6
TORSDOF 2
ENDMDL
MODEL 9
REMARK VINA RESULT:       0.6      0.911      1.388
REMARK  2 active torsions:
REMARK  status: ('A' for Active; 'I' for Inactive)
REMARK    1  A    between atoms: C4_4  and  C7_7 
REMARK    2  A    between atoms: C7_7  and  C8_8 
ROOT
HETATM    1  C1  UNL     1     -33.395   4.816   3.608  1.00 20.00     0.034 C 
HETATM    2  C2  UNL     1     -34.369   4.030   4.460  1.00 20.00     0.168 C 
HETATM    3  C3  UNL     1     -35.293   6.127   4.037  1.00 20.00     0.173 C 
HETATM    4  C4  UNL     1     -33.782   6.241   3.937  1.00 20.00     0.026 C 
HETATM    5  O9  UNL     1     -35.567   4.814   4.551  1.00 20.00    -0.391 OA
ENDROOT
BRANCH   4   6
HETATM    6  C7  UNL     1     -33.312   7.264   2.920  1.00 20.00     0.067 C 
HETATM    7 BR10 UNL     1     -32.389   8.714   3.879  1.00 20.00    -0.090 Br
BRANCH   6   8
HETATM    8  C8  UNL     1     -32.418   6.728   1.784  1.00 20.00    -0.008 C 
HETATM    9  C5  UNL     1     -31.719   7.882   1.055  1.00 20.00     0.011 C 
HETATM   10  C6  UNL     1     -33.148   5.861   0.785  1.00 20.00     0.011 C 
ENDBRANCH   6   8
ENDBRANCH   4   6
TORSDOF 2
ENDMDL
