MODEL 1
REMARK VINA RESULT:      -0.1      0.000      0.000
REMARK  2 active torsions:
REMARK  status: ('A' for Active; 'I' for Inactive)
REMARK    1  A    between atoms: C3_3  and  C8_8 
REMARK    2  A    between atoms: C4_4  and  C9_9 
ROOT
HETATM    1  C1  UNL     1     -31.547   7.020   1.136  1.00 20.00     0.034 C 
HETATM    2  C2  UNL     1     -31.748   5.534   1.351  1.00 20.00     0.168 C 
HETATM    3  C3  UNL     1     -32.409   7.611   2.232  1.00 20.00     0.031 C 
HETATM    4  C4  UNL     1     -33.603   6.661   2.206  1.00 20.00     0.134 C 
HETATM    5  O10 UNL     1     -33.068   5.364   1.890  1.00 20.00    -0.385 OA
ENDROOT
BRANCH   4   6
HETATM    6  C9  UNL     1     -34.356   6.587   3.523  1.00 20.00    -0.025 C 
HETATM    7  C5  UNL     1     -34.225   5.176   4.129  1.00 20.00     0.017 C 
HETATM    8  C6  UNL     1     -35.849   6.894   3.296  1.00 20.00     0.017 C 
HETATM    9  C7  UNL     1     -33.783   7.613   4.519  1.00 20.00     0.017 C 
ENDBRANCH   4   6
BRANCH   3  10
HETATM   10  C8  UNL     1     -32.769   9.068   2.007  1.00 20.00     0.121 C 
HETATM   11 CL11 UNL     1     -32.340   9.564   0.357  1.00 20.00    -0.130 Cl
ENDBRANCH   3  10
TORSDOF 2
ENDMDL
MODEL 2
REMARK VINA RESULT:      -0.1      0.001      1.309
REMARK  2 active torsions:
REMARK  status: ('A' for Active; 'I' for Inactive)
REMARK    1  A    between atoms: C3_3  and  C8_8 
REMARK    2  A    between atoms: C4_4  and  C9_9 
ROOT
HETATM    1  C1  UNL     1     -31.547   7.020   1.135  1.00 20.00     0.034 C 
HETATM    2  C2  UNL     1     -31.748   5.534   1.350  1.00 20.00     0.168 C 
HETATM    3  C3  UNL     1     -32.409   7.611   2.232  1.00 20.00     0.031 C 
HETATM    4  C4  UNL     1     -33.603   6.662   2.206  1.00 20.00     0.134 C 
HETATM    5  O10 UNL     1     -33.068   5.364   1.889  1.00 20.00    -0.385 OA
ENDROOT
BRANCH   4   6
HETATM    6  C9  UNL     1     -34.356   6.587   3.523  1.00 20.00    -0.025 C 
HETATM    7  C5  UNL     1     -33.780   7.612   4.520  1.00 20.00     0.017 C 
HETATM    8  C6  UNL     1     -34.223   5.176   4.128  1.00 20.00     0.017 C 
HETATM    9  C7  UNL     1     -35.848   6.894   3.298  1.00 20.00     0.017 C 
ENDBRANCH   4   6
BRANCH   3  10
HETATM   10  C8  UNL     1     -32.768   9.068   2.007  1.00 20.00     0.121 C 
HETATM   11 CL11 UNL     1     -32.340   9.565   0.358  1.00 20.00    -0.130 Cl
ENDBRANCH   3  10
TORSDOF 2
ENDMDL
MODEL 3
REMARK VINA RESULT:      -0.1      0.002      1.309
REMARK  2 active torsions:
REMARK  status: ('A' for Active; 'I' for Inactive)
REMARK    1  A    between atoms: C3_3  and  C8_8 
REMARK    2  A    between atoms: C4_4  and  C9_9 
ROOT
HETATM    1  C1  UNL     1     -31.547   7.022   1.136  1.00 20.00     0.034 C 
HETATM    2  C2  UNL     1     -31.748   5.536   1.350  1.00 20.00     0.168 C 
HETATM    3  C3  UNL     1     -32.410   7.612   2.232  1.00 20.00     0.031 C 
HETATM    4  C4  UNL     1     -33.603   6.662   2.206  1.00 20.00     0.134 C 
HETATM    5  O10 UNL     1     -33.067   5.365   1.888  1.00 20.00    -0.385 OA
ENDROOT
BRANCH   4   6
HETATM    6  C9  UNL     1     -34.357   6.586   3.522  1.00 20.00    -0.025 C 
HETATM    7  C5  UNL     1     -35.850   6.894   3.295  1.00 20.00     0.017 C 
HETATM    8  C6  UNL     1     -33.783   7.613   4.519  1.00 20.00     0.017 C 
HETATM    9  C7  UNL     1     -34.225   5.176   4.128  1.00 20.00     0.017 C 
ENDBRANCH   4   6
BRANCH   3  10
HETATM   10  C8  UNL     1     -32.770   9.069   2.008  1.00 20.00     0.121 C 
HETATM   11 CL11 UNL     1     -32.341   9.566   0.359  1.00 20.00    -0.130 Cl
ENDBRANCH   3  10
TORSDOF 2
ENDMDL
MODEL 4
REMARK VINA RESULT:       0.1      1.846      3.613
REMARK  2 active torsions:
REMARK  status: ('A' for Active; 'I' for Inactive)
REMARK    1  A    between atoms: C3_3  and  C8_8 
REMARK    2  A    between atoms: C4_4  and  C9_9 
ROOT
HETATM    1  C1  UNL     1     -34.893   5.225   4.537  1.00 20.00     0.034 C 
HETATM    2  C2  UNL     1     -34.230   3.959   4.033  1.00 20.00     0.168 C 
HETATM    3  C3  UNL     1     -34.547   6.213   3.443  1.00 20.00     0.031 C 
HETATM    4  C4  UNL     1     -33.118   5.792   3.114  1.00 20.00     0.134 C 
HETATM    5  O10 UNL     1     -33.081   4.363   3.275  1.00 20.00    -0.385 OA
ENDROOT
BRANCH   4   6
HETATM    6  C9  UNL     1     -32.682   6.151   1.704  1.00 20.00    -0.025 C 
HETATM    7  C5  UNL     1     -31.645   5.130   1.195  1.00 20.00     0.017 C 
HETATM    8  C6  UNL     1     -32.047   7.555   1.688  1.00 20.00     0.017 C 
HETATM    9  C7  UNL     1     -33.896   6.143   0.756  1.00 20.00     0.017 C 
ENDBRANCH   4   6
BRANCH   3  10
HETATM   10  C8  UNL     1     -34.687   7.664   3.864  1.00 20.00     0.121 C 
HETATM   11 CL11 UNL     1     -33.384   8.112   4.983  1.00 20.00    -0.130 Cl
ENDBRANCH   3  10
TORSDOF 2
ENDMDL
MODEL 5
REMARK VINA RESULT:       0.1      1.846      3.608
REMARK  2 active torsions:
REMARK  status: ('A' for Active; 'I' for Inactive)
REMARK    1  A    between atoms: C3_3  and  C8_8 
REMARK    2  A    between atoms: C4_4  and  C9_9 
ROOT
HETATM    1  C1  UNL     1     -34.894   5.226   4.537  1.00 20.00     0.034 C 
HETATM    2  C2  UNL     1     -34.231   3.961   4.033  1.00 20.00     0.168 C 
HETATM    3  C3  UNL     1     -34.547   6.214   3.443  1.00 20.00     0.031 C 
HETATM    4  C4  UNL     1     -33.118   5.793   3.114  1.00 20.00     0.134 C 
HETATM    5  O10 UNL     1     -33.081   4.364   3.274  1.00 20.00    -0.385 OA
ENDROOT
BRANCH   4   6
HETATM    6  C9  UNL     1     -32.682   6.152   1.704  1.00 20.00    -0.025 C 
HETATM    7  C5  UNL     1     -33.897   6.142   0.755  1.00 20.00     0.017 C 
HETATM    8  C6  UNL     1     -31.645   5.131   1.196  1.00 20.00     0.017 C 
HETATM    9  C7  UNL     1     -32.047   7.555   1.687  1.00 20.00     0.017 C 
ENDBRANCH   4   6
BRANCH   3  10
HETATM   10  C8  UNL     1     -34.686   7.665   3.864  1.00 20.00     0.121 C 
HETATM   11 CL11 UNL     1     -33.383   8.113   4.983  1.00 20.00    -0.130 Cl
ENDBRANCH   3  10
TORSDOF 2
ENDMDL
MODEL 6
REMARK VINA RESULT:       1.2      2.565      3.813
REMARK  2 active torsions:
REMARK  status: ('A' for Active; 'I' for Inactive)
REMARK    1  A    between atoms: C3_3  and  C8_8 
REMARK    2  A    between atoms: C4_4  and  C9_9 
ROOT
HETATM    1  C1  UNL     1     -33.582   8.212   4.180  1.00 20.00     0.034 C 
HETATM    2  C2  UNL     1     -32.239   8.515   3.547  1.00 20.00     0.168 C 
HETATM    3  C3  UNL     1     -33.867   6.823   3.650  1.00 20.00     0.031 C 
HETATM    4  C4  UNL     1     -33.341   6.942   2.223  1.00 20.00     0.134 C 
HETATM    5  O10 UNL     1     -32.198   7.813   2.296  1.00 20.00    -0.385 OA
ENDROOT
BRANCH   4   6
HETATM    6  C9  UNL     1     -32.926   5.617   1.609  1.00 20.00    -0.025 C 
HETATM    7  C5  UNL     1     -31.466   5.695   1.120  1.00 20.00     0.017 C 
HETATM    8  C6  UNL     1     -33.834   5.282   0.410  1.00 20.00     0.017 C 
HETATM    9  C7  UNL     1     -33.043   4.490   2.652  1.00 20.00     0.017 C 
ENDBRANCH   4   6
BRANCH   3  10
HETATM   10  C8  UNL     1     -35.328   6.423   3.742  1.00 20.00     0.121 C 
HETATM   11 CL11 UNL     1     -35.509   4.962   4.734  1.00 20.00    -0.130 Cl
ENDBRANCH   3  10
TORSDOF 2
ENDMDL
MODEL 7
REMARK VINA RESULT:       1.2      1.945      2.768
REMARK  2 active torsions:
REMARK  status: ('A' for Active; 'I' for Inactive)
REMARK    1  A    between atoms: C3_3  and  C8_8 
REMARK    2  A    between atoms: C4_4  and  C9_9 
ROOT
HETATM    1  C1  UNL     1     -31.915   7.222   0.938  1.00 20.00     0.034 C 
HETATM    2  C2  UNL     1     -31.984   8.485   1.771  1.00 20.00     0.168 C 
HETATM    3  C3  UNL     1     -33.075   6.421   1.494  1.00 20.00     0.031 C 
HETATM    4  C4  UNL     1     -32.968   6.750   2.980  1.00 20.00     0.134 C 
HETATM    5  O10 UNL     1     -32.518   8.114   3.051  1.00 20.00    -0.385 OA
ENDROOT
BRANCH   4   6
HETATM    6  C9  UNL     1     -34.279   6.614   3.733  1.00 20.00    -0.025 C 
HETATM    7  C5  UNL     1     -34.298   7.572   4.941  1.00 20.00     0.017 C 
HETATM    8  C6  UNL     1     -34.449   5.169   4.243  1.00 20.00     0.017 C 
HETATM    9  C7  UNL     1     -35.461   6.956   2.807  1.00 20.00     0.017 C 
ENDBRANCH   4   6
BRANCH   3  10
HETATM   10  C8  UNL     1     -33.000   4.939   1.178  1.00 20.00     0.121 C 
HETATM   11 CL11 UNL     1     -31.409   4.528   0.506  1.00 20.00    -0.130 Cl
ENDBRANCH   3  10
TORSDOF 2
ENDMDL
MODEL 8
REMARK VINA RESULT:       1.2      1.950      2.777
REMARK  2 active torsions:
REMARK  status: ('A' for Active; 'I' for Inactive)
REMARK    1  A    between atoms: C3_3  and  C8_8 
REMARK    2  A    between atoms: C4_4  and  C9_9 
ROOT
HETATM    1  C1  UNL     1     -31.908   7.183   0.935  1.00 20.00     0.034 C 
HETATM    2  C2  UNL     1     -31.987   8.465   1.739  1.00 20.00     0.168 C 
HETATM    3  C3  UNL     1     -33.065   6.390   1.504  1.00 20.00     0.031 C 
HETATM    4  C4  UNL     1     -32.967   6.753   2.983  1.00 20.00     0.134 C 
HETATM    5  O10 UNL     1     -32.524   8.121   3.024  1.00 20.00    -0.385 OA
ENDROOT
BRANCH   4   6
HETATM    6  C9  UNL     1     -34.281   6.626   3.734  1.00 20.00    -0.025 C 
HETATM    7  C5  UNL     1     -35.458   6.983   2.804  1.00 20.00     0.017 C 
HETATM    8  C6  UNL     1     -34.294   7.584   4.942  1.00 20.00     0.017 C 
HETATM    9  C7  UNL     1     -34.465   5.183   4.240  1.00 20.00     0.017 C 
ENDBRANCH   4   6
BRANCH   3  10
HETATM   10  C8  UNL     1     -32.981   4.901   1.222  1.00 20.00     0.121 C 
HETATM   11 CL11 UNL     1     -31.425   4.500   0.470  1.00 20.00    -0.130 Cl
ENDBRANCH   3  10
TORSDOF 2
ENDMDL
MODEL 9
REMARK VINA RESULT:       1.2      2.747      4.374
REMARK  2 active torsions:
REMARK  status: ('A' for Active; 'I' for Inactive)
REMARK    1  A    between atoms: C3_3  and  C8_8 
REMARK    2  A    between atoms: C4_4  and  C9_9 
ROOT
HETATM    1  C1  UNL     1     -34.572   6.452   4.715  1.00 20.00     0.034 C 
HETATM    2  C2  UNL     1     -34.162   7.822   4.214  1.00 20.00     0.168 C 
HETATM    3  C3  UNL     1     -33.748   5.540   3.831  1.00 20.00     0.031 C 
HETATM    4  C4  UNL     1     -33.828   6.278   2.498  1.00 20.00     0.134 C 
HETATM    5  O10 UNL     1     -33.838   7.679   2.823  1.00 20.00    -0.385 OA
ENDROOT
BRANCH   4   6
HETATM    6  C9  UNL     1     -32.665   5.987   1.566  1.00 20.00    -0.025 C 
HETATM    7  C5  UNL     1     -31.906   7.289   1.244  1.00 20.00     0.017 C 
HETATM    8  C6  UNL     1     -33.184   5.375   0.249  1.00 20.00     0.017 C 
HETATM    9  C7  UNL     1     -31.692   4.993   2.227  1.00 20.00     0.017 C 
ENDBRANCH   4   6
BRANCH   3  10
HETATM   10  C8  UNL     1     -34.260   4.112   3.783  1.00 20.00     0.121 C 
HETATM   11 CL11 UNL     1     -33.244   3.056   4.785  1.00 20.00    -0.130 Cl
ENDBRANCH   3  10
TORSDOF 2
ENDMDL
