MODEL 1
REMARK VINA RESULT:      -0.6      0.000      0.000
REMARK  2 active torsions:
REMARK  status: ('A' for Active; 'I' for Inactive)
REMARK    1  A    between atoms: C6_6  and  C8_8 
REMARK    2  A    between atoms: C7_7  and  C9_9 
ROOT
HETATM    1  C1  UNL     1     -34.666   6.546   3.735  1.00 20.00     0.027 C 
HETATM    2  C4  UNL     1     -33.720   5.632   2.967  1.00 20.00     0.010 C 
HETATM    3  C5  UNL     1     -33.947   7.817   4.156  1.00 20.00     0.168 C 
HETATM    4  C7  UNL     1     -33.032   6.387   1.817  1.00 20.00     0.029 C 
HETATM    5  C8  UNL     1     -32.407   7.697   2.343  1.00 20.00     0.130 C 
HETATM    6  O10 UNL     1     -33.404   8.479   3.017  1.00 20.00    -0.385 OA
ENDROOT
BRANCH   5   7
HETATM    7  C6  UNL     1     -31.843   8.552   1.242  1.00 20.00     0.015 A 
HETATM    8  C2  UNL     1     -32.653   8.828   0.006  1.00 20.00     0.007 A 
HETATM    9  C3  UNL     1     -32.394   9.930   0.995  1.00 20.00     0.007 A 
ENDBRANCH   5   7
BRANCH   4  10
HETATM   10  C9  UNL     1     -32.010   5.472   1.141  1.00 20.00     0.121 C 
HETATM   11 CL11 UNL     1     -32.835   4.335   0.061  1.00 20.00    -0.130 Cl
ENDBRANCH   4  10
TORSDOF 2
ENDMDL
MODEL 2
REMARK VINA RESULT:      -0.1      2.565      4.680
REMARK  2 active torsions:
REMARK  status: ('A' for Active; 'I' for Inactive)
REMARK    1  A    between atoms: C6_6  and  C8_8 
REMARK    2  A    between atoms: C7_7  and  C9_9 
ROOT
HETATM    1  C1  UNL     1     -32.110   7.788   1.229  1.00 20.00     0.027 C 
HETATM    2  C4  UNL     1     -32.763   8.215   2.537  1.00 20.00     0.010 C 
HETATM    3  C5  UNL     1     -31.556   6.378   1.349  1.00 20.00     0.168 C 
HETATM    4  C7  UNL     1     -33.783   7.168   3.015  1.00 20.00     0.029 C 
HETATM    5  C8  UNL     1     -33.138   5.765   3.022  1.00 20.00     0.130 C 
HETATM    6  O10 UNL     1     -32.589   5.472   1.729  1.00 20.00    -0.385 OA
ENDROOT
BRANCH   5   7
HETATM    7  C6  UNL     1     -34.125   4.676   3.341  1.00 20.00     0.015 A 
HETATM    8  C2  UNL     1     -33.693   3.470   4.129  1.00 20.00     0.007 A 
HETATM    9  C3  UNL     1     -34.610   4.485   4.752  1.00 20.00     0.007 A 
ENDBRANCH   5   7
BRANCH   4  10
HETATM   10  C9  UNL     1     -34.335   7.574   4.382  1.00 20.00     0.121 C 
HETATM   11 CL11 UNL     1     -33.061   8.337   5.348  1.00 20.00    -0.130 Cl
ENDBRANCH   4  10
TORSDOF 2
ENDMDL
MODEL 3
REMARK VINA RESULT:       0.2      2.068      2.916
REMARK  2 active torsions:
REMARK  status: ('A' for Active; 'I' for Inactive)
REMARK    1  A    between atoms: C6_6  and  C8_8 
REMARK    2  A    between atoms: C7_7  and  C9_9 
ROOT
HETATM    1  C1  UNL     1     -32.426   4.444   2.314  1.00 20.00     0.027 C 
HETATM    2  C4  UNL     1     -33.471   5.271   3.051  1.00 20.00     0.010 C 
HETATM    3  C5  UNL     1     -32.135   5.050   0.952  1.00 20.00     0.168 C 
HETATM    4  C7  UNL     1     -33.078   6.757   3.086  1.00 20.00     0.029 C 
HETATM    5  C8  UNL     1     -32.727   7.245   1.663  1.00 20.00     0.130 C 
HETATM    6  O10 UNL     1     -31.714   6.404   1.093  1.00 20.00    -0.385 OA
ENDROOT
BRANCH   5   7
HETATM    7  C6  UNL     1     -32.196   8.652   1.649  1.00 20.00     0.015 A 
HETATM    8  C2  UNL     1     -31.328   9.123   0.515  1.00 20.00     0.007 A 
HETATM    9  C3  UNL     1     -32.727   9.652   0.659  1.00 20.00     0.007 A 
ENDBRANCH   5   7
BRANCH   4  10
HETATM   10  C9  UNL     1     -34.200   7.571   3.732  1.00 20.00     0.121 C 
HETATM   11 CL11 UNL     1     -35.573   6.517   4.110  1.00 20.00    -0.130 Cl
ENDBRANCH   4  10
TORSDOF 2
ENDMDL
MODEL 4
REMARK VINA RESULT:       0.2      2.110      3.506
REMARK  2 active torsions:
REMARK  status: ('A' for Active; 'I' for Inactive)
REMARK    1  A    between atoms: C6_6  and  C8_8 
REMARK    2  A    between atoms: C7_7  and  C9_9 
ROOT
HETATM    1  C1  UNL     1     -33.899   7.780   4.124  1.00 20.00     0.027 C 
HETATM    2  C4  UNL     1     -33.331   8.663   3.022  1.00 20.00     0.010 C 
HETATM    3  C5  UNL     1     -34.426   6.479   3.541  1.00 20.00     0.168 C 
HETATM    4  C7  UNL     1     -32.315   7.892   2.162  1.00 20.00     0.029 C 
HETATM    5  C8  UNL     1     -32.927   6.554   1.692  1.00 20.00     0.130 C 
HETATM    6  O10 UNL     1     -33.396   5.806   2.823  1.00 20.00    -0.385 OA
ENDROOT
BRANCH   5   7
HETATM    7  C6  UNL     1     -31.935   5.687   0.966  1.00 20.00     0.015 A 
HETATM    8  C2  UNL     1     -31.558   4.341   1.520  1.00 20.00     0.007 A 
HETATM    9  C3  UNL     1     -32.391   4.434   0.272  1.00 20.00     0.007 A 
ENDBRANCH   5   7
BRANCH   4  10
HETATM   10  C9  UNL     1     -31.850   8.773   1.001  1.00 20.00     0.121 C 
HETATM   11 CL11 UNL     1     -32.849  10.233   0.910  1.00 20.00    -0.130 Cl
ENDBRANCH   4  10
TORSDOF 2
ENDMDL
MODEL 5
REMARK VINA RESULT:       0.3      2.416      3.121
REMARK  2 active torsions:
REMARK  status: ('A' for Active; 'I' for Inactive)
REMARK    1  A    between atoms: C6_6  and  C8_8 
REMARK    2  A    between atoms: C7_7  and  C9_9 
ROOT
HETATM    1  C1  UNL     1     -33.130   4.545   2.601  1.00 20.00     0.027 C 
HETATM    2  C4  UNL     1     -33.898   5.605   3.381  1.00 20.00     0.010 C 
HETATM    3  C5  UNL     1     -32.859   5.023   1.184  1.00 20.00     0.168 C 
HETATM    4  C7  UNL     1     -33.201   6.973   3.291  1.00 20.00     0.029 C 
HETATM    5  C8  UNL     1     -32.903   7.319   1.816  1.00 20.00     0.130 C 
HETATM    6  O10 UNL     1     -32.152   6.260   1.206  1.00 20.00    -0.385 OA
ENDROOT
BRANCH   5   7
HETATM    7  C6  UNL     1     -32.094   8.578   1.669  1.00 20.00     0.015 A 
HETATM    8  C2  UNL     1     -31.367   8.867   0.385  1.00 20.00     0.007 A 
HETATM    9  C3  UNL     1     -32.570   9.683   0.767  1.00 20.00     0.007 A 
ENDBRANCH   5   7
BRANCH   4  10
HETATM   10  C9  UNL     1     -34.057   8.032   3.988  1.00 20.00     0.121 C 
HETATM   11 CL11 UNL     1     -33.304   8.508   5.519  1.00 20.00    -0.130 Cl
ENDBRANCH   4  10
TORSDOF 2
ENDMDL
MODEL 6
REMARK VINA RESULT:       0.3      2.647      4.543
REMARK  2 active torsions:
REMARK  status: ('A' for Active; 'I' for Inactive)
REMARK    1  A    between atoms: C6_6  and  C8_8 
REMARK    2  A    between atoms: C7_7  and  C9_9 
ROOT
HETATM    1  C1  UNL     1     -35.062   7.007   4.080  1.00 20.00     0.027 C 
HETATM    2  C4  UNL     1     -34.118   6.892   2.891  1.00 20.00     0.010 C 
HETATM    3  C5  UNL     1     -35.699   5.662   4.384  1.00 20.00     0.168 C 
HETATM    4  C7  UNL     1     -33.116   5.742   3.089  1.00 20.00     0.029 C 
HETATM    5  C8  UNL     1     -33.864   4.447   3.471  1.00 20.00     0.130 C 
HETATM    6  O10 UNL     1     -34.692   4.681   4.619  1.00 20.00    -0.385 OA
ENDROOT
BRANCH   5   7
HETATM    7  C6  UNL     1     -32.931   3.320   3.819  1.00 20.00     0.015 A 
HETATM    8  C2  UNL     1     -32.564   3.056   5.253  1.00 20.00     0.007 A 
HETATM    9  C3  UNL     1     -33.453   2.093   4.516  1.00 20.00     0.007 A 
ENDBRANCH   5   7
BRANCH   4  10
HETATM   10  C9  UNL     1     -32.260   5.584   1.832  1.00 20.00     0.121 C 
HETATM   11 CL11 UNL     1     -31.699   7.170   1.276  1.00 20.00    -0.130 Cl
ENDBRANCH   4  10
TORSDOF 2
ENDMDL
MODEL 7
REMARK VINA RESULT:       0.4      2.130      3.859
REMARK  2 active torsions:
REMARK  status: ('A' for Active; 'I' for Inactive)
REMARK    1  A    between atoms: C6_6  and  C8_8 
REMARK    2  A    between atoms: C7_7  and  C9_9 
ROOT
HETATM    1  C1  UNL     1     -31.938   5.050   0.695  1.00 20.00     0.027 C 
HETATM    2  C4  UNL     1     -31.479   6.499   0.786  1.00 20.00     0.010 C 
HETATM    3  C5  UNL     1     -32.408   4.556   2.053  1.00 20.00     0.168 C 
HETATM    4  C7  UNL     1     -32.553   7.379   1.447  1.00 20.00     0.029 C 
HETATM    5  C8  UNL     1     -33.015   6.744   2.777  1.00 20.00     0.130 C 
HETATM    6  O10 UNL     1     -33.448   5.395   2.550  1.00 20.00    -0.385 OA
ENDROOT
BRANCH   5   7
HETATM    7  C6  UNL     1     -34.167   7.481   3.402  1.00 20.00     0.015 A 
HETATM    8  C2  UNL     1     -35.166   6.745   4.250  1.00 20.00     0.007 A 
HETATM    9  C3  UNL     1     -34.204   7.706   4.889  1.00 20.00     0.007 A 
ENDBRANCH   5   7
BRANCH   4  10
HETATM   10  C9  UNL     1     -32.016   8.800   1.624  1.00 20.00     0.121 C 
HETATM   11 CL11 UNL     1     -32.402   9.776   0.196  1.00 20.00    -0.130 Cl
ENDBRANCH   4  10
TORSDOF 2
ENDMDL
MODEL 8
REMARK VINA RESULT:       0.4      2.515      3.145
REMARK  2 active torsions:
REMARK  status: ('A' for Active; 'I' for Inactive)
REMARK    1  A    between atoms: C6_6  and  C8_8 
REMARK    2  A    between atoms: C7_7  and  C9_9 
ROOT
HETATM    1  C1  UNL     1     -35.638   6.154   4.395  1.00 20.00     0.027 C 
HETATM    2  C4  UNL     1     -34.990   4.805   4.677  1.00 20.00     0.010 C 
HETATM    3  C5  UNL     1     -34.583   7.181   4.019  1.00 20.00     0.168 C 
HETATM    4  C7  UNL     1     -34.070   4.380   3.520  1.00 20.00     0.029 C 
HETATM    5  C8  UNL     1     -33.095   5.526   3.170  1.00 20.00     0.130 C 
HETATM    6  O10 UNL     1     -33.830   6.728   2.898  1.00 20.00    -0.385 OA
ENDROOT
BRANCH   5   7
HETATM    7  C6  UNL     1     -32.265   5.228   1.952  1.00 20.00     0.015 A 
HETATM    8  C2  UNL     1     -32.851   5.389   0.577  1.00 20.00     0.007 A 
HETATM    9  C3  UNL     1     -31.800   6.347   1.061  1.00 20.00     0.007 A 
ENDBRANCH   5   7
BRANCH   4  10
HETATM   10  C9  UNL     1     -33.352   3.081   3.885  1.00 20.00     0.121 C 
HETATM   11 CL11 UNL     1     -32.832   3.129   5.578  1.00 20.00    -0.130 Cl
ENDBRANCH   4  10
TORSDOF 2
ENDMDL
MODEL 9
REMARK VINA RESULT:       0.5      0.960      3.348
REMARK  2 active torsions:
REMARK  status: ('A' for Active; 'I' for Inactive)
REMARK    1  A    between atoms: C6_6  and  C8_8 
REMARK    2  A    between atoms: C7_7  and  C9_9 
ROOT
HETATM    1  C1  UNL     1     -31.430   9.258   0.475  1.00 20.00     0.027 C 
HETATM    2  C4  UNL     1     -31.421   7.747   0.281  1.00 20.00     0.010 C 
HETATM    3  C5  UNL     1     -32.743   9.704   1.097  1.00 20.00     0.168 C 
HETATM    4  C7  UNL     1     -31.789   7.018   1.584  1.00 20.00     0.029 C 
HETATM    5  C8  UNL     1     -33.093   7.605   2.168  1.00 20.00     0.130 C 
HETATM    6  O10 UNL     1     -32.961   9.024   2.331  1.00 20.00    -0.385 OA
ENDROOT
BRANCH   5   7
HETATM    7  C6  UNL     1     -33.431   7.033   3.518  1.00 20.00     0.015 A 
HETATM    8  C2  UNL     1     -34.307   7.801   4.468  1.00 20.00     0.007 A 
HETATM    9  C3  UNL     1     -34.826   6.554   3.809  1.00 20.00     0.007 A 
ENDBRANCH   5   7
BRANCH   4  10
HETATM   10  C9  UNL     1     -31.879   5.514   1.324  1.00 20.00     0.121 C 
HETATM   11 CL11 UNL     1     -33.357   5.142   0.421  1.00 20.00    -0.130 Cl
ENDBRANCH   4  10
TORSDOF 2
ENDMDL
