MODEL 1
REMARK VINA RESULT:      -1.0      0.000      0.000
REMARK  2 active torsions:
REMARK  status: ('A' for Active; 'I' for Inactive)
REMARK    1  A    between atoms: C3_3  and  C7_7 
REMARK    2  A    between atoms: C4_4  and  C9_9 
ROOT
HETATM    1  C1  UNL     1     -34.894   4.604   4.500  1.00 20.00    -0.003 C 
HETATM    2  C2  UNL     1     -33.900   4.213   3.692  1.00 20.00     0.131 C 
HETATM    3  C5  UNL     1     -35.385   6.017   4.512  1.00 20.00     0.032 C 
HETATM    4  C6  UNL     1     -34.854   6.781   3.301  1.00 20.00     0.040 C 
HETATM    5  C7  UNL     1     -33.390   6.421   3.063  1.00 20.00     0.151 C 
HETATM    6  O10 UNL     1     -33.190   5.021   2.841  1.00 20.00    -0.354 OA
ENDROOT
BRANCH   5   7
HETATM    7  C3  UNL     1     -32.885   7.066   1.814  1.00 20.00     0.009 C 
HETATM    8  C4  UNL     1     -32.023   8.095   1.710  1.00 20.00    -0.071 C 
HETATM    9  C8  UNL     1     -31.451   8.732   2.950  1.00 20.00     0.044 C 
BRANCH   8  10
HETATM   10  C9  UNL     1     -31.590   8.716   0.411  1.00 20.00     0.148 C 
HETATM   11 CL11 UNL     1     -32.627  10.101   0.008  1.00 20.00    -0.126 Cl
ENDBRANCH   8  10
ENDBRANCH   5   7
TORSDOF 2
ENDMDL
MODEL 2
REMARK VINA RESULT:      -0.1      0.981      1.599
REMARK  2 active torsions:
REMARK  status: ('A' for Active; 'I' for Inactive)
REMARK    1  A    between atoms: C3_3  and  C7_7 
REMARK    2  A    between atoms: C4_4  and  C9_9 
ROOT
HETATM    1  C1  UNL     1     -35.039   4.850   4.679  1.00 20.00    -0.003 C 
HETATM    2  C2  UNL     1     -35.278   6.055   4.146  1.00 20.00     0.131 C 
HETATM    3  C5  UNL     1     -33.938   3.973   4.174  1.00 20.00     0.032 C 
HETATM    4  C6  UNL     1     -32.992   4.764   3.272  1.00 20.00     0.040 C 
HETATM    5  C7  UNL     1     -33.797   5.683   2.357  1.00 20.00     0.151 C 
HETATM    6  O10 UNL     1     -34.617   6.607   3.080  1.00 20.00    -0.354 OA
ENDROOT
BRANCH   5   7
HETATM    7  C3  UNL     1     -32.889   6.551   1.550  1.00 20.00     0.009 C 
HETATM    8  C4  UNL     1     -32.294   7.697   1.930  1.00 20.00    -0.071 C 
HETATM    9  C8  UNL     1     -32.515   8.241   3.318  1.00 20.00     0.044 C 
BRANCH   8  10
HETATM   10  C9  UNL     1     -31.420   8.538   1.042  1.00 20.00     0.148 C 
HETATM   11 CL11 UNL     1     -32.388   9.767   0.200  1.00 20.00    -0.126 Cl
ENDBRANCH   8  10
ENDBRANCH   5   7
TORSDOF 2
ENDMDL
MODEL 3
REMARK VINA RESULT:       0.3      1.017      1.115
REMARK  2 active torsions:
REMARK  status: ('A' for Active; 'I' for Inactive)
REMARK    1  A    between atoms: C3_3  and  C7_7 
REMARK    2  A    between atoms: C4_4  and  C9_9 
ROOT
HETATM    1  C1  UNL     1     -34.302   4.305   3.781  1.00 20.00    -0.003 C 
HETATM    2  C2  UNL     1     -33.474   4.646   2.785  1.00 20.00     0.131 C 
HETATM    3  C5  UNL     1     -35.035   5.335   4.579  1.00 20.00     0.032 C 
HETATM    4  C6  UNL     1     -34.964   6.698   3.892  1.00 20.00     0.040 C 
HETATM    5  C7  UNL     1     -33.559   6.929   3.344  1.00 20.00     0.151 C 
HETATM    6  O10 UNL     1     -33.155   5.925   2.407  1.00 20.00    -0.354 OA
ENDROOT
BRANCH   5   7
HETATM    7  C3  UNL     1     -33.499   8.202   2.566  1.00 20.00     0.009 C 
HETATM    8  C4  UNL     1     -32.519   8.615   1.740  1.00 20.00    -0.071 C 
HETATM    9  C8  UNL     1     -31.302   7.755   1.517  1.00 20.00     0.044 C 
BRANCH   8  10
HETATM   10  C9  UNL     1     -32.513   9.935   1.019  1.00 20.00     0.148 C 
HETATM   11 CL11 UNL     1     -32.714   9.690  -0.729  1.00 20.00    -0.126 Cl
ENDBRANCH   8  10
ENDBRANCH   5   7
TORSDOF 2
ENDMDL
MODEL 4
REMARK VINA RESULT:       0.6      2.775      5.129
REMARK  2 active torsions:
REMARK  status: ('A' for Active; 'I' for Inactive)
REMARK    1  A    between atoms: C3_3  and  C7_7 
REMARK    2  A    between atoms: C4_4  and  C9_9 
ROOT
HETATM    1  C1  UNL     1     -31.687   9.734   0.140  1.00 20.00    -0.003 C 
HETATM    2  C2  UNL     1     -32.835   9.911   0.806  1.00 20.00     0.131 C 
HETATM    3  C5  UNL     1     -30.931   8.445   0.209  1.00 20.00     0.032 C 
HETATM    4  C6  UNL     1     -31.797   7.347   0.822  1.00 20.00     0.040 C 
HETATM    5  C7  UNL     1     -32.580   7.905   2.006  1.00 20.00     0.151 C 
HETATM    6  O10 UNL     1     -33.425   9.003   1.646  1.00 20.00    -0.354 OA
ENDROOT
BRANCH   5   7
HETATM    7  C3  UNL     1     -33.522   6.880   2.546  1.00 20.00     0.009 C 
HETATM    8  C4  UNL     1     -34.117   6.865   3.754  1.00 20.00    -0.071 C 
HETATM    9  C8  UNL     1     -33.858   7.974   4.740  1.00 20.00     0.044 C 
BRANCH   8  10
HETATM   10  C9  UNL     1     -35.027   5.772   4.242  1.00 20.00     0.148 C 
HETATM   11 CL11 UNL     1     -34.201   4.201   4.181  1.00 20.00    -0.126 Cl
ENDBRANCH   8  10
ENDBRANCH   5   7
TORSDOF 2
ENDMDL
MODEL 5
REMARK VINA RESULT:       0.7      2.817      4.910
REMARK  2 active torsions:
REMARK  status: ('A' for Active; 'I' for Inactive)
REMARK    1  A    between atoms: C3_3  and  C7_7 
REMARK    2  A    between atoms: C4_4  and  C9_9 
ROOT
HETATM    1  C1  UNL     1     -31.729   8.692   1.096  1.00 20.00    -0.003 C 
HETATM    2  C2  UNL     1     -31.422   7.421   0.808  1.00 20.00     0.131 C 
HETATM    3  C5  UNL     1     -32.722   9.037   2.161  1.00 20.00     0.032 C 
HETATM    4  C6  UNL     1     -33.026   7.817   3.028  1.00 20.00     0.040 C 
HETATM    5  C7  UNL     1     -33.160   6.577   2.148  1.00 20.00     0.151 C 
HETATM    6  O10 UNL     1     -31.982   6.308   1.381  1.00 20.00    -0.354 OA
ENDROOT
BRANCH   5   7
HETATM    7  C3  UNL     1     -33.340   5.353   2.985  1.00 20.00     0.009 C 
HETATM    8  C4  UNL     1     -34.307   5.110   3.889  1.00 20.00    -0.071 C 
HETATM    9  C8  UNL     1     -35.376   6.139   4.151  1.00 20.00     0.044 C 
BRANCH   8  10
HETATM   10  C9  UNL     1     -34.398   3.863   4.724  1.00 20.00     0.148 C 
HETATM   11 CL11 UNL     1     -32.841   3.008   4.738  1.00 20.00    -0.126 Cl
ENDBRANCH   8  10
ENDBRANCH   5   7
TORSDOF 2
ENDMDL
MODEL 6
REMARK VINA RESULT:       1.0      2.865      5.227
REMARK  2 active torsions:
REMARK  status: ('A' for Active; 'I' for Inactive)
REMARK    1  A    between atoms: C3_3  and  C7_7 
REMARK    2  A    between atoms: C4_4  and  C9_9 
ROOT
HETATM    1  C1  UNL     1     -31.857   9.861  -0.090  1.00 20.00    -0.003 C 
HETATM    2  C2  UNL     1     -32.865  10.234   0.708  1.00 20.00     0.131 C 
HETATM    3  C5  UNL     1     -31.121   8.576   0.124  1.00 20.00     0.032 C 
HETATM    4  C6  UNL     1     -31.881   7.677   1.096  1.00 20.00     0.040 C 
HETATM    5  C7  UNL     1     -32.433   8.510   2.249  1.00 20.00     0.151 C 
HETATM    6  O10 UNL     1     -33.311   9.553   1.811  1.00 20.00    -0.354 OA
ENDROOT
BRANCH   5   7
HETATM    7  C3  UNL     1     -33.280   7.672   3.149  1.00 20.00     0.009 C 
HETATM    8  C4  UNL     1     -33.623   6.380   2.987  1.00 20.00    -0.071 C 
HETATM    9  C8  UNL     1     -33.140   5.612   1.783  1.00 20.00     0.044 C 
BRANCH   8  10
HETATM   10  C9  UNL     1     -34.516   5.612   3.921  1.00 20.00     0.148 C 
HETATM   11 CL11 UNL     1     -33.937   3.943   4.105  1.00 20.00    -0.126 Cl
ENDBRANCH   8  10
ENDBRANCH   5   7
TORSDOF 2
ENDMDL
