MODEL 1
REMARK VINA RESULT:      -1.7      0.000      0.000
REMARK  3 active torsions:
REMARK  status: ('A' for Active; 'I' for Inactive)
REMARK    1  A    between atoms: C2_2  and  C6_6 
REMARK    2  A    between atoms: C3_3  and  O8_8 
REMARK    3  A    between atoms: C6_6  and  C7_7 
ROOT
HETATM    1  C1  UNL     1     -33.215   5.862   3.094  1.00 20.00     0.045 A 
HETATM    2  C2  UNL     1     -33.356   7.106   2.255  1.00 20.00     0.022 A 
HETATM    3  C3  UNL     1     -34.120   6.976   3.556  1.00 20.00     0.058 A 
HETATM    4  C4  UNL     1     -33.768   7.769   4.770  1.00 20.00     0.046 C 
ENDROOT
BRANCH   2   5
HETATM    5  C6  UNL     1     -32.205   8.040   2.097  1.00 20.00     0.007 C 
BRANCH   5   6
HETATM    6  C7  UNL     1     -32.022   8.507   0.642  1.00 20.00    -0.004 C 
HETATM    7  C5  UNL     1     -32.503   9.934   0.424  1.00 20.00     0.005 C 
ENDBRANCH   5   6
ENDBRANCH   2   5
BRANCH   3   8
HETATM    8  O8  UNL     1     -35.532   6.733   3.420  1.00 20.00    -0.390 OA
HETATM    9  H22 UNL     1     -35.762   6.119   4.128  1.00 20.00     0.210 HD
ENDBRANCH   3   8
TORSDOF 3
ENDMDL
MODEL 2
REMARK VINA RESULT:      -1.7      1.195      1.880
REMARK  3 active torsions:
REMARK  status: ('A' for Active; 'I' for Inactive)
REMARK    1  A    between atoms: C2_2  and  C6_6 
REMARK    2  A    between atoms: C3_3  and  O8_8 
REMARK    3  A    between atoms: C6_6  and  C7_7 
ROOT
HETATM    1  C1  UNL     1     -34.110   7.368   4.303  1.00 20.00     0.045 A 
HETATM    2  C2  UNL     1     -33.674   6.330   3.302  1.00 20.00     0.022 A 
HETATM    3  C3  UNL     1     -35.117   6.388   3.755  1.00 20.00     0.058 A 
HETATM    4  C4  UNL     1     -36.214   6.866   2.864  1.00 20.00     0.046 C 
ENDROOT
BRANCH   2   5
HETATM    5  C6  UNL     1     -33.251   6.738   1.932  1.00 20.00     0.007 C 
BRANCH   5   6
HETATM    6  C7  UNL     1     -32.055   7.705   1.949  1.00 20.00    -0.004 C 
HETATM    7  C5  UNL     1     -32.249   8.887   1.010  1.00 20.00     0.005 C 
ENDBRANCH   5   6
ENDBRANCH   2   5
BRANCH   3   8
HETATM    8  O8  UNL     1     -35.524   5.340   4.653  1.00 20.00    -0.390 OA
HETATM    9  H22 UNL     1     -34.944   5.412   5.421  1.00 20.00     0.210 HD
ENDBRANCH   3   8
TORSDOF 3
ENDMDL
MODEL 3
REMARK VINA RESULT:      -1.5      2.100      3.956
REMARK  3 active torsions:
REMARK  status: ('A' for Active; 'I' for Inactive)
REMARK    1  A    between atoms: C2_2  and  C6_6 
REMARK    2  A    between atoms: C3_3  and  O8_8 
REMARK    3  A    between atoms: C6_6  and  C7_7 
ROOT
HETATM    1  C1  UNL     1     -33.109   6.416   1.544  1.00 20.00     0.045 A 
HETATM    2  C2  UNL     1     -32.929   6.901   2.960  1.00 20.00     0.022 A 
HETATM    3  C3  UNL     1     -32.288   7.653   1.812  1.00 20.00     0.058 A 
HETATM    4  C4  UNL     1     -32.781   8.987   1.360  1.00 20.00     0.046 C 
ENDROOT
BRANCH   2   5
HETATM    5  C6  UNL     1     -34.089   7.445   3.721  1.00 20.00     0.007 C 
BRANCH   5   6
HETATM    6  C7  UNL     1     -35.270   6.460   3.777  1.00 20.00    -0.004 C 
HETATM    7  C5  UNL     1     -34.874   5.109   4.353  1.00 20.00     0.005 C 
ENDBRANCH   5   6
ENDBRANCH   2   5
BRANCH   3   8
HETATM    8  O8  UNL     1     -30.863   7.498   1.692  1.00 20.00    -0.390 OA
HETATM    9  H22 UNL     1     -30.614   6.837   2.350  1.00 20.00     0.210 HD
ENDBRANCH   3   8
TORSDOF 3
ENDMDL
MODEL 4
REMARK VINA RESULT:      -1.5      2.531      4.337
REMARK  3 active torsions:
REMARK  status: ('A' for Active; 'I' for Inactive)
REMARK    1  A    between atoms: C2_2  and  C6_6 
REMARK    2  A    between atoms: C3_3  and  O8_8 
REMARK    3  A    between atoms: C6_6  and  C7_7 
ROOT
HETATM    1  C1  UNL     1     -35.317   6.979   3.318  1.00 20.00     0.045 A 
HETATM    2  C2  UNL     1     -34.317   5.853   3.382  1.00 20.00     0.022 A 
HETATM    3  C3  UNL     1     -33.879   7.274   3.667  1.00 20.00     0.058 A 
HETATM    4  C4  UNL     1     -33.525   7.739   5.041  1.00 20.00     0.046 C 
ENDROOT
BRANCH   2   5
HETATM    5  C6  UNL     1     -34.418   4.819   4.452  1.00 20.00     0.007 C 
BRANCH   5   6
HETATM    6  C7  UNL     1     -33.713   3.506   4.070  1.00 20.00    -0.004 C 
HETATM    7  C5  UNL     1     -32.908   2.921   5.220  1.00 20.00     0.005 C 
ENDBRANCH   5   6
ENDBRANCH   2   5
BRANCH   3   8
HETATM    8  O8  UNL     1     -33.099   7.898   2.632  1.00 20.00    -0.390 OA
HETATM    9  H22 UNL     1     -33.401   7.507   1.804  1.00 20.00     0.210 HD
ENDBRANCH   3   8
TORSDOF 3
ENDMDL
MODEL 5
REMARK VINA RESULT:      -1.3      1.608      2.433
REMARK  3 active torsions:
REMARK  status: ('A' for Active; 'I' for Inactive)
REMARK    1  A    between atoms: C2_2  and  C6_6 
REMARK    2  A    between atoms: C3_3  and  O8_8 
REMARK    3  A    between atoms: C6_6  and  C7_7 
ROOT
HETATM    1  C1  UNL     1     -35.374   6.692   3.074  1.00 20.00     0.045 A 
HETATM    2  C2  UNL     1     -34.500   7.063   4.245  1.00 20.00     0.022 A 
HETATM    3  C3  UNL     1     -34.795   5.607   3.948  1.00 20.00     0.058 A 
HETATM    4  C4  UNL     1     -33.762   4.680   3.401  1.00 20.00     0.046 C 
ENDROOT
BRANCH   2   5
HETATM    5  C6  UNL     1     -33.156   7.666   4.018  1.00 20.00     0.007 C 
BRANCH   5   6
HETATM    6  C7  UNL     1     -32.997   8.232   2.596  1.00 20.00    -0.004 C 
HETATM    7  C5  UNL     1     -31.896   7.535   1.811  1.00 20.00     0.005 C 
ENDBRANCH   5   6
ENDBRANCH   2   5
BRANCH   3   8
HETATM    8  O8  UNL     1     -35.719   4.969   4.849  1.00 20.00    -0.390 OA
HETATM    9  H22 UNL     1     -36.222   5.684   5.258  1.00 20.00     0.210 HD
ENDBRANCH   3   8
TORSDOF 3
ENDMDL
MODEL 6
REMARK VINA RESULT:      -1.2      2.130      3.956
REMARK  3 active torsions:
REMARK  status: ('A' for Active; 'I' for Inactive)
REMARK    1  A    between atoms: C2_2  and  C6_6 
REMARK    2  A    between atoms: C3_3  and  O8_8 
REMARK    3  A    between atoms: C6_6  and  C7_7 
ROOT
HETATM    1  C1  UNL     1     -31.396   8.452   2.937  1.00 20.00     0.045 A 
HETATM    2  C2  UNL     1     -32.890   8.304   3.067  1.00 20.00     0.022 A 
HETATM    3  C3  UNL     1     -32.196   7.895   1.786  1.00 20.00     0.058 A 
HETATM    4  C4  UNL     1     -32.034   6.466   1.387  1.00 20.00     0.046 C 
ENDROOT
BRANCH   2   5
HETATM    5  C6  UNL     1     -33.467   7.308   4.014  1.00 20.00     0.007 C 
BRANCH   5   6
HETATM    6  C7  UNL     1     -34.925   6.952   3.679  1.00 20.00    -0.004 C 
HETATM    7  C5  UNL     1     -35.343   5.606   4.254  1.00 20.00     0.005 C 
ENDBRANCH   5   6
ENDBRANCH   2   5
BRANCH   3   8
HETATM    8  O8  UNL     1     -32.389   8.783   0.669  1.00 20.00    -0.390 OA
HETATM    9  H22 UNL     1     -31.594   8.699   0.128  1.00 20.00     0.210 HD
ENDBRANCH   3   8
TORSDOF 3
ENDMDL
MODEL 7
REMARK VINA RESULT:      -1.1      1.201      1.708
REMARK  3 active torsions:
REMARK  status: ('A' for Active; 'I' for Inactive)
REMARK    1  A    between atoms: C2_2  and  C6_6 
REMARK    2  A    between atoms: C3_3  and  O8_8 
REMARK    3  A    between atoms: C6_6  and  C7_7 
ROOT
HETATM    1  C1  UNL     1     -34.364   4.913   4.139  1.00 20.00     0.045 A 
HETATM    2  C2  UNL     1     -34.023   5.454   2.774  1.00 20.00     0.022 A 
HETATM    3  C3  UNL     1     -34.776   6.315   3.765  1.00 20.00     0.058 A 
HETATM    4  C4  UNL     1     -34.145   7.485   4.445  1.00 20.00     0.046 C 
ENDROOT
BRANCH   2   5
HETATM    5  C6  UNL     1     -32.604   5.718   2.403  1.00 20.00     0.007 C 
BRANCH   5   6
HETATM    6  C7  UNL     1     -32.476   6.708   1.232  1.00 20.00    -0.004 C 
HETATM    7  C5  UNL     1     -31.906   8.051   1.665  1.00 20.00     0.005 C 
ENDBRANCH   5   6
ENDBRANCH   2   5
BRANCH   3   8
HETATM    8  O8  UNL     1     -36.174   6.503   3.483  1.00 20.00    -0.390 OA
HETATM    9  H22 UNL     1     -36.215   6.853   2.584  1.00 20.00     0.210 HD
ENDBRANCH   3   8
TORSDOF 3
ENDMDL
MODEL 8
REMARK VINA RESULT:      -1.0      1.480      2.152
REMARK  3 active torsions:
REMARK  status: ('A' for Active; 'I' for Inactive)
REMARK    1  A    between atoms: C2_2  and  C6_6 
REMARK    2  A    between atoms: C3_3  and  O8_8 
REMARK    3  A    between atoms: C6_6  and  C7_7 
ROOT
HETATM    1  C1  UNL     1     -31.325   7.591   2.188  1.00 20.00     0.045 A 
HETATM    2  C2  UNL     1     -32.328   8.305   1.319  1.00 20.00     0.022 A 
HETATM    3  C3  UNL     1     -32.768   7.151   2.196  1.00 20.00     0.058 A 
HETATM    4  C4  UNL     1     -33.602   7.352   3.417  1.00 20.00     0.046 C 
ENDROOT
BRANCH   2   5
HETATM    5  C6  UNL     1     -32.705   9.717   1.610  1.00 20.00     0.007 C 
BRANCH   5   6
HETATM    6  C7  UNL     1     -32.658  10.609   0.358  1.00 20.00    -0.004 C 
HETATM    7  C5  UNL     1     -32.621   9.802  -0.931  1.00 20.00     0.005 C 
ENDBRANCH   5   6
ENDBRANCH   2   5
BRANCH   3   8
HETATM    8  O8  UNL     1     -33.052   5.922   1.504  1.00 20.00    -0.390 OA
HETATM    9  H22 UNL     1     -32.214   5.446   1.461  1.00 20.00     0.210 HD
ENDBRANCH   3   8
TORSDOF 3
ENDMDL
MODEL 9
REMARK VINA RESULT:      -0.9      2.161      4.061
REMARK  3 active torsions:
REMARK  status: ('A' for Active; 'I' for Inactive)
REMARK    1  A    between atoms: C2_2  and  C6_6 
REMARK    2  A    between atoms: C3_3  and  O8_8 
REMARK    3  A    between atoms: C6_6  and  C7_7 
ROOT
HETATM    1  C1  UNL     1     -32.882   7.493   3.908  1.00 20.00     0.045 A 
HETATM    2  C2  UNL     1     -34.189   7.617   3.166  1.00 20.00     0.022 A 
HETATM    3  C3  UNL     1     -32.895   7.435   2.400  1.00 20.00     0.058 A 
HETATM    4  C4  UNL     1     -32.555   6.162   1.700  1.00 20.00     0.046 C 
ENDROOT
BRANCH   2   5
HETATM    5  C6  UNL     1     -35.214   6.540   3.265  1.00 20.00     0.007 C 
BRANCH   5   6
HETATM    6  C7  UNL     1     -35.040   5.675   4.526  1.00 20.00    -0.004 C 
HETATM    7  C5  UNL     1     -34.358   4.348   4.232  1.00 20.00     0.005 C 
ENDBRANCH   5   6
ENDBRANCH   2   5
BRANCH   3   8
HETATM    8  O8  UNL     1     -32.408   8.609   1.724  1.00 20.00    -0.390 OA
HETATM    9  H22 UNL     1     -32.363   9.299   2.397  1.00 20.00     0.210 HD
ENDBRANCH   3   8
TORSDOF 3
ENDMDL
