MODEL 1
REMARK VINA RESULT:      -1.6      0.000      0.000
REMARK  2 active torsions:
REMARK  status: ('A' for Active; 'I' for Inactive)
REMARK    1  A    between atoms: C1_1  and  C7_7 
REMARK    2  A    between atoms: C2_2  and  C8_8 
ROOT
HETATM    1  C3  UNL     1     -34.664   6.871   3.419  1.00 20.00     0.035 C 
HETATM    2  C4  UNL     1     -33.286   4.818   2.993  1.00 20.00     0.035 C 
HETATM    3  C5  UNL     1     -35.307   6.114   4.575  1.00 20.00     0.168 C 
HETATM    4  C6  UNL     1     -34.004   4.175   4.173  1.00 20.00     0.168 C 
HETATM    5  C7  UNL     1     -33.263   6.334   3.149  1.00 20.00     0.012 C 
HETATM    6  O9  UNL     1     -35.321   4.710   4.317  1.00 20.00    -0.391 OA
ENDROOT
BRANCH   5   7
HETATM    7  C1  UNL     1     -32.764   6.939   1.851  1.00 20.00    -0.025 C 
HETATM    8  C2  UNL     1     -32.069   8.083   1.778  1.00 20.00    -0.020 C 
BRANCH   8   9
HETATM    9  C8  UNL     1     -31.595   8.677   0.496  1.00 20.00     0.112 C 
HETATM   10 BR10 UNL     1     -32.625  10.288   0.145  1.00 20.00    -0.092 Br
ENDBRANCH   8   9
ENDBRANCH   5   7
TORSDOF 2
ENDMDL
MODEL 2
REMARK VINA RESULT:      -1.0      0.724      1.664
REMARK  2 active torsions:
REMARK  status: ('A' for Active; 'I' for Inactive)
REMARK    1  A    between atoms: C1_1  and  C7_7 
REMARK    2  A    between atoms: C2_2  and  C8_8 
ROOT
HETATM    1  C3  UNL     1     -33.028   5.090   3.185  1.00 20.00     0.035 C 
HETATM    2  C4  UNL     1     -34.876   6.561   4.028  1.00 20.00     0.035 C 
HETATM    3  C5  UNL     1     -33.830   3.902   3.705  1.00 20.00     0.168 C 
HETATM    4  C6  UNL     1     -35.577   5.293   4.501  1.00 20.00     0.168 C 
HETATM    5  C7  UNL     1     -33.957   6.251   2.853  1.00 20.00     0.012 C 
HETATM    6  O9  UNL     1     -34.624   4.281   4.830  1.00 20.00    -0.391 OA
ENDROOT
BRANCH   5   7
HETATM    7  C1  UNL     1     -33.107   7.476   2.578  1.00 20.00    -0.025 C 
HETATM    8  C2  UNL     1     -32.340   7.625   1.488  1.00 20.00    -0.020 C 
BRANCH   8   9
HETATM    9  C8  UNL     1     -31.496   8.826   1.233  1.00 20.00     0.112 C 
HETATM   10 BR10 UNL     1     -32.476  10.031   0.064  1.00 20.00    -0.092 Br
ENDBRANCH   8   9
ENDBRANCH   5   7
TORSDOF 2
ENDMDL
MODEL 3
REMARK VINA RESULT:       0.5      3.469      5.315
REMARK  2 active torsions:
REMARK  status: ('A' for Active; 'I' for Inactive)
REMARK    1  A    between atoms: C1_1  and  C7_7 
REMARK    2  A    between atoms: C2_2  and  C8_8 
ROOT
HETATM    1  C3  UNL     1     -31.860   7.599   1.370  1.00 20.00     0.035 C 
HETATM    2  C4  UNL     1     -33.295   9.574   1.944  1.00 20.00     0.035 C 
HETATM    3  C5  UNL     1     -31.280   8.437   0.237  1.00 20.00     0.168 C 
HETATM    4  C6  UNL     1     -32.637  10.304   0.780  1.00 20.00     0.168 C 
HETATM    5  C7  UNL     1     -32.363   8.500   2.491  1.00 20.00     0.012 C 
HETATM    6  O9  UNL     1     -32.241   9.382  -0.237  1.00 20.00    -0.391 OA
ENDROOT
BRANCH   5   7
HETATM    7  C1  UNL     1     -33.144   7.647   3.472  1.00 20.00    -0.025 C 
HETATM    8  C2  UNL     1     -34.213   6.911   3.136  1.00 20.00    -0.020 C 
BRANCH   8   9
HETATM    9  C8  UNL     1     -34.984   6.087   4.109  1.00 20.00     0.112 C 
HETATM   10 BR10 UNL     1     -34.180   4.319   4.193  1.00 20.00    -0.092 Br
ENDBRANCH   8   9
ENDBRANCH   5   7
TORSDOF 2
ENDMDL
MODEL 4
REMARK VINA RESULT:       1.1      3.631      4.970
REMARK  2 active torsions:
REMARK  status: ('A' for Active; 'I' for Inactive)
REMARK    1  A    between atoms: C1_1  and  C7_7 
REMARK    2  A    between atoms: C2_2  and  C8_8 
ROOT
HETATM    1  C3  UNL     1     -33.481   7.397   3.713  1.00 20.00     0.035 C 
HETATM    2  C4  UNL     1     -32.746   5.837   1.892  1.00 20.00     0.035 C 
HETATM    3  C5  UNL     1     -33.060   8.545   2.803  1.00 20.00     0.168 C 
HETATM    4  C6  UNL     1     -32.366   7.070   1.082  1.00 20.00     0.168 C 
HETATM    5  C7  UNL     1     -33.853   6.174   2.884  1.00 20.00     0.012 C 
HETATM    6  O9  UNL     1     -31.991   8.146   1.944  1.00 20.00    -0.391 OA
ENDROOT
BRANCH   5   7
HETATM    7  C1  UNL     1     -34.024   4.997   3.825  1.00 20.00    -0.025 C 
HETATM    8  C2  UNL     1     -33.291   3.876   3.761  1.00 20.00    -0.020 C 
BRANCH   8   9
HETATM    9  C8  UNL     1     -33.475   2.719   4.680  1.00 20.00     0.112 C 
HETATM   10 BR10 UNL     1     -32.582   3.116   6.360  1.00 20.00    -0.092 Br
ENDBRANCH   8   9
ENDBRANCH   5   7
TORSDOF 2
ENDMDL
MODEL 5
REMARK VINA RESULT:       1.1      3.616      5.015
REMARK  2 active torsions:
REMARK  status: ('A' for Active; 'I' for Inactive)
REMARK    1  A    between atoms: C1_1  and  C7_7 
REMARK    2  A    between atoms: C2_2  and  C8_8 
ROOT
HETATM    1  C3  UNL     1     -32.678   8.027   4.121  1.00 20.00     0.035 C 
HETATM    2  C4  UNL     1     -32.883   6.996   1.844  1.00 20.00     0.035 C 
HETATM    3  C5  UNL     1     -31.796   9.093   3.482  1.00 20.00     0.168 C 
HETATM    4  C6  UNL     1     -31.990   8.118   1.330  1.00 20.00     0.168 C 
HETATM    5  C7  UNL     1     -33.637   7.447   3.089  1.00 20.00     0.012 C 
HETATM    6  O9  UNL     1     -31.099   8.564   2.353  1.00 20.00    -0.391 OA
ENDROOT
BRANCH   5   7
HETATM    7  C1  UNL     1     -34.315   6.235   3.699  1.00 20.00    -0.025 C 
HETATM    8  C2  UNL     1     -33.761   5.015   3.751  1.00 20.00    -0.020 C 
BRANCH   8   9
HETATM    9  C8  UNL     1     -34.440   3.827   4.340  1.00 20.00     0.112 C 
HETATM   10 BR10 UNL     1     -33.081   2.560   4.912  1.00 20.00    -0.092 Br
ENDBRANCH   8   9
ENDBRANCH   5   7
TORSDOF 2
ENDMDL
