MODEL 1
REMARK VINA RESULT:      -0.7      0.000      0.000
REMARK  4 active torsions:
REMARK  status: ('A' for Active; 'I' for Inactive)
REMARK    1  A    between atoms: C2_2  and  C8_8 
REMARK    2  A    between atoms: C3_3  and  C10_10 
REMARK    3  A    between atoms: C3_3  and  O11_11 
REMARK    4  A    between atoms: C9_9  and  C10_10 
ROOT
HETATM    1  C1  UNL     1     -35.096   6.506   3.425  1.00 20.00     0.046 A 
HETATM    2  C2  UNL     1     -34.142   5.559   4.105  1.00 20.00     0.023 A 
HETATM    3  C3  UNL     1     -33.613   6.772   3.373  1.00 20.00     0.069 A 
ENDROOT
BRANCH   3   4
HETATM    4  C10 UNL     1     -32.858   6.661   2.034  1.00 20.00    -0.017 C 
HETATM    5  C6  UNL     1     -31.994   5.389   2.066  1.00 20.00     0.018 C 
HETATM    6  C7  UNL     1     -33.889   6.545   0.899  1.00 20.00     0.018 C 
BRANCH   4   7
HETATM    7  C9  UNL     1     -31.981   7.928   1.866  1.00 20.00     0.007 C 
HETATM    8  C5  UNL     1     -32.439   8.916   0.801  1.00 20.00     0.006 C 
ENDBRANCH   4   7
ENDBRANCH   3   4
BRANCH   3   9
HETATM    9  O11 UNL     1     -33.139   7.843   4.210  1.00 20.00    -0.389 OA
HETATM   10  H31 UNL     1     -32.892   7.430   5.048  1.00 20.00     0.210 HD
ENDBRANCH   3   9
BRANCH   2  11
HETATM   11  C8  UNL     1     -33.962   4.173   3.590  1.00 20.00     0.003 C 
HETATM   12  C4  UNL     1     -33.460   3.213   4.638  1.00 20.00     0.005 C 
ENDBRANCH   2  11
TORSDOF 4
ENDMDL
MODEL 2
REMARK VINA RESULT:      -0.3      0.462      1.808
REMARK  4 active torsions:
REMARK  status: ('A' for Active; 'I' for Inactive)
REMARK    1  A    between atoms: C2_2  and  C8_8 
REMARK    2  A    between atoms: C3_3  and  C10_10 
REMARK    3  A    between atoms: C3_3  and  O11_11 
REMARK    4  A    between atoms: C9_9  and  C10_10 
ROOT
HETATM    1  C1  UNL     1     -35.152   6.485   3.517  1.00 20.00     0.046 A 
HETATM    2  C2  UNL     1     -34.168   5.541   4.157  1.00 20.00     0.023 A 
HETATM    3  C3  UNL     1     -33.673   6.754   3.399  1.00 20.00     0.069 A 
ENDROOT
BRANCH   3   4
HETATM    4  C10 UNL     1     -32.975   6.641   2.029  1.00 20.00    -0.017 C 
HETATM    5  C6  UNL     1     -34.047   6.394   0.955  1.00 20.00     0.018 C 
HETATM    6  C7  UNL     1     -32.260   7.970   1.735  1.00 20.00     0.018 C 
BRANCH   4   7
HETATM    7  C9  UNL     1     -31.968   5.465   2.096  1.00 20.00     0.007 C 
HETATM    8  C5  UNL     1     -31.700   4.745   0.780  1.00 20.00     0.006 C 
ENDBRANCH   4   7
ENDBRANCH   3   4
BRANCH   3   9
HETATM    9  O11 UNL     1     -33.165   7.827   4.213  1.00 20.00    -0.389 OA
HETATM   10  H31 UNL     1     -32.545   7.418   4.830  1.00 20.00     0.210 HD
ENDBRANCH   3   9
BRANCH   2  11
HETATM   11  C8  UNL     1     -34.007   4.155   3.637  1.00 20.00     0.003 C 
HETATM   12  C4  UNL     1     -33.422   3.207   4.653  1.00 20.00     0.005 C 
ENDBRANCH   2  11
TORSDOF 4
ENDMDL
MODEL 3
REMARK VINA RESULT:       0.4      0.955      1.354
REMARK  4 active torsions:
REMARK  status: ('A' for Active; 'I' for Inactive)
REMARK    1  A    between atoms: C2_2  and  C8_8 
REMARK    2  A    between atoms: C3_3  and  C10_10 
REMARK    3  A    between atoms: C3_3  and  O11_11 
REMARK    4  A    between atoms: C9_9  and  C10_10 
ROOT
HETATM    1  C1  UNL     1     -34.705   7.614   3.629  1.00 20.00     0.046 A 
HETATM    2  C2  UNL     1     -33.946   6.388   4.066  1.00 20.00     0.023 A 
HETATM    3  C3  UNL     1     -33.198   7.611   3.584  1.00 20.00     0.069 A 
ENDROOT
BRANCH   3   4
HETATM    4  C10 UNL     1     -32.468   7.648   2.227  1.00 20.00    -0.017 C 
HETATM    5  C6  UNL     1     -30.993   8.005   2.475  1.00 20.00     0.018 C 
HETATM    6  C7  UNL     1     -32.550   6.250   1.590  1.00 20.00     0.018 C 
BRANCH   4   7
HETATM    7  C9  UNL     1     -33.158   8.711   1.334  1.00 20.00     0.007 C 
HETATM    8  C5  UNL     1     -32.234   9.530   0.441  1.00 20.00     0.006 C 
ENDBRANCH   4   7
ENDBRANCH   3   4
BRANCH   3   9
HETATM    9  O11 UNL     1     -32.539   8.377   4.609  1.00 20.00    -0.389 OA
HETATM   10  H31 UNL     1     -33.125   8.347   5.376  1.00 20.00     0.210 HD
ENDBRANCH   3   9
BRANCH   2  11
HETATM   11  C8  UNL     1     -34.023   5.133   3.268  1.00 20.00     0.003 C 
HETATM   12  C4  UNL     1     -33.861   3.890   4.106  1.00 20.00     0.005 C 
ENDBRANCH   2  11
TORSDOF 4
ENDMDL
MODEL 4
REMARK VINA RESULT:       0.6      1.319      3.972
REMARK  4 active torsions:
REMARK  status: ('A' for Active; 'I' for Inactive)
REMARK    1  A    between atoms: C2_2  and  C8_8 
REMARK    2  A    between atoms: C3_3  and  C10_10 
REMARK    3  A    between atoms: C3_3  and  O11_11 
REMARK    4  A    between atoms: C9_9  and  C10_10 
ROOT
HETATM    1  C1  UNL     1     -31.432   8.091   2.738  1.00 20.00     0.046 A 
HETATM    2  C2  UNL     1     -32.415   8.747   1.804  1.00 20.00     0.023 A 
HETATM    3  C3  UNL     1     -32.812   7.506   2.574  1.00 20.00     0.069 A 
ENDROOT
BRANCH   3   4
HETATM    4  C10 UNL     1     -32.992   6.136   1.891  1.00 20.00    -0.017 C 
HETATM    5  C6  UNL     1     -33.661   5.177   2.890  1.00 20.00     0.018 C 
HETATM    6  C7  UNL     1     -33.908   6.316   0.669  1.00 20.00     0.018 C 
BRANCH   4   7
HETATM    7  C9  UNL     1     -31.593   5.618   1.470  1.00 20.00     0.007 C 
HETATM    8  C5  UNL     1     -31.583   4.498   0.436  1.00 20.00     0.006 C 
ENDBRANCH   4   7
ENDBRANCH   3   4
BRANCH   3   9
HETATM    9  O11 UNL     1     -33.718   7.722   3.671  1.00 20.00    -0.389 OA
HETATM   10  H31 UNL     1     -34.584   7.871   3.270  1.00 20.00     0.210 HD
ENDBRANCH   3   9
BRANCH   2  11
HETATM   11  C8  UNL     1     -32.180   8.733   0.333  1.00 20.00     0.003 C 
HETATM   12  C4  UNL     1     -32.616  10.006  -0.347  1.00 20.00     0.005 C 
ENDBRANCH   2  11
TORSDOF 4
ENDMDL
MODEL 5
REMARK VINA RESULT:       0.7      0.975      4.269
REMARK  4 active torsions:
REMARK  status: ('A' for Active; 'I' for Inactive)
REMARK    1  A    between atoms: C2_2  and  C8_8 
REMARK    2  A    between atoms: C3_3  and  C10_10 
REMARK    3  A    between atoms: C3_3  and  O11_11 
REMARK    4  A    between atoms: C9_9  and  C10_10 
ROOT
HETATM    1  C1  UNL     1     -31.346   8.071   2.664  1.00 20.00     0.046 A 
HETATM    2  C2  UNL     1     -32.344   8.786   1.792  1.00 20.00     0.023 A 
HETATM    3  C3  UNL     1     -32.772   7.583   2.605  1.00 20.00     0.069 A 
ENDROOT
BRANCH   3   4
HETATM    4  C10 UNL     1     -33.095   6.223   1.955  1.00 20.00    -0.017 C 
HETATM    5  C6  UNL     1     -33.759   6.479   0.592  1.00 20.00     0.018 C 
HETATM    6  C7  UNL     1     -31.777   5.459   1.741  1.00 20.00     0.018 C 
BRANCH   4   7
HETATM    7  C9  UNL     1     -34.044   5.448   2.903  1.00 20.00     0.007 C 
HETATM    8  C5  UNL     1     -33.418   4.286   3.666  1.00 20.00     0.006 C 
ENDBRANCH   4   7
ENDBRANCH   3   4
BRANCH   3   9
HETATM    9  O11 UNL     1     -33.581   7.872   3.759  1.00 20.00    -0.389 OA
HETATM   10  H31 UNL     1     -33.368   8.781   4.008  1.00 20.00     0.210 HD
ENDBRANCH   3   9
BRANCH   2  11
HETATM   11  C8  UNL     1     -32.215   8.743   0.309  1.00 20.00     0.003 C 
HETATM   12  C4  UNL     1     -32.625  10.031  -0.357  1.00 20.00     0.005 C 
ENDBRANCH   2  11
TORSDOF 4
ENDMDL
MODEL 6
REMARK VINA RESULT:       0.8      1.514      3.964
REMARK  4 active torsions:
REMARK  status: ('A' for Active; 'I' for Inactive)
REMARK    1  A    between atoms: C2_2  and  C8_8 
REMARK    2  A    between atoms: C3_3  and  C10_10 
REMARK    3  A    between atoms: C3_3  and  O11_11 
REMARK    4  A    between atoms: C9_9  and  C10_10 
ROOT
HETATM    1  C1  UNL     1     -33.492   6.298   0.839  1.00 20.00     0.046 A 
HETATM    2  C2  UNL     1     -32.224   6.765   1.505  1.00 20.00     0.023 A 
HETATM    3  C3  UNL     1     -33.171   5.843   2.240  1.00 20.00     0.069 A 
ENDROOT
BRANCH   3   4
HETATM    4  C10 UNL     1     -34.034   6.323   3.423  1.00 20.00    -0.017 C 
HETATM    5  C6  UNL     1     -35.271   7.046   2.863  1.00 20.00     0.018 C 
HETATM    6  C7  UNL     1     -34.487   5.094   4.228  1.00 20.00     0.018 C 
BRANCH   4   7
HETATM    7  C9  UNL     1     -33.175   7.277   4.293  1.00 20.00     0.007 C 
HETATM    8  C5  UNL     1     -33.944   8.328   5.083  1.00 20.00     0.006 C 
ENDBRANCH   4   7
ENDBRANCH   3   4
BRANCH   3   9
HETATM    9  O11 UNL     1     -32.730   4.479   2.370  1.00 20.00    -0.389 OA
HETATM   10  H31 UNL     1     -31.905   4.421   1.872  1.00 20.00     0.210 HD
ENDBRANCH   3   9
BRANCH   2  11
HETATM   11  C8  UNL     1     -32.053   8.197   1.877  1.00 20.00     0.003 C 
HETATM   12  C4  UNL     1     -32.264   9.138   0.718  1.00 20.00     0.005 C 
ENDBRANCH   2  11
TORSDOF 4
ENDMDL
MODEL 7
REMARK VINA RESULT:       0.9      1.456      4.264
REMARK  4 active torsions:
REMARK  status: ('A' for Active; 'I' for Inactive)
REMARK    1  A    between atoms: C2_2  and  C8_8 
REMARK    2  A    between atoms: C3_3  and  C10_10 
REMARK    3  A    between atoms: C3_3  and  O11_11 
REMARK    4  A    between atoms: C9_9  and  C10_10 
ROOT
HETATM    1  C1  UNL     1     -33.377   6.521   0.765  1.00 20.00     0.046 A 
HETATM    2  C2  UNL     1     -32.189   7.179   1.418  1.00 20.00     0.023 A 
HETATM    3  C3  UNL     1     -32.979   6.127   2.165  1.00 20.00     0.069 A 
ENDROOT
BRANCH   3   4
HETATM    4  C10 UNL     1     -33.896   6.477   3.354  1.00 20.00    -0.017 C 
HETATM    5  C6  UNL     1     -33.209   7.563   4.198  1.00 20.00     0.018 C 
HETATM    6  C7  UNL     1     -35.222   7.027   2.802  1.00 20.00     0.018 C 
BRANCH   4   7
HETATM    7  C9  UNL     1     -34.127   5.187   4.182  1.00 20.00     0.007 C 
HETATM    8  C5  UNL     1     -35.535   4.993   4.730  1.00 20.00     0.006 C 
ENDBRANCH   4   7
ENDBRANCH   3   4
BRANCH   3   9
HETATM    9  O11 UNL     1     -32.335   4.847   2.296  1.00 20.00    -0.389 OA
HETATM   10  H31 UNL     1     -31.691   4.803   1.578  1.00 20.00     0.210 HD
ENDBRANCH   3   9
BRANCH   2  11
HETATM   11  C8  UNL     1     -32.236   8.623   1.783  1.00 20.00     0.003 C 
HETATM   12  C4  UNL     1     -32.350   9.531   0.585  1.00 20.00     0.005 C 
ENDBRANCH   2  11
TORSDOF 4
ENDMDL
MODEL 8
REMARK VINA RESULT:       1.0      1.351      4.022
REMARK  4 active torsions:
REMARK  status: ('A' for Active; 'I' for Inactive)
REMARK    1  A    between atoms: C2_2  and  C8_8 
REMARK    2  A    between atoms: C3_3  and  C10_10 
REMARK    3  A    between atoms: C3_3  and  O11_11 
REMARK    4  A    between atoms: C9_9  and  C10_10 
ROOT
HETATM    1  C1  UNL     1     -31.415   8.082   2.683  1.00 20.00     0.046 A 
HETATM    2  C2  UNL     1     -32.406   8.729   1.750  1.00 20.00     0.023 A 
HETATM    3  C3  UNL     1     -32.790   7.484   2.520  1.00 20.00     0.069 A 
ENDROOT
BRANCH   3   4
HETATM    4  C10 UNL     1     -32.957   6.113   1.836  1.00 20.00    -0.017 C 
HETATM    5  C6  UNL     1     -31.566   5.594   1.435  1.00 20.00     0.018 C 
HETATM    6  C7  UNL     1     -33.589   5.138   2.844  1.00 20.00     0.018 C 
BRANCH   4   7
HETATM    7  C9  UNL     1     -33.864   6.299   0.593  1.00 20.00     0.007 C 
HETATM    8  C5  UNL     1     -34.108   5.050  -0.245  1.00 20.00     0.006 C 
ENDBRANCH   4   7
ENDBRANCH   3   4
BRANCH   3   9
HETATM    9  O11 UNL     1     -33.697   7.690   3.618  1.00 20.00    -0.389 OA
HETATM   10  H31 UNL     1     -33.845   6.817   4.004  1.00 20.00     0.210 HD
ENDBRANCH   3   9
BRANCH   2  11
HETATM   11  C8  UNL     1     -32.171   8.718   0.279  1.00 20.00     0.003 C 
HETATM   12  C4  UNL     1     -32.639   9.979  -0.402  1.00 20.00     0.005 C 
ENDBRANCH   2  11
TORSDOF 4
ENDMDL
MODEL 9
REMARK VINA RESULT:       1.1      1.774      4.464
REMARK  4 active torsions:
REMARK  status: ('A' for Active; 'I' for Inactive)
REMARK    1  A    between atoms: C2_2  and  C8_8 
REMARK    2  A    between atoms: C3_3  and  C10_10 
REMARK    3  A    between atoms: C3_3  and  O11_11 
REMARK    4  A    between atoms: C9_9  and  C10_10 
ROOT
HETATM    1  C1  UNL     1     -31.608   7.171   1.793  1.00 20.00     0.046 A 
HETATM    2  C2  UNL     1     -31.865   8.609   1.429  1.00 20.00     0.023 A 
HETATM    3  C3  UNL     1     -32.080   8.137   2.850  1.00 20.00     0.069 A 
ENDROOT
BRANCH   3   4
HETATM    4  C10 UNL     1     -33.486   7.982   3.462  1.00 20.00    -0.017 C 
HETATM    5  C6  UNL     1     -33.373   8.125   4.989  1.00 20.00     0.018 C 
HETATM    6  C7  UNL     1     -34.383   9.105   2.914  1.00 20.00     0.018 C 
BRANCH   4   7
HETATM    7  C9  UNL     1     -34.034   6.586   3.070  1.00 20.00     0.007 C 
HETATM    8  C5  UNL     1     -35.168   6.050   3.936  1.00 20.00     0.006 C 
ENDBRANCH   4   7
ENDBRANCH   3   4
BRANCH   3   9
HETATM    9  O11 UNL     1     -31.086   8.561   3.801  1.00 20.00    -0.389 OA
HETATM   10  H31 UNL     1     -30.527   9.193   3.331  1.00 20.00     0.210 HD
ENDBRANCH   3   9
BRANCH   2  11
HETATM   11  C8  UNL     1     -32.995   8.967   0.526  1.00 20.00     0.003 C 
HETATM   12  C4  UNL     1     -32.704  10.168  -0.337  1.00 20.00     0.005 C 
ENDBRANCH   2  11
TORSDOF 4
ENDMDL
