MODEL 1
REMARK VINA RESULT:      -2.2      0.000      0.000
REMARK  2 active torsions:
REMARK  status: ('A' for Active; 'I' for Inactive)
REMARK    1  A    between atoms: C4_4  and  C5_5 
REMARK    2  A    between atoms: C6_6  and  C7_7 
ROOT
HETATM    1  C1  UNL     1     -33.556   4.941   3.707  1.00 20.00     0.038 A 
HETATM    2  C2  UNL     1     -34.577   4.293   4.362  1.00 20.00     0.142 A 
HETATM    3  C3  UNL     1     -35.268   6.334   4.033  1.00 20.00     0.152 A 
HETATM    4  C4  UNL     1     -34.004   6.266   3.493  1.00 20.00    -0.011 A 
HETATM    5  O10 UNL     1     -35.625   5.135   4.565  1.00 20.00    -0.334 OA
ENDROOT
BRANCH   4   6
HETATM    6  C5  UNL     1     -33.297   7.372   2.836  1.00 20.00     0.023 C 
HETATM    7  C7  UNL     1     -32.419   7.241   1.826  1.00 20.00    -0.024 C 
HETATM    8  C8  UNL     1     -32.002   5.978   1.137  1.00 20.00     0.051 C 
BRANCH   7   9
HETATM    9  C6  UNL     1     -31.816   8.508   1.329  1.00 20.00     0.265 C 
HETATM   10  O9  UNL     1     -32.428   9.311   0.635  1.00 20.00    -0.302 OA
ENDBRANCH   7   9
ENDBRANCH   4   6
TORSDOF 2
ENDMDL
MODEL 2
REMARK VINA RESULT:      -2.2      0.615      1.171
REMARK  2 active torsions:
REMARK  status: ('A' for Active; 'I' for Inactive)
REMARK    1  A    between atoms: C4_4  and  C5_5 
REMARK    2  A    between atoms: C6_6  and  C7_7 
ROOT
HETATM    1  C1  UNL     1     -35.290   6.363   4.091  1.00 20.00     0.038 A 
HETATM    2  C2  UNL     1     -35.571   5.104   4.567  1.00 20.00     0.142 A 
HETATM    3  C3  UNL     1     -33.608   4.973   3.627  1.00 20.00     0.152 A 
HETATM    4  C4  UNL     1     -34.016   6.278   3.481  1.00 20.00    -0.011 A 
HETATM    5  O10 UNL     1     -34.550   4.250   4.288  1.00 20.00    -0.334 OA
ENDROOT
BRANCH   4   6
HETATM    6  C5  UNL     1     -33.253   7.342   2.817  1.00 20.00     0.023 C 
HETATM    7  C7  UNL     1     -32.397   7.163   1.796  1.00 20.00    -0.024 C 
HETATM    8  C8  UNL     1     -32.063   5.881   1.098  1.00 20.00     0.051 C 
BRANCH   7   9
HETATM    9  C6  UNL     1     -31.726   8.395   1.295  1.00 20.00     0.265 C 
HETATM   10  O9  UNL     1     -32.306   9.249   0.635  1.00 20.00    -0.302 OA
ENDBRANCH   7   9
ENDBRANCH   4   6
TORSDOF 2
ENDMDL
MODEL 3
REMARK VINA RESULT:      -1.9      0.936      1.671
REMARK  2 active torsions:
REMARK  status: ('A' for Active; 'I' for Inactive)
REMARK    1  A    between atoms: C4_4  and  C5_5 
REMARK    2  A    between atoms: C6_6  and  C7_7 
ROOT
HETATM    1  C1  UNL     1     -35.047   6.401   3.800  1.00 20.00     0.038 A 
HETATM    2  C2  UNL     1     -35.393   5.341   4.604  1.00 20.00     0.142 A 
HETATM    3  C3  UNL     1     -33.683   4.676   3.427  1.00 20.00     0.152 A 
HETATM    4  C4  UNL     1     -33.936   5.970   3.036  1.00 20.00    -0.011 A 
HETATM    5  O10 UNL     1     -34.566   4.284   4.383  1.00 20.00    -0.334 OA
ENDROOT
BRANCH   4   6
HETATM    6  C5  UNL     1     -33.182   6.720   2.023  1.00 20.00     0.023 C 
HETATM    7  C7  UNL     1     -32.427   7.806   2.263  1.00 20.00    -0.024 C 
HETATM    8  C8  UNL     1     -32.160   8.459   3.584  1.00 20.00     0.051 C 
BRANCH   7   9
HETATM    9  C6  UNL     1     -31.766   8.405   1.072  1.00 20.00     0.265 C 
HETATM   10  O9  UNL     1     -32.222   9.371   0.471  1.00 20.00    -0.302 OA
ENDBRANCH   7   9
ENDBRANCH   4   6
TORSDOF 2
ENDMDL
MODEL 4
REMARK VINA RESULT:      -1.6      0.753      1.213
REMARK  2 active torsions:
REMARK  status: ('A' for Active; 'I' for Inactive)
REMARK    1  A    between atoms: C4_4  and  C5_5 
REMARK    2  A    between atoms: C6_6  and  C7_7 
ROOT
HETATM    1  C1  UNL     1     -33.597   4.743   3.478  1.00 20.00     0.038 A 
HETATM    2  C2  UNL     1     -34.556   4.471   4.424  1.00 20.00     0.142 A 
HETATM    3  C3  UNL     1     -34.996   6.469   3.671  1.00 20.00     0.152 A 
HETATM    4  C4  UNL     1     -33.882   6.040   2.989  1.00 20.00    -0.011 A 
HETATM    5  O10 UNL     1     -35.414   5.518   4.549  1.00 20.00    -0.334 OA
ENDROOT
BRANCH   4   6
HETATM    6  C5  UNL     1     -33.160   6.805   1.965  1.00 20.00     0.023 C 
HETATM    7  C7  UNL     1     -32.378   7.873   2.200  1.00 20.00    -0.024 C 
HETATM    8  C8  UNL     1     -32.044   8.486   3.524  1.00 20.00     0.051 C 
BRANCH   7   9
HETATM    9  C6  UNL     1     -31.761   8.495   0.997  1.00 20.00     0.265 C 
HETATM   10  O9  UNL     1     -32.268   9.435   0.396  1.00 20.00    -0.302 OA
ENDBRANCH   7   9
ENDBRANCH   4   6
TORSDOF 2
ENDMDL
MODEL 5
REMARK VINA RESULT:      -0.9      1.243      4.844
REMARK  2 active torsions:
REMARK  status: ('A' for Active; 'I' for Inactive)
REMARK    1  A    between atoms: C4_4  and  C5_5 
REMARK    2  A    between atoms: C6_6  and  C7_7 
ROOT
HETATM    1  C1  UNL     1     -33.013   8.817   1.435  1.00 20.00     0.038 A 
HETATM    2  C2  UNL     1     -31.814   9.171   0.863  1.00 20.00     0.142 A 
HETATM    3  C3  UNL     1     -31.580   7.112   1.536  1.00 20.00     0.152 A 
HETATM    4  C4  UNL     1     -32.862   7.480   1.872  1.00 20.00    -0.011 A 
HETATM    5  O10 UNL     1     -30.934   8.137   0.920  1.00 20.00    -0.334 OA
ENDROOT
BRANCH   4   6
HETATM    6  C5  UNL     1     -33.846   6.627   2.549  1.00 20.00     0.023 C 
HETATM    7  C7  UNL     1     -34.298   6.805   3.803  1.00 20.00    -0.024 C 
HETATM    8  C8  UNL     1     -33.938   7.904   4.755  1.00 20.00     0.051 C 
BRANCH   7   9
HETATM    9  C6  UNL     1     -35.287   5.800   4.279  1.00 20.00     0.265 C 
HETATM   10  O9  UNL     1     -35.015   4.614   4.428  1.00 20.00    -0.302 OA
ENDBRANCH   7   9
ENDBRANCH   4   6
TORSDOF 2
ENDMDL
MODEL 6
REMARK VINA RESULT:      -0.7      1.123      4.649
REMARK  2 active torsions:
REMARK  status: ('A' for Active; 'I' for Inactive)
REMARK    1  A    between atoms: C4_4  and  C5_5 
REMARK    2  A    between atoms: C6_6  and  C7_7 
ROOT
HETATM    1  C1  UNL     1     -32.023   6.845   1.047  1.00 20.00     0.038 A 
HETATM    2  C2  UNL     1     -31.776   8.175   0.800  1.00 20.00     0.142 A 
HETATM    3  C3  UNL     1     -32.789   8.094   2.728  1.00 20.00     0.152 A 
HETATM    4  C4  UNL     1     -32.681   6.792   2.299  1.00 20.00    -0.011 A 
HETATM    5  O10 UNL     1     -32.241   8.944   1.821  1.00 20.00    -0.334 OA
ENDROOT
BRANCH   4   6
HETATM    6  C5  UNL     1     -33.164   5.610   3.023  1.00 20.00     0.023 C 
HETATM    7  C7  UNL     1     -34.296   5.550   3.745  1.00 20.00    -0.024 C 
HETATM    8  C8  UNL     1     -35.313   6.632   3.940  1.00 20.00     0.051 C 
BRANCH   7   9
HETATM    9  C6  UNL     1     -34.571   4.244   4.404  1.00 20.00     0.265 C 
HETATM   10  O9  UNL     1     -33.779   3.308   4.388  1.00 20.00    -0.302 OA
ENDBRANCH   7   9
ENDBRANCH   4   6
TORSDOF 2
ENDMDL
MODEL 7
REMARK VINA RESULT:      -0.5      1.264      4.922
REMARK  2 active torsions:
REMARK  status: ('A' for Active; 'I' for Inactive)
REMARK    1  A    between atoms: C4_4  and  C5_5 
REMARK    2  A    between atoms: C6_6  and  C7_7 
ROOT
HETATM    1  C1  UNL     1     -32.953   9.742   0.774  1.00 20.00     0.038 A 
HETATM    2  C2  UNL     1     -31.979  10.035  -0.151  1.00 20.00     0.142 A 
HETATM    3  C3  UNL     1     -31.304   8.245   0.894  1.00 20.00     0.152 A 
HETATM    4  C4  UNL     1     -32.515   8.580   1.453  1.00 20.00    -0.011 A 
HETATM    5  O10 UNL     1     -30.969   9.127  -0.085  1.00 20.00    -0.334 OA
ENDROOT
BRANCH   4   6
HETATM    6  C5  UNL     1     -33.186   7.852   2.537  1.00 20.00     0.023 C 
HETATM    7  C7  UNL     1     -33.437   6.531   2.546  1.00 20.00    -0.024 C 
HETATM    8  C8  UNL     1     -33.068   5.524   1.501  1.00 20.00     0.051 C 
BRANCH   7   9
HETATM    9  C6  UNL     1     -34.144   6.020   3.752  1.00 20.00     0.265 C 
HETATM   10  O9  UNL     1     -35.292   6.339   4.039  1.00 20.00    -0.302 OA
ENDBRANCH   7   9
ENDBRANCH   4   6
TORSDOF 2
ENDMDL
MODEL 8
REMARK VINA RESULT:       0.4      1.497      2.232
REMARK  2 active torsions:
REMARK  status: ('A' for Active; 'I' for Inactive)
REMARK    1  A    between atoms: C4_4  and  C5_5 
REMARK    2  A    between atoms: C6_6  and  C7_7 
ROOT
HETATM    1  C1  UNL     1     -34.191   6.232   2.905  1.00 20.00     0.038 A 
HETATM    2  C2  UNL     1     -34.928   6.406   4.053  1.00 20.00     0.142 A 
HETATM    3  C3  UNL     1     -33.480   8.034   4.010  1.00 20.00     0.152 A 
HETATM    4  C4  UNL     1     -33.251   7.289   2.877  1.00 20.00    -0.011 A 
HETATM    5  O10 UNL     1     -34.501   7.503   4.734  1.00 20.00    -0.334 OA
ENDROOT
BRANCH   4   6
HETATM    6  C5  UNL     1     -32.226   7.569   1.864  1.00 20.00     0.023 C 
HETATM    7  C7  UNL     1     -32.143   8.693   1.131  1.00 20.00    -0.024 C 
HETATM    8  C8  UNL     1     -33.030   9.897   1.204  1.00 20.00     0.051 C 
BRANCH   7   9
HETATM    9  C6  UNL     1     -31.021   8.742   0.155  1.00 20.00     0.265 C 
HETATM   10  O9  UNL     1     -31.069   9.389  -0.885  1.00 20.00    -0.302 OA
ENDBRANCH   7   9
ENDBRANCH   4   6
TORSDOF 2
ENDMDL
MODEL 9
REMARK VINA RESULT:       0.8      2.353      5.007
REMARK  2 active torsions:
REMARK  status: ('A' for Active; 'I' for Inactive)
REMARK    1  A    between atoms: C4_4  and  C5_5 
REMARK    2  A    between atoms: C6_6  and  C7_7 
ROOT
HETATM    1  C1  UNL     1     -32.559   9.483  -0.495  1.00 20.00     0.038 A 
HETATM    2  C2  UNL     1     -32.752  10.814  -0.206  1.00 20.00     0.142 A 
HETATM    3  C3  UNL     1     -32.365   9.829   1.700  1.00 20.00     0.152 A 
HETATM    4  C4  UNL     1     -32.308   8.844   0.742  1.00 20.00    -0.011 A 
HETATM    5  O10 UNL     1     -32.636  11.034   1.131  1.00 20.00    -0.334 OA
ENDROOT
BRANCH   4   6
HETATM    6  C5  UNL     1     -32.037   7.423   0.994  1.00 20.00     0.023 C 
HETATM    7  C7  UNL     1     -32.655   6.666   1.917  1.00 20.00    -0.024 C 
HETATM    8  C8  UNL     1     -33.754   7.076   2.847  1.00 20.00     0.051 C 
BRANCH   7   9
HETATM    9  C6  UNL     1     -32.200   5.251   1.997  1.00 20.00     0.265 C 
HETATM   10  O9  UNL     1     -31.602   4.689   1.087  1.00 20.00    -0.302 OA
ENDBRANCH   7   9
ENDBRANCH   4   6
TORSDOF 2
ENDMDL
