MODEL 1
REMARK VINA RESULT:      -1.6      0.000      0.000
REMARK  2 active torsions:
REMARK  status: ('A' for Active; 'I' for Inactive)
REMARK    1  A    between atoms: C5_5  and  C7_7 
REMARK    2  A    between atoms: C7_7  and  C8_8 
ROOT
HETATM    1  C1  UNL     1     -33.524   3.491   4.348  1.00 20.00     0.066 C 
HETATM    2  C2  UNL     1     -35.311   5.190   4.590  1.00 20.00     0.048 C 
HETATM    3  C3  UNL     1     -35.527   6.537   3.935  1.00 20.00     0.169 C 
HETATM    4  C4  UNL     1     -34.270   4.565   3.686  1.00 20.00     0.123 C 
HETATM    5  C5  UNL     1     -33.401   5.773   3.348  1.00 20.00     0.139 C 
HETATM    6  N9  UNL     1     -32.934   2.640   4.871  1.00 20.00    -0.197 NA
HETATM    7  O10 UNL     1     -34.273   6.919   3.355  1.00 20.00    -0.384 OA
ENDROOT
BRANCH   5   8
HETATM    8  C7  UNL     1     -32.720   5.671   1.993  1.00 20.00     0.033 C 
BRANCH   8   9
HETATM    9  C8  UNL     1     -32.719   7.014   1.270  1.00 20.00    -0.002 C 
HETATM   10  C6  UNL     1     -31.624   7.926   1.798  1.00 20.00     0.005 C 
ENDBRANCH   8   9
ENDBRANCH   5   8
TORSDOF 2
ENDMDL
MODEL 2
REMARK VINA RESULT:      -1.2      2.250      3.084
REMARK  2 active torsions:
REMARK  status: ('A' for Active; 'I' for Inactive)
REMARK    1  A    between atoms: C5_5  and  C7_7 
REMARK    2  A    between atoms: C7_7  and  C8_8 
ROOT
HETATM    1  C1  UNL     1     -32.375   5.350   1.106  1.00 20.00     0.066 C 
HETATM    2  C2  UNL     1     -33.788   6.146   2.979  1.00 20.00     0.048 C 
HETATM    3  C3  UNL     1     -33.893   7.486   3.673  1.00 20.00     0.169 C 
HETATM    4  C4  UNL     1     -33.040   6.506   1.713  1.00 20.00     0.123 C 
HETATM    5  C5  UNL     1     -32.058   7.553   2.232  1.00 20.00     0.139 C 
HETATM    6  N9  UNL     1     -31.849   4.436   0.625  1.00 20.00    -0.197 NA
HETATM    7  O10 UNL     1     -32.716   8.225   3.323  1.00 20.00    -0.384 OA
ENDROOT
BRANCH   5   8
HETATM    8  C7  UNL     1     -31.654   8.578   1.186  1.00 20.00     0.033 C 
BRANCH   8   9
HETATM    9  C8  UNL     1     -32.743   9.627   0.985  1.00 20.00    -0.002 C 
HETATM   10  C6  UNL     1     -32.728  10.176  -0.432  1.00 20.00     0.005 C 
ENDBRANCH   8   9
ENDBRANCH   5   8
TORSDOF 2
ENDMDL
MODEL 3
REMARK VINA RESULT:      -1.2      1.988      3.623
REMARK  2 active torsions:
REMARK  status: ('A' for Active; 'I' for Inactive)
REMARK    1  A    between atoms: C5_5  and  C7_7 
REMARK    2  A    between atoms: C7_7  and  C8_8 
ROOT
HETATM    1  C1  UNL     1     -33.024   5.651   1.606  1.00 20.00     0.066 C 
HETATM    2  C2  UNL     1     -33.092   7.750   2.922  1.00 20.00     0.048 C 
HETATM    3  C3  UNL     1     -33.793   8.117   4.211  1.00 20.00     0.169 C 
HETATM    4  C4  UNL     1     -33.174   6.238   2.940  1.00 20.00     0.123 C 
HETATM    5  C5  UNL     1     -34.562   6.019   3.535  1.00 20.00     0.139 C 
HETATM    6  N9  UNL     1     -32.906   5.186   0.551  1.00 20.00    -0.197 NA
HETATM    7  O10 UNL     1     -34.802   7.123   4.429  1.00 20.00    -0.384 OA
ENDROOT
BRANCH   5   8
HETATM    8  C7  UNL     1     -34.695   4.715   4.304  1.00 20.00     0.033 C 
BRANCH   8   9
HETATM    9  C8  UNL     1     -33.650   3.698   3.858  1.00 20.00    -0.002 C 
HETATM   10  C6  UNL     1     -33.087   2.928   5.042  1.00 20.00     0.005 C 
ENDBRANCH   8   9
ENDBRANCH   5   8
TORSDOF 2
ENDMDL
MODEL 4
REMARK VINA RESULT:      -0.7      2.454      3.904
REMARK  2 active torsions:
REMARK  status: ('A' for Active; 'I' for Inactive)
REMARK    1  A    between atoms: C5_5  and  C7_7 
REMARK    2  A    between atoms: C7_7  and  C8_8 
ROOT
HETATM    1  C1  UNL     1     -32.216   7.651   1.996  1.00 20.00     0.066 C 
HETATM    2  C2  UNL     1     -33.784   8.296   3.803  1.00 20.00     0.048 C 
HETATM    3  C3  UNL     1     -34.756   7.491   4.639  1.00 20.00     0.169 C 
HETATM    4  C4  UNL     1     -32.909   7.212   3.211  1.00 20.00     0.123 C 
HETATM    5  C5  UNL     1     -33.932   6.110   2.948  1.00 20.00     0.139 C 
HETATM    6  N9  UNL     1     -31.668   7.997   1.036  1.00 20.00    -0.197 NA
HETATM    7  O10 UNL     1     -34.945   6.242   3.964  1.00 20.00    -0.384 OA
ENDROOT
BRANCH   5   8
HETATM    8  C7  UNL     1     -33.345   4.709   3.008  1.00 20.00     0.033 C 
BRANCH   8   9
HETATM    9  C8  UNL     1     -33.972   3.890   4.132  1.00 20.00    -0.002 C 
HETATM   10  C6  UNL     1     -32.971   2.918   4.734  1.00 20.00     0.005 C 
ENDBRANCH   8   9
ENDBRANCH   5   8
TORSDOF 2
ENDMDL
MODEL 5
REMARK VINA RESULT:      -0.4      2.282      4.117
REMARK  2 active torsions:
REMARK  status: ('A' for Active; 'I' for Inactive)
REMARK    1  A    between atoms: C5_5  and  C7_7 
REMARK    2  A    between atoms: C7_7  and  C8_8 
ROOT
HETATM    1  C1  UNL     1     -33.873   7.584   4.173  1.00 20.00     0.066 C 
HETATM    2  C2  UNL     1     -32.970   7.130   1.910  1.00 20.00     0.048 C 
HETATM    3  C3  UNL     1     -32.688   5.841   1.169  1.00 20.00     0.169 C 
HETATM    4  C4  UNL     1     -33.858   6.654   3.040  1.00 20.00     0.123 C 
HETATM    5  C5  UNL     1     -33.219   5.311   3.379  1.00 20.00     0.139 C 
HETATM    6  N9  UNL     1     -33.885   8.319   5.069  1.00 20.00    -0.197 NA
HETATM    7  O10 UNL     1     -32.670   4.797   2.151  1.00 20.00    -0.384 OA
ENDROOT
BRANCH   5   8
HETATM    8  C7  UNL     1     -34.198   4.299   3.950  1.00 20.00     0.033 C 
BRANCH   8   9
HETATM    9  C8  UNL     1     -33.507   2.978   4.275  1.00 20.00    -0.002 C 
HETATM   10  C6  UNL     1     -32.738   3.063   5.582  1.00 20.00     0.005 C 
ENDBRANCH   8   9
ENDBRANCH   5   8
TORSDOF 2
ENDMDL
MODEL 6
REMARK VINA RESULT:      -0.3      2.248      3.273
REMARK  2 active torsions:
REMARK  status: ('A' for Active; 'I' for Inactive)
REMARK    1  A    between atoms: C5_5  and  C7_7 
REMARK    2  A    between atoms: C7_7  and  C8_8 
ROOT
HETATM    1  C1  UNL     1     -34.455   6.394   3.559  1.00 20.00     0.066 C 
HETATM    2  C2  UNL     1     -33.004   4.762   2.388  1.00 20.00     0.048 C 
HETATM    3  C3  UNL     1     -31.881   4.937   1.388  1.00 20.00     0.169 C 
HETATM    4  C4  UNL     1     -33.142   6.161   2.951  1.00 20.00     0.123 C 
HETATM    5  C5  UNL     1     -32.904   7.011   1.706  1.00 20.00     0.139 C 
HETATM    6  N9  UNL     1     -35.493   6.578   4.042  1.00 20.00    -0.197 NA
HETATM    7  O10 UNL     1     -31.992   6.270   0.873  1.00 20.00    -0.384 OA
ENDROOT
BRANCH   5   8
HETATM    8  C7  UNL     1     -32.309   8.376   2.007  1.00 20.00     0.033 C 
BRANCH   8   9
HETATM    9  C8  UNL     1     -31.751   9.030   0.746  1.00 20.00    -0.002 C 
HETATM   10  C6  UNL     1     -32.608  10.206   0.307  1.00 20.00     0.005 C 
ENDBRANCH   8   9
ENDBRANCH   5   8
TORSDOF 2
ENDMDL
MODEL 7
REMARK VINA RESULT:      -0.2      1.288      1.741
REMARK  2 active torsions:
REMARK  status: ('A' for Active; 'I' for Inactive)
REMARK    1  A    between atoms: C5_5  and  C7_7 
REMARK    2  A    between atoms: C7_7  and  C8_8 
ROOT
HETATM    1  C1  UNL     1     -33.992   4.149   3.999  1.00 20.00     0.066 C 
HETATM    2  C2  UNL     1     -34.854   6.416   4.508  1.00 20.00     0.048 C 
HETATM    3  C3  UNL     1     -34.633   7.758   3.845  1.00 20.00     0.169 C 
HETATM    4  C4  UNL     1     -34.356   5.457   3.447  1.00 20.00     0.123 C 
HETATM    5  C5  UNL     1     -33.159   6.222   2.889  1.00 20.00     0.139 C 
HETATM    6  N9  UNL     1     -33.704   3.114   4.434  1.00 20.00    -0.197 NA
HETATM    7  O10 UNL     1     -33.474   7.622   3.014  1.00 20.00    -0.384 OA
ENDROOT
BRANCH   5   8
HETATM    8  C7  UNL     1     -32.862   5.905   1.433  1.00 20.00     0.033 C 
BRANCH   8   9
HETATM    9  C8  UNL     1     -31.523   5.189   1.281  1.00 20.00    -0.002 C 
HETATM   10  C6  UNL     1     -31.560   4.181   0.145  1.00 20.00     0.005 C 
ENDBRANCH   8   9
ENDBRANCH   5   8
TORSDOF 2
ENDMDL
MODEL 8
REMARK VINA RESULT:      -0.0      2.446      3.144
REMARK  2 active torsions:
REMARK  status: ('A' for Active; 'I' for Inactive)
REMARK    1  A    between atoms: C5_5  and  C7_7 
REMARK    2  A    between atoms: C7_7  and  C8_8 
ROOT
HETATM    1  C1  UNL     1     -34.752   6.598   3.885  1.00 20.00     0.066 C 
HETATM    2  C2  UNL     1     -33.201   8.144   5.046  1.00 20.00     0.048 C 
HETATM    3  C3  UNL     1     -32.002   8.931   4.563  1.00 20.00     0.169 C 
HETATM    4  C4  UNL     1     -33.869   7.759   3.743  1.00 20.00     0.123 C 
HETATM    5  C5  UNL     1     -32.658   7.482   2.855  1.00 20.00     0.139 C 
HETATM    6  N9  UNL     1     -35.450   5.680   3.998  1.00 20.00    -0.197 NA
HETATM    7  O10 UNL     1     -31.608   8.356   3.311  1.00 20.00    -0.384 OA
ENDROOT
BRANCH   5   8
HETATM    8  C7  UNL     1     -32.915   7.737   1.380  1.00 20.00     0.033 C 
BRANCH   8   9
HETATM    9  C8  UNL     1     -31.890   8.705   0.796  1.00 20.00    -0.002 C 
HETATM   10  C6  UNL     1     -32.565   9.917   0.175  1.00 20.00     0.005 C 
ENDBRANCH   8   9
ENDBRANCH   5   8
TORSDOF 2
ENDMDL
MODEL 9
REMARK VINA RESULT:      -0.0      2.287      4.286
REMARK  2 active torsions:
REMARK  status: ('A' for Active; 'I' for Inactive)
REMARK    1  A    between atoms: C5_5  and  C7_7 
REMARK    2  A    between atoms: C7_7  and  C8_8 
ROOT
HETATM    1  C1  UNL     1     -31.957   6.047   1.352  1.00 20.00     0.066 C 
HETATM    2  C2  UNL     1     -31.761   8.265   0.265  1.00 20.00     0.048 C 
HETATM    3  C3  UNL     1     -32.144   9.656   0.721  1.00 20.00     0.169 C 
HETATM    4  C4  UNL     1     -31.799   7.488   1.564  1.00 20.00     0.123 C 
HETATM    5  C5  UNL     1     -33.000   8.124   2.259  1.00 20.00     0.139 C 
HETATM    6  N9  UNL     1     -32.082   4.907   1.185  1.00 20.00    -0.197 NA
HETATM    7  O10 UNL     1     -33.046   9.495   1.822  1.00 20.00    -0.384 OA
ENDROOT
BRANCH   5   8
HETATM    8  C7  UNL     1     -32.914   8.086   3.776  1.00 20.00     0.033 C 
BRANCH   8   9
HETATM    9  C8  UNL     1     -34.238   7.648   4.397  1.00 20.00    -0.002 C 
HETATM   10  C6  UNL     1     -34.787   6.408   3.713  1.00 20.00     0.005 C 
ENDBRANCH   8   9
ENDBRANCH   5   8
TORSDOF 2
ENDMDL
