MODEL 1
REMARK VINA RESULT:      -1.9      0.000      0.000
REMARK  4 active torsions:
REMARK  status: ('A' for Active; 'I' for Inactive)
REMARK    1  A    between atoms: C1_1  and  C9_9 
REMARK    2  A    between atoms: C2_2  and  C6_6 
REMARK    3  A    between atoms: C7_7  and  C9_9 
REMARK    4  A    between atoms: C8_8  and  C9_9 
ROOT
HETATM    1  C1  UNL     1     -32.792   7.968   3.032  1.00 20.00    -0.019 C 
HETATM    2  C2  UNL     1     -33.745   7.564   3.895  1.00 20.00    -0.073 C 
HETATM    3  C3  UNL     1     -33.778   8.113   5.297  1.00 20.00     0.044 C 
ENDROOT
BRANCH   1   4
HETATM    4  C9  UNL     1     -32.588   7.518   1.600  1.00 20.00     0.007 C 
BRANCH   4   5
HETATM    5  C7  UNL     1     -31.901   6.135   1.559  1.00 20.00     0.004 C 
HETATM    6  C4  UNL     1     -32.716   5.078   0.825  1.00 20.00     0.006 C 
ENDBRANCH   4   5
BRANCH   4   7
HETATM    7  C8  UNL     1     -31.734   8.540   0.822  1.00 20.00     0.004 C 
HETATM    8  C5  UNL     1     -32.519   9.766   0.371  1.00 20.00     0.006 C 
ENDBRANCH   4   7
ENDBRANCH   1   4
BRANCH   2   9
HETATM    9  C6  UNL     1     -34.848   6.598   3.560  1.00 20.00     0.148 C 
HETATM   10 CL10 UNL     1     -34.435   4.964   4.122  1.00 20.00    -0.126 Cl
ENDBRANCH   2   9
TORSDOF 4
ENDMDL
MODEL 2
REMARK VINA RESULT:      -1.0      0.809      2.527
REMARK  4 active torsions:
REMARK  status: ('A' for Active; 'I' for Inactive)
REMARK    1  A    between atoms: C1_1  and  C9_9 
REMARK    2  A    between atoms: C2_2  and  C6_6 
REMARK    3  A    between atoms: C7_7  and  C9_9 
REMARK    4  A    between atoms: C8_8  and  C9_9 
ROOT
HETATM    1  C1  UNL     1     -32.499   8.121   2.837  1.00 20.00    -0.019 C 
HETATM    2  C2  UNL     1     -33.396   7.524   3.647  1.00 20.00    -0.073 C 
HETATM    3  C3  UNL     1     -33.899   8.237   4.874  1.00 20.00     0.044 C 
ENDROOT
BRANCH   1   4
HETATM    4  C9  UNL     1     -31.868   7.559   1.580  1.00 20.00     0.007 C 
BRANCH   4   5
HETATM    5  C7  UNL     1     -31.863   8.617   0.456  1.00 20.00     0.004 C 
HETATM    6  C4  UNL     1     -32.614   9.891   0.822  1.00 20.00     0.006 C 
ENDBRANCH   4   5
BRANCH   4   7
HETATM    7  C8  UNL     1     -32.627   6.303   1.102  1.00 20.00     0.004 C 
HETATM    8  C5  UNL     1     -31.740   5.071   0.978  1.00 20.00     0.006 C 
ENDBRANCH   4   7
ENDBRANCH   1   4
BRANCH   2   9
HETATM    9  C6  UNL     1     -33.993   6.164   3.407  1.00 20.00     0.148 C 
HETATM   10 CL10 UNL     1     -35.566   6.023   4.220  1.00 20.00    -0.126 Cl
ENDBRANCH   2   9
TORSDOF 4
ENDMDL
MODEL 3
REMARK VINA RESULT:      -1.0      1.339      2.735
REMARK  4 active torsions:
REMARK  status: ('A' for Active; 'I' for Inactive)
REMARK    1  A    between atoms: C1_1  and  C9_9 
REMARK    2  A    between atoms: C2_2  and  C6_6 
REMARK    3  A    between atoms: C7_7  and  C9_9 
REMARK    4  A    between atoms: C8_8  and  C9_9 
ROOT
HETATM    1  C1  UNL     1     -33.691   6.848   3.149  1.00 20.00    -0.019 C 
HETATM    2  C2  UNL     1     -34.329   5.762   3.628  1.00 20.00    -0.073 C 
HETATM    3  C3  UNL     1     -35.584   5.922   4.445  1.00 20.00     0.044 C 
ENDROOT
BRANCH   1   4
HETATM    4  C9  UNL     1     -32.416   6.888   2.332  1.00 20.00     0.007 C 
BRANCH   4   5
HETATM    5  C7  UNL     1     -31.956   8.346   2.113  1.00 20.00     0.004 C 
HETATM    6  C4  UNL     1     -32.296   8.885   0.729  1.00 20.00     0.006 C 
ENDBRANCH   4   5
BRANCH   4   7
HETATM    7  C8  UNL     1     -32.622   6.203   0.965  1.00 20.00     0.004 C 
HETATM    8  C5  UNL     1     -31.738   4.978   0.762  1.00 20.00     0.006 C 
ENDBRANCH   4   7
ENDBRANCH   1   4
BRANCH   2   9
HETATM    9  C6  UNL     1     -33.902   4.342   3.382  1.00 20.00     0.148 C 
HETATM   10 CL10 UNL     1     -33.581   3.513   4.920  1.00 20.00    -0.126 Cl
ENDBRANCH   2   9
TORSDOF 4
ENDMDL
MODEL 4
REMARK VINA RESULT:      -0.9      2.386      4.293
REMARK  4 active torsions:
REMARK  status: ('A' for Active; 'I' for Inactive)
REMARK    1  A    between atoms: C1_1  and  C9_9 
REMARK    2  A    between atoms: C2_2  and  C6_6 
REMARK    3  A    between atoms: C7_7  and  C9_9 
REMARK    4  A    between atoms: C8_8  and  C9_9 
ROOT
HETATM    1  C1  UNL     1     -33.355   5.150   2.422  1.00 20.00    -0.019 C 
HETATM    2  C2  UNL     1     -32.471   5.825   1.661  1.00 20.00    -0.073 C 
HETATM    3  C3  UNL     1     -32.127   5.328   0.281  1.00 20.00     0.044 C 
ENDROOT
BRANCH   1   4
HETATM    4  C9  UNL     1     -33.808   5.481   3.828  1.00 20.00     0.007 C 
BRANCH   4   5
HETATM    5  C7  UNL     1     -34.371   4.224   4.528  1.00 20.00     0.004 C 
HETATM    6  C4  UNL     1     -33.368   3.080   4.611  1.00 20.00     0.006 C 
ENDBRANCH   4   5
BRANCH   4   7
HETATM    7  C8  UNL     1     -34.886   6.585   3.810  1.00 20.00     0.004 C 
HETATM    8  C5  UNL     1     -34.363   7.948   4.249  1.00 20.00     0.006 C 
ENDBRANCH   4   7
ENDBRANCH   1   4
BRANCH   2   9
HETATM    9  C6  UNL     1     -31.791   7.103   2.069  1.00 20.00     0.148 C 
HETATM   10 CL10 UNL     1     -32.312   8.444   1.027  1.00 20.00    -0.126 Cl
ENDBRANCH   2   9
TORSDOF 4
ENDMDL
MODEL 5
REMARK VINA RESULT:      -0.9      2.127      4.665
REMARK  4 active torsions:
REMARK  status: ('A' for Active; 'I' for Inactive)
REMARK    1  A    between atoms: C1_1  and  C9_9 
REMARK    2  A    between atoms: C2_2  and  C6_6 
REMARK    3  A    between atoms: C7_7  and  C9_9 
REMARK    4  A    between atoms: C8_8  and  C9_9 
ROOT
HETATM    1  C1  UNL     1     -33.520   6.167   2.319  1.00 20.00    -0.019 C 
HETATM    2  C2  UNL     1     -32.382   6.409   1.640  1.00 20.00    -0.073 C 
HETATM    3  C3  UNL     1     -31.820   5.366   0.710  1.00 20.00     0.044 C 
ENDROOT
BRANCH   1   4
HETATM    4  C9  UNL     1     -34.221   7.078   3.305  1.00 20.00     0.007 C 
BRANCH   4   5
HETATM    5  C7  UNL     1     -33.210   7.670   4.312  1.00 20.00     0.004 C 
HETATM    6  C4  UNL     1     -33.872   8.433   5.454  1.00 20.00     0.006 C 
ENDBRANCH   4   5
BRANCH   4   7
HETATM    7  C8  UNL     1     -35.321   6.312   4.071  1.00 20.00     0.004 C 
HETATM    8  C5  UNL     1     -34.931   4.880   4.418  1.00 20.00     0.006 C 
ENDBRANCH   4   7
ENDBRANCH   1   4
BRANCH   2   9
HETATM    9  C6  UNL     1     -31.606   7.696   1.702  1.00 20.00     0.148 C 
HETATM   10 CL10 UNL     1     -32.402   8.950   0.726  1.00 20.00    -0.126 Cl
ENDBRANCH   2   9
TORSDOF 4
ENDMDL
MODEL 6
REMARK VINA RESULT:      -0.5      1.672      2.285
REMARK  4 active torsions:
REMARK  status: ('A' for Active; 'I' for Inactive)
REMARK    1  A    between atoms: C1_1  and  C9_9 
REMARK    2  A    between atoms: C2_2  and  C6_6 
REMARK    3  A    between atoms: C7_7  and  C9_9 
REMARK    4  A    between atoms: C8_8  and  C9_9 
ROOT
HETATM    1  C1  UNL     1     -33.228   5.140   2.745  1.00 20.00    -0.019 C 
HETATM    2  C2  UNL     1     -34.145   5.154   3.733  1.00 20.00    -0.073 C 
HETATM    3  C3  UNL     1     -34.177   4.044   4.751  1.00 20.00     0.044 C 
ENDROOT
BRANCH   1   4
HETATM    4  C9  UNL     1     -33.054   6.149   1.629  1.00 20.00     0.007 C 
BRANCH   4   5
HETATM    5  C7  UNL     1     -32.736   5.435   0.297  1.00 20.00     0.004 C 
HETATM    6  C4  UNL     1     -31.586   4.441   0.404  1.00 20.00     0.006 C 
ENDBRANCH   4   5
BRANCH   4   7
HETATM    7  C8  UNL     1     -31.923   7.144   1.963  1.00 20.00     0.004 C 
HETATM    8  C5  UNL     1     -32.114   8.514   1.323  1.00 20.00     0.006 C 
ENDBRANCH   4   7
ENDBRANCH   1   4
BRANCH   2   9
HETATM    9  C6  UNL     1     -35.161   6.243   3.941  1.00 20.00     0.148 C 
HETATM   10 CL10 UNL     1     -34.359   7.767   4.380  1.00 20.00    -0.126 Cl
ENDBRANCH   2   9
TORSDOF 4
ENDMDL
MODEL 7
REMARK VINA RESULT:      -0.5      1.483      1.966
REMARK  4 active torsions:
REMARK  status: ('A' for Active; 'I' for Inactive)
REMARK    1  A    between atoms: C1_1  and  C9_9 
REMARK    2  A    between atoms: C2_2  and  C6_6 
REMARK    3  A    between atoms: C7_7  and  C9_9 
REMARK    4  A    between atoms: C8_8  and  C9_9 
ROOT
HETATM    1  C1  UNL     1     -33.676   5.804   2.553  1.00 20.00    -0.019 C 
HETATM    2  C2  UNL     1     -34.365   6.394   3.549  1.00 20.00    -0.073 C 
HETATM    3  C3  UNL     1     -35.254   5.571   4.444  1.00 20.00     0.044 C 
ENDROOT
BRANCH   1   4
HETATM    4  C9  UNL     1     -32.755   6.463   1.547  1.00 20.00     0.007 C 
BRANCH   4   5
HETATM    5  C7  UNL     1     -31.591   5.518   1.175  1.00 20.00     0.004 C 
HETATM    6  C4  UNL     1     -32.018   4.356   0.287  1.00 20.00     0.006 C 
ENDBRANCH   4   5
BRANCH   4   7
HETATM    7  C8  UNL     1     -32.188   7.783   2.108  1.00 20.00     0.004 C 
HETATM    8  C5  UNL     1     -32.068   8.884   1.061  1.00 20.00     0.006 C 
ENDBRANCH   4   7
ENDBRANCH   1   4
BRANCH   2   9
HETATM    9  C6  UNL     1     -34.299   7.859   3.884  1.00 20.00     0.148 C 
HETATM   10 CL10 UNL     1     -33.257   8.127   5.298  1.00 20.00    -0.126 Cl
ENDBRANCH   2   9
TORSDOF 4
ENDMDL
MODEL 8
REMARK VINA RESULT:      -0.5      1.551      2.883
REMARK  4 active torsions:
REMARK  status: ('A' for Active; 'I' for Inactive)
REMARK    1  A    between atoms: C1_1  and  C9_9 
REMARK    2  A    between atoms: C2_2  and  C6_6 
REMARK    3  A    between atoms: C7_7  and  C9_9 
REMARK    4  A    between atoms: C8_8  and  C9_9 
ROOT
HETATM    1  C1  UNL     1     -33.481   6.612   2.682  1.00 20.00    -0.019 C 
HETATM    2  C2  UNL     1     -34.314   6.943   3.688  1.00 20.00    -0.073 C 
HETATM    3  C3  UNL     1     -35.409   5.998   4.105  1.00 20.00     0.044 C 
ENDROOT
BRANCH   1   4
HETATM    4  C9  UNL     1     -32.343   7.433   2.112  1.00 20.00     0.007 C 
BRANCH   4   5
HETATM    5  C7  UNL     1     -32.881   8.719   1.447  1.00 20.00     0.004 C 
HETATM    6  C4  UNL     1     -31.984   9.240   0.330  1.00 20.00     0.006 C 
ENDBRANCH   4   5
BRANCH   4   7
HETATM    7  C8  UNL     1     -31.542   6.615   1.079  1.00 20.00     0.004 C 
HETATM    8  C5  UNL     1     -31.991   5.162   0.977  1.00 20.00     0.006 C 
ENDBRANCH   4   7
ENDBRANCH   1   4
BRANCH   2   9
HETATM    9  C6  UNL     1     -34.223   8.213   4.489  1.00 20.00     0.148 C 
HETATM   10 CL10 UNL     1     -32.665   8.303   5.337  1.00 20.00    -0.126 Cl
ENDBRANCH   2   9
TORSDOF 4
ENDMDL
MODEL 9
REMARK VINA RESULT:      -0.3      2.353      4.608
REMARK  4 active torsions:
REMARK  status: ('A' for Active; 'I' for Inactive)
REMARK    1  A    between atoms: C1_1  and  C9_9 
REMARK    2  A    between atoms: C2_2  and  C6_6 
REMARK    3  A    between atoms: C7_7  and  C9_9 
REMARK    4  A    between atoms: C8_8  and  C9_9 
ROOT
HETATM    1  C1  UNL     1     -33.289   6.590   2.627  1.00 20.00    -0.019 C 
HETATM    2  C2  UNL     1     -32.508   7.423   1.911  1.00 20.00    -0.073 C 
HETATM    3  C3  UNL     1     -31.261   6.904   1.244  1.00 20.00     0.044 C 
ENDROOT
BRANCH   1   4
HETATM    4  C9  UNL     1     -34.559   6.929   3.379  1.00 20.00     0.007 C 
BRANCH   4   5
HETATM    5  C7  UNL     1     -34.315   8.098   4.358  1.00 20.00     0.004 C 
HETATM    6  C4  UNL     1     -33.053   7.929   5.197  1.00 20.00     0.006 C 
ENDBRANCH   4   5
BRANCH   4   7
HETATM    7  C8  UNL     1     -35.077   5.703   4.159  1.00 20.00     0.004 C 
HETATM    8  C5  UNL     1     -34.197   4.469   3.999  1.00 20.00     0.006 C 
ENDBRANCH   4   7
ENDBRANCH   1   4
BRANCH   2   9
HETATM    9  C6  UNL     1     -32.798   8.881   1.681  1.00 20.00     0.148 C 
HETATM   10 CL10 UNL     1     -32.237   9.379   0.070  1.00 20.00    -0.126 Cl
ENDBRANCH   2   9
TORSDOF 4
ENDMDL
