MODEL 1
REMARK VINA RESULT:       0.3      0.000      0.000
REMARK  2 active torsions:
REMARK  status: ('A' for Active; 'I' for Inactive)
REMARK    1  A    between atoms: C4_4  and  C8_8 
REMARK    2  A    between atoms: C5_5  and  C9_9 
ROOT
HETATM    1  C1  UNL     1     -31.637   6.202   0.627  1.00 20.00     0.027 C 
HETATM    2  C2  UNL     1     -31.144   7.402   1.432  1.00 20.00     0.010 C 
HETATM    3  C3  UNL     1     -32.446   5.256   1.503  1.00 20.00     0.168 C 
HETATM    4  C4  UNL     1     -32.282   8.063   2.229  1.00 20.00     0.029 C 
HETATM    5  C5  UNL     1     -33.027   6.976   3.033  1.00 20.00     0.130 C 
HETATM    6  O10 UNL     1     -33.508   5.945   2.161  1.00 20.00    -0.385 OA
ENDROOT
BRANCH   5   7
HETATM    7  C9  UNL     1     -34.218   7.512   3.819  1.00 20.00     0.007 C 
HETATM    8  C6  UNL     1     -35.225   6.397   4.099  1.00 20.00     0.012 C 
HETATM    9  C7  UNL     1     -33.756   8.156   5.125  1.00 20.00     0.012 C 
ENDBRANCH   5   7
BRANCH   4  10
HETATM   10  C8  UNL     1     -33.202   8.856   1.293  1.00 20.00     0.121 C 
HETATM   11 CL11 UNL     1     -32.233   9.874   0.217  1.00 20.00    -0.130 Cl
ENDBRANCH   4  10
TORSDOF 2
ENDMDL
MODEL 2
REMARK VINA RESULT:       0.5      2.568      3.116
REMARK  2 active torsions:
REMARK  status: ('A' for Active; 'I' for Inactive)
REMARK    1  A    between atoms: C4_4  and  C8_8 
REMARK    2  A    between atoms: C5_5  and  C9_9 
ROOT
HETATM    1  C1  UNL     1     -31.480   6.299   1.194  1.00 20.00     0.027 C 
HETATM    2  C2  UNL     1     -32.712   5.398   1.184  1.00 20.00     0.010 C 
HETATM    3  C3  UNL     1     -31.863   7.740   1.501  1.00 20.00     0.168 C 
HETATM    4  C4  UNL     1     -33.571   5.590   2.445  1.00 20.00     0.029 C 
HETATM    5  C5  UNL     1     -33.844   7.097   2.641  1.00 20.00     0.130 C 
HETATM    6  O10 UNL     1     -32.612   7.826   2.712  1.00 20.00    -0.385 OA
ENDROOT
BRANCH   5   7
HETATM    7  C9  UNL     1     -34.643   7.410   3.901  1.00 20.00     0.007 C 
HETATM    8  C6  UNL     1     -35.450   6.191   4.345  1.00 20.00     0.012 C 
HETATM    9  C7  UNL     1     -33.719   7.878   5.023  1.00 20.00     0.012 C 
ENDBRANCH   5   7
BRANCH   4  10
HETATM   10  C8  UNL     1     -32.897   4.938   3.658  1.00 20.00     0.121 C 
HETATM   11 CL11 UNL     1     -33.749   3.448   4.091  1.00 20.00    -0.130 Cl
ENDBRANCH   4  10
TORSDOF 2
ENDMDL
MODEL 3
REMARK VINA RESULT:       0.7      2.124      3.940
REMARK  2 active torsions:
REMARK  status: ('A' for Active; 'I' for Inactive)
REMARK    1  A    between atoms: C4_4  and  C8_8 
REMARK    2  A    between atoms: C5_5  and  C9_9 
ROOT
HETATM    1  C1  UNL     1     -35.071   5.284   4.690  1.00 20.00     0.027 C 
HETATM    2  C2  UNL     1     -35.289   6.527   3.830  1.00 20.00     0.010 C 
HETATM    3  C3  UNL     1     -34.345   4.201   3.904  1.00 20.00     0.168 C 
HETATM    4  C4  UNL     1     -33.992   6.980   3.140  1.00 20.00     0.029 C 
HETATM    5  C5  UNL     1     -33.358   5.770   2.421  1.00 20.00     0.130 C 
HETATM    6  O10 UNL     1     -33.130   4.699   3.344  1.00 20.00    -0.385 OA
ENDROOT
BRANCH   5   7
HETATM    7  C9  UNL     1     -32.029   6.093   1.746  1.00 20.00     0.007 C 
HETATM    8  C6  UNL     1     -31.731   5.089   0.634  1.00 20.00     0.012 C 
HETATM    9  C7  UNL     1     -32.036   7.517   1.194  1.00 20.00     0.012 C 
ENDBRANCH   5   7
BRANCH   4  10
HETATM   10  C8  UNL     1     -33.048   7.641   4.152  1.00 20.00     0.121 C 
HETATM   11 CL11 UNL     1     -33.990   8.469   5.401  1.00 20.00    -0.130 Cl
ENDBRANCH   4  10
TORSDOF 2
ENDMDL
MODEL 4
REMARK VINA RESULT:       1.0      2.174      3.716
REMARK  2 active torsions:
REMARK  status: ('A' for Active; 'I' for Inactive)
REMARK    1  A    between atoms: C4_4  and  C8_8 
REMARK    2  A    between atoms: C5_5  and  C9_9 
ROOT
HETATM    1  C1  UNL     1     -33.472   5.507   3.079  1.00 20.00     0.027 C 
HETATM    2  C2  UNL     1     -34.271   6.789   3.302  1.00 20.00     0.010 C 
HETATM    3  C3  UNL     1     -32.840   5.496   1.694  1.00 20.00     0.168 C 
HETATM    4  C4  UNL     1     -33.454   8.042   2.947  1.00 20.00     0.029 C 
HETATM    5  C5  UNL     1     -32.851   7.865   1.537  1.00 20.00     0.130 C 
HETATM    6  O10 UNL     1     -32.061   6.670   1.474  1.00 20.00    -0.385 OA
ENDROOT
BRANCH   5   7
HETATM    7  C9  UNL     1     -31.968   9.029   1.103  1.00 20.00     0.007 C 
HETATM    8  C6  UNL     1     -31.049   8.611  -0.043  1.00 20.00     0.012 C 
HETATM    9  C7  UNL     1     -32.820  10.229   0.695  1.00 20.00     0.012 C 
ENDBRANCH   5   7
BRANCH   4  10
HETATM   10  C8  UNL     1     -32.396   8.315   4.023  1.00 20.00     0.121 C 
HETATM   11 CL11 UNL     1     -33.145   8.281   5.626  1.00 20.00    -0.130 Cl
ENDBRANCH   4  10
TORSDOF 2
ENDMDL
MODEL 5
REMARK VINA RESULT:       1.8      2.133      2.943
REMARK  2 active torsions:
REMARK  status: ('A' for Active; 'I' for Inactive)
REMARK    1  A    between atoms: C4_4  and  C8_8 
REMARK    2  A    between atoms: C5_5  and  C9_9 
ROOT
HETATM    1  C1  UNL     1     -31.356   8.489   2.474  1.00 20.00     0.027 C 
HETATM    2  C2  UNL     1     -32.071   7.923   1.249  1.00 20.00     0.010 C 
HETATM    3  C3  UNL     1     -32.309   8.601   3.655  1.00 20.00     0.168 C 
HETATM    4  C4  UNL     1     -32.849   6.640   1.583  1.00 20.00     0.029 C 
HETATM    5  C5  UNL     1     -33.738   6.900   2.818  1.00 20.00     0.130 C 
HETATM    6  O10 UNL     1     -32.945   7.352   3.923  1.00 20.00    -0.385 OA
ENDROOT
BRANCH   5   7
HETATM    7  C9  UNL     1     -34.515   5.671   3.276  1.00 20.00     0.007 C 
HETATM    8  C6  UNL     1     -33.572   4.630   3.877  1.00 20.00     0.012 C 
HETATM    9  C7  UNL     1     -35.595   6.061   4.284  1.00 20.00     0.012 C 
ENDBRANCH   5   7
BRANCH   4  10
HETATM   10  C8  UNL     1     -31.885   5.462   1.773  1.00 20.00     0.121 C 
HETATM   11 CL11 UNL     1     -31.832   4.484   0.300  1.00 20.00    -0.130 Cl
ENDBRANCH   4  10
TORSDOF 2
ENDMDL
MODEL 6
REMARK VINA RESULT:       1.9      2.067      3.806
REMARK  2 active torsions:
REMARK  status: ('A' for Active; 'I' for Inactive)
REMARK    1  A    between atoms: C4_4  and  C8_8 
REMARK    2  A    between atoms: C5_5  and  C9_9 
ROOT
HETATM    1  C1  UNL     1     -34.990   5.972   3.823  1.00 20.00     0.027 C 
HETATM    2  C2  UNL     1     -33.797   5.094   3.453  1.00 20.00     0.010 C 
HETATM    3  C3  UNL     1     -34.551   7.409   4.068  1.00 20.00     0.168 C 
HETATM    4  C4  UNL     1     -32.952   5.719   2.330  1.00 20.00     0.029 C 
HETATM    5  C5  UNL     1     -32.620   7.179   2.707  1.00 20.00     0.130 C 
HETATM    6  O10 UNL     1     -33.820   7.921   2.955  1.00 20.00    -0.385 OA
ENDROOT
BRANCH   5   7
HETATM    7  C9  UNL     1     -31.830   7.918   1.632  1.00 20.00     0.007 C 
HETATM    8  C6  UNL     1     -32.672   9.035   1.017  1.00 20.00     0.012 C 
HETATM    9  C7  UNL     1     -30.533   8.481   2.208  1.00 20.00     0.012 C 
ENDBRANCH   5   7
BRANCH   4  10
HETATM   10  C8  UNL     1     -33.675   5.595   0.983  1.00 20.00     0.121 C 
HETATM   11 CL11 UNL     1     -32.914   4.331   0.006  1.00 20.00    -0.130 Cl
ENDBRANCH   4  10
TORSDOF 2
ENDMDL
MODEL 7
REMARK VINA RESULT:       2.0      2.028      2.865
REMARK  2 active torsions:
REMARK  status: ('A' for Active; 'I' for Inactive)
REMARK    1  A    between atoms: C4_4  and  C8_8 
REMARK    2  A    between atoms: C5_5  and  C9_9 
ROOT
HETATM    1  C1  UNL     1     -31.632   8.098   0.522  1.00 20.00     0.027 C 
HETATM    2  C2  UNL     1     -32.777   7.122   0.264  1.00 20.00     0.010 C 
HETATM    3  C3  UNL     1     -31.961   9.029   1.681  1.00 20.00     0.168 C 
HETATM    4  C4  UNL     1     -33.233   6.421   1.555  1.00 20.00     0.029 C 
HETATM    5  C5  UNL     1     -33.491   7.488   2.640  1.00 20.00     0.130 C 
HETATM    6  O10 UNL     1     -32.322   8.290   2.847  1.00 20.00    -0.385 OA
ENDROOT
BRANCH   5   7
HETATM    7  C9  UNL     1     -33.894   6.899   3.988  1.00 20.00     0.007 C 
HETATM    8  C6  UNL     1     -33.814   7.958   5.085  1.00 20.00     0.012 C 
HETATM    9  C7  UNL     1     -35.300   6.305   3.918  1.00 20.00     0.012 C 
ENDBRANCH   5   7
BRANCH   4  10
HETATM   10  C8  UNL     1     -32.206   5.365   1.983  1.00 20.00     0.121 C 
HETATM   11 CL11 UNL     1     -31.581   4.522   0.557  1.00 20.00    -0.130 Cl
ENDBRANCH   4  10
TORSDOF 2
ENDMDL
MODEL 8
REMARK VINA RESULT:       2.4      1.644      3.830
REMARK  2 active torsions:
REMARK  status: ('A' for Active; 'I' for Inactive)
REMARK    1  A    between atoms: C4_4  and  C8_8 
REMARK    2  A    between atoms: C5_5  and  C9_9 
ROOT
HETATM    1  C1  UNL     1     -34.889   5.782   4.751  1.00 20.00     0.027 C 
HETATM    2  C2  UNL     1     -35.212   6.759   3.623  1.00 20.00     0.010 C 
HETATM    3  C3  UNL     1     -34.428   4.442   4.194  1.00 20.00     0.168 C 
HETATM    4  C4  UNL     1     -34.075   6.838   2.591  1.00 20.00     0.029 C 
HETATM    5  C5  UNL     1     -33.697   5.407   2.151  1.00 20.00     0.130 C 
HETATM    6  O10 UNL     1     -33.339   4.609   3.287  1.00 20.00    -0.385 OA
ENDROOT
BRANCH   5   7
HETATM    7  C9  UNL     1     -32.534   5.361   1.167  1.00 20.00     0.007 C 
HETATM    8  C6  UNL     1     -31.274   4.824   1.845  1.00 20.00     0.012 C 
HETATM    9  C7  UNL     1     -32.890   4.510  -0.050  1.00 20.00     0.012 C 
ENDBRANCH   5   7
BRANCH   4  10
HETATM   10  C8  UNL     1     -32.888   7.625   3.160  1.00 20.00     0.121 C 
HETATM   11 CL11 UNL     1     -32.008   8.419   1.846  1.00 20.00    -0.130 Cl
ENDBRANCH   4  10
TORSDOF 2
ENDMDL
MODEL 9
REMARK VINA RESULT:       2.5      2.001      2.680
REMARK  2 active torsions:
REMARK  status: ('A' for Active; 'I' for Inactive)
REMARK    1  A    between atoms: C4_4  and  C8_8 
REMARK    2  A    between atoms: C5_5  and  C9_9 
ROOT
HETATM    1  C1  UNL     1     -32.254   7.685   1.661  1.00 20.00     0.027 C 
HETATM    2  C2  UNL     1     -32.422   7.859   3.168  1.00 20.00     0.010 C 
HETATM    3  C3  UNL     1     -32.058   6.219   1.301  1.00 20.00     0.168 C 
HETATM    4  C4  UNL     1     -33.479   6.900   3.740  1.00 20.00     0.029 C 
HETATM    5  C5  UNL     1     -33.167   5.466   3.261  1.00 20.00     0.130 C 
HETATM    6  O10 UNL     1     -33.111   5.415   1.829  1.00 20.00    -0.385 OA
ENDROOT
BRANCH   5   7
HETATM    7  C9  UNL     1     -34.191   4.435   3.723  1.00 20.00     0.007 C 
HETATM    8  C6  UNL     1     -33.504   3.285   4.458  1.00 20.00     0.012 C 
HETATM    9  C7  UNL     1     -35.247   5.086   4.614  1.00 20.00     0.012 C 
ENDBRANCH   5   7
BRANCH   4  10
HETATM   10  C8  UNL     1     -34.889   7.367   3.359  1.00 20.00     0.121 C 
HETATM   11 CL11 UNL     1     -34.960   9.136   3.367  1.00 20.00    -0.130 Cl
ENDBRANCH   4  10
TORSDOF 2
ENDMDL
