MODEL 1
REMARK VINA RESULT:      -2.1      0.000      0.000
REMARK  2 active torsions:
REMARK  status: ('A' for Active; 'I' for Inactive)
REMARK    1  A    between atoms: C1_1  and  C6_6 
REMARK    2  A    between atoms: C2_2  and  C7_7 
ROOT
HETATM    1  C3  UNL     1     -35.032   6.555   3.613  1.00 20.00     0.037 C 
HETATM    2  C4  UNL     1     -35.401   5.465   4.595  1.00 20.00     0.168 C 
HETATM    3  C5  UNL     1     -33.561   4.735   3.367  1.00 20.00     0.176 C 
HETATM    4  C6  UNL     1     -33.569   6.258   3.354  1.00 20.00     0.034 C 
HETATM    5  O8  UNL     1     -34.625   4.316   4.236  1.00 20.00    -0.390 OA
ENDROOT
BRANCH   4   6
HETATM    6  C1  UNL     1     -33.049   6.853   2.092  1.00 20.00    -0.023 C 
HETATM    7  C2  UNL     1     -32.302   7.966   2.043  1.00 20.00    -0.015 C 
BRANCH   7   8
HETATM    8  C7  UNL     1     -31.775   8.553   0.776  1.00 20.00     0.141 C 
HETATM    9 CL9  UNL     1     -32.590  10.094   0.435  1.00 20.00    -0.126 Cl
ENDBRANCH   7   8
ENDBRANCH   4   6
TORSDOF 2
ENDMDL
MODEL 2
REMARK VINA RESULT:      -1.7      0.752      1.398
REMARK  2 active torsions:
REMARK  status: ('A' for Active; 'I' for Inactive)
REMARK    1  A    between atoms: C1_1  and  C6_6 
REMARK    2  A    between atoms: C2_2  and  C7_7 
ROOT
HETATM    1  C3  UNL     1     -33.215   4.972   3.472  1.00 20.00     0.037 C 
HETATM    2  C4  UNL     1     -34.262   4.080   4.100  1.00 20.00     0.168 C 
HETATM    3  C5  UNL     1     -35.121   6.244   4.005  1.00 20.00     0.176 C 
HETATM    4  C6  UNL     1     -34.059   6.105   2.924  1.00 20.00     0.034 C 
HETATM    5  O8  UNL     1     -35.285   4.949   4.604  1.00 20.00    -0.390 OA
ENDROOT
BRANCH   4   6
HETATM    6  C1  UNL     1     -33.292   7.355   2.667  1.00 20.00    -0.023 C 
HETATM    7  C2  UNL     1     -32.379   7.486   1.693  1.00 20.00    -0.015 C 
BRANCH   7   8
HETATM    8  C7  UNL     1     -31.621   8.745   1.433  1.00 20.00     0.141 C 
HETATM    9 CL9  UNL     1     -32.423   9.684   0.156  1.00 20.00    -0.126 Cl
ENDBRANCH   7   8
ENDBRANCH   4   6
TORSDOF 2
ENDMDL
MODEL 3
REMARK VINA RESULT:      -0.9      3.533      4.858
REMARK  2 active torsions:
REMARK  status: ('A' for Active; 'I' for Inactive)
REMARK    1  A    between atoms: C1_1  and  C6_6 
REMARK    2  A    between atoms: C2_2  and  C7_7 
ROOT
HETATM    1  C3  UNL     1     -32.723   8.136   3.030  1.00 20.00     0.037 C 
HETATM    2  C4  UNL     1     -31.915   8.592   1.836  1.00 20.00     0.168 C 
HETATM    3  C5  UNL     1     -32.523   6.370   1.489  1.00 20.00     0.176 C 
HETATM    4  C6  UNL     1     -33.531   6.997   2.442  1.00 20.00     0.034 C 
HETATM    5  O8  UNL     1     -31.640   7.419   1.061  1.00 20.00    -0.390 OA
ENDROOT
BRANCH   4   6
HETATM    6  C1  UNL     1     -34.065   6.051   3.461  1.00 20.00    -0.023 C 
HETATM    7  C2  UNL     1     -33.676   4.773   3.572  1.00 20.00    -0.015 C 
BRANCH   7   8
HETATM    8  C7  UNL     1     -34.207   3.832   4.602  1.00 20.00     0.141 C 
HETATM    9 CL9  UNL     1     -32.937   2.693   5.097  1.00 20.00    -0.126 Cl
ENDBRANCH   7   8
ENDBRANCH   4   6
TORSDOF 2
ENDMDL
MODEL 4
REMARK VINA RESULT:      -0.7      3.387      5.006
REMARK  2 active torsions:
REMARK  status: ('A' for Active; 'I' for Inactive)
REMARK    1  A    between atoms: C1_1  and  C6_6 
REMARK    2  A    between atoms: C2_2  and  C7_7 
ROOT
HETATM    1  C3  UNL     1     -31.644   7.488   1.000  1.00 20.00     0.037 C 
HETATM    2  C4  UNL     1     -31.277   8.819   0.382  1.00 20.00     0.168 C 
HETATM    3  C5  UNL     1     -33.132   9.148   1.752  1.00 20.00     0.176 C 
HETATM    4  C6  UNL     1     -32.385   7.919   2.250  1.00 20.00     0.034 C 
HETATM    5  O8  UNL     1     -32.346   9.720   0.695  1.00 20.00    -0.390 OA
ENDROOT
BRANCH   4   6
HETATM    6  C1  UNL     1     -33.269   6.864   2.818  1.00 20.00    -0.023 C 
HETATM    7  C2  UNL     1     -34.309   7.116   3.626  1.00 20.00    -0.015 C 
BRANCH   7   8
HETATM    8  C7  UNL     1     -35.199   6.055   4.185  1.00 20.00     0.141 C 
HETATM    9 CL9  UNL     1     -34.370   4.485   4.144  1.00 20.00    -0.126 Cl
ENDBRANCH   7   8
ENDBRANCH   4   6
TORSDOF 2
ENDMDL
MODEL 5
REMARK VINA RESULT:      -0.5      3.442      5.224
REMARK  2 active torsions:
REMARK  status: ('A' for Active; 'I' for Inactive)
REMARK    1  A    between atoms: C1_1  and  C6_6 
REMARK    2  A    between atoms: C2_2  and  C7_7 
ROOT
HETATM    1  C3  UNL     1     -32.277   8.745  -0.281  1.00 20.00     0.037 C 
HETATM    2  C4  UNL     1     -32.232  10.237  -0.532  1.00 20.00     0.168 C 
HETATM    3  C5  UNL     1     -32.652   9.900   1.734  1.00 20.00     0.176 C 
HETATM    4  C6  UNL     1     -31.939   8.668   1.194  1.00 20.00     0.034 C 
HETATM    5  O8  UNL     1     -32.692  10.864   0.671  1.00 20.00    -0.390 OA
ENDROOT
BRANCH   4   6
HETATM    6  C1  UNL     1     -32.361   7.394   1.840  1.00 20.00    -0.023 C 
HETATM    7  C2  UNL     1     -33.376   7.299   2.712  1.00 20.00    -0.015 C 
BRANCH   7   8
HETATM    8  C7  UNL     1     -33.801   6.018   3.349  1.00 20.00     0.141 C 
HETATM    9 CL9  UNL     1     -35.423   6.199   4.051  1.00 20.00    -0.126 Cl
ENDBRANCH   7   8
ENDBRANCH   4   6
TORSDOF 2
ENDMDL
MODEL 6
REMARK VINA RESULT:       0.3      1.305      1.768
REMARK  2 active torsions:
REMARK  status: ('A' for Active; 'I' for Inactive)
REMARK    1  A    between atoms: C1_1  and  C6_6 
REMARK    2  A    between atoms: C2_2  and  C7_7 
ROOT
HETATM    1  C3  UNL     1     -33.315   4.621   3.697  1.00 20.00     0.037 C 
HETATM    2  C4  UNL     1     -34.365   3.770   4.378  1.00 20.00     0.168 C 
HETATM    3  C5  UNL     1     -35.223   5.923   4.144  1.00 20.00     0.176 C 
HETATM    4  C6  UNL     1     -34.158   5.717   3.076  1.00 20.00     0.034 C 
HETATM    5  O8  UNL     1     -35.389   4.668   4.822  1.00 20.00    -0.390 OA
ENDROOT
BRANCH   4   6
HETATM    6  C1  UNL     1     -33.391   6.949   2.744  1.00 20.00    -0.023 C 
HETATM    7  C2  UNL     1     -32.501   7.028   1.743  1.00 20.00    -0.015 C 
BRANCH   7   8
HETATM    8  C7  UNL     1     -31.742   8.269   1.408  1.00 20.00     0.141 C 
HETATM    9 CL9  UNL     1     -31.249   9.101   2.898  1.00 20.00    -0.126 Cl
ENDBRANCH   7   8
ENDBRANCH   4   6
TORSDOF 2
ENDMDL
MODEL 7
REMARK VINA RESULT:       0.9      3.606      5.232
REMARK  2 active torsions:
REMARK  status: ('A' for Active; 'I' for Inactive)
REMARK    1  A    between atoms: C1_1  and  C6_6 
REMARK    2  A    between atoms: C2_2  and  C7_7 
ROOT
HETATM    1  C3  UNL     1     -32.300   9.221  -0.528  1.00 20.00     0.037 C 
HETATM    2  C4  UNL     1     -32.727  10.672  -0.559  1.00 20.00     0.168 C 
HETATM    3  C5  UNL     1     -32.842   9.934   1.648  1.00 20.00     0.176 C 
HETATM    4  C6  UNL     1     -31.837   9.063   0.906  1.00 20.00     0.034 C 
HETATM    5  O8  UNL     1     -33.256  10.967   0.740  1.00 20.00    -0.390 OA
ENDROOT
BRANCH   4   6
HETATM    6  C1  UNL     1     -31.802   7.650   1.375  1.00 20.00    -0.023 C 
HETATM    7  C2  UNL     1     -32.896   6.933   1.669  1.00 20.00    -0.015 C 
BRANCH   7   8
HETATM    8  C7  UNL     1     -32.856   5.513   2.129  1.00 20.00     0.141 C 
HETATM    9 CL9  UNL     1     -31.745   4.576   1.107  1.00 20.00    -0.126 Cl
ENDBRANCH   7   8
ENDBRANCH   4   6
TORSDOF 2
ENDMDL
