MODEL 1
REMARK VINA RESULT:       0.9      0.000      0.000
REMARK  1 active torsions:
REMARK  status: ('A' for Active; 'I' for Inactive)
REMARK    1  A    between atoms: C3_3  and  C8_8 
ROOT
HETATM    1  C1  UNL     1     -33.012   5.887   2.360  1.00 20.00     0.284 C 
HETATM    2  C2  UNL     1     -32.073   8.347   3.183  1.00 20.00     0.110 C 
HETATM    3  C3  UNL     1     -32.010   8.046   1.680  1.00 20.00     0.233 C 
HETATM    4  C4  UNL     1     -34.204   6.562   3.045  1.00 20.00     0.071 C 
HETATM    5  C5  UNL     1     -34.847   5.623   4.063  1.00 20.00     0.023 C 
HETATM    6  N9  UNL     1     -32.429   6.693   1.291  1.00 20.00     0.090 N 
HETATM    7  S10 UNL     1     -33.724   8.104   3.904  1.00 20.00    -0.161 SA
HETATM    8  H27 UNL     1     -31.614   6.189   0.907  1.00 20.00     0.316 HD
ENDROOT
BRANCH   3   9
HETATM    9  C8  UNL     1     -32.766   9.093   0.850  1.00 20.00     0.011 C 
HETATM   10  C6  UNL     1     -32.560  10.487   1.434  1.00 20.00     0.012 C 
HETATM   11  C7  UNL     1     -32.315   9.045  -0.606  1.00 20.00     0.012 C 
ENDBRANCH   3   9
TORSDOF 1
ENDMDL
MODEL 2
REMARK VINA RESULT:       2.2      1.622      4.254
REMARK  1 active torsions:
REMARK  status: ('A' for Active; 'I' for Inactive)
REMARK    1  A    between atoms: C3_3  and  C8_8 
ROOT
HETATM    1  C1  UNL     1     -31.753   8.384   2.152  1.00 20.00     0.284 C 
HETATM    2  C2  UNL     1     -32.677   5.863   1.521  1.00 20.00     0.110 C 
HETATM    3  C3  UNL     1     -32.882   6.337   2.966  1.00 20.00     0.233 C 
HETATM    4  C4  UNL     1     -32.775   8.601   1.031  1.00 20.00     0.071 C 
HETATM    5  C5  UNL     1     -32.193   9.486  -0.069  1.00 20.00     0.023 C 
HETATM    6  N9  UNL     1     -32.293   7.644   3.288  1.00 20.00     0.090 N 
HETATM    7  S10 UNL     1     -33.317   7.025   0.278  1.00 20.00    -0.161 SA
HETATM    8  H27 UNL     1     -31.538   7.508   3.980  1.00 20.00     0.316 HD
ENDROOT
BRANCH   3   9
HETATM    9  C8  UNL     1     -34.360   6.308   3.380  1.00 20.00     0.011 C 
HETATM   10  C6  UNL     1     -34.679   5.016   4.127  1.00 20.00     0.012 C 
HETATM   11  C7  UNL     1     -34.697   7.525   4.236  1.00 20.00     0.012 C 
ENDBRANCH   3   9
TORSDOF 1
ENDMDL
MODEL 3
REMARK VINA RESULT:       2.2      2.041      2.934
REMARK  1 active torsions:
REMARK  status: ('A' for Active; 'I' for Inactive)
REMARK    1  A    between atoms: C3_3  and  C8_8 
ROOT
HETATM    1  C1  UNL     1     -34.491   5.449   3.813  1.00 20.00     0.284 C 
HETATM    2  C2  UNL     1     -33.271   5.702   1.352  1.00 20.00     0.110 C 
HETATM    3  C3  UNL     1     -33.498   6.992   2.152  1.00 20.00     0.233 C 
HETATM    4  C4  UNL     1     -33.220   4.599   3.908  1.00 20.00     0.071 C 
HETATM    5  C5  UNL     1     -33.537   3.208   4.450  1.00 20.00     0.023 C 
HETATM    6  N9  UNL     1     -34.234   6.829   3.413  1.00 20.00     0.090 N 
HETATM    7  S10 UNL     1     -32.394   4.413   2.286  1.00 20.00    -0.161 SA
HETATM    8  H27 UNL     1     -35.138   7.322   3.336  1.00 20.00     0.316 HD
ENDROOT
BRANCH   3   9
HETATM    9  C8  UNL     1     -32.189   7.754   2.400  1.00 20.00     0.011 C 
HETATM   10  C6  UNL     1     -31.912   8.725   1.257  1.00 20.00     0.012 C 
HETATM   11  C7  UNL     1     -32.247   8.492   3.734  1.00 20.00     0.012 C 
ENDBRANCH   3   9
TORSDOF 1
ENDMDL
MODEL 4
REMARK VINA RESULT:       2.8      1.560      4.516
REMARK  1 active torsions:
REMARK  status: ('A' for Active; 'I' for Inactive)
REMARK    1  A    between atoms: C3_3  and  C8_8 
ROOT
HETATM    1  C1  UNL     1     -32.662   6.456   1.556  1.00 20.00     0.284 C 
HETATM    2  C2  UNL     1     -34.916   6.726   3.123  1.00 20.00     0.110 C 
HETATM    3  C3  UNL     1     -34.341   5.312   2.969  1.00 20.00     0.233 C 
HETATM    4  C4  UNL     1     -32.258   7.424   2.674  1.00 20.00     0.071 C 
HETATM    5  C5  UNL     1     -31.590   8.669   2.098  1.00 20.00     0.023 C 
HETATM    6  N9  UNL     1     -33.199   5.193   2.053  1.00 20.00     0.090 N 
HETATM    7  S10 UNL     1     -33.692   7.950   3.680  1.00 20.00    -0.161 SA
HETATM    8  H27 UNL     1     -33.480   4.616   1.243  1.00 20.00     0.316 HD
ENDROOT
BRANCH   3   9
HETATM    9  C8  UNL     1     -33.998   4.678   4.324  1.00 20.00     0.011 C 
HETATM   10  C6  UNL     1     -35.223   4.669   5.234  1.00 20.00     0.012 C 
HETATM   11  C7  UNL     1     -33.460   3.263   4.129  1.00 20.00     0.012 C 
ENDBRANCH   3   9
TORSDOF 1
ENDMDL
MODEL 5
REMARK VINA RESULT:       3.2      0.506      1.230
REMARK  1 active torsions:
REMARK  status: ('A' for Active; 'I' for Inactive)
REMARK    1  A    between atoms: C3_3  and  C8_8 
ROOT
HETATM    1  C1  UNL     1     -33.127   6.082   2.251  1.00 20.00     0.284 C 
HETATM    2  C2  UNL     1     -31.664   8.217   3.206  1.00 20.00     0.110 C 
HETATM    3  C3  UNL     1     -31.605   7.953   1.695  1.00 20.00     0.233 C 
HETATM    4  C4  UNL     1     -34.153   7.005   2.916  1.00 20.00     0.071 C 
HETATM    5  C5  UNL     1     -35.049   6.221   3.871  1.00 20.00     0.023 C 
HETATM    6  N9  UNL     1     -32.319   6.754   1.238  1.00 20.00     0.090 N 
HETATM    7  S10 UNL     1     -33.357   8.360   3.852  1.00 20.00    -0.161 SA
HETATM    8  H27 UNL     1     -31.631   6.078   0.866  1.00 20.00     0.316 HD
ENDROOT
BRANCH   3   9
HETATM    9  C8  UNL     1     -32.048   9.174   0.878  1.00 20.00     0.011 C 
HETATM   10  C6  UNL     1     -32.665   8.735  -0.446  1.00 20.00     0.012 C 
HETATM   11  C7  UNL     1     -33.033  10.021   1.679  1.00 20.00     0.012 C 
ENDBRANCH   3   9
TORSDOF 1
ENDMDL
MODEL 6
REMARK VINA RESULT:       3.7      1.966      2.696
REMARK  1 active torsions:
REMARK  status: ('A' for Active; 'I' for Inactive)
REMARK    1  A    between atoms: C3_3  and  C8_8 
ROOT
HETATM    1  C1  UNL     1     -34.505   5.945   3.890  1.00 20.00     0.284 C 
HETATM    2  C2  UNL     1     -33.694   6.167   1.263  1.00 20.00     0.110 C 
HETATM    3  C3  UNL     1     -33.639   7.440   2.119  1.00 20.00     0.233 C 
HETATM    4  C4  UNL     1     -33.338   4.962   3.748  1.00 20.00     0.071 C 
HETATM    5  C5  UNL     1     -33.712   3.592   4.305  1.00 20.00     0.023 C 
HETATM    6  N9  UNL     1     -34.167   7.305   3.482  1.00 20.00     0.090 N 
HETATM    7  S10 UNL     1     -32.820   4.756   2.005  1.00 20.00    -0.161 SA
HETATM    8  H27 UNL     1     -35.012   7.894   3.573  1.00 20.00     0.316 HD
ENDROOT
BRANCH   3   9
HETATM    9  C8  UNL     1     -32.231   8.050   2.156  1.00 20.00     0.011 C 
HETATM   10  C6  UNL     1     -31.226   7.114   1.491  1.00 20.00     0.012 C 
HETATM   11  C7  UNL     1     -32.225   9.417   1.480  1.00 20.00     0.012 C 
ENDBRANCH   3   9
TORSDOF 1
ENDMDL
MODEL 7
REMARK VINA RESULT:       3.7      1.901      4.311
REMARK  1 active torsions:
REMARK  status: ('A' for Active; 'I' for Inactive)
REMARK    1  A    between atoms: C3_3  and  C8_8 
ROOT
HETATM    1  C1  UNL     1     -32.735   9.982   1.803  1.00 20.00     0.284 C 
HETATM    2  C2  UNL     1     -31.127   7.745   1.670  1.00 20.00     0.110 C 
HETATM    3  C3  UNL     1     -32.392   7.641   2.531  1.00 20.00     0.233 C 
HETATM    4  C4  UNL     1     -32.683   9.614   0.316  1.00 20.00     0.071 C 
HETATM    5  C5  UNL     1     -32.343  10.837  -0.532  1.00 20.00     0.023 C 
HETATM    6  N9  UNL     1     -33.172   8.880   2.654  1.00 20.00     0.090 N 
HETATM    7  S10 UNL     1     -31.448   8.310  -0.028  1.00 20.00    -0.161 SA
HETATM    8  H27 UNL     1     -33.145   9.195   3.638  1.00 20.00     0.316 HD
ENDROOT
BRANCH   3   9
HETATM    9  C8  UNL     1     -33.301   6.487   2.086  1.00 20.00     0.011 C 
HETATM   10  C6  UNL     1     -32.468   5.341   1.520  1.00 20.00     0.012 C 
HETATM   11  C7  UNL     1     -34.161   6.007   3.251  1.00 20.00     0.012 C 
ENDBRANCH   3   9
TORSDOF 1
ENDMDL
