MODEL 1
REMARK VINA RESULT:      -1.3      0.000      0.000
REMARK  3 active torsions:
REMARK  status: ('A' for Active; 'I' for Inactive)
REMARK    1  A    between atoms: C1_1  and  C8_8 
REMARK    2  A    between atoms: C2_2  and  C3_3 
REMARK    3  A    between atoms: C3_3  and  C9_9 
ROOT
HETATM    1  C1  UNL     1     -33.668   6.211   2.676  1.00 20.00    -0.012 C 
HETATM    2  C3  UNL     1     -32.683   6.776   1.950  1.00 20.00    -0.020 C 
ENDROOT
BRANCH   2   3
HETATM    3  C2  UNL     1     -31.915   5.805   1.114  1.00 20.00     0.265 C 
HETATM    4  O10 UNL     1     -32.398   4.788   0.629  1.00 20.00    -0.302 OA
ENDBRANCH   2   3
BRANCH   2   5
HETATM    5  C9  UNL     1     -32.311   8.245   1.917  1.00 20.00     0.013 C 
HETATM    6  C6  UNL     1     -31.029   8.536   2.701  1.00 20.00     0.015 C 
HETATM    7  C7  UNL     1     -32.223   8.791   0.489  1.00 20.00     0.015 C 
ENDBRANCH   2   5
BRANCH   1   8
HETATM    8  C8  UNL     1     -34.630   6.888   3.627  1.00 20.00     0.001 C 
HETATM    9  C4  UNL     1     -35.505   5.840   4.317  1.00 20.00     0.013 C 
HETATM   10  C5  UNL     1     -33.853   7.702   4.661  1.00 20.00     0.013 C 
ENDBRANCH   1   8
TORSDOF 3
ENDMDL
MODEL 2
REMARK VINA RESULT:      -0.9      1.721      2.797
REMARK  3 active torsions:
REMARK  status: ('A' for Active; 'I' for Inactive)
REMARK    1  A    between atoms: C1_1  and  C8_8 
REMARK    2  A    between atoms: C2_2  and  C3_3 
REMARK    3  A    between atoms: C3_3  and  C9_9 
ROOT
HETATM    1  C1  UNL     1     -33.638   7.250   3.357  1.00 20.00    -0.012 C 
HETATM    2  C3  UNL     1     -32.909   6.918   2.274  1.00 20.00    -0.020 C 
ENDROOT
BRANCH   2   3
HETATM    3  C2  UNL     1     -31.941   7.974   1.849  1.00 20.00     0.265 C 
HETATM    4  O10 UNL     1     -32.215   8.879   1.069  1.00 20.00    -0.302 OA
ENDBRANCH   2   3
BRANCH   2   5
HETATM    5  C9  UNL     1     -32.988   5.622   1.492  1.00 20.00     0.013 C 
HETATM    6  C6  UNL     1     -33.875   5.748   0.250  1.00 20.00     0.015 C 
HETATM    7  C7  UNL     1     -31.604   5.075   1.130  1.00 20.00     0.015 C 
ENDBRANCH   2   5
BRANCH   1   8
HETATM    8  C8  UNL     1     -34.704   6.431   4.049  1.00 20.00     0.001 C 
HETATM    9  C4  UNL     1     -36.041   6.595   3.323  1.00 20.00     0.013 C 
HETATM   10  C5  UNL     1     -34.290   4.960   4.082  1.00 20.00     0.013 C 
ENDBRANCH   1   8
TORSDOF 3
ENDMDL
MODEL 3
REMARK VINA RESULT:      -0.8      1.792      2.942
REMARK  3 active torsions:
REMARK  status: ('A' for Active; 'I' for Inactive)
REMARK    1  A    between atoms: C1_1  and  C8_8 
REMARK    2  A    between atoms: C2_2  and  C3_3 
REMARK    3  A    between atoms: C3_3  and  C9_9 
ROOT
HETATM    1  C1  UNL     1     -32.981   7.814   2.928  1.00 20.00    -0.012 C 
HETATM    2  C3  UNL     1     -32.546   7.196   1.812  1.00 20.00    -0.020 C 
ENDROOT
BRANCH   2   3
HETATM    3  C2  UNL     1     -31.872   8.108   0.839  1.00 20.00     0.265 C 
HETATM    4  O10 UNL     1     -32.222   9.264   0.630  1.00 20.00    -0.302 OA
ENDBRANCH   2   3
BRANCH   2   5
HETATM    5  C9  UNL     1     -32.681   5.723   1.482  1.00 20.00     0.013 C 
HETATM    6  C6  UNL     1     -33.703   5.469   0.371  1.00 20.00     0.015 C 
HETATM    7  C7  UNL     1     -31.332   5.075   1.153  1.00 20.00     0.015 C 
ENDBRANCH   2   5
BRANCH   1   8
HETATM    8  C8  UNL     1     -33.703   7.205   4.108  1.00 20.00     0.001 C 
HETATM    9  C4  UNL     1     -33.773   8.215   5.255  1.00 20.00     0.013 C 
HETATM   10  C5  UNL     1     -35.108   6.770   3.691  1.00 20.00     0.013 C 
ENDBRANCH   1   8
TORSDOF 3
ENDMDL
MODEL 4
REMARK VINA RESULT:      -0.7      1.811      4.108
REMARK  3 active torsions:
REMARK  status: ('A' for Active; 'I' for Inactive)
REMARK    1  A    between atoms: C1_1  and  C8_8 
REMARK    2  A    between atoms: C2_2  and  C3_3 
REMARK    3  A    between atoms: C3_3  and  C9_9 
ROOT
HETATM    1  C1  UNL     1     -33.048   5.007   2.447  1.00 20.00    -0.012 C 
HETATM    2  C3  UNL     1     -33.912   5.430   3.390  1.00 20.00    -0.020 C 
ENDROOT
BRANCH   2   3
HETATM    3  C2  UNL     1     -34.212   4.409   4.438  1.00 20.00     0.265 C 
HETATM    4  O10 UNL     1     -33.780   3.262   4.420  1.00 20.00    -0.302 OA
ENDBRANCH   2   3
BRANCH   2   5
HETATM    5  C9  UNL     1     -34.571   6.793   3.467  1.00 20.00     0.013 C 
HETATM    6  C6  UNL     1     -36.097   6.695   3.542  1.00 20.00     0.015 C 
HETATM    7  C7  UNL     1     -34.015   7.645   4.613  1.00 20.00     0.015 C 
ENDBRANCH   2   5
BRANCH   1   8
HETATM    8  C8  UNL     1     -32.531   5.769   1.248  1.00 20.00     0.001 C 
HETATM    9  C4  UNL     1     -31.868   7.070   1.704  1.00 20.00     0.013 C 
HETATM   10  C5  UNL     1     -31.538   4.905   0.471  1.00 20.00     0.013 C 
ENDBRANCH   1   8
TORSDOF 3
ENDMDL
MODEL 5
REMARK VINA RESULT:      -0.6      1.239      3.845
REMARK  3 active torsions:
REMARK  status: ('A' for Active; 'I' for Inactive)
REMARK    1  A    between atoms: C1_1  and  C8_8 
REMARK    2  A    between atoms: C2_2  and  C3_3 
REMARK    3  A    between atoms: C3_3  and  C9_9 
ROOT
HETATM    1  C1  UNL     1     -32.525   6.767   1.995  1.00 20.00    -0.012 C 
HETATM    2  C3  UNL     1     -33.477   6.267   2.807  1.00 20.00    -0.020 C 
ENDROOT
BRANCH   2   3
HETATM    3  C2  UNL     1     -33.524   4.774   2.836  1.00 20.00     0.265 C 
HETATM    4  O10 UNL     1     -33.561   4.110   3.866  1.00 20.00    -0.302 OA
ENDBRANCH   2   3
BRANCH   2   5
HETATM    5  C9  UNL     1     -34.456   7.060   3.650  1.00 20.00     0.013 C 
HETATM    6  C6  UNL     1     -35.631   6.205   4.133  1.00 20.00     0.015 C 
HETATM    7  C7  UNL     1     -33.771   7.772   4.821  1.00 20.00     0.015 C 
ENDBRANCH   2   5
BRANCH   1   8
HETATM    8  C8  UNL     1     -32.202   8.219   1.723  1.00 20.00     0.001 C 
HETATM    9  C4  UNL     1     -31.145   8.712   2.713  1.00 20.00     0.013 C 
HETATM   10  C5  UNL     1     -31.707   8.381   0.286  1.00 20.00     0.013 C 
ENDBRANCH   1   8
TORSDOF 3
ENDMDL
MODEL 6
REMARK VINA RESULT:      -0.5      1.762      2.784
REMARK  3 active torsions:
REMARK  status: ('A' for Active; 'I' for Inactive)
REMARK    1  A    between atoms: C1_1  and  C8_8 
REMARK    2  A    between atoms: C2_2  and  C3_3 
REMARK    3  A    between atoms: C3_3  and  C9_9 
ROOT
HETATM    1  C1  UNL     1     -33.502   6.663   3.013  1.00 20.00    -0.012 C 
HETATM    2  C3  UNL     1     -32.687   6.782   1.946  1.00 20.00    -0.020 C 
ENDROOT
BRANCH   2   3
HETATM    3  C2  UNL     1     -31.934   8.072   1.902  1.00 20.00     0.265 C 
HETATM    4  O10 UNL     1     -32.082   8.922   1.031  1.00 20.00    -0.302 OA
ENDBRANCH   2   3
BRANCH   2   5
HETATM    5  C9  UNL     1     -32.485   5.763   0.843  1.00 20.00     0.013 C 
HETATM    6  C6  UNL     1     -31.491   4.669   1.239  1.00 20.00     0.015 C 
HETATM    7  C7  UNL     1     -33.808   5.160   0.359  1.00 20.00     0.015 C 
ENDBRANCH   2   5
BRANCH   1   8
HETATM    8  C8  UNL     1     -34.406   5.505   3.369  1.00 20.00     0.001 C 
HETATM    9  C4  UNL     1     -33.597   4.404   4.056  1.00 20.00     0.013 C 
HETATM   10  C5  UNL     1     -35.536   5.987   4.279  1.00 20.00     0.013 C 
ENDBRANCH   1   8
TORSDOF 3
ENDMDL
MODEL 7
REMARK VINA RESULT:      -0.5      2.230      4.453
REMARK  3 active torsions:
REMARK  status: ('A' for Active; 'I' for Inactive)
REMARK    1  A    between atoms: C1_1  and  C8_8 
REMARK    2  A    between atoms: C2_2  and  C3_3 
REMARK    3  A    between atoms: C3_3  and  C9_9 
ROOT
HETATM    1  C1  UNL     1     -32.807   8.304   2.826  1.00 20.00    -0.012 C 
HETATM    2  C3  UNL     1     -33.572   7.544   3.634  1.00 20.00    -0.020 C 
ENDROOT
BRANCH   2   3
HETATM    3  C2  UNL     1     -33.648   8.044   5.040  1.00 20.00     0.265 C 
HETATM    4  O10 UNL     1     -32.705   8.547   5.640  1.00 20.00    -0.302 OA
ENDBRANCH   2   3
BRANCH   2   5
HETATM    5  C9  UNL     1     -34.322   6.284   3.249  1.00 20.00     0.013 C 
HETATM    6  C6  UNL     1     -33.418   5.049   3.248  1.00 20.00     0.015 C 
HETATM    7  C7  UNL     1     -35.565   6.060   4.115  1.00 20.00     0.015 C 
ENDBRANCH   2   5
BRANCH   1   8
HETATM    8  C8  UNL     1     -32.507   8.093   1.359  1.00 20.00     0.001 C 
HETATM    9  C4  UNL     1     -32.305   9.444   0.669  1.00 20.00     0.013 C 
HETATM   10  C5  UNL     1     -31.262   7.220   1.202  1.00 20.00     0.013 C 
ENDBRANCH   1   8
TORSDOF 3
ENDMDL
MODEL 8
REMARK VINA RESULT:      -0.4      2.080      4.304
REMARK  3 active torsions:
REMARK  status: ('A' for Active; 'I' for Inactive)
REMARK    1  A    between atoms: C1_1  and  C8_8 
REMARK    2  A    between atoms: C2_2  and  C3_3 
REMARK    3  A    between atoms: C3_3  and  C9_9 
ROOT
HETATM    1  C1  UNL     1     -32.503   8.765   1.894  1.00 20.00    -0.012 C 
HETATM    2  C3  UNL     1     -32.841   7.617   2.514  1.00 20.00    -0.020 C 
ENDROOT
BRANCH   2   3
HETATM    3  C2  UNL     1     -32.919   7.732   4.001  1.00 20.00     0.265 C 
HETATM    4  O10 UNL     1     -33.953   7.966   4.617  1.00 20.00    -0.302 OA
ENDBRANCH   2   3
BRANCH   2   5
HETATM    5  C9  UNL     1     -33.133   6.284   1.853  1.00 20.00     0.013 C 
HETATM    6  C6  UNL     1     -31.870   5.627   1.290  1.00 20.00     0.015 C 
HETATM    7  C7  UNL     1     -33.887   5.327   2.783  1.00 20.00     0.015 C 
ENDBRANCH   2   5
BRANCH   1   8
HETATM    8  C8  UNL     1     -32.329   9.007   0.412  1.00 20.00     0.001 C 
HETATM    9  C4  UNL     1     -32.754  10.435   0.064  1.00 20.00     0.013 C 
HETATM   10  C5  UNL     1     -30.873   8.768   0.013  1.00 20.00     0.013 C 
ENDBRANCH   1   8
TORSDOF 3
ENDMDL
MODEL 9
REMARK VINA RESULT:      -0.3      1.568      2.299
REMARK  3 active torsions:
REMARK  status: ('A' for Active; 'I' for Inactive)
REMARK    1  A    between atoms: C1_1  and  C8_8 
REMARK    2  A    between atoms: C2_2  and  C3_3 
REMARK    3  A    between atoms: C3_3  and  C9_9 
ROOT
HETATM    1  C1  UNL     1     -33.448   4.699   2.885  1.00 20.00    -0.012 C 
HETATM    2  C3  UNL     1     -33.016   5.824   2.284  1.00 20.00    -0.020 C 
ENDROOT
BRANCH   2   3
HETATM    3  C2  UNL     1     -32.773   5.671   0.817  1.00 20.00     0.265 C 
HETATM    4  O10 UNL     1     -31.978   4.872   0.335  1.00 20.00    -0.302 OA
ENDBRANCH   2   3
BRANCH   2   5
HETATM    5  C9  UNL     1     -32.768   7.166   2.944  1.00 20.00     0.013 C 
HETATM    6  C6  UNL     1     -32.138   8.177   1.983  1.00 20.00     0.015 C 
HETATM    7  C7  UNL     1     -34.031   7.735   3.597  1.00 20.00     0.015 C 
ENDBRANCH   2   5
BRANCH   1   8
HETATM    8  C8  UNL     1     -33.785   4.494   4.345  1.00 20.00     0.001 C 
HETATM    9  C4  UNL     1     -35.265   4.796   4.585  1.00 20.00     0.013 C 
HETATM   10  C5  UNL     1     -33.457   3.059   4.758  1.00 20.00     0.013 C 
ENDBRANCH   1   8
TORSDOF 3
ENDMDL
