MODEL 1
REMARK VINA RESULT:      -2.1      0.000      0.000
REMARK  3 active torsions:
REMARK  status: ('A' for Active; 'I' for Inactive)
REMARK    1  A    between atoms: C1_1  and  C6_6 
REMARK    2  A    between atoms: C2_2  and  C3_3 
REMARK    3  A    between atoms: C3_3  and  C8_8 
ROOT
HETATM    1  C1  UNL     1     -32.116   7.955   0.985  1.00 20.00    -0.012 C 
HETATM    2  C3  UNL     1     -32.655   7.293   2.025  1.00 20.00    -0.024 C 
ENDROOT
BRANCH   2   3
HETATM    3  C2  UNL     1     -32.802   5.821   1.865  1.00 20.00     0.265 C 
HETATM    4  O9  UNL     1     -32.085   5.152   1.131  1.00 20.00    -0.302 OA
ENDBRANCH   2   3
BRANCH   2   5
HETATM    5  C8  UNL     1     -33.146   7.924   3.298  1.00 20.00     0.037 C 
HETATM    6  C7  UNL     1     -34.296   7.142   3.919  1.00 20.00     0.010 C 
ENDBRANCH   2   5
BRANCH   1   7
HETATM    7  C6  UNL     1     -31.872   9.408   0.887  1.00 20.00     0.009 A 
HETATM    8  C4  UNL     1     -32.155  10.086  -0.415  1.00 20.00     0.009 A 
HETATM    9  C5  UNL     1     -33.052  10.317   0.764  1.00 20.00     0.009 A 
ENDBRANCH   1   7
TORSDOF 3
ENDMDL
MODEL 2
REMARK VINA RESULT:      -2.1      2.617      5.120
REMARK  3 active torsions:
REMARK  status: ('A' for Active; 'I' for Inactive)
REMARK    1  A    between atoms: C1_1  and  C6_6 
REMARK    2  A    between atoms: C2_2  and  C3_3 
REMARK    3  A    between atoms: C3_3  and  C8_8 
ROOT
HETATM    1  C1  UNL     1     -33.307   4.568   3.231  1.00 20.00    -0.012 C 
HETATM    2  C3  UNL     1     -33.697   5.817   2.919  1.00 20.00    -0.024 C 
ENDROOT
BRANCH   2   3
HETATM    3  C2  UNL     1     -33.051   6.430   1.727  1.00 20.00     0.265 C 
HETATM    4  O9  UNL     1     -32.173   7.281   1.803  1.00 20.00    -0.302 OA
ENDBRANCH   2   3
BRANCH   2   5
HETATM    5  C8  UNL     1     -34.690   6.638   3.692  1.00 20.00     0.037 C 
HETATM    6  C7  UNL     1     -34.020   7.754   4.482  1.00 20.00     0.010 C 
ENDBRANCH   2   5
BRANCH   1   7
HETATM    7  C6  UNL     1     -33.783   3.746   4.362  1.00 20.00     0.009 A 
HETATM    8  C4  UNL     1     -33.348   2.317   4.429  1.00 20.00     0.009 A 
HETATM    9  C5  UNL     1     -32.790   3.320   5.394  1.00 20.00     0.009 A 
ENDBRANCH   1   7
TORSDOF 3
ENDMDL
MODEL 3
REMARK VINA RESULT:      -1.9      1.681      2.344
REMARK  3 active torsions:
REMARK  status: ('A' for Active; 'I' for Inactive)
REMARK    1  A    between atoms: C1_1  and  C6_6 
REMARK    2  A    between atoms: C2_2  and  C3_3 
REMARK    3  A    between atoms: C3_3  and  C8_8 
ROOT
HETATM    1  C1  UNL     1     -32.761   8.532   1.913  1.00 20.00    -0.012 C 
HETATM    2  C3  UNL     1     -32.769   7.215   2.187  1.00 20.00    -0.024 C 
ENDROOT
BRANCH   2   3
HETATM    3  C2  UNL     1     -33.631   6.782   3.319  1.00 20.00     0.265 C 
HETATM    4  O9  UNL     1     -34.221   7.568   4.051  1.00 20.00    -0.302 OA
ENDBRANCH   2   3
BRANCH   2   5
HETATM    5  C8  UNL     1     -31.956   6.172   1.471  1.00 20.00     0.037 C 
HETATM    6  C7  UNL     1     -32.833   5.122   0.801  1.00 20.00     0.010 C 
ENDBRANCH   2   5
BRANCH   1   7
HETATM    7  C6  UNL     1     -31.989   9.215   0.855  1.00 20.00     0.009 A 
HETATM    8  C4  UNL     1     -32.601   9.329  -0.504  1.00 20.00     0.009 A 
HETATM    9  C5  UNL     1     -32.475  10.541   0.369  1.00 20.00     0.009 A 
ENDBRANCH   1   7
TORSDOF 3
ENDMDL
MODEL 4
REMARK VINA RESULT:      -1.9      1.905      4.135
REMARK  3 active torsions:
REMARK  status: ('A' for Active; 'I' for Inactive)
REMARK    1  A    between atoms: C1_1  and  C6_6 
REMARK    2  A    between atoms: C2_2  and  C3_3 
REMARK    3  A    between atoms: C3_3  and  C8_8 
ROOT
HETATM    1  C1  UNL     1     -33.381   7.712   3.325  1.00 20.00    -0.012 C 
HETATM    2  C3  UNL     1     -32.786   7.204   2.230  1.00 20.00    -0.024 C 
ENDROOT
BRANCH   2   3
HETATM    3  C2  UNL     1     -31.876   8.119   1.491  1.00 20.00     0.265 C 
HETATM    4  O9  UNL     1     -32.271   9.093   0.860  1.00 20.00    -0.302 OA
ENDBRANCH   2   3
BRANCH   2   5
HETATM    5  C8  UNL     1     -33.000   5.819   1.687  1.00 20.00     0.037 C 
HETATM    6  C7  UNL     1     -31.739   5.255   1.044  1.00 20.00     0.010 C 
ENDBRANCH   2   5
BRANCH   1   7
HETATM    7  C6  UNL     1     -34.328   7.020   4.223  1.00 20.00     0.009 A 
HETATM    8  C4  UNL     1     -35.633   6.561   3.656  1.00 20.00     0.009 A 
HETATM    9  C5  UNL     1     -34.571   5.562   4.007  1.00 20.00     0.009 A 
ENDBRANCH   1   7
TORSDOF 3
ENDMDL
MODEL 5
REMARK VINA RESULT:      -1.8      2.281      3.079
REMARK  3 active torsions:
REMARK  status: ('A' for Active; 'I' for Inactive)
REMARK    1  A    between atoms: C1_1  and  C6_6 
REMARK    2  A    between atoms: C2_2  and  C3_3 
REMARK    3  A    between atoms: C3_3  and  C8_8 
ROOT
HETATM    1  C1  UNL     1     -33.446   5.626   2.481  1.00 20.00    -0.012 C 
HETATM    2  C3  UNL     1     -34.227   5.797   3.563  1.00 20.00    -0.024 C 
ENDROOT
BRANCH   2   3
HETATM    3  C2  UNL     1     -34.531   4.576   4.357  1.00 20.00     0.265 C 
HETATM    4  O9  UNL     1     -33.888   3.537   4.261  1.00 20.00    -0.302 OA
ENDBRANCH   2   3
BRANCH   2   5
HETATM    5  C8  UNL     1     -34.836   7.100   4.001  1.00 20.00     0.037 C 
HETATM    6  C7  UNL     1     -33.864   7.940   4.819  1.00 20.00     0.010 C 
ENDBRANCH   2   5
BRANCH   1   7
HETATM    7  C6  UNL     1     -33.008   6.666   1.529  1.00 20.00     0.009 A 
HETATM    8  C4  UNL     1     -32.002   7.670   1.992  1.00 20.00     0.009 A 
HETATM    9  C5  UNL     1     -31.608   6.607   1.011  1.00 20.00     0.009 A 
ENDBRANCH   1   7
TORSDOF 3
ENDMDL
MODEL 6
REMARK VINA RESULT:      -1.6      1.156      3.616
REMARK  3 active torsions:
REMARK  status: ('A' for Active; 'I' for Inactive)
REMARK    1  A    between atoms: C1_1  and  C6_6 
REMARK    2  A    between atoms: C2_2  and  C3_3 
REMARK    3  A    between atoms: C3_3  and  C8_8 
ROOT
HETATM    1  C1  UNL     1     -33.589   6.219   2.337  1.00 20.00    -0.012 C 
HETATM    2  C3  UNL     1     -32.425   6.604   1.783  1.00 20.00    -0.024 C 
ENDROOT
BRANCH   2   3
HETATM    3  C2  UNL     1     -31.668   5.559   1.043  1.00 20.00     0.265 C 
HETATM    4  O9  UNL     1     -32.210   4.664   0.406  1.00 20.00    -0.302 OA
ENDBRANCH   2   3
BRANCH   2   5
HETATM    5  C8  UNL     1     -31.825   7.979   1.886  1.00 20.00     0.037 C 
HETATM    6  C7  UNL     1     -32.294   8.895   0.764  1.00 20.00     0.010 C 
ENDBRANCH   2   5
BRANCH   1   7
HETATM    7  C6  UNL     1     -34.518   7.054   3.124  1.00 20.00     0.009 A 
HETATM    8  C4  UNL     1     -35.259   6.414   4.254  1.00 20.00     0.009 A 
HETATM    9  C5  UNL     1     -34.151   7.384   4.535  1.00 20.00     0.009 A 
ENDBRANCH   1   7
TORSDOF 3
ENDMDL
MODEL 7
REMARK VINA RESULT:      -1.6      2.850      5.405
REMARK  3 active torsions:
REMARK  status: ('A' for Active; 'I' for Inactive)
REMARK    1  A    between atoms: C1_1  and  C6_6 
REMARK    2  A    between atoms: C2_2  and  C3_3 
REMARK    3  A    between atoms: C3_3  and  C8_8 
ROOT
HETATM    1  C1  UNL     1     -34.116   5.016   4.087  1.00 20.00    -0.012 C 
HETATM    2  C3  UNL     1     -33.845   6.070   3.295  1.00 20.00    -0.024 C 
ENDROOT
BRANCH   2   3
HETATM    3  C2  UNL     1     -34.398   7.381   3.730  1.00 20.00     0.265 C 
HETATM    4  O9  UNL     1     -33.993   7.985   4.716  1.00 20.00    -0.302 OA
ENDBRANCH   2   3
BRANCH   2   5
HETATM    5  C8  UNL     1     -33.072   6.014   2.007  1.00 20.00     0.037 C 
HETATM    6  C7  UNL     1     -32.225   7.261   1.794  1.00 20.00     0.010 C 
ENDBRANCH   2   5
BRANCH   1   7
HETATM    7  C6  UNL     1     -33.697   3.616   3.877  1.00 20.00     0.009 A 
HETATM    8  C4  UNL     1     -32.277   3.252   4.170  1.00 20.00     0.009 A 
HETATM    9  C5  UNL     1     -33.376   2.786   5.078  1.00 20.00     0.009 A 
ENDBRANCH   1   7
TORSDOF 3
ENDMDL
MODEL 8
REMARK VINA RESULT:      -1.5      2.220      3.145
REMARK  3 active torsions:
REMARK  status: ('A' for Active; 'I' for Inactive)
REMARK    1  A    between atoms: C1_1  and  C6_6 
REMARK    2  A    between atoms: C2_2  and  C3_3 
REMARK    3  A    between atoms: C3_3  and  C8_8 
ROOT
HETATM    1  C1  UNL     1     -33.536   7.505   3.133  1.00 20.00    -0.012 C 
HETATM    2  C3  UNL     1     -34.039   6.297   3.445  1.00 20.00    -0.024 C 
ENDROOT
BRANCH   2   3
HETATM    3  C2  UNL     1     -35.407   6.282   4.029  1.00 20.00     0.265 C 
HETATM    4  O9  UNL     1     -36.416   6.525   3.378  1.00 20.00    -0.302 OA
ENDBRANCH   2   3
BRANCH   2   5
HETATM    5  C8  UNL     1     -33.318   4.987   3.287  1.00 20.00     0.037 C 
HETATM    6  C7  UNL     1     -33.879   3.909   4.205  1.00 20.00     0.010 C 
ENDBRANCH   2   5
BRANCH   1   7
HETATM    7  C6  UNL     1     -32.209   7.792   2.554  1.00 20.00     0.009 A 
HETATM    8  C4  UNL     1     -31.871   7.192   1.227  1.00 20.00     0.009 A 
HETATM    9  C5  UNL     1     -32.139   8.663   1.342  1.00 20.00     0.009 A 
ENDBRANCH   1   7
TORSDOF 3
ENDMDL
MODEL 9
REMARK VINA RESULT:      -1.4      2.084      4.496
REMARK  3 active torsions:
REMARK  status: ('A' for Active; 'I' for Inactive)
REMARK    1  A    between atoms: C1_1  and  C6_6 
REMARK    2  A    between atoms: C2_2  and  C3_3 
REMARK    3  A    between atoms: C3_3  and  C8_8 
ROOT
HETATM    1  C1  UNL     1     -33.808   6.885   3.017  1.00 20.00    -0.012 C 
HETATM    2  C3  UNL     1     -32.907   6.841   2.018  1.00 20.00    -0.024 C 
ENDROOT
BRANCH   2   3
HETATM    3  C2  UNL     1     -31.982   8.001   1.913  1.00 20.00     0.265 C 
HETATM    4  O9  UNL     1     -32.087   8.866   1.051  1.00 20.00    -0.302 OA
ENDBRANCH   2   3
BRANCH   2   5
HETATM    5  C8  UNL     1     -32.793   5.743   0.997  1.00 20.00     0.037 C 
HETATM    6  C7  UNL     1     -31.539   4.902   1.198  1.00 20.00     0.010 C 
ENDBRANCH   2   5
BRANCH   1   7
HETATM    7  C6  UNL     1     -34.836   5.873   3.331  1.00 20.00     0.009 A 
HETATM    8  C4  UNL     1     -34.438   4.695   4.161  1.00 20.00     0.009 A 
HETATM    9  C5  UNL     1     -35.314   5.765   4.743  1.00 20.00     0.009 A 
ENDBRANCH   1   7
TORSDOF 3
ENDMDL
