MODEL 1
REMARK VINA RESULT:      -1.7      0.000      0.000
REMARK  3 active torsions:
REMARK  status: ('A' for Active; 'I' for Inactive)
REMARK    1  A    between atoms: C7_7  and  C9_9 
REMARK    2  A    between atoms: C8_8  and  C10_10 
REMARK    3  A    between atoms: C9_9  and  C10_10 
ROOT
HETATM    1  C1  UNL     1     -33.073   7.675   3.525  1.00 20.00     0.131 C 
HETATM    2  C2  UNL     1     -32.367   8.387   2.398  1.00 20.00     0.079 C 
HETATM    3  C3  UNL     1     -32.004   7.231   1.474  1.00 20.00     0.008 C 
HETATM    4  C4  UNL     1     -33.118   6.213   1.681  1.00 20.00     0.013 C 
HETATM    5  C7  UNL     1     -33.357   6.225   3.191  1.00 20.00     0.055 C 
HETATM    6  O11 UNL     1     -33.376   8.215   4.582  1.00 20.00    -0.298 OA
ENDROOT
BRANCH   5   7
HETATM    7  C9  UNL     1     -34.760   5.794   3.572  1.00 20.00     0.012 C 
BRANCH   7   8
HETATM    8  C10 UNL     1     -34.747   4.525   4.426  1.00 20.00     0.005 C 
BRANCH   8   9
HETATM    9  C8  UNL     1     -33.461   3.734   4.236  1.00 20.00    -0.014 A 
HETATM   10  C5  UNL     1     -32.733   3.175   5.427  1.00 20.00     0.005 A 
HETATM   11  C6  UNL     1     -33.443   2.251   4.479  1.00 20.00     0.005 A 
ENDBRANCH   8   9
ENDBRANCH   7   8
ENDBRANCH   5   7
TORSDOF 3
ENDMDL
MODEL 2
REMARK VINA RESULT:      -1.2      1.767      5.190
REMARK  3 active torsions:
REMARK  status: ('A' for Active; 'I' for Inactive)
REMARK    1  A    between atoms: C7_7  and  C9_9 
REMARK    2  A    between atoms: C8_8  and  C10_10 
REMARK    3  A    between atoms: C9_9  and  C10_10 
ROOT
HETATM    1  C1  UNL     1     -34.116   6.805   3.640  1.00 20.00     0.131 C 
HETATM    2  C2  UNL     1     -34.235   5.355   4.040  1.00 20.00     0.079 C 
HETATM    3  C3  UNL     1     -33.836   4.640   2.756  1.00 20.00     0.008 C 
HETATM    4  C4  UNL     1     -32.835   5.578   2.093  1.00 20.00     0.013 C 
HETATM    5  C7  UNL     1     -33.438   6.969   2.296  1.00 20.00     0.055 C 
HETATM    6  O11 UNL     1     -34.523   7.733   4.329  1.00 20.00    -0.298 OA
ENDROOT
BRANCH   5   7
HETATM    7  C9  UNL     1     -32.397   8.072   2.288  1.00 20.00     0.012 C 
BRANCH   7   8
HETATM    8  C10 UNL     1     -31.670   8.150   0.945  1.00 20.00     0.005 C 
BRANCH   8   9
HETATM    9  C8  UNL     1     -31.712   9.556   0.365  1.00 20.00    -0.014 A 
HETATM   10  C5  UNL     1     -32.773   9.932  -0.632  1.00 20.00     0.005 A 
HETATM   11  C6  UNL     1     -32.812  10.502   0.758  1.00 20.00     0.005 A 
ENDBRANCH   8   9
ENDBRANCH   7   8
ENDBRANCH   5   7
TORSDOF 3
ENDMDL
MODEL 3
REMARK VINA RESULT:      -1.2      2.213      5.346
REMARK  3 active torsions:
REMARK  status: ('A' for Active; 'I' for Inactive)
REMARK    1  A    between atoms: C7_7  and  C9_9 
REMARK    2  A    between atoms: C8_8  and  C10_10 
REMARK    3  A    between atoms: C9_9  and  C10_10 
ROOT
HETATM    1  C1  UNL     1     -33.829   5.676   3.273  1.00 20.00     0.131 C 
HETATM    2  C2  UNL     1     -35.052   6.080   4.059  1.00 20.00     0.079 C 
HETATM    3  C3  UNL     1     -34.680   7.481   4.526  1.00 20.00     0.008 C 
HETATM    4  C4  UNL     1     -33.786   8.026   3.419  1.00 20.00     0.013 C 
HETATM    5  C7  UNL     1     -32.889   6.843   3.048  1.00 20.00     0.055 C 
HETATM    6  O11 UNL     1     -33.630   4.538   2.868  1.00 20.00    -0.298 OA
ENDROOT
BRANCH   5   7
HETATM    7  C9  UNL     1     -32.368   6.918   1.627  1.00 20.00     0.012 C 
BRANCH   7   8
HETATM    8  C10 UNL     1     -31.731   8.277   1.332  1.00 20.00     0.005 C 
BRANCH   8   9
HETATM    9  C8  UNL     1     -32.617   9.128   0.433  1.00 20.00    -0.014 A 
HETATM   10  C5  UNL     1     -32.819  10.588   0.732  1.00 20.00     0.005 A 
HETATM   11  C6  UNL     1     -32.006  10.170  -0.461  1.00 20.00     0.005 A 
ENDBRANCH   8   9
ENDBRANCH   7   8
ENDBRANCH   5   7
TORSDOF 3
ENDMDL
MODEL 4
REMARK VINA RESULT:      -1.2      2.412      5.455
REMARK  3 active torsions:
REMARK  status: ('A' for Active; 'I' for Inactive)
REMARK    1  A    between atoms: C7_7  and  C9_9 
REMARK    2  A    between atoms: C8_8  and  C10_10 
REMARK    3  A    between atoms: C9_9  and  C10_10 
ROOT
HETATM    1  C1  UNL     1     -33.310   6.144   2.645  1.00 20.00     0.131 C 
HETATM    2  C2  UNL     1     -34.745   5.850   3.006  1.00 20.00     0.079 C 
HETATM    3  C3  UNL     1     -34.940   6.706   4.250  1.00 20.00     0.008 C 
HETATM    4  C4  UNL     1     -34.025   7.905   4.035  1.00 20.00     0.013 C 
HETATM    5  C7  UNL     1     -32.748   7.298   3.450  1.00 20.00     0.055 C 
HETATM    6  O11 UNL     1     -32.682   5.518   1.800  1.00 20.00    -0.298 OA
ENDROOT
BRANCH   5   7
HETATM    7  C9  UNL     1     -31.959   8.279   2.607  1.00 20.00     0.012 C 
BRANCH   7   8
HETATM    8  C10 UNL     1     -32.401   8.248   1.143  1.00 20.00     0.005 C 
BRANCH   8   9
HETATM    9  C8  UNL     1     -31.983   9.510   0.404  1.00 20.00    -0.014 A 
HETATM   10  C5  UNL     1     -32.835  10.052  -0.711  1.00 20.00     0.005 A 
HETATM   11  C6  UNL     1     -32.750  10.788   0.597  1.00 20.00     0.005 A 
ENDBRANCH   8   9
ENDBRANCH   7   8
ENDBRANCH   5   7
TORSDOF 3
ENDMDL
MODEL 5
REMARK VINA RESULT:      -0.9      1.456      1.990
REMARK  3 active torsions:
REMARK  status: ('A' for Active; 'I' for Inactive)
REMARK    1  A    between atoms: C7_7  and  C9_9 
REMARK    2  A    between atoms: C8_8  and  C10_10 
REMARK    3  A    between atoms: C9_9  and  C10_10 
ROOT
HETATM    1  C1  UNL     1     -33.057   6.545   1.832  1.00 20.00     0.131 C 
HETATM    2  C2  UNL     1     -31.844   7.441   1.812  1.00 20.00     0.079 C 
HETATM    3  C3  UNL     1     -32.248   8.541   2.784  1.00 20.00     0.008 C 
HETATM    4  C4  UNL     1     -33.155   7.846   3.791  1.00 20.00     0.013 C 
HETATM    5  C7  UNL     1     -34.024   6.924   2.935  1.00 20.00     0.055 C 
HETATM    6  O11 UNL     1     -33.230   5.622   1.045  1.00 20.00    -0.298 OA
ENDROOT
BRANCH   5   7
HETATM    7  C9  UNL     1     -34.549   5.726   3.701  1.00 20.00     0.012 C 
BRANCH   7   8
HETATM    8  C10 UNL     1     -33.639   4.508   3.534  1.00 20.00     0.005 C 
BRANCH   8   9
HETATM    9  C8  UNL     1     -33.821   3.512   4.669  1.00 20.00    -0.014 A 
HETATM   10  C5  UNL     1     -33.248   2.126   4.560  1.00 20.00     0.005 A 
HETATM   11  C6  UNL     1     -32.648   3.113   5.521  1.00 20.00     0.005 A 
ENDBRANCH   8   9
ENDBRANCH   7   8
ENDBRANCH   5   7
TORSDOF 3
ENDMDL
MODEL 6
REMARK VINA RESULT:      -0.6      2.058      3.210
REMARK  3 active torsions:
REMARK  status: ('A' for Active; 'I' for Inactive)
REMARK    1  A    between atoms: C7_7  and  C9_9 
REMARK    2  A    between atoms: C8_8  and  C10_10 
REMARK    3  A    between atoms: C9_9  and  C10_10 
ROOT
HETATM    1  C1  UNL     1     -31.890   7.710   1.259  1.00 20.00     0.131 C 
HETATM    2  C2  UNL     1     -31.396   8.570   0.122  1.00 20.00     0.079 C 
HETATM    3  C3  UNL     1     -32.348   9.757   0.188  1.00 20.00     0.008 C 
HETATM    4  C4  UNL     1     -32.698   9.884   1.665  1.00 20.00     0.013 C 
HETATM    5  C7  UNL     1     -32.897   8.439   2.126  1.00 20.00     0.055 C 
HETATM    6  O11 UNL     1     -31.514   6.561   1.451  1.00 20.00    -0.298 OA
ENDROOT
BRANCH   5   7
HETATM    7  C9  UNL     1     -32.648   8.251   3.609  1.00 20.00     0.012 C 
BRANCH   7   8
HETATM    8  C10 UNL     1     -33.900   7.753   4.332  1.00 20.00     0.005 C 
BRANCH   8   9
HETATM    9  C8  UNL     1     -34.586   6.636   3.560  1.00 20.00    -0.014 A 
HETATM   10  C5  UNL     1     -34.150   5.208   3.745  1.00 20.00     0.005 A 
HETATM   11  C6  UNL     1     -35.481   5.663   4.275  1.00 20.00     0.005 A 
ENDBRANCH   8   9
ENDBRANCH   7   8
ENDBRANCH   5   7
TORSDOF 3
ENDMDL
MODEL 7
REMARK VINA RESULT:      -0.3      2.180      3.169
REMARK  3 active torsions:
REMARK  status: ('A' for Active; 'I' for Inactive)
REMARK    1  A    between atoms: C7_7  and  C9_9 
REMARK    2  A    between atoms: C8_8  and  C10_10 
REMARK    3  A    between atoms: C9_9  and  C10_10 
ROOT
HETATM    1  C1  UNL     1     -31.855   8.845   2.075  1.00 20.00     0.131 C 
HETATM    2  C2  UNL     1     -32.497  10.074   1.481  1.00 20.00     0.079 C 
HETATM    3  C3  UNL     1     -32.495   9.744  -0.006  1.00 20.00     0.008 C 
HETATM    4  C4  UNL     1     -32.632   8.228  -0.060  1.00 20.00     0.013 C 
HETATM    5  C7  UNL     1     -31.714   7.731   1.058  1.00 20.00     0.055 C 
HETATM    6  O11 UNL     1     -31.495   8.766   3.243  1.00 20.00    -0.298 OA
ENDROOT
BRANCH   5   7
HETATM    7  C9  UNL     1     -32.123   6.377   1.601  1.00 20.00     0.012 C 
BRANCH   7   8
HETATM    8  C10 UNL     1     -33.621   6.320   1.903  1.00 20.00     0.005 C 
BRANCH   8   9
HETATM    9  C8  UNL     1     -33.888   6.209   3.397  1.00 20.00    -0.014 A 
HETATM   10  C5  UNL     1     -34.428   7.388   4.159  1.00 20.00     0.005 A 
HETATM   11  C6  UNL     1     -35.300   6.190   3.912  1.00 20.00     0.005 A 
ENDBRANCH   8   9
ENDBRANCH   7   8
ENDBRANCH   5   7
TORSDOF 3
ENDMDL
MODEL 8
REMARK VINA RESULT:      -0.1      1.394      1.926
REMARK  3 active torsions:
REMARK  status: ('A' for Active; 'I' for Inactive)
REMARK    1  A    between atoms: C7_7  and  C9_9 
REMARK    2  A    between atoms: C8_8  and  C10_10 
REMARK    3  A    between atoms: C9_9  and  C10_10 
ROOT
HETATM    1  C1  UNL     1     -32.621   7.490   2.633  1.00 20.00     0.131 C 
HETATM    2  C2  UNL     1     -32.351   8.462   3.754  1.00 20.00     0.079 C 
HETATM    3  C3  UNL     1     -33.669   8.438   4.517  1.00 20.00     0.008 C 
HETATM    4  C4  UNL     1     -34.200   7.025   4.316  1.00 20.00     0.013 C 
HETATM    5  C7  UNL     1     -33.912   6.725   2.844  1.00 20.00     0.055 C 
HETATM    6  O11 UNL     1     -31.878   7.343   1.671  1.00 20.00    -0.298 OA
ENDROOT
BRANCH   5   7
HETATM    7  C9  UNL     1     -33.775   5.243   2.558  1.00 20.00     0.012 C 
BRANCH   7   8
HETATM    8  C10 UNL     1     -34.147   4.397   3.776  1.00 20.00     0.005 C 
BRANCH   8   9
HETATM    9  C8  UNL     1     -33.030   3.437   4.155  1.00 20.00    -0.014 A 
HETATM   10  C5  UNL     1     -32.800   3.073   5.596  1.00 20.00     0.005 A 
HETATM   11  C6  UNL     1     -33.356   2.052   4.642  1.00 20.00     0.005 A 
ENDBRANCH   8   9
ENDBRANCH   7   8
ENDBRANCH   5   7
TORSDOF 3
ENDMDL
MODEL 9
REMARK VINA RESULT:       0.6      1.903      2.923
REMARK  3 active torsions:
REMARK  status: ('A' for Active; 'I' for Inactive)
REMARK    1  A    between atoms: C7_7  and  C9_9 
REMARK    2  A    between atoms: C8_8  and  C10_10 
REMARK    3  A    between atoms: C9_9  and  C10_10 
ROOT
HETATM    1  C1  UNL     1     -32.605   9.607   1.058  1.00 20.00     0.131 C 
HETATM    2  C2  UNL     1     -31.897   9.071  -0.161  1.00 20.00     0.079 C 
HETATM    3  C3  UNL     1     -31.128   7.888   0.415  1.00 20.00     0.008 C 
HETATM    4  C4  UNL     1     -32.002   7.387   1.558  1.00 20.00     0.013 C 
HETATM    5  C7  UNL     1     -32.493   8.666   2.239  1.00 20.00     0.055 C 
HETATM    6  O11 UNL     1     -33.199  10.678   1.078  1.00 20.00    -0.298 OA
ENDROOT
BRANCH   5   7
HETATM    7  C9  UNL     1     -33.805   8.478   2.974  1.00 20.00     0.012 C 
BRANCH   7   8
HETATM    8  C10 UNL     1     -33.733   7.320   3.970  1.00 20.00     0.005 C 
BRANCH   8   9
HETATM    9  C8  UNL     1     -34.577   6.138   3.518  1.00 20.00    -0.014 A 
HETATM   10  C5  UNL     1     -34.210   4.741   3.936  1.00 20.00     0.005 A 
HETATM   11  C6  UNL     1     -35.434   5.399   4.508  1.00 20.00     0.005 A 
ENDBRANCH   8   9
ENDBRANCH   7   8
ENDBRANCH   5   7
TORSDOF 3
ENDMDL
