MODEL 1
REMARK VINA RESULT:       0.9      0.000      0.000
REMARK  3 active torsions:
REMARK  status: ('A' for Active; 'I' for Inactive)
REMARK    1  A    between atoms: C2_2  and  C11_11 
REMARK    2  A    between atoms: C3_3  and  C9_9 
REMARK    3  A    between atoms: C9_9  and  C11_11 
ROOT
HETATM    1  C1  UNL     1     -32.278   9.171   0.760  1.00 20.00    -0.111 C 
HETATM    2  C2  UNL     1     -32.028   8.170   1.374  1.00 20.00    -0.106 C 
HETATM    3  C10 UNL     1     -32.583  10.390   0.013  1.00 20.00     0.112 C 
ENDROOT
BRANCH   2   4
HETATM    4  C11 UNL     1     -31.732   6.941   2.113  1.00 20.00     0.114 C 
BRANCH   4   5
HETATM    5  C9  UNL     1     -33.018   6.178   2.435  1.00 20.00     0.058 C 
HETATM    6  C7  UNL     1     -32.732   4.977   3.341  1.00 20.00     0.021 C 
HETATM    7  C5  UNL     1     -34.004   4.257   3.789  1.00 20.00     0.001 C 
HETATM    8  C4  UNL     1     -35.008   5.219   4.415  1.00 20.00     0.000 C 
HETATM    9  C6  UNL     1     -35.339   6.371   3.472  1.00 20.00     0.001 C 
HETATM   10  C8  UNL     1     -34.080   7.113   3.020  1.00 20.00     0.021 C 
BRANCH   5  11
HETATM   11  C3  UNL     1     -33.469   5.687   1.061  1.00 20.00     0.182 C 
HETATM   12  O12 UNL     1     -34.496   6.255   0.596  1.00 20.00    -0.647 OA
HETATM   13  O13 UNL     1     -32.753   4.773   0.565  1.00 20.00    -0.647 OA
ENDBRANCH   5  11
ENDBRANCH   4   5
ENDBRANCH   2   4
TORSDOF 3
ENDMDL
MODEL 2
REMARK VINA RESULT:       2.4      2.287      4.857
REMARK  3 active torsions:
REMARK  status: ('A' for Active; 'I' for Inactive)
REMARK    1  A    between atoms: C2_2  and  C11_11 
REMARK    2  A    between atoms: C3_3  and  C9_9 
REMARK    3  A    between atoms: C9_9  and  C11_11 
ROOT
HETATM    1  C1  UNL     1     -33.911   4.388   4.127  1.00 20.00    -0.111 C 
HETATM    2  C2  UNL     1     -34.236   5.514   3.867  1.00 20.00    -0.106 C 
HETATM    3  C10 UNL     1     -33.516   3.016   4.446  1.00 20.00     0.112 C 
ENDROOT
BRANCH   2   4
HETATM    4  C11 UNL     1     -34.630   6.891   3.563  1.00 20.00     0.114 C 
BRANCH   4   5
HETATM    5  C9  UNL     1     -33.459   7.671   2.963  1.00 20.00     0.058 C 
HETATM    6  C7  UNL     1     -32.533   6.746   2.167  1.00 20.00     0.021 C 
HETATM    7  C5  UNL     1     -31.416   7.503   1.448  1.00 20.00     0.001 C 
HETATM    8  C4  UNL     1     -31.964   8.639   0.591  1.00 20.00     0.000 C 
HETATM    9  C6  UNL     1     -32.824   9.592   1.413  1.00 20.00     0.001 C 
HETATM   10  C8  UNL     1     -33.956   8.857   2.133  1.00 20.00     0.021 C 
BRANCH   5  11
HETATM   11  C3  UNL     1     -32.729   8.183   4.203  1.00 20.00     0.182 C 
HETATM   12  O12 UNL     1     -31.582   8.667   3.991  1.00 20.00    -0.647 OA
HETATM   13  O13 UNL     1     -33.369   8.057   5.284  1.00 20.00    -0.647 OA
ENDBRANCH   5  11
ENDBRANCH   4   5
ENDBRANCH   2   4
TORSDOF 3
ENDMDL
MODEL 3
REMARK VINA RESULT:       2.9      2.143      4.808
REMARK  3 active torsions:
REMARK  status: ('A' for Active; 'I' for Inactive)
REMARK    1  A    between atoms: C2_2  and  C11_11 
REMARK    2  A    between atoms: C3_3  and  C9_9 
REMARK    3  A    between atoms: C9_9  and  C11_11 
ROOT
HETATM    1  C1  UNL     1     -33.618   3.255   4.551  1.00 20.00    -0.111 C 
HETATM    2  C2  UNL     1     -34.196   4.307   4.531  1.00 20.00    -0.106 C 
HETATM    3  C10 UNL     1     -32.914   1.973   4.574  1.00 20.00     0.112 C 
ENDROOT
BRANCH   2   4
HETATM    4  C11 UNL     1     -34.910   5.584   4.519  1.00 20.00     0.114 C 
BRANCH   4   5
HETATM    5  C9  UNL     1     -34.254   6.563   3.544  1.00 20.00     0.058 C 
HETATM    6  C7  UNL     1     -33.154   7.374   4.236  1.00 20.00     0.021 C 
HETATM    7  C5  UNL     1     -32.388   8.279   3.271  1.00 20.00     0.001 C 
HETATM    8  C4  UNL     1     -31.856   7.502   2.071  1.00 20.00     0.000 C 
HETATM    9  C6  UNL     1     -32.974   6.759   1.348  1.00 20.00     0.001 C 
HETATM   10  C8  UNL     1     -33.747   5.839   2.294  1.00 20.00     0.021 C 
BRANCH   5  11
HETATM   11  C3  UNL     1     -35.410   7.487   3.167  1.00 20.00     0.182 C 
HETATM   12  O12 UNL     1     -35.153   8.722   3.218  1.00 20.00    -0.647 OA
HETATM   13  O13 UNL     1     -36.480   6.893   2.852  1.00 20.00    -0.647 OA
ENDBRANCH   5  11
ENDBRANCH   4   5
ENDBRANCH   2   4
TORSDOF 3
ENDMDL
MODEL 4
REMARK VINA RESULT:       2.9      1.703      3.015
REMARK  3 active torsions:
REMARK  status: ('A' for Active; 'I' for Inactive)
REMARK    1  A    between atoms: C2_2  and  C11_11 
REMARK    2  A    between atoms: C3_3  and  C9_9 
REMARK    3  A    between atoms: C9_9  and  C11_11 
ROOT
HETATM    1  C1  UNL     1     -32.403   9.677   0.376  1.00 20.00    -0.111 C 
HETATM    2  C2  UNL     1     -32.411   8.908   1.299  1.00 20.00    -0.106 C 
HETATM    3  C10 UNL     1     -32.392  10.614  -0.746  1.00 20.00     0.112 C 
ENDROOT
BRANCH   2   4
HETATM    4  C11 UNL     1     -32.428   7.981   2.432  1.00 20.00     0.114 C 
BRANCH   4   5
HETATM    5  C9  UNL     1     -32.805   6.571   1.974  1.00 20.00     0.058 C 
HETATM    6  C7  UNL     1     -33.676   6.617   0.715  1.00 20.00     0.021 C 
HETATM    7  C5  UNL     1     -33.976   5.228   0.151  1.00 20.00     0.001 C 
HETATM    8  C4  UNL     1     -32.702   4.419  -0.066  1.00 20.00     0.000 C 
HETATM    9  C6  UNL     1     -31.881   4.320   1.215  1.00 20.00     0.001 C 
HETATM   10  C8  UNL     1     -31.560   5.700   1.791  1.00 20.00     0.021 C 
BRANCH   5  11
HETATM   11  C3  UNL     1     -33.629   6.047   3.148  1.00 20.00     0.182 C 
HETATM   12  O12 UNL     1     -33.486   4.819   3.401  1.00 20.00    -0.647 OA
HETATM   13  O13 UNL     1     -34.350   6.914   3.716  1.00 20.00    -0.647 OA
ENDBRANCH   5  11
ENDBRANCH   4   5
ENDBRANCH   2   4
TORSDOF 3
ENDMDL
MODEL 5
REMARK VINA RESULT:       3.0      1.567      2.050
REMARK  3 active torsions:
REMARK  status: ('A' for Active; 'I' for Inactive)
REMARK    1  A    between atoms: C2_2  and  C11_11 
REMARK    2  A    between atoms: C3_3  and  C9_9 
REMARK    3  A    between atoms: C9_9  and  C11_11 
ROOT
HETATM    1  C1  UNL     1     -32.461   9.687   0.146  1.00 20.00    -0.111 C 
HETATM    2  C2  UNL     1     -32.705   8.529   0.347  1.00 20.00    -0.106 C 
HETATM    3  C10 UNL     1     -32.164  11.098  -0.099  1.00 20.00     0.112 C 
ENDROOT
BRANCH   2   4
HETATM    4  C11 UNL     1     -33.016   7.121   0.598  1.00 20.00     0.114 C 
BRANCH   4   5
HETATM    5  C9  UNL     1     -33.218   6.868   2.093  1.00 20.00     0.058 C 
HETATM    6  C7  UNL     1     -32.465   7.904   2.932  1.00 20.00     0.021 C 
HETATM    7  C5  UNL     1     -32.738   7.764   4.430  1.00 20.00     0.001 C 
HETATM    8  C4  UNL     1     -34.232   7.758   4.735  1.00 20.00     0.000 C 
HETATM    9  C6  UNL     1     -34.957   6.672   3.947  1.00 20.00     0.001 C 
HETATM   10  C8  UNL     1     -34.707   6.801   2.443  1.00 20.00     0.021 C 
BRANCH   5  11
HETATM   11  C3  UNL     1     -32.584   5.492   2.288  1.00 20.00     0.182 C 
HETATM   12  O12 UNL     1     -33.171   4.740   3.114  1.00 20.00    -0.647 OA
HETATM   13  O13 UNL     1     -31.550   5.283   1.594  1.00 20.00    -0.647 OA
ENDBRANCH   5  11
ENDBRANCH   4   5
ENDBRANCH   2   4
TORSDOF 3
ENDMDL
MODEL 6
REMARK VINA RESULT:       3.1      2.052      2.618
REMARK  3 active torsions:
REMARK  status: ('A' for Active; 'I' for Inactive)
REMARK    1  A    between atoms: C2_2  and  C11_11 
REMARK    2  A    between atoms: C3_3  and  C9_9 
REMARK    3  A    between atoms: C9_9  and  C11_11 
ROOT
HETATM    1  C1  UNL     1     -32.540   9.422   0.591  1.00 20.00    -0.111 C 
HETATM    2  C2  UNL     1     -32.388   8.351   1.110  1.00 20.00    -0.106 C 
HETATM    3  C10 UNL     1     -32.727  10.727  -0.042  1.00 20.00     0.112 C 
ENDROOT
BRANCH   2   4
HETATM    4  C11 UNL     1     -32.197   7.038   1.731  1.00 20.00     0.114 C 
BRANCH   4   5
HETATM    5  C9  UNL     1     -33.195   6.827   2.870  1.00 20.00     0.058 C 
HETATM    6  C7  UNL     1     -34.613   7.213   2.438  1.00 20.00     0.021 C 
HETATM    7  C5  UNL     1     -35.663   6.903   3.505  1.00 20.00     0.001 C 
HETATM    8  C4  UNL     1     -35.583   5.454   3.972  1.00 20.00     0.000 C 
HETATM    9  C6  UNL     1     -34.184   5.105   4.469  1.00 20.00     0.001 C 
HETATM   10  C8  UNL     1     -33.118   5.397   3.411  1.00 20.00     0.021 C 
BRANCH   5  11
HETATM   11  C3  UNL     1     -32.700   7.804   3.934  1.00 20.00     0.182 C 
HETATM   12  O12 UNL     1     -33.466   7.954   4.927  1.00 20.00    -0.647 OA
HETATM   13  O13 UNL     1     -31.584   8.338   3.683  1.00 20.00    -0.647 OA
ENDBRANCH   5  11
ENDBRANCH   4   5
ENDBRANCH   2   4
TORSDOF 3
ENDMDL
MODEL 7
REMARK VINA RESULT:       3.8      2.262      3.450
REMARK  3 active torsions:
REMARK  status: ('A' for Active; 'I' for Inactive)
REMARK    1  A    between atoms: C2_2  and  C11_11 
REMARK    2  A    between atoms: C3_3  and  C9_9 
REMARK    3  A    between atoms: C9_9  and  C11_11 
ROOT
HETATM    1  C1  UNL     1     -31.669   4.811   0.450  1.00 20.00    -0.111 C 
HETATM    2  C2  UNL     1     -32.304   5.728   0.895  1.00 20.00    -0.106 C 
HETATM    3  C10 UNL     1     -30.895   3.695  -0.091  1.00 20.00     0.112 C 
ENDROOT
BRANCH   2   4
HETATM    4  C11 UNL     1     -33.067   6.854   1.436  1.00 20.00     0.114 C 
BRANCH   4   5
HETATM    5  C9  UNL     1     -33.619   6.520   2.823  1.00 20.00     0.058 C 
HETATM    6  C7  UNL     1     -35.139   6.704   2.868  1.00 20.00     0.021 C 
HETATM    7  C5  UNL     1     -35.750   6.264   4.199  1.00 20.00     0.001 C 
HETATM    8  C4  UNL     1     -35.335   4.845   4.569  1.00 20.00     0.000 C 
HETATM    9  C6  UNL     1     -33.817   4.696   4.592  1.00 20.00     0.001 C 
HETATM   10  C8  UNL     1     -33.186   5.120   3.265  1.00 20.00     0.021 C 
BRANCH   5  11
HETATM   11  C3  UNL     1     -32.950   7.567   3.711  1.00 20.00     0.182 C 
HETATM   12  O12 UNL     1     -33.522   7.783   4.815  1.00 20.00    -0.647 OA
HETATM   13  O13 UNL     1     -31.906   8.085   3.223  1.00 20.00    -0.647 OA
ENDBRANCH   5  11
ENDBRANCH   4   5
ENDBRANCH   2   4
TORSDOF 3
ENDMDL
MODEL 8
REMARK VINA RESULT:       3.8      2.129      4.789
REMARK  3 active torsions:
REMARK  status: ('A' for Active; 'I' for Inactive)
REMARK    1  A    between atoms: C2_2  and  C11_11 
REMARK    2  A    between atoms: C3_3  and  C9_9 
REMARK    3  A    between atoms: C9_9  and  C11_11 
ROOT
HETATM    1  C1  UNL     1     -34.395   6.099   3.440  1.00 20.00    -0.111 C 
HETATM    2  C2  UNL     1     -33.497   6.233   2.654  1.00 20.00    -0.106 C 
HETATM    3  C10 UNL     1     -35.487   5.936   4.398  1.00 20.00     0.112 C 
ENDROOT
BRANCH   2   4
HETATM    4  C11 UNL     1     -32.392   6.394   1.707  1.00 20.00     0.114 C 
BRANCH   4   5
HETATM    5  C9  UNL     1     -32.086   7.875   1.476  1.00 20.00     0.058 C 
HETATM    6  C7  UNL     1     -31.289   8.076   0.184  1.00 20.00     0.021 C 
HETATM    7  C5  UNL     1     -31.066   9.551  -0.150  1.00 20.00     0.001 C 
HETATM    8  C4  UNL     1     -32.375  10.333  -0.159  1.00 20.00     0.000 C 
HETATM    9  C6  UNL     1     -33.123  10.182   1.161  1.00 20.00     0.001 C 
HETATM   10  C8  UNL     1     -33.367   8.713   1.510  1.00 20.00     0.021 C 
BRANCH   5  11
HETATM   11  C3  UNL     1     -31.212   8.227   2.678  1.00 20.00     0.182 C 
HETATM   12  O12 UNL     1     -31.817   8.767   3.645  1.00 20.00    -0.647 OA
HETATM   13  O13 UNL     1     -29.991   7.931   2.548  1.00 20.00    -0.647 OA
ENDBRANCH   5  11
ENDBRANCH   4   5
ENDBRANCH   2   4
TORSDOF 3
ENDMDL
MODEL 9
REMARK VINA RESULT:       3.8      1.418      4.583
REMARK  3 active torsions:
REMARK  status: ('A' for Active; 'I' for Inactive)
REMARK    1  A    between atoms: C2_2  and  C11_11 
REMARK    2  A    between atoms: C3_3  and  C9_9 
REMARK    3  A    between atoms: C9_9  and  C11_11 
ROOT
HETATM    1  C1  UNL     1     -34.519   6.589   3.936  1.00 20.00    -0.111 C 
HETATM    2  C2  UNL     1     -33.535   7.217   3.653  1.00 20.00    -0.106 C 
HETATM    3  C10 UNL     1     -35.716   5.824   4.281  1.00 20.00     0.112 C 
ENDROOT
BRANCH   2   4
HETATM    4  C11 UNL     1     -32.328   7.970   3.308  1.00 20.00     0.114 C 
BRANCH   4   5
HETATM    5  C9  UNL     1     -32.226   8.168   1.795  1.00 20.00     0.058 C 
HETATM    6  C7  UNL     1     -33.269   9.176   1.302  1.00 20.00     0.021 C 
HETATM    7  C5  UNL     1     -33.124   9.498  -0.186  1.00 20.00     0.001 C 
HETATM    8  C4  UNL     1     -31.704   9.929  -0.535  1.00 20.00     0.000 C 
HETATM    9  C6  UNL     1     -30.682   8.882  -0.104  1.00 20.00     0.001 C 
HETATM   10  C8  UNL     1     -30.802   8.553   1.385  1.00 20.00     0.021 C 
BRANCH   5  11
HETATM   11  C3  UNL     1     -32.558   6.780   1.252  1.00 20.00     0.182 C 
HETATM   12  O12 UNL     1     -33.663   6.688   0.649  1.00 20.00    -0.647 OA
HETATM   13  O13 UNL     1     -31.681   5.900   1.477  1.00 20.00    -0.647 OA
ENDBRANCH   5  11
ENDBRANCH   4   5
ENDBRANCH   2   4
TORSDOF 3
ENDMDL
