MODEL 1
REMARK VINA RESULT:      -2.5      0.000      0.000
REMARK  4 active torsions:
REMARK  status: ('A' for Active; 'I' for Inactive)
REMARK    1  A    between atoms: C1_1  and  C6_6 
REMARK    2  A    between atoms: C4_4  and  C6_6 
REMARK    3  A    between atoms: C5_5  and  C6_6 
REMARK    4  A    between atoms: C5_5  and  C7_7 
ROOT
HETATM    1  C6  UNL     1     -33.358   7.179   2.135  1.00 20.00     0.063 C 
ENDROOT
BRANCH   1   2
HETATM    2  C1  UNL     1     -33.858   7.275   3.574  1.00 20.00     0.127 C 
HETATM    3  C2  UNL     1     -35.065   6.446   3.931  1.00 20.00     0.091 C 
HETATM    4  O8  UNL     1     -33.308   7.991   4.410  1.00 20.00    -0.298 OA
ENDBRANCH   1   2
BRANCH   1   5
HETATM    5  C4  UNL     1     -33.101   5.708   1.770  1.00 20.00     0.008 C 
HETATM    6  C3  UNL     1     -31.749   5.491   1.102  1.00 20.00     0.006 C 
ENDBRANCH   1   5
BRANCH   1   7
HETATM    7  C5  UNL     1     -32.072   8.006   1.959  1.00 20.00     0.129 C 
BRANCH   7   8
HETATM    8  C7  UNL     1     -32.112   8.943   0.768  1.00 20.00     0.388 C 
HETATM    9  F9  UNL     1     -32.356  10.217   1.135  1.00 20.00    -0.171 F 
HETATM   10  F10 UNL     1     -33.061   8.572  -0.117  1.00 20.00    -0.171 F 
HETATM   11  F11 UNL     1     -30.924   8.929   0.121  1.00 20.00    -0.171 F 
ENDBRANCH   7   8
ENDBRANCH   1   7
TORSDOF 4
ENDMDL
MODEL 2
REMARK VINA RESULT:      -2.5      0.017      1.138
REMARK  4 active torsions:
REMARK  status: ('A' for Active; 'I' for Inactive)
REMARK    1  A    between atoms: C1_1  and  C6_6 
REMARK    2  A    between atoms: C4_4  and  C6_6 
REMARK    3  A    between atoms: C5_5  and  C6_6 
REMARK    4  A    between atoms: C5_5  and  C7_7 
ROOT
HETATM    1  C6  UNL     1     -33.359   7.176   2.139  1.00 20.00     0.063 C 
ENDROOT
BRANCH   1   2
HETATM    2  C1  UNL     1     -33.866   7.270   3.576  1.00 20.00     0.127 C 
HETATM    3  C2  UNL     1     -35.070   6.436   3.928  1.00 20.00     0.091 C 
HETATM    4  O8  UNL     1     -33.323   7.989   4.414  1.00 20.00    -0.298 OA
ENDBRANCH   1   2
BRANCH   1   5
HETATM    5  C4  UNL     1     -33.104   5.704   1.772  1.00 20.00     0.008 C 
HETATM    6  C3  UNL     1     -31.749   5.484   1.112  1.00 20.00     0.006 C 
ENDBRANCH   1   5
BRANCH   1   7
HETATM    7  C5  UNL     1     -32.069   7.999   1.972  1.00 20.00     0.129 C 
BRANCH   7   8
HETATM    8  C7  UNL     1     -32.096   8.932   0.777  1.00 20.00     0.388 C 
HETATM    9  F9  UNL     1     -30.926   8.930   0.108  1.00 20.00    -0.171 F 
HETATM   10  F10 UNL     1     -32.364  10.201   1.150  1.00 20.00    -0.171 F 
HETATM   11  F11 UNL     1     -33.060   8.551  -0.093  1.00 20.00    -0.171 F 
ENDBRANCH   7   8
ENDBRANCH   1   7
TORSDOF 4
ENDMDL
MODEL 3
REMARK VINA RESULT:      -2.4      4.413      5.111
REMARK  4 active torsions:
REMARK  status: ('A' for Active; 'I' for Inactive)
REMARK    1  A    between atoms: C1_1  and  C6_6 
REMARK    2  A    between atoms: C4_4  and  C6_6 
REMARK    3  A    between atoms: C5_5  and  C6_6 
REMARK    4  A    between atoms: C5_5  and  C7_7 
ROOT
HETATM    1  C6  UNL     1     -33.559   5.349   3.536  1.00 20.00     0.063 C 
ENDROOT
BRANCH   1   2
HETATM    2  C1  UNL     1     -34.526   6.485   3.860  1.00 20.00     0.127 C 
HETATM    3  C2  UNL     1     -33.915   7.805   4.252  1.00 20.00     0.091 C 
HETATM    4  O8  UNL     1     -35.746   6.339   3.805  1.00 20.00    -0.298 OA
ENDBRANCH   1   2
BRANCH   1   5
HETATM    5  C4  UNL     1     -33.324   5.281   2.018  1.00 20.00     0.008 C 
HETATM    6  C3  UNL     1     -32.298   6.297   1.531  1.00 20.00     0.006 C 
ENDBRANCH   1   5
BRANCH   1   7
HETATM    7  C5  UNL     1     -34.116   4.010   4.050  1.00 20.00     0.129 C 
BRANCH   7   8
HETATM    8  C7  UNL     1     -33.050   3.075   4.586  1.00 20.00     0.388 C 
HETATM    9  F9  UNL     1     -31.871   3.236   3.952  1.00 20.00    -0.171 F 
HETATM   10  F10 UNL     1     -33.420   1.783   4.461  1.00 20.00    -0.171 F 
HETATM   11  F11 UNL     1     -32.837   3.312   5.901  1.00 20.00    -0.171 F 
ENDBRANCH   7   8
ENDBRANCH   1   7
TORSDOF 4
ENDMDL
MODEL 4
REMARK VINA RESULT:      -2.3      2.470      3.240
REMARK  4 active torsions:
REMARK  status: ('A' for Active; 'I' for Inactive)
REMARK    1  A    between atoms: C1_1  and  C6_6 
REMARK    2  A    between atoms: C4_4  and  C6_6 
REMARK    3  A    between atoms: C5_5  and  C6_6 
REMARK    4  A    between atoms: C5_5  and  C7_7 
ROOT
HETATM    1  C6  UNL     1     -34.186   5.139   3.359  1.00 20.00     0.063 C 
ENDROOT
BRANCH   1   2
HETATM    2  C1  UNL     1     -34.891   6.446   3.714  1.00 20.00     0.127 C 
HETATM    3  C2  UNL     1     -34.028   7.557   4.255  1.00 20.00     0.091 C 
HETATM    4  O8  UNL     1     -36.103   6.595   3.568  1.00 20.00    -0.298 OA
ENDBRANCH   1   2
BRANCH   1   5
HETATM    5  C4  UNL     1     -34.263   4.166   4.547  1.00 20.00     0.008 C 
HETATM    6  C3  UNL     1     -33.218   3.059   4.475  1.00 20.00     0.006 C 
ENDBRANCH   1   5
BRANCH   1   7
HETATM    7  C5  UNL     1     -32.718   5.409   2.983  1.00 20.00     0.129 C 
BRANCH   7   8
HETATM    8  C7  UNL     1     -32.528   5.819   1.536  1.00 20.00     0.388 C 
HETATM    9  F9  UNL     1     -33.646   5.630   0.806  1.00 20.00    -0.171 F 
HETATM   10  F10 UNL     1     -31.526   5.127   0.956  1.00 20.00    -0.171 F 
HETATM   11  F11 UNL     1     -32.213   7.133   1.460  1.00 20.00    -0.171 F 
ENDBRANCH   7   8
ENDBRANCH   1   7
TORSDOF 4
ENDMDL
MODEL 5
REMARK VINA RESULT:      -2.2      2.672      3.637
REMARK  4 active torsions:
REMARK  status: ('A' for Active; 'I' for Inactive)
REMARK    1  A    between atoms: C1_1  and  C6_6 
REMARK    2  A    between atoms: C4_4  and  C6_6 
REMARK    3  A    between atoms: C5_5  and  C6_6 
REMARK    4  A    between atoms: C5_5  and  C7_7 
ROOT
HETATM    1  C6  UNL     1     -33.649   5.776   3.487  1.00 20.00     0.063 C 
ENDROOT
BRANCH   1   2
HETATM    2  C1  UNL     1     -34.330   4.607   4.194  1.00 20.00     0.127 C 
HETATM    3  C2  UNL     1     -33.531   3.338   4.334  1.00 20.00     0.091 C 
HETATM    4  O8  UNL     1     -35.477   4.689   4.634  1.00 20.00    -0.298 OA
ENDBRANCH   1   2
BRANCH   1   5
HETATM    5  C4  UNL     1     -34.434   7.072   3.746  1.00 20.00     0.008 C 
HETATM    6  C3  UNL     1     -33.669   8.065   4.613  1.00 20.00     0.006 C 
ENDBRANCH   1   5
BRANCH   1   7
HETATM    7  C5  UNL     1     -33.553   5.503   1.976  1.00 20.00     0.129 C 
BRANCH   7   8
HETATM    8  C7  UNL     1     -32.134   5.537   1.442  1.00 20.00     0.388 C 
HETATM    9  F9  UNL     1     -31.287   4.828   2.215  1.00 20.00    -0.171 F 
HETATM   10  F10 UNL     1     -31.670   6.801   1.360  1.00 20.00    -0.171 F 
HETATM   11  F11 UNL     1     -32.089   5.005   0.199  1.00 20.00    -0.171 F 
ENDBRANCH   7   8
ENDBRANCH   1   7
TORSDOF 4
ENDMDL
MODEL 6
REMARK VINA RESULT:      -2.1      3.007      4.122
REMARK  4 active torsions:
REMARK  status: ('A' for Active; 'I' for Inactive)
REMARK    1  A    between atoms: C1_1  and  C6_6 
REMARK    2  A    between atoms: C4_4  and  C6_6 
REMARK    3  A    between atoms: C5_5  and  C6_6 
REMARK    4  A    between atoms: C5_5  and  C7_7 
ROOT
HETATM    1  C6  UNL     1     -32.981   7.328   1.837  1.00 20.00     0.063 C 
ENDROOT
BRANCH   1   2
HETATM    2  C1  UNL     1     -32.593   5.935   1.346  1.00 20.00     0.127 C 
HETATM    3  C2  UNL     1     -33.583   5.230   0.456  1.00 20.00     0.091 C 
HETATM    4  O8  UNL     1     -31.526   5.408   1.656  1.00 20.00    -0.298 OA
ENDBRANCH   1   2
BRANCH   1   5
HETATM    5  C4  UNL     1     -31.882   8.337   1.464  1.00 20.00     0.008 C 
HETATM    6  C3  UNL     1     -32.382   9.448   0.549  1.00 20.00     0.006 C 
ENDBRANCH   1   5
BRANCH   1   7
HETATM    7  C5  UNL     1     -33.200   7.316   3.360  1.00 20.00     0.129 C 
BRANCH   7   8
HETATM    8  C7  UNL     1     -34.479   6.619   3.783  1.00 20.00     0.388 C 
HETATM    9  F9  UNL     1     -34.302   5.292   3.944  1.00 20.00    -0.171 F 
HETATM   10  F10 UNL     1     -35.462   6.804   2.877  1.00 20.00    -0.171 F 
HETATM   11  F11 UNL     1     -34.915   7.116   4.964  1.00 20.00    -0.171 F 
ENDBRANCH   7   8
ENDBRANCH   1   7
TORSDOF 4
ENDMDL
MODEL 7
REMARK VINA RESULT:      -2.1      3.224      4.371
REMARK  4 active torsions:
REMARK  status: ('A' for Active; 'I' for Inactive)
REMARK    1  A    between atoms: C1_1  and  C6_6 
REMARK    2  A    between atoms: C4_4  and  C6_6 
REMARK    3  A    between atoms: C5_5  and  C6_6 
REMARK    4  A    between atoms: C5_5  and  C7_7 
ROOT
HETATM    1  C6  UNL     1     -33.291   6.559   2.068  1.00 20.00     0.063 C 
ENDROOT
BRANCH   1   2
HETATM    2  C1  UNL     1     -32.651   5.537   1.132  1.00 20.00     0.127 C 
HETATM    3  C2  UNL     1     -33.545   4.920   0.088  1.00 20.00     0.091 C 
HETATM    4  O8  UNL     1     -31.463   5.228   1.216  1.00 20.00    -0.298 OA
ENDBRANCH   1   2
BRANCH   1   5
HETATM    5  C4  UNL     1     -32.296   7.695   2.360  1.00 20.00     0.008 C 
HETATM    6  C3  UNL     1     -32.134   8.656   1.189  1.00 20.00     0.006 C 
ENDBRANCH   1   5
BRANCH   1   7
HETATM    7  C5  UNL     1     -33.727   5.882   3.380  1.00 20.00     0.129 C 
BRANCH   7   8
HETATM    8  C7  UNL     1     -34.994   6.468   3.973  1.00 20.00     0.388 C 
HETATM    9  F9  UNL     1     -35.885   6.811   3.021  1.00 20.00    -0.171 F 
HETATM   10  F10 UNL     1     -34.728   7.564   4.714  1.00 20.00    -0.171 F 
HETATM   11  F11 UNL     1     -35.593   5.564   4.782  1.00 20.00    -0.171 F 
ENDBRANCH   7   8
ENDBRANCH   1   7
TORSDOF 4
ENDMDL
MODEL 8
REMARK VINA RESULT:      -2.0      3.124      3.967
REMARK  4 active torsions:
REMARK  status: ('A' for Active; 'I' for Inactive)
REMARK    1  A    between atoms: C1_1  and  C6_6 
REMARK    2  A    between atoms: C4_4  and  C6_6 
REMARK    3  A    between atoms: C5_5  and  C6_6 
REMARK    4  A    between atoms: C5_5  and  C7_7 
ROOT
HETATM    1  C6  UNL     1     -32.788   6.846   2.299  1.00 20.00     0.063 C 
ENDROOT
BRANCH   1   2
HETATM    2  C1  UNL     1     -31.951   8.086   1.995  1.00 20.00     0.127 C 
HETATM    3  C2  UNL     1     -32.260   8.815   0.713  1.00 20.00     0.091 C 
HETATM    4  O8  UNL     1     -31.067   8.479   2.755  1.00 20.00    -0.298 OA
ENDBRANCH   1   2
BRANCH   1   5
HETATM    5  C4  UNL     1     -32.767   5.893   1.092  1.00 20.00     0.008 C 
HETATM    6  C3  UNL     1     -31.612   4.901   1.140  1.00 20.00     0.006 C 
ENDBRANCH   1   5
BRANCH   1   7
HETATM    7  C5  UNL     1     -34.235   7.247   2.637  1.00 20.00     0.129 C 
BRANCH   7   8
HETATM    8  C7  UNL     1     -34.802   6.515   3.838  1.00 20.00     0.388 C 
HETATM    9  F9  UNL     1     -34.203   5.323   4.033  1.00 20.00    -0.171 F 
HETATM   10  F10 UNL     1     -36.128   6.301   3.703  1.00 20.00    -0.171 F 
HETATM   11  F11 UNL     1     -34.620   7.247   4.961  1.00 20.00    -0.171 F 
ENDBRANCH   7   8
ENDBRANCH   1   7
TORSDOF 4
ENDMDL
MODEL 9
REMARK VINA RESULT:      -2.0      2.306      3.202
REMARK  4 active torsions:
REMARK  status: ('A' for Active; 'I' for Inactive)
REMARK    1  A    between atoms: C1_1  and  C6_6 
REMARK    2  A    between atoms: C4_4  and  C6_6 
REMARK    3  A    between atoms: C5_5  and  C6_6 
REMARK    4  A    between atoms: C5_5  and  C7_7 
ROOT
HETATM    1  C6  UNL     1     -32.779   7.267   2.869  1.00 20.00     0.063 C 
ENDROOT
BRANCH   1   2
HETATM    2  C1  UNL     1     -33.883   7.402   3.914  1.00 20.00     0.127 C 
HETATM    3  C2  UNL     1     -35.070   6.485   3.770  1.00 20.00     0.091 C 
HETATM    4  O8  UNL     1     -33.815   8.215   4.835  1.00 20.00    -0.298 OA
ENDBRANCH   1   2
BRANCH   1   5
HETATM    5  C4  UNL     1     -32.234   8.658   2.503  1.00 20.00     0.008 C 
HETATM    6  C3  UNL     1     -32.109   8.869   0.999  1.00 20.00     0.006 C 
ENDBRANCH   1   5
BRANCH   1   7
HETATM    7  C5  UNL     1     -33.316   6.557   1.613  1.00 20.00     0.129 C 
BRANCH   7   8
HETATM    8  C7  UNL     1     -32.686   5.200   1.368  1.00 20.00     0.388 C 
HETATM    9  F9  UNL     1     -33.153   4.621   0.243  1.00 20.00    -0.171 F 
HETATM   10  F10 UNL     1     -32.915   4.358   2.399  1.00 20.00    -0.171 F 
HETATM   11  F11 UNL     1     -31.345   5.323   1.234  1.00 20.00    -0.171 F 
ENDBRANCH   7   8
ENDBRANCH   1   7
TORSDOF 4
ENDMDL
