MODEL 1
REMARK VINA RESULT:      -0.2      0.000      0.000
REMARK  4 active torsions:
REMARK  status: ('A' for Active; 'I' for Inactive)
REMARK    1  A    between atoms: C1_1  and  C10_10 
REMARK    2  A    between atoms: C5_5  and  C9_9 
REMARK    3  A    between atoms: C9_9  and  C10_10 
REMARK    4  A    between atoms: C10_10  and  C11_11 
ROOT
HETATM    1  C10 UNL     1     -33.269   7.089   2.026  1.00 20.00     0.058 C 
ENDROOT
BRANCH   1   2
HETATM    2  C1  UNL     1     -32.656   5.821   1.421  1.00 20.00     0.127 C 
HETATM    3  C6  UNL     1     -33.511   5.052   0.445  1.00 20.00     0.091 C 
HETATM    4  O12 UNL     1     -31.515   5.447   1.690  1.00 20.00    -0.298 OA
ENDBRANCH   1   2
BRANCH   1   5
HETATM    5  C9  UNL     1     -32.384   8.319   1.754  1.00 20.00     0.017 C 
BRANCH   5   6
HETATM    6  C5  UNL     1     -33.086   9.299   0.828  1.00 20.00    -0.014 C 
HETATM    7  C3  UNL     1     -32.609   9.302  -0.646  1.00 20.00     0.005 C 
HETATM    8  C2  UNL     1     -31.679  10.478  -0.288  1.00 20.00     0.001 C 
HETATM    9  C4  UNL     1     -32.607  10.770   0.907  1.00 20.00     0.005 C 
ENDBRANCH   5   6
ENDBRANCH   1   5
BRANCH   1  10
HETATM   10  C11 UNL     1     -33.572   6.845   3.528  1.00 20.00    -0.012 C 
HETATM   11  C7  UNL     1     -34.998   6.356   3.794  1.00 20.00     0.010 C 
HETATM   12  C8  UNL     1     -33.290   8.098   4.363  1.00 20.00     0.010 C 
ENDBRANCH   1  10
TORSDOF 4
ENDMDL
MODEL 2
REMARK VINA RESULT:      -0.0      1.333      3.003
REMARK  4 active torsions:
REMARK  status: ('A' for Active; 'I' for Inactive)
REMARK    1  A    between atoms: C1_1  and  C10_10 
REMARK    2  A    between atoms: C5_5  and  C9_9 
REMARK    3  A    between atoms: C9_9  and  C10_10 
REMARK    4  A    between atoms: C10_10  and  C11_11 
ROOT
HETATM    1  C10 UNL     1     -32.907   6.523   2.306  1.00 20.00     0.058 C 
ENDROOT
BRANCH   1   2
HETATM    2  C1  UNL     1     -33.861   6.249   3.474  1.00 20.00     0.127 C 
HETATM    3  C6  UNL     1     -34.420   7.453   4.192  1.00 20.00     0.091 C 
HETATM    4  O12 UNL     1     -34.182   5.110   3.811  1.00 20.00    -0.298 OA
ENDBRANCH   1   2
BRANCH   1   5
HETATM    5  C9  UNL     1     -33.348   7.765   1.510  1.00 20.00     0.017 C 
BRANCH   5   6
HETATM    6  C5  UNL     1     -32.202   8.755   1.369  1.00 20.00    -0.014 C 
HETATM    7  C3  UNL     1     -32.604  10.222   1.075  1.00 20.00     0.005 C 
HETATM    8  C2  UNL     1     -32.386   9.926  -0.422  1.00 20.00     0.001 C 
HETATM    9  C4  UNL     1     -31.473   8.760   0.002  1.00 20.00     0.005 C 
ENDBRANCH   5   6
ENDBRANCH   1   5
BRANCH   1  10
HETATM   10  C11 UNL     1     -32.762   5.239   1.450  1.00 20.00    -0.012 C 
HETATM   11  C7  UNL     1     -31.327   4.963   0.995  1.00 20.00     0.010 C 
HETATM   12  C8  UNL     1     -33.693   5.273   0.233  1.00 20.00     0.010 C 
ENDBRANCH   1  10
TORSDOF 4
ENDMDL
MODEL 3
REMARK VINA RESULT:       0.0      1.691      2.779
REMARK  4 active torsions:
REMARK  status: ('A' for Active; 'I' for Inactive)
REMARK    1  A    between atoms: C1_1  and  C10_10 
REMARK    2  A    between atoms: C5_5  and  C9_9 
REMARK    3  A    between atoms: C9_9  and  C10_10 
REMARK    4  A    between atoms: C10_10  and  C11_11 
ROOT
HETATM    1  C10 UNL     1     -33.127   6.933   2.693  1.00 20.00     0.058 C 
ENDROOT
BRANCH   1   2
HETATM    2  C1  UNL     1     -34.061   7.216   3.876  1.00 20.00     0.127 C 
HETATM    3  C6  UNL     1     -35.381   6.486   3.888  1.00 20.00     0.091 C 
HETATM    4  O12 UNL     1     -33.756   7.982   4.790  1.00 20.00    -0.298 OA
ENDBRANCH   1   2
BRANCH   1   5
HETATM    5  C9  UNL     1     -33.385   7.915   1.536  1.00 20.00     0.017 C 
BRANCH   5   6
HETATM    6  C5  UNL     1     -32.237   8.902   1.395  1.00 20.00    -0.014 C 
HETATM    7  C3  UNL     1     -32.630  10.355   1.026  1.00 20.00     0.005 C 
HETATM    8  C2  UNL     1     -32.357   9.997  -0.448  1.00 20.00     0.001 C 
HETATM    9  C4  UNL     1     -31.458   8.853   0.057  1.00 20.00     0.005 C 
ENDBRANCH   5   6
ENDBRANCH   1   5
BRANCH   1  10
HETATM   10  C11 UNL     1     -33.243   5.439   2.295  1.00 20.00    -0.012 C 
HETATM   11  C7  UNL     1     -33.109   4.477   3.479  1.00 20.00     0.010 C 
HETATM   12  C8  UNL     1     -32.223   5.071   1.212  1.00 20.00     0.010 C 
ENDBRANCH   1  10
TORSDOF 4
ENDMDL
MODEL 4
REMARK VINA RESULT:       0.1      0.986      1.371
REMARK  4 active torsions:
REMARK  status: ('A' for Active; 'I' for Inactive)
REMARK    1  A    between atoms: C1_1  and  C10_10 
REMARK    2  A    between atoms: C5_5  and  C9_9 
REMARK    3  A    between atoms: C9_9  and  C10_10 
REMARK    4  A    between atoms: C10_10  and  C11_11 
ROOT
HETATM    1  C10 UNL     1     -33.264   7.122   2.125  1.00 20.00     0.058 C 
ENDROOT
BRANCH   1   2
HETATM    2  C1  UNL     1     -32.920   5.811   1.410  1.00 20.00     0.127 C 
HETATM    3  C6  UNL     1     -31.604   5.166   1.768  1.00 20.00     0.091 C 
HETATM    4  O12 UNL     1     -33.678   5.284   0.595  1.00 20.00    -0.298 OA
ENDBRANCH   1   2
BRANCH   1   5
HETATM    5  C9  UNL     1     -32.103   8.129   2.026  1.00 20.00     0.017 C 
BRANCH   5   6
HETATM    6  C5  UNL     1     -31.875   8.555   0.585  1.00 20.00    -0.014 C 
HETATM    7  C3  UNL     1     -31.228   9.948   0.382  1.00 20.00     0.005 C 
HETATM    8  C2  UNL     1     -32.647  10.524   0.212  1.00 20.00     0.001 C 
HETATM    9  C4  UNL     1     -33.114   9.105  -0.165  1.00 20.00     0.005 C 
ENDBRANCH   5   6
ENDBRANCH   1   5
BRANCH   1  10
HETATM   10  C11 UNL     1     -33.713   6.812   3.576  1.00 20.00    -0.012 C 
HETATM   11  C7  UNL     1     -35.153   6.302   3.677  1.00 20.00     0.010 C 
HETATM   12  C8  UNL     1     -33.532   8.030   4.488  1.00 20.00     0.010 C 
ENDBRANCH   1  10
TORSDOF 4
ENDMDL
MODEL 5
REMARK VINA RESULT:       0.5      1.078      1.679
REMARK  4 active torsions:
REMARK  status: ('A' for Active; 'I' for Inactive)
REMARK    1  A    between atoms: C1_1  and  C10_10 
REMARK    2  A    between atoms: C5_5  and  C9_9 
REMARK    3  A    between atoms: C9_9  and  C10_10 
REMARK    4  A    between atoms: C10_10  and  C11_11 
ROOT
HETATM    1  C10 UNL     1     -33.421   7.168   2.331  1.00 20.00     0.058 C 
ENDROOT
BRANCH   1   2
HETATM    2  C1  UNL     1     -33.102   5.669   2.343  1.00 20.00     0.127 C 
HETATM    3  C6  UNL     1     -32.326   5.131   1.166  1.00 20.00     0.091 C 
HETATM    4  O12 UNL     1     -33.436   4.929   3.268  1.00 20.00    -0.298 OA
ENDBRANCH   1   2
BRANCH   1   5
HETATM    5  C9  UNL     1     -32.147   8.005   2.121  1.00 20.00     0.017 C 
BRANCH   5   6
HETATM    6  C5  UNL     1     -31.965   8.357   0.653  1.00 20.00    -0.014 C 
HETATM    7  C3  UNL     1     -31.108   9.614   0.356  1.00 20.00     0.005 C 
HETATM    8  C2  UNL     1     -32.418  10.422   0.273  1.00 20.00     0.001 C 
HETATM    9  C4  UNL     1     -33.147   9.097  -0.021  1.00 20.00     0.005 C 
ENDBRANCH   5   6
ENDBRANCH   1   5
BRANCH   1  10
HETATM   10  C11 UNL     1     -34.216   7.532   3.612  1.00 20.00    -0.012 C 
HETATM   11  C7  UNL     1     -33.325   7.891   4.805  1.00 20.00     0.010 C 
HETATM   12  C8  UNL     1     -35.181   6.409   4.007  1.00 20.00     0.010 C 
ENDBRANCH   1  10
TORSDOF 4
ENDMDL
MODEL 6
REMARK VINA RESULT:       0.6      1.850      3.077
REMARK  4 active torsions:
REMARK  status: ('A' for Active; 'I' for Inactive)
REMARK    1  A    between atoms: C1_1  and  C10_10 
REMARK    2  A    between atoms: C5_5  and  C9_9 
REMARK    3  A    between atoms: C9_9  and  C10_10 
REMARK    4  A    between atoms: C10_10  and  C11_11 
ROOT
HETATM    1  C10 UNL     1     -33.332   6.456   3.279  1.00 20.00     0.058 C 
ENDROOT
BRANCH   1   2
HETATM    2  C1  UNL     1     -33.922   7.655   4.030  1.00 20.00     0.127 C 
HETATM    3  C6  UNL     1     -33.141   8.163   5.217  1.00 20.00     0.091 C 
HETATM    4  O12 UNL     1     -34.969   8.200   3.684  1.00 20.00    -0.298 OA
ENDBRANCH   1   2
BRANCH   1   5
HETATM    5  C9  UNL     1     -33.006   6.822   1.819  1.00 20.00     0.017 C 
BRANCH   5   6
HETATM    6  C5  UNL     1     -31.994   7.955   1.757  1.00 20.00    -0.014 C 
HETATM    7  C3  UNL     1     -32.578   9.380   1.583  1.00 20.00     0.005 C 
HETATM    8  C2  UNL     1     -32.343   9.234   0.067  1.00 20.00     0.001 C 
HETATM    9  C4  UNL     1     -31.287   8.160   0.394  1.00 20.00     0.005 C 
ENDBRANCH   5   6
ENDBRANCH   1   5
BRANCH   1  10
HETATM   10  C11 UNL     1     -34.281   5.238   3.431  1.00 20.00    -0.012 C 
HETATM   11  C7  UNL     1     -35.480   5.506   4.345  1.00 20.00     0.010 C 
HETATM   12  C8  UNL     1     -33.523   4.000   3.921  1.00 20.00     0.010 C 
ENDBRANCH   1  10
TORSDOF 4
ENDMDL
MODEL 7
REMARK VINA RESULT:       0.6      2.519      5.244
REMARK  4 active torsions:
REMARK  status: ('A' for Active; 'I' for Inactive)
REMARK    1  A    between atoms: C1_1  and  C10_10 
REMARK    2  A    between atoms: C5_5  and  C9_9 
REMARK    3  A    between atoms: C9_9  and  C10_10 
REMARK    4  A    between atoms: C10_10  and  C11_11 
ROOT
HETATM    1  C10 UNL     1     -33.350   5.829   3.237  1.00 20.00     0.058 C 
ENDROOT
BRANCH   1   2
HETATM    2  C1  UNL     1     -32.783   6.090   1.836  1.00 20.00     0.127 C 
HETATM    3  C6  UNL     1     -32.034   7.384   1.637  1.00 20.00     0.091 C 
HETATM    4  O12 UNL     1     -32.907   5.285   0.914  1.00 20.00    -0.298 OA
ENDBRANCH   1   2
BRANCH   1   5
HETATM    5  C9  UNL     1     -33.994   4.433   3.323  1.00 20.00     0.017 C 
BRANCH   5   6
HETATM    6  C5  UNL     1     -32.958   3.379   3.682  1.00 20.00    -0.014 C 
HETATM    7  C3  UNL     1     -33.454   2.216   4.578  1.00 20.00     0.005 C 
HETATM    8  C2  UNL     1     -32.919   2.996   5.795  1.00 20.00     0.001 C 
HETATM    9  C4  UNL     1     -31.983   3.746   4.828  1.00 20.00     0.005 C 
ENDBRANCH   5   6
ENDBRANCH   1   5
BRANCH   1  10
HETATM   10  C11 UNL     1     -34.299   6.990   3.631  1.00 20.00    -0.012 C 
HETATM   11  C7  UNL     1     -33.743   7.888   4.740  1.00 20.00     0.010 C 
HETATM   12  C8  UNL     1     -35.682   6.468   4.032  1.00 20.00     0.010 C 
ENDBRANCH   1  10
TORSDOF 4
ENDMDL
MODEL 8
REMARK VINA RESULT:       1.1      1.395      4.183
REMARK  4 active torsions:
REMARK  status: ('A' for Active; 'I' for Inactive)
REMARK    1  A    between atoms: C1_1  and  C10_10 
REMARK    2  A    between atoms: C5_5  and  C9_9 
REMARK    3  A    between atoms: C9_9  and  C10_10 
REMARK    4  A    between atoms: C10_10  and  C11_11 
ROOT
HETATM    1  C10 UNL     1     -32.776   7.599   1.449  1.00 20.00     0.058 C 
ENDROOT
BRANCH   1   2
HETATM    2  C1  UNL     1     -32.007   8.700   0.709  1.00 20.00     0.127 C 
HETATM    3  C6  UNL     1     -32.730  10.006   0.493  1.00 20.00     0.091 C 
HETATM    4  O12 UNL     1     -30.848   8.549   0.321  1.00 20.00    -0.298 OA
ENDBRANCH   1   2
BRANCH   1   5
HETATM    5  C9  UNL     1     -32.612   7.737   2.973  1.00 20.00     0.017 C 
BRANCH   5   6
HETATM    6  C5  UNL     1     -33.954   7.982   3.644  1.00 20.00    -0.014 C 
HETATM    7  C3  UNL     1     -34.222   7.179   4.942  1.00 20.00     0.005 C 
HETATM    8  C2  UNL     1     -34.967   6.140   4.082  1.00 20.00     0.001 C 
HETATM    9  C4  UNL     1     -35.168   7.244   3.026  1.00 20.00     0.005 C 
ENDBRANCH   5   6
ENDBRANCH   1   5
BRANCH   1  10
HETATM   10  C11 UNL     1     -32.357   6.216   0.888  1.00 20.00    -0.012 C 
HETATM   11  C7  UNL     1     -33.527   5.399   0.332  1.00 20.00     0.010 C 
HETATM   12  C8  UNL     1     -31.605   5.393   1.939  1.00 20.00     0.010 C 
ENDBRANCH   1  10
TORSDOF 4
ENDMDL
MODEL 9
REMARK VINA RESULT:       1.2      1.020      4.107
REMARK  4 active torsions:
REMARK  status: ('A' for Active; 'I' for Inactive)
REMARK    1  A    between atoms: C1_1  and  C10_10 
REMARK    2  A    between atoms: C5_5  and  C9_9 
REMARK    3  A    between atoms: C9_9  and  C10_10 
REMARK    4  A    between atoms: C10_10  and  C11_11 
ROOT
HETATM    1  C10 UNL     1     -32.172   7.775   1.557  1.00 20.00     0.058 C 
ENDROOT
BRANCH   1   2
HETATM    2  C1  UNL     1     -32.220   6.298   1.149  1.00 20.00     0.127 C 
HETATM    3  C6  UNL     1     -33.406   5.859   0.326  1.00 20.00     0.091 C 
HETATM    4  O12 UNL     1     -31.334   5.500   1.452  1.00 20.00    -0.298 OA
ENDBRANCH   1   2
BRANCH   1   5
HETATM    5  C9  UNL     1     -33.338   8.128   2.500  1.00 20.00     0.017 C 
BRANCH   5   6
HETATM    6  C5  UNL     1     -33.364   7.197   3.702  1.00 20.00    -0.014 C 
HETATM    7  C3  UNL     1     -34.104   5.851   3.503  1.00 20.00     0.005 C 
HETATM    8  C2  UNL     1     -35.354   6.506   4.123  1.00 20.00     0.001 C 
HETATM    9  C4  UNL     1     -34.413   7.526   4.793  1.00 20.00     0.005 C 
ENDBRANCH   5   6
ENDBRANCH   1   5
BRANCH   1  10
HETATM   10  C11 UNL     1     -32.097   8.657   0.284  1.00 20.00    -0.012 C 
HETATM   11  C7  UNL     1     -30.694   8.738  -0.324  1.00 20.00     0.010 C 
HETATM   12  C8  UNL     1     -32.628  10.069   0.552  1.00 20.00     0.010 C 
ENDBRANCH   1  10
TORSDOF 4
ENDMDL
