MODEL 1
REMARK VINA RESULT:       2.6      0.000      0.000
REMARK  1 active torsions:
REMARK  status: ('A' for Active; 'I' for Inactive)
REMARK    1  A    between atoms: C7_7  and  N12_12 
ROOT
HETATM    1  C1  UNL     1     -32.567   7.945   2.014  1.00 20.00     0.134 C 
HETATM    2  C2  UNL     1     -31.849   6.682   1.605  1.00 20.00     0.106 C 
HETATM    3  C4  UNL     1     -32.827   5.538   1.426  1.00 20.00     0.243 C 
HETATM    4  C5  UNL     1     -33.554   7.848   3.168  1.00 20.00     0.082 C 
HETATM    5  C8  UNL     1     -34.442   6.597   3.027  1.00 20.00     0.195 C 
HETATM    6  C9  UNL     1     -32.809   8.027   4.486  1.00 20.00     0.020 C 
HETATM    7  C11 UNL     1     -35.379   6.339   4.204  1.00 20.00     0.041 C 
HETATM    8  N12 UNL     1     -33.661   5.347   2.670  1.00 20.00    -0.061 N 
HETATM    9  O13 UNL     1     -32.289   9.030   1.502  1.00 20.00    -0.297 OA
HETATM   10  H33 UNL     1     -34.387   4.638   2.392  1.00 20.00     0.280 HD
ENDROOT
BRANCH   8  11
HETATM   11  C7  UNL     1     -32.890   4.663   3.775  1.00 20.00     0.193 A 
HETATM   12  C3  UNL     1     -32.043   3.476   3.404  1.00 20.00     0.040 A 
HETATM   13  C6  UNL     1     -33.323   3.278   4.172  1.00 20.00     0.014 A 
HETATM   14  C10 UNL     1     -33.279   2.862   5.602  1.00 20.00     0.012 C 
ENDBRANCH   8  11
TORSDOF 1
ENDMDL
MODEL 2
REMARK VINA RESULT:       2.7      2.406      4.788
REMARK  1 active torsions:
REMARK  status: ('A' for Active; 'I' for Inactive)
REMARK    1  A    between atoms: C7_7  and  N12_12 
ROOT
HETATM    1  C1  UNL     1     -33.612   5.585   3.058  1.00 20.00     0.134 C 
HETATM    2  C2  UNL     1     -33.336   5.558   1.575  1.00 20.00     0.106 C 
HETATM    3  C4  UNL     1     -32.004   6.210   1.261  1.00 20.00     0.243 C 
HETATM    4  C5  UNL     1     -33.440   6.914   3.779  1.00 20.00     0.082 C 
HETATM    5  C8  UNL     1     -32.143   7.616   3.333  1.00 20.00     0.195 C 
HETATM    6  C9  UNL     1     -34.734   7.715   3.679  1.00 20.00     0.020 C 
HETATM    7  C11 UNL     1     -31.944   9.018   3.903  1.00 20.00     0.041 C 
HETATM    8  N12 UNL     1     -31.945   7.608   1.830  1.00 20.00    -0.061 N 
HETATM    9  O13 UNL     1     -34.059   4.597   3.642  1.00 20.00    -0.297 OA
HETATM   10  H33 UNL     1     -30.948   7.907   1.681  1.00 20.00     0.280 HD
ENDROOT
BRANCH   8  11
HETATM   11  C7  UNL     1     -32.748   8.591   1.011  1.00 20.00     0.193 A 
HETATM   12  C3  UNL     1     -32.396   8.740  -0.444  1.00 20.00     0.040 A 
HETATM   13  C6  UNL     1     -32.046   9.833   0.531  1.00 20.00     0.014 A 
HETATM   14  C10 UNL     1     -32.772  11.133   0.488  1.00 20.00     0.012 C 
ENDBRANCH   8  11
TORSDOF 1
ENDMDL
