MODEL 1
REMARK VINA RESULT:      -2.8      0.000      0.000
REMARK  3 active torsions:
REMARK  status: ('A' for Active; 'I' for Inactive)
REMARK    1  A    between atoms: C7_7  and  C9_9 
REMARK    2  A    between atoms: C8_8  and  C10_10 
REMARK    3  A    between atoms: C9_9  and  C10_10 
ROOT
HETATM    1  C1  UNL     1     -33.347   5.956   2.434  1.00 20.00     0.131 C 
HETATM    2  C2  UNL     1     -34.282   5.272   3.398  1.00 20.00     0.079 C 
HETATM    3  C3  UNL     1     -35.008   6.453   4.027  1.00 20.00     0.008 C 
HETATM    4  C4  UNL     1     -33.981   7.579   4.016  1.00 20.00     0.013 C 
HETATM    5  C7  UNL     1     -33.307   7.455   2.648  1.00 20.00     0.055 C 
HETATM    6  O11 UNL     1     -32.698   5.361   1.582  1.00 20.00    -0.298 OA
ENDROOT
BRANCH   5   7
HETATM    7  C9  UNL     1     -31.902   8.020   2.628  1.00 20.00     0.012 C 
BRANCH   7   8
HETATM    8  C10 UNL     1     -31.547   8.603   1.260  1.00 20.00     0.005 C 
BRANCH   8   9
HETATM    9  C8  UNL     1     -32.712   9.376   0.661  1.00 20.00    -0.014 A 
HETATM   10  C5  UNL     1     -32.581  10.849   0.385  1.00 20.00     0.005 A 
HETATM   11  C6  UNL     1     -32.642   9.872  -0.756  1.00 20.00     0.005 A 
ENDBRANCH   8   9
ENDBRANCH   7   8
ENDBRANCH   5   7
TORSDOF 3
ENDMDL
MODEL 2
REMARK VINA RESULT:      -1.8      1.507      2.022
REMARK  3 active torsions:
REMARK  status: ('A' for Active; 'I' for Inactive)
REMARK    1  A    between atoms: C7_7  and  C9_9 
REMARK    2  A    between atoms: C8_8  and  C10_10 
REMARK    3  A    between atoms: C9_9  and  C10_10 
ROOT
HETATM    1  C1  UNL     1     -34.021   7.405   4.152  1.00 20.00     0.131 C 
HETATM    2  C2  UNL     1     -35.036   6.305   3.977  1.00 20.00     0.079 C 
HETATM    3  C3  UNL     1     -34.247   5.267   3.190  1.00 20.00     0.008 C 
HETATM    4  C4  UNL     1     -33.276   6.087   2.350  1.00 20.00     0.013 C 
HETATM    5  C7  UNL     1     -32.786   7.177   3.304  1.00 20.00     0.055 C 
HETATM    6  O11 UNL     1     -34.183   8.366   4.893  1.00 20.00    -0.298 OA
ENDROOT
BRANCH   5   7
HETATM    7  C9  UNL     1     -32.321   8.427   2.585  1.00 20.00     0.012 C 
BRANCH   7   8
HETATM    8  C10 UNL     1     -31.987   8.144   1.120  1.00 20.00     0.005 C 
BRANCH   8   9
HETATM    9  C8  UNL     1     -31.797   9.429   0.330  1.00 20.00    -0.014 A 
HETATM   10  C5  UNL     1     -32.820   9.851  -0.689  1.00 20.00     0.005 A 
HETATM   11  C6  UNL     1     -32.678  10.618   0.596  1.00 20.00     0.005 A 
ENDBRANCH   8   9
ENDBRANCH   7   8
ENDBRANCH   5   7
TORSDOF 3
ENDMDL
MODEL 3
REMARK VINA RESULT:      -1.7      1.692      5.166
REMARK  3 active torsions:
REMARK  status: ('A' for Active; 'I' for Inactive)
REMARK    1  A    between atoms: C7_7  and  C9_9 
REMARK    2  A    between atoms: C8_8  and  C10_10 
REMARK    3  A    between atoms: C9_9  and  C10_10 
ROOT
HETATM    1  C1  UNL     1     -32.915   6.392   1.951  1.00 20.00     0.131 C 
HETATM    2  C2  UNL     1     -32.263   7.692   1.554  1.00 20.00     0.079 C 
HETATM    3  C3  UNL     1     -32.124   8.400   2.896  1.00 20.00     0.008 C 
HETATM    4  C4  UNL     1     -33.314   7.906   3.709  1.00 20.00     0.013 C 
HETATM    5  C7  UNL     1     -33.389   6.411   3.390  1.00 20.00     0.055 C 
HETATM    6  O11 UNL     1     -33.043   5.439   1.193  1.00 20.00    -0.298 OA
ENDROOT
BRANCH   5   7
HETATM    7  C9  UNL     1     -34.781   5.839   3.563  1.00 20.00     0.012 C 
BRANCH   7   8
HETATM    8  C10 UNL     1     -34.766   4.564   4.407  1.00 20.00     0.005 C 
BRANCH   8   9
HETATM    9  C8  UNL     1     -33.464   3.796   4.239  1.00 20.00    -0.014 A 
HETATM   10  C5  UNL     1     -32.762   3.223   5.440  1.00 20.00     0.005 A 
HETATM   11  C6  UNL     1     -33.431   2.308   4.452  1.00 20.00     0.005 A 
ENDBRANCH   8   9
ENDBRANCH   7   8
ENDBRANCH   5   7
TORSDOF 3
ENDMDL
MODEL 4
REMARK VINA RESULT:      -1.5      2.213      5.492
REMARK  3 active torsions:
REMARK  status: ('A' for Active; 'I' for Inactive)
REMARK    1  A    between atoms: C7_7  and  C9_9 
REMARK    2  A    between atoms: C8_8  and  C10_10 
REMARK    3  A    between atoms: C9_9  and  C10_10 
ROOT
HETATM    1  C1  UNL     1     -33.173   7.870   3.856  1.00 20.00     0.131 C 
HETATM    2  C2  UNL     1     -31.917   8.266   3.122  1.00 20.00     0.079 C 
HETATM    3  C3  UNL     1     -32.195   7.749   1.716  1.00 20.00     0.008 C 
HETATM    4  C4  UNL     1     -33.068   6.519   1.930  1.00 20.00     0.013 C 
HETATM    5  C7  UNL     1     -34.042   6.941   3.033  1.00 20.00     0.055 C 
HETATM    6  O11 UNL     1     -33.449   8.256   4.984  1.00 20.00    -0.298 OA
ENDROOT
BRANCH   5   7
HETATM    7  C9  UNL     1     -34.577   5.768   3.829  1.00 20.00     0.012 C 
BRANCH   7   8
HETATM    8  C10 UNL     1     -33.845   4.471   3.485  1.00 20.00     0.005 C 
BRANCH   8   9
HETATM    9  C8  UNL     1     -33.847   3.499   4.655  1.00 20.00    -0.014 A 
HETATM   10  C5  UNL     1     -33.254   2.126   4.499  1.00 20.00     0.005 A 
HETATM   11  C6  UNL     1     -32.561   3.152   5.352  1.00 20.00     0.005 A 
ENDBRANCH   8   9
ENDBRANCH   7   8
ENDBRANCH   5   7
TORSDOF 3
ENDMDL
MODEL 5
REMARK VINA RESULT:      -1.3      1.423      1.937
REMARK  3 active torsions:
REMARK  status: ('A' for Active; 'I' for Inactive)
REMARK    1  A    between atoms: C7_7  and  C9_9 
REMARK    2  A    between atoms: C8_8  and  C10_10 
REMARK    3  A    between atoms: C9_9  and  C10_10 
ROOT
HETATM    1  C1  UNL     1     -34.329   6.772   3.675  1.00 20.00     0.131 C 
HETATM    2  C2  UNL     1     -35.216   5.738   4.320  1.00 20.00     0.079 C 
HETATM    3  C3  UNL     1     -34.362   4.481   4.220  1.00 20.00     0.008 C 
HETATM    4  C4  UNL     1     -33.551   4.674   2.944  1.00 20.00     0.013 C 
HETATM    5  C7  UNL     1     -33.134   6.145   2.988  1.00 20.00     0.055 C 
HETATM    6  O11 UNL     1     -34.557   7.975   3.707  1.00 20.00    -0.298 OA
ENDROOT
BRANCH   5   7
HETATM    7  C9  UNL     1     -32.868   6.725   1.613  1.00 20.00     0.012 C 
BRANCH   7   8
HETATM    8  C10 UNL     1     -32.084   8.035   1.695  1.00 20.00     0.005 C 
BRANCH   8   9
HETATM    9  C8  UNL     1     -32.807   9.166   0.980  1.00 20.00    -0.014 A 
HETATM   10  C5  UNL     1     -32.055  10.397   0.556  1.00 20.00     0.005 A 
HETATM   11  C6  UNL     1     -32.551   9.425  -0.479  1.00 20.00     0.005 A 
ENDBRANCH   8   9
ENDBRANCH   7   8
ENDBRANCH   5   7
TORSDOF 3
ENDMDL
MODEL 6
REMARK VINA RESULT:      -0.3      1.521      4.470
REMARK  3 active torsions:
REMARK  status: ('A' for Active; 'I' for Inactive)
REMARK    1  A    between atoms: C7_7  and  C9_9 
REMARK    2  A    between atoms: C8_8  and  C10_10 
REMARK    3  A    between atoms: C9_9  and  C10_10 
ROOT
HETATM    1  C1  UNL     1     -31.481   8.948   0.048  1.00 20.00     0.131 C 
HETATM    2  C2  UNL     1     -32.316  10.101  -0.446  1.00 20.00     0.079 C 
HETATM    3  C3  UNL     1     -32.924  10.629   0.847  1.00 20.00     0.008 C 
HETATM    4  C4  UNL     1     -33.065   9.395   1.731  1.00 20.00     0.013 C 
HETATM    5  C7  UNL     1     -31.766   8.621   1.500  1.00 20.00     0.055 C 
HETATM    6  O11 UNL     1     -30.671   8.350  -0.650  1.00 20.00    -0.298 OA
ENDROOT
BRANCH   5   7
HETATM    7  C9  UNL     1     -31.910   7.135   1.756  1.00 20.00     0.012 C 
BRANCH   7   8
HETATM    8  C10 UNL     1     -33.375   6.728   1.909  1.00 20.00     0.005 C 
BRANCH   8   9
HETATM    9  C8  UNL     1     -33.713   6.381   3.351  1.00 20.00    -0.014 A 
HETATM   10  C5  UNL     1     -34.267   7.432   4.273  1.00 20.00     0.005 A 
HETATM   11  C6  UNL     1     -35.147   6.310   3.796  1.00 20.00     0.005 A 
ENDBRANCH   8   9
ENDBRANCH   7   8
ENDBRANCH   5   7
TORSDOF 3
ENDMDL
