MODEL 1
REMARK VINA RESULT:      -1.6      0.000      0.000
REMARK  5 active torsions:
REMARK  status: ('A' for Active; 'I' for Inactive)
REMARK    1  A    between atoms: C1_1  and  C10_10 
REMARK    2  A    between atoms: C4_4  and  C8_8 
REMARK    3  A    between atoms: C8_8  and  C9_9 
REMARK    4  A    between atoms: C9_9  and  C10_10 
REMARK    5  A    between atoms: C10_10  and  C11_11 
ROOT
HETATM    1  C10 UNL     1     -33.237   7.183   2.301  1.00 20.00     0.058 C 
ENDROOT
BRANCH   1   2
HETATM    2  C1  UNL     1     -33.961   7.167   3.650  1.00 20.00     0.127 C 
HETATM    3  C5  UNL     1     -35.106   6.195   3.795  1.00 20.00     0.091 C 
HETATM    4  O12 UNL     1     -33.650   7.916   4.575  1.00 20.00    -0.298 OA
ENDBRANCH   1   2
BRANCH   1   5
HETATM    5  C9  UNL     1     -31.857   7.858   2.420  1.00 20.00     0.013 C 
BRANCH   5   6
HETATM    6  C8  UNL     1     -31.499   8.676   1.174  1.00 20.00     0.005 C 
BRANCH   6   7
HETATM    7  C4  UNL     1     -32.689   9.408   0.632  1.00 20.00    -0.014 A 
HETATM    8  C2  UNL     1     -32.619  10.890   0.384  1.00 20.00     0.005 A 
HETATM    9  C3  UNL     1     -32.677   9.935  -0.776  1.00 20.00     0.005 A 
ENDBRANCH   6   7
ENDBRANCH   5   6
ENDBRANCH   1   5
BRANCH   1  10
HETATM   10  C11 UNL     1     -33.192   5.742   1.726  1.00 20.00    -0.012 C 
HETATM   11  C6  UNL     1     -33.853   5.606   0.352  1.00 20.00     0.010 C 
HETATM   12  C7  UNL     1     -31.756   5.211   1.664  1.00 20.00     0.010 C 
ENDBRANCH   1  10
TORSDOF 5
ENDMDL
MODEL 2
REMARK VINA RESULT:      -1.3      1.548      2.822
REMARK  5 active torsions:
REMARK  status: ('A' for Active; 'I' for Inactive)
REMARK    1  A    between atoms: C1_1  and  C10_10 
REMARK    2  A    between atoms: C4_4  and  C8_8 
REMARK    3  A    between atoms: C8_8  and  C9_9 
REMARK    4  A    between atoms: C9_9  and  C10_10 
REMARK    5  A    between atoms: C10_10  and  C11_11 
ROOT
HETATM    1  C10 UNL     1     -32.829   6.584   2.586  1.00 20.00     0.058 C 
ENDROOT
BRANCH   1   2
HETATM    2  C1  UNL     1     -32.824   5.714   1.324  1.00 20.00     0.127 C 
HETATM    3  C5  UNL     1     -31.629   4.818   1.122  1.00 20.00     0.091 C 
HETATM    4  O12 UNL     1     -33.734   5.748   0.497  1.00 20.00    -0.298 OA
ENDBRANCH   1   2
BRANCH   1   5
HETATM    5  C9  UNL     1     -32.422   8.034   2.260  1.00 20.00     0.013 C 
BRANCH   5   6
HETATM    6  C8  UNL     1     -31.690   8.147   0.917  1.00 20.00     0.005 C 
BRANCH   6   7
HETATM    7  C4  UNL     1     -31.743   9.542   0.373  1.00 20.00    -0.014 A 
HETATM    8  C2  UNL     1     -32.827   9.938  -0.591  1.00 20.00     0.005 A 
HETATM    9  C3  UNL     1     -32.831  10.483   0.811  1.00 20.00     0.005 A 
ENDBRANCH   6   7
ENDBRANCH   5   6
ENDBRANCH   1   5
BRANCH   1  10
HETATM   10  C11 UNL     1     -34.203   6.453   3.293  1.00 20.00    -0.012 C 
HETATM   11  C6  UNL     1     -34.431   5.089   3.949  1.00 20.00     0.010 C 
HETATM   12  C7  UNL     1     -34.405   7.565   4.329  1.00 20.00     0.010 C 
ENDBRANCH   1  10
TORSDOF 5
ENDMDL
MODEL 3
REMARK VINA RESULT:      -1.1      1.659      2.869
REMARK  5 active torsions:
REMARK  status: ('A' for Active; 'I' for Inactive)
REMARK    1  A    between atoms: C1_1  and  C10_10 
REMARK    2  A    between atoms: C4_4  and  C8_8 
REMARK    3  A    between atoms: C8_8  and  C9_9 
REMARK    4  A    between atoms: C9_9  and  C10_10 
REMARK    5  A    between atoms: C10_10  and  C11_11 
ROOT
HETATM    1  C10 UNL     1     -33.121   6.109   2.722  1.00 20.00     0.058 C 
ENDROOT
BRANCH   1   2
HETATM    2  C1  UNL     1     -32.924   5.613   1.286  1.00 20.00     0.127 C 
HETATM    3  C5  UNL     1     -31.588   4.995   0.958  1.00 20.00     0.091 C 
HETATM    4  O12 UNL     1     -33.796   5.721   0.425  1.00 20.00    -0.298 OA
ENDBRANCH   1   2
BRANCH   1   5
HETATM    5  C9  UNL     1     -33.176   7.648   2.774  1.00 20.00     0.013 C 
BRANCH   5   6
HETATM    6  C8  UNL     1     -32.145   8.299   1.843  1.00 20.00     0.005 C 
BRANCH   6   7
HETATM    7  C4  UNL     1     -32.804   9.109   0.768  1.00 20.00    -0.014 A 
HETATM    8  C2  UNL     1     -32.416  10.547   0.557  1.00 20.00     0.005 A 
HETATM    9  C3  UNL     1     -32.032   9.508  -0.459  1.00 20.00     0.005 A 
ENDBRANCH   6   7
ENDBRANCH   5   6
ENDBRANCH   1   5
BRANCH   1  10
HETATM   10  C11 UNL     1     -34.358   5.408   3.342  1.00 20.00    -0.012 C 
HETATM   11  C6  UNL     1     -34.009   4.200   4.214  1.00 20.00     0.010 C 
HETATM   12  C7  UNL     1     -35.215   6.394   4.143  1.00 20.00     0.010 C 
ENDBRANCH   1  10
TORSDOF 5
ENDMDL
MODEL 4
REMARK VINA RESULT:      -0.7      2.260      5.017
REMARK  5 active torsions:
REMARK  status: ('A' for Active; 'I' for Inactive)
REMARK    1  A    between atoms: C1_1  and  C10_10 
REMARK    2  A    between atoms: C4_4  and  C8_8 
REMARK    3  A    between atoms: C8_8  and  C9_9 
REMARK    4  A    between atoms: C9_9  and  C10_10 
REMARK    5  A    between atoms: C10_10  and  C11_11 
ROOT
HETATM    1  C10 UNL     1     -33.580   6.507   3.351  1.00 20.00     0.058 C 
ENDROOT
BRANCH   1   2
HETATM    2  C1  UNL     1     -33.875   7.855   4.016  1.00 20.00     0.127 C 
HETATM    3  C5  UNL     1     -33.038   8.218   5.217  1.00 20.00     0.091 C 
HETATM    4  O12 UNL     1     -34.761   8.609   3.615  1.00 20.00    -0.298 OA
ENDBRANCH   1   2
BRANCH   1   5
HETATM    5  C9  UNL     1     -34.803   5.573   3.424  1.00 20.00     0.013 C 
BRANCH   5   6
HETATM    6  C8  UNL     1     -34.637   4.479   4.485  1.00 20.00     0.005 C 
BRANCH   6   7
HETATM    7  C4  UNL     1     -33.384   3.686   4.272  1.00 20.00    -0.014 A 
HETATM    8  C2  UNL     1     -32.647   3.102   5.446  1.00 20.00     0.005 A 
HETATM    9  C3  UNL     1     -33.382   2.199   4.495  1.00 20.00     0.005 A 
ENDBRANCH   6   7
ENDBRANCH   5   6
ENDBRANCH   1   5
BRANCH   1  10
HETATM   10  C11 UNL     1     -33.050   6.751   1.912  1.00 20.00    -0.012 C 
HETATM   11  C6  UNL     1     -31.976   7.838   1.827  1.00 20.00     0.010 C 
HETATM   12  C7  UNL     1     -32.526   5.455   1.285  1.00 20.00     0.010 C 
ENDBRANCH   1  10
TORSDOF 5
ENDMDL
MODEL 5
REMARK VINA RESULT:      -0.7      1.792      3.231
REMARK  5 active torsions:
REMARK  status: ('A' for Active; 'I' for Inactive)
REMARK    1  A    between atoms: C1_1  and  C10_10 
REMARK    2  A    between atoms: C4_4  and  C8_8 
REMARK    3  A    between atoms: C8_8  and  C9_9 
REMARK    4  A    between atoms: C9_9  and  C10_10 
REMARK    5  A    between atoms: C10_10  and  C11_11 
ROOT
HETATM    1  C10 UNL     1     -33.618   5.923   3.663  1.00 20.00     0.058 C 
ENDROOT
BRANCH   1   2
HETATM    2  C1  UNL     1     -34.296   4.650   4.179  1.00 20.00     0.127 C 
HETATM    3  C5  UNL     1     -33.475   3.385   4.153  1.00 20.00     0.091 C 
HETATM    4  O12 UNL     1     -35.458   4.638   4.581  1.00 20.00    -0.298 OA
ENDBRANCH   1   2
BRANCH   1   5
HETATM    5  C9  UNL     1     -33.604   5.959   2.123  1.00 20.00     0.013 C 
BRANCH   5   6
HETATM    6  C8  UNL     1     -32.207   6.246   1.559  1.00 20.00     0.005 C 
BRANCH   6   7
HETATM    7  C4  UNL     1     -31.821   7.682   1.743  1.00 20.00    -0.014 A 
HETATM    8  C2  UNL     1     -31.285   8.477   0.584  1.00 20.00     0.005 A 
HETATM    9  C3  UNL     1     -32.654   8.773   1.130  1.00 20.00     0.005 A 
ENDBRANCH   6   7
ENDBRANCH   5   6
ENDBRANCH   1   5
BRANCH   1  10
HETATM   10  C11 UNL     1     -34.283   7.160   4.322  1.00 20.00    -0.012 C 
HETATM   11  C6  UNL     1     -33.281   8.178   4.874  1.00 20.00     0.010 C 
HETATM   12  C7  UNL     1     -35.246   7.856   3.354  1.00 20.00     0.010 C 
ENDBRANCH   1  10
TORSDOF 5
ENDMDL
MODEL 6
REMARK VINA RESULT:      -0.6      1.345      2.666
REMARK  5 active torsions:
REMARK  status: ('A' for Active; 'I' for Inactive)
REMARK    1  A    between atoms: C1_1  and  C10_10 
REMARK    2  A    between atoms: C4_4  and  C8_8 
REMARK    3  A    between atoms: C8_8  and  C9_9 
REMARK    4  A    between atoms: C9_9  and  C10_10 
REMARK    5  A    between atoms: C10_10  and  C11_11 
ROOT
HETATM    1  C10 UNL     1     -32.798   6.735   3.049  1.00 20.00     0.058 C 
ENDROOT
BRANCH   1   2
HETATM    2  C1  UNL     1     -33.203   5.372   2.479  1.00 20.00     0.127 C 
HETATM    3  C5  UNL     1     -33.158   5.222   0.979  1.00 20.00     0.091 C 
HETATM    4  O12 UNL     1     -33.569   4.440   3.194  1.00 20.00    -0.298 OA
ENDBRANCH   1   2
BRANCH   1   5
HETATM    5  C9  UNL     1     -32.047   7.574   1.997  1.00 20.00     0.013 C 
BRANCH   5   6
HETATM    6  C8  UNL     1     -32.846   8.806   1.556  1.00 20.00     0.005 C 
BRANCH   6   7
HETATM    7  C4  UNL     1     -32.115   9.595   0.513  1.00 20.00    -0.014 A 
HETATM    8  C2  UNL     1     -32.801   9.970  -0.772  1.00 20.00     0.005 A 
HETATM    9  C3  UNL     1     -32.488  11.028   0.249  1.00 20.00     0.005 A 
ENDBRANCH   6   7
ENDBRANCH   5   6
ENDBRANCH   1   5
BRANCH   1  10
HETATM   10  C11 UNL     1     -34.049   7.433   3.644  1.00 20.00    -0.012 C 
HETATM   11  C6  UNL     1     -35.250   6.501   3.821  1.00 20.00     0.010 C 
HETATM   12  C7  UNL     1     -33.724   8.117   4.977  1.00 20.00     0.010 C 
ENDBRANCH   1  10
TORSDOF 5
ENDMDL
MODEL 7
REMARK VINA RESULT:      -0.0      2.366      5.113
REMARK  5 active torsions:
REMARK  status: ('A' for Active; 'I' for Inactive)
REMARK    1  A    between atoms: C1_1  and  C10_10 
REMARK    2  A    between atoms: C4_4  and  C8_8 
REMARK    3  A    between atoms: C8_8  and  C9_9 
REMARK    4  A    between atoms: C9_9  and  C10_10 
REMARK    5  A    between atoms: C10_10  and  C11_11 
ROOT
HETATM    1  C10 UNL     1     -33.315   6.172   3.177  1.00 20.00     0.058 C 
ENDROOT
BRANCH   1   2
HETATM    2  C1  UNL     1     -34.326   7.141   3.800  1.00 20.00     0.127 C 
HETATM    3  C5  UNL     1     -33.792   8.116   4.819  1.00 20.00     0.091 C 
HETATM    4  O12 UNL     1     -35.521   7.125   3.508  1.00 20.00    -0.298 OA
ENDBRANCH   1   2
BRANCH   1   5
HETATM    5  C9  UNL     1     -33.863   4.732   3.165  1.00 20.00     0.013 C 
BRANCH   5   6
HETATM    6  C8  UNL     1     -34.429   4.312   4.527  1.00 20.00     0.005 C 
BRANCH   6   7
HETATM    7  C4  UNL     1     -33.541   3.319   5.212  1.00 20.00    -0.014 A 
HETATM    8  C2  UNL     1     -33.267   1.984   4.577  1.00 20.00     0.005 A 
HETATM    9  C3  UNL     1     -32.177   3.016   4.659  1.00 20.00     0.005 A 
ENDBRANCH   6   7
ENDBRANCH   5   6
ENDBRANCH   1   5
BRANCH   1  10
HETATM   10  C11 UNL     1     -32.889   6.703   1.783  1.00 20.00    -0.012 C 
HETATM   11  C6  UNL     1     -31.956   7.914   1.843  1.00 20.00     0.010 C 
HETATM   12  C7  UNL     1     -32.248   5.596   0.938  1.00 20.00     0.010 C 
ENDBRANCH   1  10
TORSDOF 5
ENDMDL
MODEL 8
REMARK VINA RESULT:       0.1      1.608      4.604
REMARK  5 active torsions:
REMARK  status: ('A' for Active; 'I' for Inactive)
REMARK    1  A    between atoms: C1_1  and  C10_10 
REMARK    2  A    between atoms: C4_4  and  C8_8 
REMARK    3  A    between atoms: C8_8  and  C9_9 
REMARK    4  A    between atoms: C9_9  and  C10_10 
REMARK    5  A    between atoms: C10_10  and  C11_11 
ROOT
HETATM    1  C10 UNL     1     -32.921   7.241   1.862  1.00 20.00     0.058 C 
ENDROOT
BRANCH   1   2
HETATM    2  C1  UNL     1     -32.596   5.863   1.276  1.00 20.00     0.127 C 
HETATM    3  C5  UNL     1     -33.648   5.234   0.398  1.00 20.00     0.091 C 
HETATM    4  O12 UNL     1     -31.541   5.277   1.515  1.00 20.00    -0.298 OA
ENDBRANCH   1   2
BRANCH   1   5
HETATM    5  C9  UNL     1     -33.061   7.173   3.395  1.00 20.00     0.013 C 
BRANCH   5   6
HETATM    6  C8  UNL     1     -34.525   7.205   3.849  1.00 20.00     0.005 C 
BRANCH   6   7
HETATM    7  C4  UNL     1     -35.172   5.859   3.727  1.00 20.00    -0.014 A 
HETATM    8  C2  UNL     1     -34.400   4.614   4.066  1.00 20.00     0.005 A 
HETATM    9  C3  UNL     1     -35.519   5.072   4.960  1.00 20.00     0.005 A 
ENDBRANCH   6   7
ENDBRANCH   5   6
ENDBRANCH   1   5
BRANCH   1  10
HETATM   10  C11 UNL     1     -31.872   8.270   1.365  1.00 20.00    -0.012 C 
HETATM   11  C6  UNL     1     -32.477   9.438   0.583  1.00 20.00     0.010 C 
HETATM   12  C7  UNL     1     -31.025   8.807   2.524  1.00 20.00     0.010 C 
ENDBRANCH   1  10
TORSDOF 5
ENDMDL
MODEL 9
REMARK VINA RESULT:       0.2      2.450      5.276
REMARK  5 active torsions:
REMARK  status: ('A' for Active; 'I' for Inactive)
REMARK    1  A    between atoms: C1_1  and  C10_10 
REMARK    2  A    between atoms: C4_4  and  C8_8 
REMARK    3  A    between atoms: C8_8  and  C9_9 
REMARK    4  A    between atoms: C9_9  and  C10_10 
REMARK    5  A    between atoms: C10_10  and  C11_11 
ROOT
HETATM    1  C10 UNL     1     -33.280   6.683   2.100  1.00 20.00     0.058 C 
ENDROOT
BRANCH   1   2
HETATM    2  C1  UNL     1     -32.829   5.541   1.183  1.00 20.00     0.127 C 
HETATM    3  C5  UNL     1     -31.435   5.008   1.398  1.00 20.00     0.091 C 
HETATM    4  O12 UNL     1     -33.550   5.082   0.298  1.00 20.00    -0.298 OA
ENDBRANCH   1   2
BRANCH   1   5
HETATM    5  C9  UNL     1     -33.734   6.146   3.471  1.00 20.00     0.013 C 
BRANCH   5   6
HETATM    6  C8  UNL     1     -34.225   4.696   3.396  1.00 20.00     0.005 C 
BRANCH   6   7
HETATM    7  C4  UNL     1     -33.837   3.916   4.615  1.00 20.00    -0.014 A 
HETATM    8  C2  UNL     1     -33.410   2.479   4.492  1.00 20.00     0.005 A 
HETATM    9  C3  UNL     1     -32.401   3.536   4.844  1.00 20.00     0.005 A 
ENDBRANCH   6   7
ENDBRANCH   5   6
ENDBRANCH   1   5
BRANCH   1  10
HETATM   10  C11 UNL     1     -32.159   7.753   2.175  1.00 20.00    -0.012 C 
HETATM   11  C6  UNL     1     -32.215   8.784   1.045  1.00 20.00     0.010 C 
HETATM   12  C7  UNL     1     -32.163   8.469   3.530  1.00 20.00     0.010 C 
ENDBRANCH   1  10
TORSDOF 5
ENDMDL
