MODEL 1
REMARK VINA RESULT:      -2.0      0.000      0.000
REMARK  4 active torsions:
REMARK  status: ('A' for Active; 'I' for Inactive)
REMARK    1  A    between atoms: C1_1  and  C10_10 
REMARK    2  A    between atoms: C5_5  and  C8_8 
REMARK    3  A    between atoms: C8_8  and  C10_10 
REMARK    4  A    between atoms: C9_9  and  C10_10 
ROOT
HETATM    1  C10 UNL     1     -33.259   7.324   2.129  1.00 20.00     0.055 C 
ENDROOT
BRANCH   1   2
HETATM    2  C1  UNL     1     -33.786   7.347   3.562  1.00 20.00     0.127 C 
HETATM    3  C6  UNL     1     -34.986   6.484   3.858  1.00 20.00     0.091 C 
HETATM    4  O11 UNL     1     -33.266   8.035   4.440  1.00 20.00    -0.298 OA
ENDBRANCH   1   2
BRANCH   1   5
HETATM    5  C8  UNL     1     -31.850   7.940   2.079  1.00 20.00     0.016 C 
BRANCH   5   6
HETATM    6  C5  UNL     1     -31.749   9.096   1.106  1.00 20.00    -0.014 C 
HETATM    7  C3  UNL     1     -32.867  10.168   1.182  1.00 20.00     0.005 C 
HETATM    8  C2  UNL     1     -32.771  10.269  -0.355  1.00 20.00     0.001 C 
HETATM    9  C4  UNL     1     -32.225   8.826  -0.344  1.00 20.00     0.005 C 
ENDBRANCH   5   6
ENDBRANCH   1   5
BRANCH   1  10
HETATM   10  C9  UNL     1     -33.233   5.878   1.605  1.00 20.00     0.007 C 
HETATM   11  C7  UNL     1     -31.809   5.434   1.278  1.00 20.00     0.006 C 
ENDBRANCH   1  10
TORSDOF 4
ENDMDL
MODEL 2
REMARK VINA RESULT:      -1.7      0.820      1.022
REMARK  4 active torsions:
REMARK  status: ('A' for Active; 'I' for Inactive)
REMARK    1  A    between atoms: C1_1  and  C10_10 
REMARK    2  A    between atoms: C5_5  and  C8_8 
REMARK    3  A    between atoms: C8_8  and  C10_10 
REMARK    4  A    between atoms: C9_9  and  C10_10 
ROOT
HETATM    1  C10 UNL     1     -33.323   7.250   2.119  1.00 20.00     0.055 C 
ENDROOT
BRANCH   1   2
HETATM    2  C1  UNL     1     -33.947   7.218   3.513  1.00 20.00     0.127 C 
HETATM    3  C6  UNL     1     -33.356   8.146   4.544  1.00 20.00     0.091 C 
HETATM    4  O11 UNL     1     -34.886   6.473   3.793  1.00 20.00    -0.298 OA
ENDBRANCH   1   2
BRANCH   1   5
HETATM    5  C8  UNL     1     -31.933   7.906   2.182  1.00 20.00     0.016 C 
BRANCH   5   6
HETATM    6  C5  UNL     1     -31.772   9.038   1.189  1.00 20.00    -0.014 C 
HETATM    7  C3  UNL     1     -32.857  10.146   1.216  1.00 20.00     0.005 C 
HETATM    8  C2  UNL     1     -32.722  10.212  -0.320  1.00 20.00     0.001 C 
HETATM    9  C4  UNL     1     -32.222   8.753  -0.267  1.00 20.00     0.005 C 
ENDBRANCH   5   6
ENDBRANCH   1   5
BRANCH   1  10
HETATM   10  C9  UNL     1     -33.220   5.822   1.560  1.00 20.00     0.007 C 
HETATM   11  C7  UNL     1     -31.763   5.412   1.356  1.00 20.00     0.006 C 
ENDBRANCH   1  10
TORSDOF 4
ENDMDL
MODEL 3
REMARK VINA RESULT:      -1.6      0.627      1.074
REMARK  4 active torsions:
REMARK  status: ('A' for Active; 'I' for Inactive)
REMARK    1  A    between atoms: C1_1  and  C10_10 
REMARK    2  A    between atoms: C5_5  and  C8_8 
REMARK    3  A    between atoms: C8_8  and  C10_10 
REMARK    4  A    between atoms: C9_9  and  C10_10 
ROOT
HETATM    1  C10 UNL     1     -33.438   6.876   2.340  1.00 20.00     0.055 C 
ENDROOT
BRANCH   1   2
HETATM    2  C1  UNL     1     -34.084   7.107   3.704  1.00 20.00     0.127 C 
HETATM    3  C6  UNL     1     -35.280   6.254   4.043  1.00 20.00     0.091 C 
HETATM    4  O11 UNL     1     -33.659   7.948   4.495  1.00 20.00    -0.298 OA
ENDBRANCH   1   2
BRANCH   1   5
HETATM    5  C8  UNL     1     -32.373   7.953   2.074  1.00 20.00     0.016 C 
BRANCH   5   6
HETATM    6  C5  UNL     1     -32.676   8.789   0.848  1.00 20.00    -0.014 C 
HETATM    7  C3  UNL     1     -31.473   9.149  -0.062  1.00 20.00     0.005 C 
HETATM    8  C2  UNL     1     -32.146  10.520  -0.284  1.00 20.00     0.001 C 
HETATM    9  C4  UNL     1     -32.851  10.313   1.073  1.00 20.00     0.005 C 
ENDBRANCH   5   6
ENDBRANCH   1   5
BRANCH   1  10
HETATM   10  C9  UNL     1     -32.808   5.474   2.290  1.00 20.00     0.007 C 
HETATM   11  C7  UNL     1     -32.069   5.245   0.974  1.00 20.00     0.006 C 
ENDBRANCH   1  10
TORSDOF 4
ENDMDL
MODEL 4
REMARK VINA RESULT:      -0.9      1.401      2.679
REMARK  4 active torsions:
REMARK  status: ('A' for Active; 'I' for Inactive)
REMARK    1  A    between atoms: C1_1  and  C10_10 
REMARK    2  A    between atoms: C5_5  and  C8_8 
REMARK    3  A    between atoms: C8_8  and  C10_10 
REMARK    4  A    between atoms: C9_9  and  C10_10 
ROOT
HETATM    1  C10 UNL     1     -32.703   6.935   2.611  1.00 20.00     0.055 C 
ENDROOT
BRANCH   1   2
HETATM    2  C1  UNL     1     -32.802   5.879   1.512  1.00 20.00     0.127 C 
HETATM    3  C6  UNL     1     -31.597   4.997   1.308  1.00 20.00     0.091 C 
HETATM    4  O11 UNL     1     -33.811   5.748   0.819  1.00 20.00    -0.298 OA
ENDBRANCH   1   2
BRANCH   1   5
HETATM    5  C8  UNL     1     -31.928   8.159   2.093  1.00 20.00     0.016 C 
BRANCH   5   6
HETATM    6  C5  UNL     1     -32.666   8.903   1.000  1.00 20.00    -0.014 C 
HETATM    7  C3  UNL     1     -31.893   9.141  -0.323  1.00 20.00     0.005 C 
HETATM    8  C2  UNL     1     -32.593  10.514  -0.399  1.00 20.00     0.001 C 
HETATM    9  C4  UNL     1     -32.735  10.446   1.136  1.00 20.00     0.005 C 
ENDBRANCH   5   6
ENDBRANCH   1   5
BRANCH   1  10
HETATM   10  C9  UNL     1     -34.112   7.346   3.070  1.00 20.00     0.007 C 
HETATM   11  C7  UNL     1     -34.719   6.296   3.996  1.00 20.00     0.006 C 
ENDBRANCH   1  10
TORSDOF 4
ENDMDL
MODEL 5
REMARK VINA RESULT:      -0.8      1.912      3.056
REMARK  4 active torsions:
REMARK  status: ('A' for Active; 'I' for Inactive)
REMARK    1  A    between atoms: C1_1  and  C10_10 
REMARK    2  A    between atoms: C5_5  and  C8_8 
REMARK    3  A    between atoms: C8_8  and  C10_10 
REMARK    4  A    between atoms: C9_9  and  C10_10 
ROOT
HETATM    1  C10 UNL     1     -33.636   5.932   3.527  1.00 20.00     0.055 C 
ENDROOT
BRANCH   1   2
HETATM    2  C1  UNL     1     -34.304   4.701   4.137  1.00 20.00     0.127 C 
HETATM    3  C6  UNL     1     -33.487   3.435   4.180  1.00 20.00     0.091 C 
HETATM    4  O11 UNL     1     -35.455   4.729   4.573  1.00 20.00    -0.298 OA
ENDBRANCH   1   2
BRANCH   1   5
HETATM    5  C8  UNL     1     -33.434   5.724   2.017  1.00 20.00     0.016 C 
BRANCH   5   6
HETATM    6  C5  UNL     1     -32.367   6.630   1.437  1.00 20.00    -0.014 C 
HETATM    7  C3  UNL     1     -31.743   7.674   2.399  1.00 20.00     0.005 C 
HETATM    8  C2  UNL     1     -31.698   8.643   1.199  1.00 20.00     0.001 C 
HETATM    9  C4  UNL     1     -32.861   7.831   0.592  1.00 20.00     0.005 C 
ENDBRANCH   5   6
ENDBRANCH   1   5
BRANCH   1  10
HETATM   10  C9  UNL     1     -34.499   7.178   3.788  1.00 20.00     0.007 C 
HETATM   11  C7  UNL     1     -33.895   8.049   4.886  1.00 20.00     0.006 C 
ENDBRANCH   1  10
TORSDOF 4
ENDMDL
MODEL 6
REMARK VINA RESULT:      -0.5      1.537      4.105
REMARK  4 active torsions:
REMARK  status: ('A' for Active; 'I' for Inactive)
REMARK    1  A    between atoms: C1_1  and  C10_10 
REMARK    2  A    between atoms: C5_5  and  C8_8 
REMARK    3  A    between atoms: C8_8  and  C10_10 
REMARK    4  A    between atoms: C9_9  and  C10_10 
ROOT
HETATM    1  C10 UNL     1     -32.759   7.590   1.752  1.00 20.00     0.055 C 
ENDROOT
BRANCH   1   2
HETATM    2  C1  UNL     1     -32.477   6.149   1.333  1.00 20.00     0.127 C 
HETATM    3  C6  UNL     1     -33.527   5.468   0.492  1.00 20.00     0.091 C 
HETATM    4  O11 UNL     1     -31.448   5.560   1.664  1.00 20.00    -0.298 OA
ENDBRANCH   1   2
BRANCH   1   5
HETATM    5  C8  UNL     1     -32.620   7.730   3.277  1.00 20.00     0.016 C 
BRANCH   5   6
HETATM    6  C5  UNL     1     -33.857   7.276   4.024  1.00 20.00    -0.014 C 
HETATM    7  C3  UNL     1     -34.107   5.747   4.090  1.00 20.00     0.005 C 
HETATM    8  C2  UNL     1     -35.612   6.063   3.961  1.00 20.00     0.001 C 
HETATM    9  C4  UNL     1     -35.203   7.377   3.263  1.00 20.00     0.005 C 
ENDBRANCH   5   6
ENDBRANCH   1   5
BRANCH   1  10
HETATM   10  C9  UNL     1     -31.788   8.542   1.034  1.00 20.00     0.007 C 
HETATM   11  C7  UNL     1     -32.538   9.676   0.339  1.00 20.00     0.006 C 
ENDBRANCH   1  10
TORSDOF 4
ENDMDL
MODEL 7
REMARK VINA RESULT:      -0.5      1.754      4.148
REMARK  4 active torsions:
REMARK  status: ('A' for Active; 'I' for Inactive)
REMARK    1  A    between atoms: C1_1  and  C10_10 
REMARK    2  A    between atoms: C5_5  and  C8_8 
REMARK    3  A    between atoms: C8_8  and  C10_10 
REMARK    4  A    between atoms: C9_9  and  C10_10 
ROOT
HETATM    1  C10 UNL     1     -32.024   7.310   1.813  1.00 20.00     0.055 C 
ENDROOT
BRANCH   1   2
HETATM    2  C1  UNL     1     -31.896   8.571   0.960  1.00 20.00     0.127 C 
HETATM    3  C6  UNL     1     -32.832   9.708   1.283  1.00 20.00     0.091 C 
HETATM    4  O11 UNL     1     -31.074   8.664   0.049  1.00 20.00    -0.298 OA
ENDBRANCH   1   2
BRANCH   1   5
HETATM    5  C8  UNL     1     -32.970   7.572   2.997  1.00 20.00     0.016 C 
BRANCH   5   6
HETATM    6  C5  UNL     1     -34.114   6.582   3.066  1.00 20.00    -0.014 C 
HETATM    7  C3  UNL     1     -35.233   6.883   4.096  1.00 20.00     0.005 C 
HETATM    8  C2  UNL     1     -35.319   5.362   4.336  1.00 20.00     0.001 C 
HETATM    9  C4  UNL     1     -33.855   5.276   3.858  1.00 20.00     0.005 C 
ENDBRANCH   5   6
ENDBRANCH   1   5
BRANCH   1  10
HETATM   10  C9  UNL     1     -32.549   6.149   0.952  1.00 20.00     0.007 C 
HETATM   11  C7  UNL     1     -31.618   4.941   1.027  1.00 20.00     0.006 C 
ENDBRANCH   1  10
TORSDOF 4
ENDMDL
MODEL 8
REMARK VINA RESULT:      -0.4      1.742      4.573
REMARK  4 active torsions:
REMARK  status: ('A' for Active; 'I' for Inactive)
REMARK    1  A    between atoms: C1_1  and  C10_10 
REMARK    2  A    between atoms: C5_5  and  C8_8 
REMARK    3  A    between atoms: C8_8  and  C10_10 
REMARK    4  A    between atoms: C9_9  and  C10_10 
ROOT
HETATM    1  C10 UNL     1     -32.886   7.210   1.652  1.00 20.00     0.055 C 
ENDROOT
BRANCH   1   2
HETATM    2  C1  UNL     1     -32.449   5.835   1.151  1.00 20.00     0.127 C 
HETATM    3  C6  UNL     1     -33.409   5.105   0.246  1.00 20.00     0.091 C 
HETATM    4  O11 UNL     1     -31.370   5.335   1.468  1.00 20.00    -0.298 OA
ENDBRANCH   1   2
BRANCH   1   5
HETATM    5  C8  UNL     1     -33.342   7.114   3.117  1.00 20.00     0.016 C 
BRANCH   5   6
HETATM    6  C5  UNL     1     -34.437   6.089   3.326  1.00 20.00    -0.014 C 
HETATM    7  C3  UNL     1     -35.415   6.346   4.502  1.00 20.00     0.005 C 
HETATM    8  C2  UNL     1     -35.423   4.820   4.732  1.00 20.00     0.001 C 
HETATM    9  C4  UNL     1     -34.034   4.784   4.060  1.00 20.00     0.005 C 
ENDBRANCH   5   6
ENDBRANCH   1   5
BRANCH   1  10
HETATM   10  C9  UNL     1     -31.725   8.209   1.514  1.00 20.00     0.007 C 
HETATM   11  C7  UNL     1     -32.092   9.358   0.578  1.00 20.00     0.006 C 
ENDBRANCH   1  10
TORSDOF 4
ENDMDL
MODEL 9
REMARK VINA RESULT:      -0.0      1.975      3.055
REMARK  4 active torsions:
REMARK  status: ('A' for Active; 'I' for Inactive)
REMARK    1  A    between atoms: C1_1  and  C10_10 
REMARK    2  A    between atoms: C5_5  and  C8_8 
REMARK    3  A    between atoms: C8_8  and  C10_10 
REMARK    4  A    between atoms: C9_9  and  C10_10 
ROOT
HETATM    1  C10 UNL     1     -34.328   5.118   3.462  1.00 20.00     0.055 C 
ENDROOT
BRANCH   1   2
HETATM    2  C1  UNL     1     -35.076   6.400   3.822  1.00 20.00     0.127 C 
HETATM    3  C6  UNL     1     -34.341   7.397   4.682  1.00 20.00     0.091 C 
HETATM    4  O11 UNL     1     -36.224   6.618   3.437  1.00 20.00    -0.298 OA
ENDBRANCH   1   2
BRANCH   1   5
HETATM    5  C8  UNL     1     -32.913   5.459   2.963  1.00 20.00     0.016 C 
BRANCH   5   6
HETATM    6  C5  UNL     1     -32.906   6.559   1.922  1.00 20.00    -0.014 C 
HETATM    7  C3  UNL     1     -31.814   6.470   0.825  1.00 20.00     0.005 C 
HETATM    8  C2  UNL     1     -31.723   8.009   0.894  1.00 20.00     0.001 C 
HETATM    9  C4  UNL     1     -32.256   7.903   2.338  1.00 20.00     0.005 C 
ENDBRANCH   5   6
ENDBRANCH   1   5
BRANCH   1  10
HETATM   10  C9  UNL     1     -34.258   4.192   4.688  1.00 20.00     0.007 C 
HETATM   11  C7  UNL     1     -33.258   3.060   4.468  1.00 20.00     0.006 C 
ENDBRANCH   1  10
TORSDOF 4
ENDMDL
