MODEL 1
REMARK VINA RESULT:       0.1      0.000      0.000
REMARK  2 active torsions:
REMARK  status: ('A' for Active; 'I' for Inactive)
REMARK    1  A    between atoms: C1_1  and  C9_9 
REMARK    2  A    between atoms: C6_6  and  C9_9 
ROOT
HETATM    1  C2  UNL     1     -33.145   5.548   1.503  1.00 20.00     0.031 C 
HETATM    2  C3  UNL     1     -33.292   8.009   1.979  1.00 20.00     0.031 C 
HETATM    3  C4  UNL     1     -31.628   5.708   1.519  1.00 20.00     0.168 C 
HETATM    4  C5  UNL     1     -31.767   8.030   1.967  1.00 20.00     0.168 C 
HETATM    5  C6  UNL     1     -33.847   6.625   2.340  1.00 20.00     0.000 C 
HETATM    6  O11 UNL     1     -31.253   7.019   1.101  1.00 20.00    -0.391 OA
ENDROOT
BRANCH   5   7
HETATM    7  C9  UNL     1     -33.725   6.343   3.840  1.00 20.00     0.055 C 
HETATM    8  C8  UNL     1     -34.167   7.553   4.656  1.00 20.00     0.018 C 
BRANCH   7   9
HETATM    9  C1  UNL     1     -34.543   5.107   4.202  1.00 20.00     0.127 C 
HETATM   10  C7  UNL     1     -33.804   3.793   4.257  1.00 20.00     0.091 C 
HETATM   11  O10 UNL     1     -35.753   5.158   4.417  1.00 20.00    -0.298 OA
ENDBRANCH   7   9
ENDBRANCH   5   7
TORSDOF 2
ENDMDL
MODEL 2
REMARK VINA RESULT:       0.8      2.094      3.298
REMARK  2 active torsions:
REMARK  status: ('A' for Active; 'I' for Inactive)
REMARK    1  A    between atoms: C1_1  and  C9_9 
REMARK    2  A    between atoms: C6_6  and  C9_9 
ROOT
HETATM    1  C2  UNL     1     -32.301   9.609   2.253  1.00 20.00     0.031 C 
HETATM    2  C3  UNL     1     -31.345   8.051   0.532  1.00 20.00     0.031 C 
HETATM    3  C4  UNL     1     -33.060  10.286   1.117  1.00 20.00     0.168 C 
HETATM    4  C5  UNL     1     -32.157   8.816  -0.508  1.00 20.00     0.168 C 
HETATM    5  C6  UNL     1     -31.964   8.147   1.932  1.00 20.00     0.000 C 
HETATM    6  O11 UNL     1     -32.339  10.174  -0.109  1.00 20.00    -0.391 OA
ENDROOT
BRANCH   5   7
HETATM    7  C9  UNL     1     -33.192   7.242   2.069  1.00 20.00     0.055 C 
HETATM    8  C8  UNL     1     -32.874   5.825   1.602  1.00 20.00     0.018 C 
BRANCH   7   9
HETATM    9  C1  UNL     1     -33.680   7.248   3.514  1.00 20.00     0.127 C 
HETATM   10  C7  UNL     1     -34.966   6.512   3.801  1.00 20.00     0.091 C 
HETATM   11  O10 UNL     1     -33.080   7.841   4.411  1.00 20.00    -0.298 OA
ENDBRANCH   7   9
ENDBRANCH   5   7
TORSDOF 2
ENDMDL
MODEL 3
REMARK VINA RESULT:       1.4      1.139      3.763
REMARK  2 active torsions:
REMARK  status: ('A' for Active; 'I' for Inactive)
REMARK    1  A    between atoms: C1_1  and  C9_9 
REMARK    2  A    between atoms: C6_6  and  C9_9 
ROOT
HETATM    1  C2  UNL     1     -33.005   5.104   3.763  1.00 20.00     0.031 C 
HETATM    2  C3  UNL     1     -34.249   7.252   4.139  1.00 20.00     0.031 C 
HETATM    3  C4  UNL     1     -34.362   4.426   3.619  1.00 20.00     0.168 C 
HETATM    4  C5  UNL     1     -35.537   6.452   3.974  1.00 20.00     0.168 C 
HETATM    5  C6  UNL     1     -33.066   6.597   3.415  1.00 20.00     0.000 C 
HETATM    6  O11 UNL     1     -35.351   5.101   4.394  1.00 20.00    -0.391 OA
ENDROOT
BRANCH   5   7
HETATM    7  C9  UNL     1     -33.137   6.820   1.902  1.00 20.00     0.055 C 
HETATM    8  C8  UNL     1     -32.414   8.105   1.509  1.00 20.00     0.018 C 
BRANCH   7   9
HETATM    9  C1  UNL     1     -32.550   5.615   1.173  1.00 20.00     0.127 C 
HETATM   10  C7  UNL     1     -33.463   4.886   0.218  1.00 20.00     0.091 C 
HETATM   11  O10 UNL     1     -31.398   5.227   1.363  1.00 20.00    -0.298 OA
ENDBRANCH   7   9
ENDBRANCH   5   7
TORSDOF 2
ENDMDL
MODEL 4
REMARK VINA RESULT:       2.0      1.938      4.609
REMARK  2 active torsions:
REMARK  status: ('A' for Active; 'I' for Inactive)
REMARK    1  A    between atoms: C1_1  and  C9_9 
REMARK    2  A    between atoms: C6_6  and  C9_9 
ROOT
HETATM    1  C2  UNL     1     -31.979   6.510   1.579  1.00 20.00     0.031 C 
HETATM    2  C3  UNL     1     -32.683   7.952   3.510  1.00 20.00     0.031 C 
HETATM    3  C4  UNL     1     -33.304   5.774   1.737  1.00 20.00     0.168 C 
HETATM    4  C5  UNL     1     -33.970   7.133   3.560  1.00 20.00     0.168 C 
HETATM    5  C6  UNL     1     -32.050   7.947   2.114  1.00 20.00     0.000 C 
HETATM    6  O11 UNL     1     -33.742   5.804   3.095  1.00 20.00    -0.391 OA
ENDROOT
BRANCH   5   7
HETATM    7  C9  UNL     1     -32.801   8.870   1.150  1.00 20.00     0.055 C 
HETATM    8  C8  UNL     1     -33.283  10.126   1.870  1.00 20.00     0.018 C 
BRANCH   7   9
HETATM    9  C1  UNL     1     -31.905   9.224  -0.032  1.00 20.00     0.127 C 
HETATM   10  C7  UNL     1     -32.459  10.203  -1.038  1.00 20.00     0.091 C 
HETATM   11  O10 UNL     1     -30.790   8.726  -0.187  1.00 20.00    -0.298 OA
ENDBRANCH   7   9
ENDBRANCH   5   7
TORSDOF 2
ENDMDL
MODEL 5
REMARK VINA RESULT:       2.1      1.211      4.311
REMARK  2 active torsions:
REMARK  status: ('A' for Active; 'I' for Inactive)
REMARK    1  A    between atoms: C1_1  and  C9_9 
REMARK    2  A    between atoms: C6_6  and  C9_9 
ROOT
HETATM    1  C2  UNL     1     -34.543   7.250   2.948  1.00 20.00     0.031 C 
HETATM    2  C3  UNL     1     -34.096   4.860   2.323  1.00 20.00     0.031 C 
HETATM    3  C4  UNL     1     -34.512   6.800   4.405  1.00 20.00     0.168 C 
HETATM    4  C5  UNL     1     -34.091   4.545   3.815  1.00 20.00     0.168 C 
HETATM    5  C6  UNL     1     -33.726   6.321   2.040  1.00 20.00     0.000 C 
HETATM    6  O11 UNL     1     -34.940   5.445   4.526  1.00 20.00    -0.391 OA
ENDROOT
BRANCH   5   7
HETATM    7  C9  UNL     1     -32.222   6.562   2.195  1.00 20.00     0.055 C 
HETATM    8  C8  UNL     1     -31.436   5.754   1.167  1.00 20.00     0.018 C 
BRANCH   7   9
HETATM    9  C1  UNL     1     -31.920   8.052   2.069  1.00 20.00     0.127 C 
HETATM   10  C7  UNL     1     -32.133   8.678   0.713  1.00 20.00     0.091 C 
HETATM   11  O10 UNL     1     -31.498   8.722   3.012  1.00 20.00    -0.298 OA
ENDBRANCH   7   9
ENDBRANCH   5   7
TORSDOF 2
ENDMDL
MODEL 6
REMARK VINA RESULT:       2.1      1.910      3.092
REMARK  2 active torsions:
REMARK  status: ('A' for Active; 'I' for Inactive)
REMARK    1  A    between atoms: C1_1  and  C9_9 
REMARK    2  A    between atoms: C6_6  and  C9_9 
ROOT
HETATM    1  C2  UNL     1     -32.462   8.064   1.879  1.00 20.00     0.031 C 
HETATM    2  C3  UNL     1     -33.954   7.693   3.864  1.00 20.00     0.031 C 
HETATM    3  C4  UNL     1     -31.354   8.412   2.867  1.00 20.00     0.168 C 
HETATM    4  C5  UNL     1     -32.761   8.062   4.740  1.00 20.00     0.168 C 
HETATM    5  C6  UNL     1     -33.520   7.141   2.500  1.00 20.00     0.000 C 
HETATM    6  O11 UNL     1     -31.898   8.973   4.061  1.00 20.00    -0.391 OA
ENDROOT
BRANCH   5   7
HETATM    7  C9  UNL     1     -33.015   5.700   2.609  1.00 20.00     0.055 C 
HETATM    8  C8  UNL     1     -34.022   4.830   3.356  1.00 20.00     0.018 C 
BRANCH   7   9
HETATM    9  C1  UNL     1     -32.735   5.143   1.218  1.00 20.00     0.127 C 
HETATM   10  C7  UNL     1     -31.334   4.650   0.950  1.00 20.00     0.091 C 
HETATM   11  O10 UNL     1     -33.592   5.113   0.334  1.00 20.00    -0.298 OA
ENDBRANCH   7   9
ENDBRANCH   5   7
TORSDOF 2
ENDMDL
MODEL 7
REMARK VINA RESULT:       2.1      1.956      3.263
REMARK  2 active torsions:
REMARK  status: ('A' for Active; 'I' for Inactive)
REMARK    1  A    between atoms: C1_1  and  C9_9 
REMARK    2  A    between atoms: C6_6  and  C9_9 
ROOT
HETATM    1  C2  UNL     1     -32.463   8.096   2.036  1.00 20.00     0.031 C 
HETATM    2  C3  UNL     1     -34.022   7.670   3.956  1.00 20.00     0.031 C 
HETATM    3  C4  UNL     1     -31.399   8.450   3.070  1.00 20.00     0.168 C 
HETATM    4  C5  UNL     1     -32.871   8.047   4.883  1.00 20.00     0.168 C 
HETATM    5  C6  UNL     1     -33.526   7.147   2.603  1.00 20.00     0.000 C 
HETATM    6  O11 UNL     1     -31.998   8.983   4.250  1.00 20.00    -0.391 OA
ENDROOT
BRANCH   5   7
HETATM    7  C9  UNL     1     -33.000   5.712   2.710  1.00 20.00     0.055 C 
HETATM    8  C8  UNL     1     -34.044   4.800   3.348  1.00 20.00     0.018 C 
BRANCH   7   9
HETATM    9  C1  UNL     1     -32.597   5.204   1.330  1.00 20.00     0.127 C 
HETATM   10  C7  UNL     1     -33.691   5.099   0.296  1.00 20.00     0.091 C 
HETATM   11  O10 UNL     1     -31.444   4.866   1.063  1.00 20.00    -0.298 OA
ENDBRANCH   7   9
ENDBRANCH   5   7
TORSDOF 2
ENDMDL
MODEL 8
REMARK VINA RESULT:       2.5      1.809      4.448
REMARK  2 active torsions:
REMARK  status: ('A' for Active; 'I' for Inactive)
REMARK    1  A    between atoms: C1_1  and  C9_9 
REMARK    2  A    between atoms: C6_6  and  C9_9 
ROOT
HETATM    1  C2  UNL     1     -34.659   7.413   2.656  1.00 20.00     0.031 C 
HETATM    2  C3  UNL     1     -33.140   5.734   1.572  1.00 20.00     0.031 C 
HETATM    3  C4  UNL     1     -34.281   6.786   3.994  1.00 20.00     0.168 C 
HETATM    4  C5  UNL     1     -32.847   5.201   2.971  1.00 20.00     0.168 C 
HETATM    5  C6  UNL     1     -33.572   7.206   1.594  1.00 20.00     0.000 C 
HETATM    6  O11 UNL     1     -33.966   5.404   3.834  1.00 20.00    -0.391 OA
ENDROOT
BRANCH   5   7
HETATM    7  C9  UNL     1     -32.380   8.140   1.818  1.00 20.00     0.055 C 
HETATM    8  C8  UNL     1     -31.065   7.414   1.550  1.00 20.00     0.018 C 
BRANCH   7   9
HETATM    9  C1  UNL     1     -32.516   9.374   0.932  1.00 20.00     0.127 C 
HETATM   10  C7  UNL     1     -32.282   9.181  -0.546  1.00 20.00     0.091 C 
HETATM   11  O10 UNL     1     -32.777  10.488   1.387  1.00 20.00    -0.298 OA
ENDBRANCH   7   9
ENDBRANCH   5   7
TORSDOF 2
ENDMDL
MODEL 9
REMARK VINA RESULT:       2.7      1.142      1.215
REMARK  2 active torsions:
REMARK  status: ('A' for Active; 'I' for Inactive)
REMARK    1  A    between atoms: C1_1  and  C9_9 
REMARK    2  A    between atoms: C6_6  and  C9_9 
ROOT
HETATM    1  C2  UNL     1     -32.860   5.356   1.512  1.00 20.00     0.031 C 
HETATM    2  C3  UNL     1     -33.724   7.596   2.246  1.00 20.00     0.031 C 
HETATM    3  C4  UNL     1     -31.458   5.882   1.796  1.00 20.00     0.168 C 
HETATM    4  C5  UNL     1     -32.272   7.997   2.488  1.00 20.00     0.168 C 
HETATM    5  C6  UNL     1     -33.928   6.079   2.343  1.00 20.00     0.000 C 
HETATM    6  O11 UNL     1     -31.399   7.295   1.604  1.00 20.00    -0.391 OA
ENDROOT
BRANCH   5   7
HETATM    7  C9  UNL     1     -33.926   5.602   3.798  1.00 20.00     0.055 C 
HETATM    8  C8  UNL     1     -35.182   6.075   4.524  1.00 20.00     0.018 C 
BRANCH   7   9
HETATM    9  C1  UNL     1     -33.806   4.082   3.845  1.00 20.00     0.127 C 
HETATM   10  C7  UNL     1     -33.073   3.493   5.025  1.00 20.00     0.091 C 
HETATM   11  O10 UNL     1     -34.255   3.357   2.958  1.00 20.00    -0.298 OA
ENDBRANCH   7   9
ENDBRANCH   5   7
TORSDOF 2
ENDMDL
