MODEL 1
REMARK VINA RESULT:      -1.3      0.000      0.000
REMARK  3 active torsions:
REMARK  status: ('A' for Active; 'I' for Inactive)
REMARK    1  A    between atoms: C8_8  and  C10_10 
REMARK    2  A    between atoms: C9_9  and  C11_11 
REMARK    3  A    between atoms: C10_10  and  C11_11 
ROOT
HETATM    1  C1  UNL     1     -32.832   6.000   2.050  1.00 20.00     0.131 C 
HETATM    2  C2  UNL     1     -34.126   5.357   2.506  1.00 20.00     0.079 C 
HETATM    3  C3  UNL     1     -34.455   5.772   3.931  1.00 20.00     0.007 C 
HETATM    4  C4  UNL     1     -34.443   7.289   4.095  1.00 20.00     0.001 C 
HETATM    5  C5  UNL     1     -33.093   7.875   3.679  1.00 20.00     0.012 C 
HETATM    6  C8  UNL     1     -32.737   7.511   2.234  1.00 20.00     0.055 C 
HETATM    7  O12 UNL     1     -31.963   5.340   1.483  1.00 20.00    -0.298 OA
ENDROOT
BRANCH   6   8
HETATM    8  C10 UNL     1     -31.352   8.038   1.872  1.00 20.00     0.012 C 
BRANCH   8   9
HETATM    9  C11 UNL     1     -31.358   8.722   0.508  1.00 20.00     0.005 C 
BRANCH   9  10
HETATM   10  C9  UNL     1     -32.671   9.449   0.261  1.00 20.00    -0.014 A 
HETATM   11  C6  UNL     1     -32.824  10.892   0.653  1.00 20.00     0.005 A 
HETATM   12  C7  UNL     1     -32.760  10.511  -0.799  1.00 20.00     0.005 A 
ENDBRANCH   9  10
ENDBRANCH   8   9
ENDBRANCH   6   8
TORSDOF 3
ENDMDL
MODEL 2
REMARK VINA RESULT:      -1.1      1.864      5.268
REMARK  3 active torsions:
REMARK  status: ('A' for Active; 'I' for Inactive)
REMARK    1  A    between atoms: C8_8  and  C10_10 
REMARK    2  A    between atoms: C9_9  and  C11_11 
REMARK    3  A    between atoms: C10_10  and  C11_11 
ROOT
HETATM    1  C1  UNL     1     -33.079   6.134   1.847  1.00 20.00     0.131 C 
HETATM    2  C2  UNL     1     -31.802   6.834   1.430  1.00 20.00     0.079 C 
HETATM    3  C3  UNL     1     -31.864   8.312   1.786  1.00 20.00     0.007 C 
HETATM    4  C4  UNL     1     -32.220   8.526   3.254  1.00 20.00     0.001 C 
HETATM    5  C5  UNL     1     -33.546   7.850   3.600  1.00 20.00     0.012 C 
HETATM    6  C8  UNL     1     -33.518   6.350   3.292  1.00 20.00     0.055 C 
HETATM    7  O12 UNL     1     -33.660   5.369   1.080  1.00 20.00    -0.298 OA
ENDROOT
BRANCH   6   8
HETATM    8  C10 UNL     1     -34.878   5.717   3.570  1.00 20.00     0.012 C 
BRANCH   8   9
HETATM    9  C11 UNL     1     -34.752   4.520   4.507  1.00 20.00     0.005 C 
BRANCH   9  10
HETATM   10  C9  UNL     1     -33.463   3.754   4.252  1.00 20.00    -0.014 A 
HETATM   11  C6  UNL     1     -32.679   3.185   5.402  1.00 20.00     0.005 A 
HETATM   12  C7  UNL     1     -33.412   2.266   4.466  1.00 20.00     0.005 A 
ENDBRANCH   9  10
ENDBRANCH   8   9
ENDBRANCH   6   8
TORSDOF 3
ENDMDL
MODEL 3
REMARK VINA RESULT:      -0.8      2.269      5.541
REMARK  3 active torsions:
REMARK  status: ('A' for Active; 'I' for Inactive)
REMARK    1  A    between atoms: C8_8  and  C10_10 
REMARK    2  A    between atoms: C9_9  and  C11_11 
REMARK    3  A    between atoms: C10_10  and  C11_11 
ROOT
HETATM    1  C1  UNL     1     -33.260   7.736   3.658  1.00 20.00     0.131 C 
HETATM    2  C2  UNL     1     -32.419   8.365   2.567  1.00 20.00     0.079 C 
HETATM    3  C3  UNL     1     -31.709   7.292   1.755  1.00 20.00     0.007 C 
HETATM    4  C4  UNL     1     -32.685   6.239   1.235  1.00 20.00     0.001 C 
HETATM    5  C5  UNL     1     -33.460   5.596   2.385  1.00 20.00     0.012 C 
HETATM    6  C8  UNL     1     -34.221   6.639   3.211  1.00 20.00     0.055 C 
HETATM    7  O12 UNL     1     -33.224   8.163   4.810  1.00 20.00    -0.298 OA
ENDROOT
BRANCH   6   8
HETATM    8  C10 UNL     1     -34.919   5.981   4.397  1.00 20.00     0.012 C 
BRANCH   8   9
HETATM    9  C11 UNL     1     -34.902   4.460   4.277  1.00 20.00     0.005 C 
BRANCH   9  10
HETATM   10  C9  UNL     1     -33.485   3.915   4.370  1.00 20.00    -0.014 A 
HETATM   11  C6  UNL     1     -33.017   3.232   5.624  1.00 20.00     0.005 A 
HETATM   12  C7  UNL     1     -33.243   2.431   4.373  1.00 20.00     0.005 A 
ENDBRANCH   9  10
ENDBRANCH   8   9
ENDBRANCH   6   8
TORSDOF 3
ENDMDL
MODEL 4
REMARK VINA RESULT:      -0.1      1.458      2.234
REMARK  3 active torsions:
REMARK  status: ('A' for Active; 'I' for Inactive)
REMARK    1  A    between atoms: C8_8  and  C10_10 
REMARK    2  A    between atoms: C9_9  and  C11_11 
REMARK    3  A    between atoms: C10_10  and  C11_11 
ROOT
HETATM    1  C1  UNL     1     -34.051   7.342   3.382  1.00 20.00     0.131 C 
HETATM    2  C2  UNL     1     -34.748   6.779   4.603  1.00 20.00     0.079 C 
HETATM    3  C3  UNL     1     -35.248   5.369   4.328  1.00 20.00     0.007 C 
HETATM    4  C4  UNL     1     -34.137   4.468   3.796  1.00 20.00     0.001 C 
HETATM    5  C5  UNL     1     -33.514   5.057   2.530  1.00 20.00     0.012 C 
HETATM    6  C8  UNL     1     -32.963   6.466   2.770  1.00 20.00     0.055 C 
HETATM    7  O12 UNL     1     -34.297   8.479   2.981  1.00 20.00    -0.298 OA
ENDROOT
BRANCH   6   8
HETATM    8  C10 UNL     1     -32.421   7.060   1.474  1.00 20.00     0.012 C 
BRANCH   8   9
HETATM    9  C11 UNL     1     -31.655   8.353   1.734  1.00 20.00     0.005 C 
BRANCH   9  10
HETATM   10  C9  UNL     1     -31.628   9.237   0.496  1.00 20.00    -0.014 A 
HETATM   11  C6  UNL     1     -32.814   9.287  -0.426  1.00 20.00     0.005 A 
HETATM   12  C7  UNL     1     -32.479  10.474   0.431  1.00 20.00     0.005 A 
ENDBRANCH   9  10
ENDBRANCH   8   9
ENDBRANCH   6   8
TORSDOF 3
ENDMDL
MODEL 5
REMARK VINA RESULT:       0.1      1.014      4.526
REMARK  3 active torsions:
REMARK  status: ('A' for Active; 'I' for Inactive)
REMARK    1  A    between atoms: C8_8  and  C10_10 
REMARK    2  A    between atoms: C9_9  and  C11_11 
REMARK    3  A    between atoms: C10_10  and  C11_11 
ROOT
HETATM    1  C1  UNL     1     -31.831   7.655   1.392  1.00 20.00     0.131 C 
HETATM    2  C2  UNL     1     -31.417   8.402   0.141  1.00 20.00     0.079 C 
HETATM    3  C3  UNL     1     -32.465   9.441  -0.230  1.00 20.00     0.007 C 
HETATM    4  C4  UNL     1     -32.790  10.360   0.944  1.00 20.00     0.001 C 
HETATM    5  C5  UNL     1     -33.259   9.555   2.156  1.00 20.00     0.012 C 
HETATM    6  C8  UNL     1     -32.218   8.518   2.588  1.00 20.00     0.055 C 
HETATM    7  O12 UNL     1     -31.761   6.428   1.449  1.00 20.00    -0.298 OA
ENDROOT
BRANCH   6   8
HETATM    8  C10 UNL     1     -32.745   7.677   3.746  1.00 20.00     0.012 C 
BRANCH   8   9
HETATM    9  C11 UNL     1     -34.265   7.752   3.840  1.00 20.00     0.005 C 
BRANCH   9  10
HETATM   10  C9  UNL     1     -34.909   6.433   3.442  1.00 20.00    -0.014 A 
HETATM   11  C6  UNL     1     -34.192   5.135   3.688  1.00 20.00     0.005 A 
HETATM   12  C7  UNL     1     -35.408   5.485   4.497  1.00 20.00     0.005 A 
ENDBRANCH   9  10
ENDBRANCH   8   9
ENDBRANCH   6   8
TORSDOF 3
ENDMDL
MODEL 6
REMARK VINA RESULT:       1.5      1.547      4.790
REMARK  3 active torsions:
REMARK  status: ('A' for Active; 'I' for Inactive)
REMARK    1  A    between atoms: C8_8  and  C10_10 
REMARK    2  A    between atoms: C9_9  and  C11_11 
REMARK    3  A    between atoms: C10_10  and  C11_11 
ROOT
HETATM    1  C1  UNL     1     -32.301   9.011   2.089  1.00 20.00     0.131 C 
HETATM    2  C2  UNL     1     -32.732  10.420   1.739  1.00 20.00     0.079 C 
HETATM    3  C3  UNL     1     -32.282  10.782   0.332  1.00 20.00     0.007 C 
HETATM    4  C4  UNL     1     -32.730   9.741  -0.690  1.00 20.00     0.001 C 
HETATM    5  C5  UNL     1     -32.215   8.351  -0.318  1.00 20.00     0.012 C 
HETATM    6  C8  UNL     1     -32.675   7.929   1.081  1.00 20.00     0.055 C 
HETATM    7  O12 UNL     1     -31.767   8.762   3.168  1.00 20.00    -0.298 OA
ENDROOT
BRANCH   6   8
HETATM    8  C10 UNL     1     -32.081   6.576   1.458  1.00 20.00     0.012 C 
BRANCH   8   9
HETATM    9  C11 UNL     1     -33.159   5.615   1.950  1.00 20.00     0.005 C 
BRANCH   9  10
HETATM   10  C9  UNL     1     -33.545   5.910   3.391  1.00 20.00    -0.014 A 
HETATM   11  C6  UNL     1     -34.881   6.521   3.707  1.00 20.00     0.005 A 
HETATM   12  C7  UNL     1     -34.605   5.090   4.074  1.00 20.00     0.005 A 
ENDBRANCH   9  10
ENDBRANCH   8   9
ENDBRANCH   6   8
TORSDOF 3
ENDMDL
MODEL 7
REMARK VINA RESULT:       1.5      1.394      2.012
REMARK  3 active torsions:
REMARK  status: ('A' for Active; 'I' for Inactive)
REMARK    1  A    between atoms: C8_8  and  C10_10 
REMARK    2  A    between atoms: C9_9  and  C11_11 
REMARK    3  A    between atoms: C10_10  and  C11_11 
ROOT
HETATM    1  C1  UNL     1     -33.398   4.479   3.590  1.00 20.00     0.131 C 
HETATM    2  C2  UNL     1     -34.686   4.126   4.304  1.00 20.00     0.079 C 
HETATM    3  C3  UNL     1     -35.319   5.370   4.907  1.00 20.00     0.007 C 
HETATM    4  C4  UNL     1     -35.486   6.479   3.872  1.00 20.00     0.001 C 
HETATM    5  C5  UNL     1     -34.144   6.835   3.230  1.00 20.00     0.012 C 
HETATM    6  C8  UNL     1     -33.485   5.616   2.577  1.00 20.00     0.055 C 
HETATM    7  O12 UNL     1     -32.377   3.815   3.763  1.00 20.00    -0.298 OA
ENDROOT
BRANCH   6   8
HETATM    8  C10 UNL     1     -32.114   5.981   2.017  1.00 20.00     0.012 C 
BRANCH   8   9
HETATM    9  C11 UNL     1     -32.236   6.920   0.821  1.00 20.00     0.005 C 
BRANCH   9  10
HETATM   10  C9  UNL     1     -31.796   8.331   1.180  1.00 20.00    -0.014 A 
HETATM   11  C6  UNL     1     -31.328   9.275   0.109  1.00 20.00     0.005 A 
HETATM   12  C7  UNL     1     -32.645   9.511   0.794  1.00 20.00     0.005 A 
ENDBRANCH   9  10
ENDBRANCH   8   9
ENDBRANCH   6   8
TORSDOF 3
ENDMDL
