MODEL 1
REMARK VINA RESULT:       0.2      0.000      0.000
REMARK  2 active torsions:
REMARK  status: ('A' for Active; 'I' for Inactive)
REMARK    1  A    between atoms: C5_5  and  C11_11 
REMARK    2  A    between atoms: C6_6  and  C10_10 
ROOT
HETATM    1  C1  UNL     1     -33.062   5.626   2.602  1.00 20.00     0.131 C 
HETATM    2  C2  UNL     1     -32.714   5.662   1.130  1.00 20.00     0.079 C 
HETATM    3  C3  UNL     1     -32.973   7.052   0.571  1.00 20.00     0.012 C 
HETATM    4  C4  UNL     1     -31.772   7.781   2.718  1.00 20.00     0.017 C 
HETATM    5  C5  UNL     1     -32.786   6.875   3.426  1.00 20.00     0.059 C 
HETATM    6  C6  UNL     1     -32.097   8.115   1.249  1.00 20.00    -0.014 C 
HETATM    7  O12 UNL     1     -33.538   4.614   3.117  1.00 20.00    -0.298 OA
ENDROOT
BRANCH   5   8
HETATM    8  C11 UNL     1     -34.095   7.578   3.767  1.00 20.00    -0.011 C 
HETATM    9  C8  UNL     1     -35.234   6.568   3.883  1.00 20.00     0.010 C 
HETATM   10  C9  UNL     1     -33.954   8.379   5.060  1.00 20.00     0.010 C 
ENDBRANCH   5   8
BRANCH   6  11
HETATM   11  C10 UNL     1     -32.715   9.506   1.097  1.00 20.00     0.000 C 
HETATM   12  C7  UNL     1     -32.603  10.010  -0.304  1.00 20.00     0.005 C 
ENDBRANCH   6  11
TORSDOF 2
ENDMDL
MODEL 2
REMARK VINA RESULT:       0.8      1.952      3.996
REMARK  2 active torsions:
REMARK  status: ('A' for Active; 'I' for Inactive)
REMARK    1  A    between atoms: C5_5  and  C11_11 
REMARK    2  A    between atoms: C6_6  and  C10_10 
ROOT
HETATM    1  C1  UNL     1     -32.725   7.264   1.877  1.00 20.00     0.131 C 
HETATM    2  C2  UNL     1     -32.609   5.849   1.353  1.00 20.00     0.079 C 
HETATM    3  C3  UNL     1     -32.747   4.860   2.499  1.00 20.00     0.012 C 
HETATM    4  C4  UNL     1     -34.710   6.381   3.143  1.00 20.00     0.017 C 
HETATM    5  C5  UNL     1     -33.685   7.516   3.030  1.00 20.00     0.059 C 
HETATM    6  C6  UNL     1     -34.120   4.959   3.180  1.00 20.00    -0.014 C 
HETATM    7  O12 UNL     1     -32.075   8.182   1.375  1.00 20.00    -0.298 OA
ENDROOT
BRANCH   5   8
HETATM    8  C11 UNL     1     -32.907   7.762   4.317  1.00 20.00    -0.011 C 
HETATM    9  C8  UNL     1     -31.843   8.836   4.105  1.00 20.00     0.010 C 
HETATM   10  C9  UNL     1     -33.852   8.159   5.449  1.00 20.00     0.010 C 
ENDBRANCH   5   8
BRANCH   6  11
HETATM   11  C10 UNL     1     -34.062   4.396   4.601  1.00 20.00     0.000 C 
HETATM   12  C7  UNL     1     -33.334   3.094   4.650  1.00 20.00     0.005 C 
ENDBRANCH   6  11
TORSDOF 2
ENDMDL
MODEL 3
REMARK VINA RESULT:       1.8      1.573      3.252
REMARK  2 active torsions:
REMARK  status: ('A' for Active; 'I' for Inactive)
REMARK    1  A    between atoms: C5_5  and  C11_11 
REMARK    2  A    between atoms: C6_6  and  C10_10 
ROOT
HETATM    1  C1  UNL     1     -34.962   5.510   4.061  1.00 20.00     0.131 C 
HETATM    2  C2  UNL     1     -35.109   7.012   4.167  1.00 20.00     0.079 C 
HETATM    3  C3  UNL     1     -33.789   7.686   3.832  1.00 20.00     0.012 C 
HETATM    4  C4  UNL     1     -33.805   6.014   1.886  1.00 20.00     0.017 C 
HETATM    5  C5  UNL     1     -34.046   4.962   2.976  1.00 20.00     0.059 C 
HETATM    6  C6  UNL     1     -33.346   7.396   2.391  1.00 20.00    -0.014 C 
HETATM    7  O12 UNL     1     -35.576   4.756   4.818  1.00 20.00    -0.298 OA
ENDROOT
BRANCH   5   8
HETATM    8  C11 UNL     1     -32.762   4.425   3.596  1.00 20.00    -0.011 C 
HETATM    9  C8  UNL     1     -33.038   3.143   4.379  1.00 20.00     0.010 C 
HETATM   10  C9  UNL     1     -31.708   4.178   2.518  1.00 20.00     0.010 C 
ENDBRANCH   5   8
BRANCH   6  11
HETATM   11  C10 UNL     1     -31.838   7.594   2.236  1.00 20.00     0.000 C 
HETATM   12  C7  UNL     1     -31.515   8.521   1.112  1.00 20.00     0.005 C 
ENDBRANCH   6  11
TORSDOF 2
ENDMDL
MODEL 4
REMARK VINA RESULT:       3.1      1.290      3.628
REMARK  2 active torsions:
REMARK  status: ('A' for Active; 'I' for Inactive)
REMARK    1  A    between atoms: C5_5  and  C11_11 
REMARK    2  A    between atoms: C6_6  and  C10_10 
ROOT
HETATM    1  C1  UNL     1     -32.725   5.518   1.608  1.00 20.00     0.131 C 
HETATM    2  C2  UNL     1     -33.166   4.684   2.791  1.00 20.00     0.079 C 
HETATM    3  C3  UNL     1     -33.438   5.583   3.986  1.00 20.00     0.012 C 
HETATM    4  C4  UNL     1     -34.663   6.995   2.229  1.00 20.00     0.017 C 
HETATM    5  C5  UNL     1     -33.353   6.893   1.438  1.00 20.00     0.059 C 
HETATM    6  C6  UNL     1     -34.575   6.577   3.709  1.00 20.00    -0.014 C 
HETATM    7  O12 UNL     1     -31.897   5.091   0.803  1.00 20.00    -0.298 OA
ENDROOT
BRANCH   5   8
HETATM    8  C11 UNL     1     -32.344   7.979   1.793  1.00 20.00    -0.011 C 
HETATM    9  C8  UNL     1     -30.924   7.417   1.785  1.00 20.00     0.010 C 
HETATM   10  C9  UNL     1     -32.460   9.157   0.827  1.00 20.00     0.010 C 
ENDBRANCH   5   8
BRANCH   6  11
HETATM   11  C10 UNL     1     -34.482   7.782   4.645  1.00 20.00     0.000 C 
HETATM   12  C7  UNL     1     -33.069   8.082   5.021  1.00 20.00     0.005 C 
ENDBRANCH   6  11
TORSDOF 2
ENDMDL
MODEL 5
REMARK VINA RESULT:       3.1      1.937      3.489
REMARK  2 active torsions:
REMARK  status: ('A' for Active; 'I' for Inactive)
REMARK    1  A    between atoms: C5_5  and  C11_11 
REMARK    2  A    between atoms: C6_6  and  C10_10 
ROOT
HETATM    1  C1  UNL     1     -33.817   7.478   3.240  1.00 20.00     0.131 C 
HETATM    2  C2  UNL     1     -32.630   8.113   2.549  1.00 20.00     0.079 C 
HETATM    3  C3  UNL     1     -31.602   7.048   2.204  1.00 20.00     0.012 C 
HETATM    4  C4  UNL     1     -33.678   5.771   1.400  1.00 20.00     0.017 C 
HETATM    5  C5  UNL     1     -34.238   6.087   2.792  1.00 20.00     0.059 C 
HETATM    6  C6  UNL     1     -32.164   6.002   1.229  1.00 20.00    -0.014 C 
HETATM    7  O12 UNL     1     -34.430   8.076   4.127  1.00 20.00    -0.298 OA
ENDROOT
BRANCH   5   8
HETATM    8  C11 UNL     1     -33.856   5.057   3.848  1.00 20.00    -0.011 C 
HETATM    9  C8  UNL     1     -34.981   4.890   4.868  1.00 20.00     0.010 C 
HETATM   10  C9  UNL     1     -33.521   3.717   3.196  1.00 20.00     0.010 C 
ENDBRANCH   5   8
BRANCH   6  11
HETATM   11  C10 UNL     1     -31.368   4.699   1.313  1.00 20.00     0.000 C 
HETATM   12  C7  UNL     1     -31.277   4.022  -0.014  1.00 20.00     0.005 C 
ENDBRANCH   6  11
TORSDOF 2
ENDMDL
MODEL 6
REMARK VINA RESULT:       3.1      1.828      3.990
REMARK  2 active torsions:
REMARK  status: ('A' for Active; 'I' for Inactive)
REMARK    1  A    between atoms: C5_5  and  C11_11 
REMARK    2  A    between atoms: C6_6  and  C10_10 
ROOT
HETATM    1  C1  UNL     1     -32.260   8.079   3.094  1.00 20.00     0.131 C 
HETATM    2  C2  UNL     1     -33.276   7.119   3.675  1.00 20.00     0.079 C 
HETATM    3  C3  UNL     1     -34.109   6.510   2.559  1.00 20.00     0.012 C 
HETATM    4  C4  UNL     1     -31.815   6.237   1.441  1.00 20.00     0.017 C 
HETATM    5  C5  UNL     1     -31.645   7.730   1.747  1.00 20.00     0.059 C 
HETATM    6  C6  UNL     1     -33.250   5.693   1.582  1.00 20.00    -0.014 C 
HETATM    7  O12 UNL     1     -31.932   9.100   3.700  1.00 20.00    -0.298 OA
ENDROOT
BRANCH   5   8
HETATM    8  C11 UNL     1     -32.209   8.640   0.662  1.00 20.00    -0.011 C 
HETATM    9  C8  UNL     1     -32.668   9.968   1.259  1.00 20.00     0.010 C 
HETATM   10  C9  UNL     1     -31.172   8.875  -0.435  1.00 20.00     0.010 C 
ENDBRANCH   5   8
BRANCH   6  11
HETATM   11  C10 UNL     1     -33.950   5.553   0.230  1.00 20.00     0.000 C 
HETATM   12  C7  UNL     1     -33.743   4.199  -0.362  1.00 20.00     0.005 C 
ENDBRANCH   6  11
TORSDOF 2
ENDMDL
